MODEL 1
REMARK VINA RESULT:    -4.224      0.000      0.000
REMARK INTER + INTRA:         -15.126
REMARK INTER:                 -11.138
REMARK INTRA:                  -3.988
REMARK UNBOUND:                -3.988
REMARK SMILES CCCCCCCCCCCCCCCCCCCCCCCCCCCCCC(=O)[O-]
REMARK SMILES IDX 16 1 17 2 18 3 19 4 20 5 21 6 22 7 23 8 24 9 25 10 26 11
REMARK SMILES IDX 27 12 28 13 29 14 30 15 31 16 32 17 15 18 14 19 13 20 12 21
REMARK SMILES IDX 11 22 10 23 9 24 8 25 7 26 6 27 5 28 4 29 3 30 2 31 1 32
REMARK H PARENT
REMARK Flexibility Score: inf
ROOT
ATOM      1  C   UNL     1      42.463  46.725   7.001  1.00  0.00     0.000 C 
ENDROOT
BRANCH   1   2
ATOM      2  C   UNL     1      42.512  45.183   7.038  1.00  0.00     0.000 C 
BRANCH   2   3
ATOM      3  C   UNL     1      41.272  44.502   7.638  1.00  0.00     0.000 C 
BRANCH   3   4
ATOM      4  C   UNL     1      41.441  44.159   9.129  1.00  0.00     0.000 C 
BRANCH   4   5
ATOM      5  C   UNL     1      40.857  45.241  10.051  1.00  0.00     0.000 C 
BRANCH   5   6
ATOM      6  C   UNL     1      41.568  45.304  11.414  1.00  0.00     0.000 C 
BRANCH   6   7
ATOM      7  C   UNL     1      42.328  44.009  11.756  1.00  0.00     0.000 C 
BRANCH   7   8
ATOM      8  C   UNL     1      43.806  44.203  12.140  1.00  0.00     0.000 C 
BRANCH   8   9
ATOM      9  C   UNL     1      44.692  43.013  11.745  1.00  0.00     0.000 C 
BRANCH   9  10
ATOM     10  C   UNL     1      45.647  43.390  10.606  1.00  0.00     0.000 C 
BRANCH  10  11
ATOM     11  C   UNL     1      44.981  43.183   9.239  1.00  0.00     0.000 C 
BRANCH  11  12
ATOM     12  C   UNL     1      44.345  41.791   9.138  1.00  0.00     0.000 C 
BRANCH  12  13
ATOM     13  C   UNL     1      44.691  41.126   7.801  1.00  0.00     0.006 C 
BRANCH  13  14
ATOM     14  C   UNL     1      44.147  41.940   6.624  1.00  0.00     0.053 C 
BRANCH  14  15
ATOM     15  C   UNL     1      43.036  41.201   5.947  1.00  0.00     0.041 C 
ATOM     16  O   UNL     1      42.964  39.945   6.033  1.00  0.00    -0.550 OA
ATOM     17  O   UNL     1      42.112  41.891   5.174  1.00  0.00    -0.550 OA
ENDBRANCH  14  15
ENDBRANCH  13  14
ENDBRANCH  12  13
ENDBRANCH  11  12
ENDBRANCH  10  11
ENDBRANCH   9  10
ENDBRANCH   8   9
ENDBRANCH   7   8
ENDBRANCH   6   7
ENDBRANCH   5   6
ENDBRANCH   4   5
ENDBRANCH   3   4
ENDBRANCH   2   3
ENDBRANCH   1   2
BRANCH   1  18
ATOM     18  C   UNL     1      43.218  47.450   8.137  1.00  0.00     0.000 C 
BRANCH  18  19
ATOM     19  C   UNL     1      44.174  46.558   8.961  1.00  0.00     0.000 C 
BRANCH  19  20
ATOM     20  C   UNL     1      44.765  47.251  10.205  1.00  0.00     0.000 C 
BRANCH  20  21
ATOM     21  C   UNL     1      45.149  48.729  10.010  1.00  0.00     0.000 C 
BRANCH  21  22
ATOM     22  C   UNL     1      46.219  49.200  11.009  1.00  0.00     0.000 C 
BRANCH  22  23
ATOM     23  C   UNL     1      47.605  48.601  10.719  1.00  0.00     0.000 C 
BRANCH  23  24
ATOM     24  C   UNL     1      48.033  47.569  11.776  1.00  0.00    -0.000 C 
BRANCH  24  25
ATOM     25  C   UNL     1      49.562  47.407  11.874  1.00  0.00    -0.000 C 
BRANCH  25  26
ATOM     26  C   UNL     1      50.366  48.010  10.705  1.00  0.00    -0.000 C 
BRANCH  26  27
ATOM     27  C   UNL     1      51.600  47.172  10.328  1.00  0.00    -0.000 C 
BRANCH  27  28
ATOM     28  C   UNL     1      51.988  46.153  11.416  1.00  0.00    -0.000 C 
BRANCH  28  29
ATOM     29  C   UNL     1      53.372  46.372  12.062  1.00  0.00    -0.000 C 
BRANCH  29  30
ATOM     30  C   UNL     1      54.376  45.223  11.861  1.00  0.00    -0.000 C 
BRANCH  30  31
ATOM     31  C   UNL     1      54.318  44.619  10.449  1.00  0.00    -0.003 C 
ATOM     32  C   UNL     1      54.224  43.096  10.504  1.00  0.00     0.004 C 
ENDBRANCH  30  31
ENDBRANCH  29  30
ENDBRANCH  28  29
ENDBRANCH  27  28
ENDBRANCH  26  27
ENDBRANCH  25  26
ENDBRANCH  24  25
ENDBRANCH  23  24
ENDBRANCH  22  23
ENDBRANCH  21  22
ENDBRANCH  20  21
ENDBRANCH  19  20
ENDBRANCH  18  19
ENDBRANCH   1  18
TORSDOF 28
ENDMDL
MODEL 2
REMARK VINA RESULT:    -4.167      3.649      9.477
REMARK INTER + INTRA:         -14.975
REMARK INTER:                 -10.938
REMARK INTRA:                  -4.038
REMARK UNBOUND:                -3.988
REMARK SMILES CCCCCCCCCCCCCCCCCCCCCCCCCCCCCC(=O)[O-]
REMARK SMILES IDX 16 1 17 2 18 3 19 4 20 5 21 6 22 7 23 8 24 9 25 10 26 11
REMARK SMILES IDX 27 12 28 13 29 14 30 15 31 16 32 17 15 18 14 19 13 20 12 21
REMARK SMILES IDX 11 22 10 23 9 24 8 25 7 26 6 27 5 28 4 29 3 30 2 31 1 32
REMARK H PARENT
REMARK Flexibility Score: inf
ROOT
ATOM      1  C   UNL     1      45.342  43.647  10.963  1.00  0.00     0.000 C 
ENDROOT
BRANCH   1   2
ATOM      2  C   UNL     1      46.008  45.002  11.283  1.00  0.00     0.000 C 
BRANCH   2   3
ATOM      3  C   UNL     1      46.721  45.077  12.642  1.00  0.00     0.000 C 
BRANCH   3   4
ATOM      4  C   UNL     1      46.597  46.461  13.307  1.00  0.00     0.000 C 
BRANCH   4   5
ATOM      5  C   UNL     1      45.796  47.454  12.450  1.00  0.00     0.000 C 
BRANCH   5   6
ATOM      6  C   UNL     1      46.626  48.683  12.038  1.00  0.00     0.000 C 
BRANCH   6   7
ATOM      7  C   UNL     1      47.540  48.412  10.829  1.00  0.00     0.000 C 
BRANCH   7   8
ATOM      8  C   UNL     1      49.042  48.319  11.157  1.00  0.00     0.000 C 
BRANCH   8   9
ATOM      9  C   UNL     1      49.387  48.845  12.558  1.00  0.00     0.000 C 
BRANCH   9  10
ATOM     10  C   UNL     1      50.048  47.754  13.410  1.00  0.00     0.000 C 
BRANCH  10  11
ATOM     11  C   UNL     1      50.330  46.498  12.574  1.00  0.00     0.000 C 
BRANCH  11  12
ATOM     12  C   UNL     1      51.815  46.118  12.632  1.00  0.00     0.000 C 
BRANCH  12  13
ATOM     13  C   UNL     1      52.429  46.092  11.227  1.00  0.00     0.006 C 
BRANCH  13  14
ATOM     14  C   UNL     1      53.947  45.905  11.293  1.00  0.00     0.053 C 
BRANCH  14  15
ATOM     15  C   UNL     1      54.283  44.502  11.689  1.00  0.00     0.041 C 
ATOM     16  O   UNL     1      54.656  44.247  12.866  1.00  0.00    -0.550 OA
ATOM     17  O   UNL     1      54.241  43.484  10.746  1.00  0.00    -0.550 OA
ENDBRANCH  14  15
ENDBRANCH  13  14
ENDBRANCH  12  13
ENDBRANCH  11  12
ENDBRANCH  10  11
ENDBRANCH   9  10
ENDBRANCH   8   9
ENDBRANCH   7   8
ENDBRANCH   6   7
ENDBRANCH   5   6
ENDBRANCH   4   5
ENDBRANCH   3   4
ENDBRANCH   2   3
ENDBRANCH   1   2
BRANCH   1  18
ATOM     18  C   UNL     1      45.998  42.405  11.604  1.00  0.00     0.000 C 
BRANCH  18  19
ATOM     19  C   UNL     1      45.631  41.057  10.944  1.00  0.00     0.000 C 
BRANCH  19  20
ATOM     20  C   UNL     1      44.459  41.144   9.946  1.00  0.00     0.000 C 
BRANCH  20  21
ATOM     21  C   UNL     1      44.853  41.047   8.462  1.00  0.00     0.000 C 
BRANCH  21  22
ATOM     22  C   UNL     1      44.579  42.348   7.689  1.00  0.00     0.000 C 
BRANCH  22  23
ATOM     23  C   UNL     1      44.198  42.096   6.221  1.00  0.00     0.000 C 
BRANCH  23  24
ATOM     24  C   UNL     1      43.071  41.060   6.075  1.00  0.00    -0.000 C 
BRANCH  24  25
ATOM     25  C   UNL     1      41.729  41.685   5.649  1.00  0.00    -0.000 C 
BRANCH  25  26
ATOM     26  C   UNL     1      40.760  42.018   6.800  1.00  0.00    -0.000 C 
BRANCH  26  27
ATOM     27  C   UNL     1      40.820  43.495   7.230  1.00  0.00    -0.000 C 
BRANCH  27  28
ATOM     28  C   UNL     1      41.390  44.415   6.134  1.00  0.00    -0.000 C 
BRANCH  28  29
ATOM     29  C   UNL     1      42.445  45.434   6.610  1.00  0.00    -0.000 C 
BRANCH  29  30
ATOM     30  C   UNL     1      42.705  45.446   8.127  1.00  0.00    -0.000 C 
BRANCH  30  31
ATOM     31  C   UNL     1      44.020  46.148   8.502  1.00  0.00    -0.003 C 
ATOM     32  C   UNL     1      43.762  47.557   9.032  1.00  0.00     0.004 C 
ENDBRANCH  30  31
ENDBRANCH  29  30
ENDBRANCH  28  29
ENDBRANCH  27  28
ENDBRANCH  26  27
ENDBRANCH  25  26
ENDBRANCH  24  25
ENDBRANCH  23  24
ENDBRANCH  22  23
ENDBRANCH  21  22
ENDBRANCH  20  21
ENDBRANCH  19  20
ENDBRANCH  18  19
ENDBRANCH   1  18
TORSDOF 28
ENDMDL
MODEL 3
REMARK VINA RESULT:    -4.069      3.911      9.595
REMARK INTER + INTRA:         -14.717
REMARK INTER:                 -10.643
REMARK INTRA:                  -4.074
REMARK UNBOUND:                -3.988
REMARK SMILES CCCCCCCCCCCCCCCCCCCCCCCCCCCCCC(=O)[O-]
REMARK SMILES IDX 16 1 17 2 18 3 19 4 20 5 21 6 22 7 23 8 24 9 25 10 26 11
REMARK SMILES IDX 27 12 28 13 29 14 30 15 31 16 32 17 15 18 14 19 13 20 12 21
REMARK SMILES IDX 11 22 10 23 9 24 8 25 7 26 6 27 5 28 4 29 3 30 2 31 1 32
REMARK H PARENT
REMARK Flexibility Score: inf
ROOT
ATOM      1  C   UNL     1      45.193  45.495  12.269  1.00  0.00     0.000 C 
ENDROOT
BRANCH   1   2
ATOM      2  C   UNL     1      46.301  45.601  13.337  1.00  0.00     0.000 C 
BRANCH   2   3
ATOM      3  C   UNL     1      47.710  45.892  12.794  1.00  0.00     0.000 C 
BRANCH   3   4
ATOM      4  C   UNL     1      48.104  47.375  12.919  1.00  0.00     0.000 C 
BRANCH   4   5
ATOM      5  C   UNL     1      48.642  47.952  11.600  1.00  0.00     0.000 C 
BRANCH   5   6
ATOM      6  C   UNL     1      49.058  49.429  11.728  1.00  0.00     0.000 C 
BRANCH   6   7
ATOM      7  C   UNL     1      50.526  49.676  11.338  1.00  0.00     0.000 C 
BRANCH   7   8
ATOM      8  C   UNL     1      51.385  50.347  12.426  1.00  0.00     0.000 C 
BRANCH   8   9
ATOM      9  C   UNL     1      51.624  49.445  13.646  1.00  0.00     0.000 C 
BRANCH   9  10
ATOM     10  C   UNL     1      52.643  48.344  13.328  1.00  0.00     0.000 C 
BRANCH  10  11
ATOM     11  C   UNL     1      52.170  46.985  13.862  1.00  0.00     0.000 C 
BRANCH  11  12
ATOM     12  C   UNL     1      51.604  46.115  12.733  1.00  0.00     0.000 C 
BRANCH  12  13
ATOM     13  C   UNL     1      52.184  46.531  11.377  1.00  0.00     0.006 C 
BRANCH  13  14
ATOM     14  C   UNL     1      52.799  45.332  10.649  1.00  0.00     0.053 C 
BRANCH  14  15
ATOM     15  C   UNL     1      54.211  45.120  11.094  1.00  0.00     0.041 C 
ATOM     16  O   UNL     1      54.990  46.104  11.224  1.00  0.00    -0.550 OA
ATOM     17  O   UNL     1      54.687  43.834  11.308  1.00  0.00    -0.550 OA
ENDBRANCH  14  15
ENDBRANCH  13  14
ENDBRANCH  12  13
ENDBRANCH  11  12
ENDBRANCH  10  11
ENDBRANCH   9  10
ENDBRANCH   8   9
ENDBRANCH   7   8
ENDBRANCH   6   7
ENDBRANCH   5   6
ENDBRANCH   4   5
ENDBRANCH   3   4
ENDBRANCH   2   3
ENDBRANCH   1   2
BRANCH   1  18
ATOM     18  C   UNL     1      45.675  45.348  10.809  1.00  0.00     0.000 C 
BRANCH  18  19
ATOM     19  C   UNL     1      45.650  46.650   9.977  1.00  0.00     0.000 C 
BRANCH  19  20
ATOM     20  C   UNL     1      44.522  47.625  10.370  1.00  0.00     0.000 C 
BRANCH  20  21
ATOM     21  C   UNL     1      43.689  48.170   9.196  1.00  0.00     0.000 C 
BRANCH  21  22
ATOM     22  C   UNL     1      43.098  47.054   8.319  1.00  0.00     0.000 C 
BRANCH  22  23
ATOM     23  C   UNL     1      42.213  46.081   9.115  1.00  0.00     0.000 C 
BRANCH  23  24
ATOM     24  C   UNL     1      42.462  44.612   8.733  1.00  0.00    -0.000 C 
BRANCH  24  25
ATOM     25  C   UNL     1      43.668  44.431   7.792  1.00  0.00    -0.000 C 
BRANCH  25  26
ATOM     26  C   UNL     1      44.393  43.075   7.901  1.00  0.00    -0.000 C 
BRANCH  26  27
ATOM     27  C   UNL     1      44.330  42.252   6.602  1.00  0.00    -0.000 C 
BRANCH  27  28
ATOM     28  C   UNL     1      42.938  42.281   5.942  1.00  0.00    -0.000 C 
BRANCH  28  29
ATOM     29  C   UNL     1      41.882  41.360   6.587  1.00  0.00    -0.000 C 
BRANCH  29  30
ATOM     30  C   UNL     1      42.436  40.070   7.216  1.00  0.00    -0.000 C 
BRANCH  30  31
ATOM     31  C   UNL     1      42.551  38.915   6.209  1.00  0.00    -0.003 C 
ATOM     32  C   UNL     1      41.380  38.918   5.230  1.00  0.00     0.004 C 
ENDBRANCH  30  31
ENDBRANCH  29  30
ENDBRANCH  28  29
ENDBRANCH  27  28
ENDBRANCH  26  27
ENDBRANCH  25  26
ENDBRANCH  24  25
ENDBRANCH  23  24
ENDBRANCH  22  23
ENDBRANCH  21  22
ENDBRANCH  20  21
ENDBRANCH  19  20
ENDBRANCH  18  19
ENDBRANCH   1  18
TORSDOF 28
ENDMDL
MODEL 4
REMARK VINA RESULT:    -4.062      9.707     13.615
REMARK INTER + INTRA:         -14.699
REMARK INTER:                 -12.079
REMARK INTRA:                  -2.620
REMARK UNBOUND:                -3.988
REMARK SMILES CCCCCCCCCCCCCCCCCCCCCCCCCCCCCC(=O)[O-]
REMARK SMILES IDX 16 1 17 2 18 3 19 4 20 5 21 6 22 7 23 8 24 9 25 10 26 11
REMARK SMILES IDX 27 12 28 13 29 14 30 15 31 16 32 17 15 18 14 19 13 20 12 21
REMARK SMILES IDX 11 22 10 23 9 24 8 25 7 26 6 27 5 28 4 29 3 30 2 31 1 32
REMARK H PARENT
REMARK Flexibility Score: inf
ROOT
ATOM      1  C   UNL     1      49.368  33.737   6.882  1.00  0.00     0.000 C 
ENDROOT
BRANCH   1   2
ATOM      2  C   UNL     1      50.122  34.724   7.799  1.00  0.00     0.000 C 
BRANCH   2   3
ATOM      3  C   UNL     1      49.490  34.948   9.182  1.00  0.00     0.000 C 
BRANCH   3   4
ATOM      4  C   UNL     1      49.310  33.640   9.975  1.00  0.00     0.000 C 
BRANCH   4   5
ATOM      5  C   UNL     1      47.831  33.301  10.220  1.00  0.00     0.000 C 
BRANCH   5   6
ATOM      6  C   UNL     1      46.878  34.372   9.659  1.00  0.00     0.000 C 
BRANCH   6   7
ATOM      7  C   UNL     1      46.114  35.132  10.758  1.00  0.00     0.000 C 
BRANCH   7   8
ATOM      8  C   UNL     1      46.801  36.417  11.259  1.00  0.00     0.000 C 
BRANCH   8   9
ATOM      9  C   UNL     1      46.008  37.690  10.931  1.00  0.00     0.000 C 
BRANCH   9  10
ATOM     10  C   UNL     1      44.827  37.382  10.003  1.00  0.00     0.000 C 
BRANCH  10  11
ATOM     11  C   UNL     1      44.468  38.603   9.145  1.00  0.00     0.000 C 
BRANCH  11  12
ATOM     12  C   UNL     1      45.335  39.813   9.515  1.00  0.00     0.000 C 
BRANCH  12  13
ATOM     13  C   UNL     1      44.967  41.032   8.663  1.00  0.00     0.006 C 
BRANCH  13  14
ATOM     14  C   UNL     1      43.560  40.890   8.077  1.00  0.00     0.053 C 
BRANCH  14  15
ATOM     15  C   UNL     1      43.574  41.180   6.609  1.00  0.00     0.041 C 
ATOM     16  O   UNL     1      43.067  40.361   5.796  1.00  0.00    -0.550 OA
ATOM     17  O   UNL     1      44.198  42.324   6.132  1.00  0.00    -0.550 OA
ENDBRANCH  14  15
ENDBRANCH  13  14
ENDBRANCH  12  13
ENDBRANCH  11  12
ENDBRANCH  10  11
ENDBRANCH   9  10
ENDBRANCH   8   9
ENDBRANCH   7   8
ENDBRANCH   6   7
ENDBRANCH   5   6
ENDBRANCH   4   5
ENDBRANCH   3   4
ENDBRANCH   2   3
ENDBRANCH   1   2
BRANCH   1  18
ATOM     18  C   UNL     1      50.007  32.340   6.727  1.00  0.00     0.000 C 
BRANCH  18  19
ATOM     19  C   UNL     1      50.861  32.149   5.453  1.00  0.00     0.000 C 
BRANCH  19  20
ATOM     20  C   UNL     1      50.710  33.283   4.419  1.00  0.00     0.000 C 
BRANCH  20  21
ATOM     21  C   UNL     1      51.297  32.983   3.028  1.00  0.00     0.000 C 
BRANCH  21  22
ATOM     22  C   UNL     1      50.922  34.048   1.984  1.00  0.00     0.000 C 
BRANCH  22  23
ATOM     23  C   UNL     1      49.777  33.597   1.063  1.00  0.00     0.000 C 
BRANCH  23  24
ATOM     24  C   UNL     1      50.258  32.667  -0.063  1.00  0.00    -0.000 C 
BRANCH  24  25
ATOM     25  C   UNL     1      49.863  33.166  -1.466  1.00  0.00    -0.000 C 
BRANCH  25  26
ATOM     26  C   UNL     1      50.986  33.126  -2.521  1.00  0.00    -0.000 C 
BRANCH  26  27
ATOM     27  C   UNL     1      51.682  34.486  -2.711  1.00  0.00    -0.000 C 
BRANCH  27  28
ATOM     28  C   UNL     1      53.197  34.426  -2.438  1.00  0.00    -0.000 C 
BRANCH  28  29
ATOM     29  C   UNL     1      53.609  33.673  -1.156  1.00  0.00    -0.000 C 
BRANCH  29  30
ATOM     30  C   UNL     1      53.840  34.562   0.078  1.00  0.00    -0.000 C 
BRANCH  30  31
ATOM     31  C   UNL     1      54.646  33.856   1.180  1.00  0.00    -0.003 C 
ATOM     32  C   UNL     1      54.921  32.400   0.816  1.00  0.00     0.004 C 
ENDBRANCH  30  31
ENDBRANCH  29  30
ENDBRANCH  28  29
ENDBRANCH  27  28
ENDBRANCH  26  27
ENDBRANCH  25  26
ENDBRANCH  24  25
ENDBRANCH  23  24
ENDBRANCH  22  23
ENDBRANCH  21  22
ENDBRANCH  20  21
ENDBRANCH  19  20
ENDBRANCH  18  19
ENDBRANCH   1  18
TORSDOF 28
ENDMDL
MODEL 5
REMARK VINA RESULT:    -4.059      3.884      8.734
REMARK INTER + INTRA:         -14.692
REMARK INTER:                 -10.465
REMARK INTRA:                  -4.227
REMARK UNBOUND:                -3.988
REMARK SMILES CCCCCCCCCCCCCCCCCCCCCCCCCCCCCC(=O)[O-]
REMARK SMILES IDX 16 1 17 2 18 3 19 4 20 5 21 6 22 7 23 8 24 9 25 10 26 11
REMARK SMILES IDX 27 12 28 13 29 14 30 15 31 16 32 17 15 18 14 19 13 20 12 21
REMARK SMILES IDX 11 22 10 23 9 24 8 25 7 26 6 27 5 28 4 29 3 30 2 31 1 32
REMARK H PARENT
REMARK Flexibility Score: inf
ROOT
ATOM      1  C   UNL     1      42.836  44.047   7.862  1.00  0.00     0.000 C 
ENDROOT
BRANCH   1   2
ATOM      2  C   UNL     1      43.596  45.359   8.150  1.00  0.00     0.000 C 
BRANCH   2   3
ATOM      3  C   UNL     1      44.951  45.190   8.857  1.00  0.00     0.000 C 
BRANCH   3   4
ATOM      4  C   UNL     1      45.144  46.178  10.022  1.00  0.00     0.000 C 
BRANCH   4   5
ATOM      5  C   UNL     1      46.025  45.601  11.141  1.00  0.00     0.000 C 
BRANCH   5   6
ATOM      6  C   UNL     1      46.857  46.681  11.855  1.00  0.00     0.000 C 
BRANCH   6   7
ATOM      7  C   UNL     1      46.589  48.099  11.318  1.00  0.00     0.000 C 
BRANCH   7   8
ATOM      8  C   UNL     1      47.796  48.781  10.648  1.00  0.00     0.000 C 
BRANCH   8   9
ATOM      9  C   UNL     1      49.137  48.131  11.017  1.00  0.00     0.000 C 
BRANCH   9  10
ATOM     10  C   UNL     1      49.792  48.852  12.201  1.00  0.00     0.000 C 
BRANCH  10  11
ATOM     11  C   UNL     1      50.823  47.950  12.893  1.00  0.00     0.000 C 
BRANCH  11  12
ATOM     12  C   UNL     1      50.774  46.523  12.330  1.00  0.00     0.000 C 
BRANCH  12  13
ATOM     13  C   UNL     1      52.186  45.943  12.184  1.00  0.00     0.006 C 
BRANCH  13  14
ATOM     14  C   UNL     1      52.430  45.442  10.758  1.00  0.00     0.053 C 
BRANCH  14  15
ATOM     15  C   UNL     1      53.794  44.838  10.644  1.00  0.00     0.041 C 
ATOM     16  O   UNL     1      53.928  43.590  10.527  1.00  0.00    -0.550 OA
ATOM     17  O   UNL     1      54.921  45.645  10.725  1.00  0.00    -0.550 OA
ENDBRANCH  14  15
ENDBRANCH  13  14
ENDBRANCH  12  13
ENDBRANCH  11  12
ENDBRANCH  10  11
ENDBRANCH   9  10
ENDBRANCH   8   9
ENDBRANCH   7   8
ENDBRANCH   6   7
ENDBRANCH   5   6
ENDBRANCH   4   5
ENDBRANCH   3   4
ENDBRANCH   2   3
ENDBRANCH   1   2
BRANCH   1  18
ATOM     18  C   UNL     1      43.181  43.346   6.530  1.00  0.00     0.000 C 
BRANCH  18  19
ATOM     19  C   UNL     1      44.381  42.374   6.594  1.00  0.00     0.000 C 
BRANCH  19  20
ATOM     20  C   UNL     1      44.122  41.110   7.437  1.00  0.00     0.000 C 
BRANCH  20  21
ATOM     21  C   UNL     1      43.258  40.034   6.756  1.00  0.00     0.000 C 
BRANCH  21  22
ATOM     22  C   UNL     1      42.360  39.277   7.749  1.00  0.00     0.000 C 
BRANCH  22  23
ATOM     23  C   UNL     1      41.494  40.219   8.600  1.00  0.00     0.000 C 
BRANCH  23  24
ATOM     24  C   UNL     1      41.744  40.046  10.108  1.00  0.00    -0.000 C 
BRANCH  24  25
ATOM     25  C   UNL     1      41.852  41.388  10.858  1.00  0.00    -0.000 C 
BRANCH  25  26
ATOM     26  C   UNL     1      43.136  41.579  11.688  1.00  0.00    -0.000 C 
BRANCH  26  27
ATOM     27  C   UNL     1      44.141  42.541  11.031  1.00  0.00    -0.000 C 
BRANCH  27  28
ATOM     28  C   UNL     1      45.474  41.860  10.669  1.00  0.00    -0.000 C 
BRANCH  28  29
ATOM     29  C   UNL     1      45.687  40.459  11.278  1.00  0.00    -0.000 C 
BRANCH  29  30
ATOM     30  C   UNL     1      45.663  39.296  10.270  1.00  0.00    -0.000 C 
BRANCH  30  31
ATOM     31  C   UNL     1      44.864  38.085  10.773  1.00  0.00    -0.003 C 
ATOM     32  C   UNL     1      44.546  37.121   9.633  1.00  0.00     0.004 C 
ENDBRANCH  30  31
ENDBRANCH  29  30
ENDBRANCH  28  29
ENDBRANCH  27  28
ENDBRANCH  26  27
ENDBRANCH  25  26
ENDBRANCH  24  25
ENDBRANCH  23  24
ENDBRANCH  22  23
ENDBRANCH  21  22
ENDBRANCH  20  21
ENDBRANCH  19  20
ENDBRANCH  18  19
ENDBRANCH   1  18
TORSDOF 28
ENDMDL
MODEL 6
REMARK VINA RESULT:    -4.012      1.643      3.611
REMARK INTER + INTRA:         -14.567
REMARK INTER:                 -10.152
REMARK INTRA:                  -4.415
REMARK UNBOUND:                -3.988
REMARK SMILES CCCCCCCCCCCCCCCCCCCCCCCCCCCCCC(=O)[O-]
REMARK SMILES IDX 16 1 17 2 18 3 19 4 20 5 21 6 22 7 23 8 24 9 25 10 26 11
REMARK SMILES IDX 27 12 28 13 29 14 30 15 31 16 32 17 15 18 14 19 13 20 12 21
REMARK SMILES IDX 11 22 10 23 9 24 8 25 7 26 6 27 5 28 4 29 3 30 2 31 1 32
REMARK H PARENT
REMARK Flexibility Score: inf
ROOT
ATOM      1  C   UNL     1      44.884  43.726  10.793  1.00  0.00     0.000 C 
ENDROOT
BRANCH   1   2
ATOM      2  C   UNL     1      45.229  43.984   9.311  1.00  0.00     0.000 C 
BRANCH   2   3
ATOM      3  C   UNL     1      44.239  44.883   8.554  1.00  0.00     0.000 C 
BRANCH   3   4
ATOM      4  C   UNL     1      43.012  45.266   9.401  1.00  0.00     0.000 C 
BRANCH   4   5
ATOM      5  C   UNL     1      42.514  46.690   9.104  1.00  0.00     0.000 C 
BRANCH   5   6
ATOM      6  C   UNL     1      42.717  47.092   7.633  1.00  0.00     0.000 C 
BRANCH   6   7
ATOM      7  C   UNL     1      41.424  47.004   6.802  1.00  0.00     0.000 C 
BRANCH   7   8
ATOM      8  C   UNL     1      41.461  45.988   5.645  1.00  0.00     0.000 C 
BRANCH   8   9
ATOM      9  C   UNL     1      41.359  44.532   6.119  1.00  0.00     0.000 C 
BRANCH   9  10
ATOM     10  C   UNL     1      42.531  43.696   5.592  1.00  0.00     0.000 C 
BRANCH  10  11
ATOM     11  C   UNL     1      42.413  42.234   6.046  1.00  0.00     0.000 C 
BRANCH  11  12
ATOM     12  C   UNL     1      41.809  42.140   7.453  1.00  0.00     0.000 C 
BRANCH  12  13
ATOM     13  C   UNL     1      42.785  41.465   8.425  1.00  0.00     0.006 C 
BRANCH  13  14
ATOM     14  C   UNL     1      43.943  40.806   7.672  1.00  0.00     0.053 C 
BRANCH  14  15
ATOM     15  C   UNL     1      43.894  39.320   7.837  1.00  0.00     0.041 C 
ATOM     16  O   UNL     1      43.156  38.622   7.090  1.00  0.00    -0.550 OA
ATOM     17  O   UNL     1      44.618  38.708   8.851  1.00  0.00    -0.550 OA
ENDBRANCH  14  15
ENDBRANCH  13  14
ENDBRANCH  12  13
ENDBRANCH  11  12
ENDBRANCH  10  11
ENDBRANCH   9  10
ENDBRANCH   8   9
ENDBRANCH   7   8
ENDBRANCH   6   7
ENDBRANCH   5   6
ENDBRANCH   4   5
ENDBRANCH   3   4
ENDBRANCH   2   3
ENDBRANCH   1   2
BRANCH   1  18
ATOM     18  C   UNL     1      46.036  43.934  11.800  1.00  0.00     0.000 C 
BRANCH  18  19
ATOM     19  C   UNL     1      46.424  45.408  12.055  1.00  0.00     0.000 C 
BRANCH  19  20
ATOM     20  C   UNL     1      45.242  46.306  12.474  1.00  0.00     0.000 C 
BRANCH  20  21
ATOM     21  C   UNL     1      45.048  47.573  11.622  1.00  0.00     0.000 C 
BRANCH  21  22
ATOM     22  C   UNL     1      45.943  47.591  10.371  1.00  0.00     0.000 C 
BRANCH  22  23
ATOM     23  C   UNL     1      46.753  48.890  10.241  1.00  0.00     0.000 C 
BRANCH  23  24
ATOM     24  C   UNL     1      47.617  49.173  11.482  1.00  0.00    -0.000 C 
BRANCH  24  25
ATOM     25  C   UNL     1      48.953  48.407  11.472  1.00  0.00    -0.000 C 
BRANCH  25  26
ATOM     26  C   UNL     1      49.963  48.829  12.558  1.00  0.00    -0.000 C 
BRANCH  26  27
ATOM     27  C   UNL     1      51.290  48.053  12.479  1.00  0.00    -0.000 C 
BRANCH  27  28
ATOM     28  C   UNL     1      51.117  46.623  11.934  1.00  0.00    -0.000 C 
BRANCH  28  29
ATOM     29  C   UNL     1      51.941  46.293  10.672  1.00  0.00    -0.000 C 
BRANCH  29  30
ATOM     30  C   UNL     1      53.133  45.347  10.899  1.00  0.00    -0.000 C 
BRANCH  30  31
ATOM     31  C   UNL     1      53.717  45.451  12.316  1.00  0.00    -0.003 C 
ATOM     32  C   UNL     1      54.561  44.225  12.658  1.00  0.00     0.004 C 
ENDBRANCH  30  31
ENDBRANCH  29  30
ENDBRANCH  28  29
ENDBRANCH  27  28
ENDBRANCH  26  27
ENDBRANCH  25  26
ENDBRANCH  24  25
ENDBRANCH  23  24
ENDBRANCH  22  23
ENDBRANCH  21  22
ENDBRANCH  20  21
ENDBRANCH  19  20
ENDBRANCH  18  19
ENDBRANCH   1  18
TORSDOF 28
ENDMDL
MODEL 7
REMARK VINA RESULT:    -3.990      3.738      8.770
REMARK INTER + INTRA:         -14.508
REMARK INTER:                  -9.999
REMARK INTRA:                  -4.509
REMARK UNBOUND:                -3.988
REMARK SMILES CCCCCCCCCCCCCCCCCCCCCCCCCCCCCC(=O)[O-]
REMARK SMILES IDX 16 1 17 2 18 3 19 4 20 5 21 6 22 7 23 8 24 9 25 10 26 11
REMARK SMILES IDX 27 12 28 13 29 14 30 15 31 16 32 17 15 18 14 19 13 20 12 21
REMARK SMILES IDX 11 22 10 23 9 24 8 25 7 26 6 27 5 28 4 29 3 30 2 31 1 32
REMARK H PARENT
REMARK Flexibility Score: inf
ROOT
ATOM      1  C   UNL     1      44.124  43.174  12.173  1.00  0.00     0.000 C 
ENDROOT
BRANCH   1   2
ATOM      2  C   UNL     1      45.590  43.015  12.628  1.00  0.00     0.000 C 
BRANCH   2   3
ATOM      3  C   UNL     1      46.099  44.099  13.591  1.00  0.00     0.000 C 
BRANCH   3   4
ATOM      4  C   UNL     1      46.660  45.333  12.860  1.00  0.00     0.000 C 
BRANCH   4   5
ATOM      5  C   UNL     1      45.726  46.549  12.958  1.00  0.00     0.000 C 
BRANCH   5   6
ATOM      6  C   UNL     1      46.265  47.772  12.195  1.00  0.00     0.000 C 
BRANCH   6   7
ATOM      7  C   UNL     1      47.614  47.503  11.505  1.00  0.00     0.000 C 
BRANCH   7   8
ATOM      8  C   UNL     1      48.193  48.695  10.719  1.00  0.00     0.000 C 
BRANCH   8   9
ATOM      9  C   UNL     1      49.600  49.097  11.186  1.00  0.00     0.000 C 
BRANCH   9  10
ATOM     10  C   UNL     1      49.648  49.271  12.708  1.00  0.00     0.000 C 
BRANCH  10  11
ATOM     11  C   UNL     1      50.901  48.609  13.299  1.00  0.00     0.000 C 
BRANCH  11  12
ATOM     12  C   UNL     1      50.633  47.142  13.659  1.00  0.00     0.000 C 
BRANCH  12  13
ATOM     13  C   UNL     1      51.411  46.199  12.734  1.00  0.00     0.006 C 
BRANCH  13  14
ATOM     14  C   UNL     1      52.920  46.336  12.952  1.00  0.00     0.053 C 
BRANCH  14  15
ATOM     15  C   UNL     1      53.667  45.871  11.742  1.00  0.00     0.041 C 
ATOM     16  O   UNL     1      53.137  45.048  10.947  1.00  0.00    -0.550 OA
ATOM     17  O   UNL     1      54.968  46.301  11.520  1.00  0.00    -0.550 OA
ENDBRANCH  14  15
ENDBRANCH  13  14
ENDBRANCH  12  13
ENDBRANCH  11  12
ENDBRANCH  10  11
ENDBRANCH   9  10
ENDBRANCH   8   9
ENDBRANCH   7   8
ENDBRANCH   6   7
ENDBRANCH   5   6
ENDBRANCH   4   5
ENDBRANCH   3   4
ENDBRANCH   2   3
ENDBRANCH   1   2
BRANCH   1  18
ATOM     18  C   UNL     1      43.918  43.639  10.715  1.00  0.00     0.000 C 
BRANCH  18  19
ATOM     19  C   UNL     1      45.217  43.957   9.939  1.00  0.00     0.000 C 
BRANCH  19  20
ATOM     20  C   UNL     1      45.106  45.174   9.000  1.00  0.00     0.000 C 
BRANCH  20  21
ATOM     21  C   UNL     1      44.164  46.291   9.483  1.00  0.00     0.000 C 
BRANCH  21  22
ATOM     22  C   UNL     1      43.405  46.968   8.330  1.00  0.00     0.000 C 
BRANCH  22  23
ATOM     23  C   UNL     1      42.158  46.179   7.898  1.00  0.00     0.000 C 
BRANCH  23  24
ATOM     24  C   UNL     1      42.297  45.586   6.486  1.00  0.00    -0.000 C 
BRANCH  24  25
ATOM     25  C   UNL     1      41.402  44.352   6.261  1.00  0.00    -0.000 C 
BRANCH  25  26
ATOM     26  C   UNL     1      42.128  42.994   6.301  1.00  0.00    -0.000 C 
BRANCH  26  27
ATOM     27  C   UNL     1      43.639  43.126   6.564  1.00  0.00    -0.000 C 
BRANCH  27  28
ATOM     28  C   UNL     1      44.305  41.783   6.917  1.00  0.00    -0.000 C 
BRANCH  28  29
ATOM     29  C   UNL     1      43.375  40.732   7.559  1.00  0.00    -0.000 C 
BRANCH  29  30
ATOM     30  C   UNL     1      43.826  40.214   8.936  1.00  0.00    -0.000 C 
BRANCH  30  31
ATOM     31  C   UNL     1      45.330  40.410   9.185  1.00  0.00    -0.003 C 
ATOM     32  C   UNL     1      45.718  39.969  10.593  1.00  0.00     0.004 C 
ENDBRANCH  30  31
ENDBRANCH  29  30
ENDBRANCH  28  29
ENDBRANCH  27  28
ENDBRANCH  26  27
ENDBRANCH  25  26
ENDBRANCH  24  25
ENDBRANCH  23  24
ENDBRANCH  22  23
ENDBRANCH  21  22
ENDBRANCH  20  21
ENDBRANCH  19  20
ENDBRANCH  18  19
ENDBRANCH   1  18
TORSDOF 28
ENDMDL
MODEL 8
REMARK VINA RESULT:    -3.982      3.547      9.523
REMARK INTER + INTRA:         -14.488
REMARK INTER:                 -10.813
REMARK INTRA:                  -3.675
REMARK UNBOUND:                -3.988
REMARK SMILES CCCCCCCCCCCCCCCCCCCCCCCCCCCCCC(=O)[O-]
REMARK SMILES IDX 16 1 17 2 18 3 19 4 20 5 21 6 22 7 23 8 24 9 25 10 26 11
REMARK SMILES IDX 27 12 28 13 29 14 30 15 31 16 32 17 15 18 14 19 13 20 12 21
REMARK SMILES IDX 11 22 10 23 9 24 8 25 7 26 6 27 5 28 4 29 3 30 2 31 1 32
REMARK H PARENT
REMARK Flexibility Score: inf
ROOT
ATOM      1  C   UNL     1      43.137  45.953   9.866  1.00  0.00     0.000 C 
ENDROOT
BRANCH   1   2
ATOM      2  C   UNL     1      43.658  47.153  10.686  1.00  0.00     0.000 C 
BRANCH   2   3
ATOM      3  C   UNL     1      44.520  48.157   9.905  1.00  0.00     0.000 C 
BRANCH   3   4
ATOM      4  C   UNL     1      45.991  48.163  10.360  1.00  0.00     0.000 C 
BRANCH   4   5
ATOM      5  C   UNL     1      46.325  46.979  11.280  1.00  0.00     0.000 C 
BRANCH   5   6
ATOM      6  C   UNL     1      47.745  47.069  11.867  1.00  0.00     0.000 C 
BRANCH   6   7
ATOM      7  C   UNL     1      48.159  48.509  12.220  1.00  0.00     0.000 C 
BRANCH   7   8
ATOM      8  C   UNL     1      49.413  49.025  11.489  1.00  0.00     0.000 C 
BRANCH   8   9
ATOM      9  C   UNL     1      50.208  47.908  10.796  1.00  0.00     0.000 C 
BRANCH   9  10
ATOM     10  C   UNL     1      51.636  47.824  11.347  1.00  0.00     0.000 C 
BRANCH  10  11
ATOM     11  C   UNL     1      51.637  47.333  12.801  1.00  0.00     0.000 C 
BRANCH  11  12
ATOM     12  C   UNL     1      52.310  45.960  12.921  1.00  0.00     0.000 C 
BRANCH  12  13
ATOM     13  C   UNL     1      53.754  46.011  12.409  1.00  0.00     0.006 C 
BRANCH  13  14
ATOM     14  C   UNL     1      54.340  44.603  12.269  1.00  0.00     0.053 C 
BRANCH  14  15
ATOM     15  C   UNL     1      54.275  44.150  10.845  1.00  0.00     0.041 C 
ATOM     16  O   UNL     1      54.206  44.995   9.913  1.00  0.00    -0.550 OA
ATOM     17  O   UNL     1      54.233  42.795  10.548  1.00  0.00    -0.550 OA
ENDBRANCH  14  15
ENDBRANCH  13  14
ENDBRANCH  12  13
ENDBRANCH  11  12
ENDBRANCH  10  11
ENDBRANCH   9  10
ENDBRANCH   8   9
ENDBRANCH   7   8
ENDBRANCH   6   7
ENDBRANCH   5   6
ENDBRANCH   4   5
ENDBRANCH   3   4
ENDBRANCH   2   3
ENDBRANCH   1   2
BRANCH   1  18
ATOM     18  C   UNL     1      43.813  45.730   8.496  1.00  0.00     0.000 C 
BRANCH  18  19
ATOM     19  C   UNL     1      44.901  44.632   8.475  1.00  0.00     0.000 C 
BRANCH  19  20
ATOM     20  C   UNL     1      44.805  43.629   9.642  1.00  0.00     0.000 C 
BRANCH  20  21
ATOM     21  C   UNL     1      45.021  42.155   9.257  1.00  0.00     0.000 C 
BRANCH  21  22
ATOM     22  C   UNL     1      44.973  41.212  10.471  1.00  0.00     0.000 C 
BRANCH  22  23
ATOM     23  C   UNL     1      45.693  39.878  10.215  1.00  0.00     0.000 C 
BRANCH  23  24
ATOM     24  C   UNL     1      44.750  38.798   9.655  1.00  0.00    -0.000 C 
BRANCH  24  25
ATOM     25  C   UNL     1      43.261  39.151   9.829  1.00  0.00    -0.000 C 
BRANCH  25  26
ATOM     26  C   UNL     1      42.456  39.279   8.521  1.00  0.00    -0.000 C 
BRANCH  26  27
ATOM     27  C   UNL     1      43.331  39.157   7.261  1.00  0.00    -0.000 C 
BRANCH  27  28
ATOM     28  C   UNL     1      42.834  40.038   6.099  1.00  0.00    -0.000 C 
BRANCH  28  29
ATOM     29  C   UNL     1      43.188  41.536   6.208  1.00  0.00    -0.000 C 
BRANCH  29  30
ATOM     30  C   UNL     1      41.983  42.485   6.336  1.00  0.00    -0.000 C 
BRANCH  30  31
ATOM     31  C   UNL     1      41.678  42.871   7.791  1.00  0.00    -0.003 C 
ATOM     32  C   UNL     1      40.534  43.878   7.867  1.00  0.00     0.004 C 
ENDBRANCH  30  31
ENDBRANCH  29  30
ENDBRANCH  28  29
ENDBRANCH  27  28
ENDBRANCH  26  27
ENDBRANCH  25  26
ENDBRANCH  24  25
ENDBRANCH  23  24
ENDBRANCH  22  23
ENDBRANCH  21  22
ENDBRANCH  20  21
ENDBRANCH  19  20
ENDBRANCH  18  19
ENDBRANCH   1  18
TORSDOF 28
ENDMDL
MODEL 9
REMARK VINA RESULT:    -3.969      5.397      9.540
REMARK INTER + INTRA:         -14.455
REMARK INTER:                  -8.720
REMARK INTRA:                  -5.735
REMARK UNBOUND:                -3.988
REMARK SMILES CCCCCCCCCCCCCCCCCCCCCCCCCCCCCC(=O)[O-]
REMARK SMILES IDX 16 1 17 2 18 3 19 4 20 5 21 6 22 7 23 8 24 9 25 10 26 11
REMARK SMILES IDX 27 12 28 13 29 14 30 15 31 16 32 17 15 18 14 19 13 20 12 21
REMARK SMILES IDX 11 22 10 23 9 24 8 25 7 26 6 27 5 28 4 29 3 30 2 31 1 32
REMARK H PARENT
REMARK Flexibility Score: inf
ROOT
ATOM      1  C   UNL     1      43.024  40.300   9.800  1.00  0.00     0.000 C 
ENDROOT
BRANCH   1   2
ATOM      2  C   UNL     1      44.330  39.669   9.273  1.00  0.00     0.000 C 
BRANCH   2   3
ATOM      3  C   UNL     1      45.619  40.415   9.653  1.00  0.00     0.000 C 
BRANCH   3   4
ATOM      4  C   UNL     1      45.373  41.563  10.649  1.00  0.00     0.000 C 
BRANCH   4   5
ATOM      5  C   UNL     1      46.025  41.304  12.017  1.00  0.00     0.000 C 
BRANCH   5   6
ATOM      6  C   UNL     1      45.153  40.424  12.930  1.00  0.00     0.000 C 
BRANCH   6   7
ATOM      7  C   UNL     1      45.702  38.994  13.088  1.00  0.00     0.000 C 
BRANCH   7   8
ATOM      8  C   UNL     1      47.165  38.805  12.644  1.00  0.00     0.000 C 
BRANCH   8   9
ATOM      9  C   UNL     1      47.336  37.699  11.592  1.00  0.00     0.000 C 
BRANCH   9  10
ATOM     10  C   UNL     1      46.010  36.973  11.334  1.00  0.00     0.000 C 
BRANCH  10  11
ATOM     11  C   UNL     1      46.203  35.450  11.360  1.00  0.00     0.000 C 
BRANCH  11  12
ATOM     12  C   UNL     1      46.396  34.893   9.944  1.00  0.00     0.000 C 
BRANCH  12  13
ATOM     13  C   UNL     1      47.356  33.698   9.952  1.00  0.00     0.006 C 
BRANCH  13  14
ATOM     14  C   UNL     1      48.174  33.641   8.659  1.00  0.00     0.053 C 
BRANCH  14  15
ATOM     15  C   UNL     1      49.288  34.638   8.702  1.00  0.00     0.041 C 
ATOM     16  O   UNL     1      49.562  35.238   9.776  1.00  0.00    -0.550 OA
ATOM     17  O   UNL     1      49.987  34.950   7.543  1.00  0.00    -0.550 OA
ENDBRANCH  14  15
ENDBRANCH  13  14
ENDBRANCH  12  13
ENDBRANCH  11  12
ENDBRANCH  10  11
ENDBRANCH   9  10
ENDBRANCH   8   9
ENDBRANCH   7   8
ENDBRANCH   6   7
ENDBRANCH   5   6
ENDBRANCH   4   5
ENDBRANCH   3   4
ENDBRANCH   2   3
ENDBRANCH   1   2
BRANCH   1  18
ATOM     18  C   UNL     1      42.071  39.346  10.552  1.00  0.00     0.000 C 
BRANCH  18  19
ATOM     19  C   UNL     1      42.704  38.012  11.007  1.00  0.00     0.000 C 
BRANCH  19  20
ATOM     20  C   UNL     1      42.196  36.779  10.233  1.00  0.00     0.000 C 
BRANCH  20  21
ATOM     21  C   UNL     1      43.042  36.377   9.012  1.00  0.00     0.000 C 
BRANCH  21  22
ATOM     22  C   UNL     1      42.241  36.402   7.700  1.00  0.00     0.000 C 
BRANCH  22  23
ATOM     23  C   UNL     1      42.398  37.726   6.935  1.00  0.00     0.000 C 
BRANCH  23  24
ATOM     24  C   UNL     1      41.109  38.566   6.942  1.00  0.00    -0.000 C 
BRANCH  24  25
ATOM     25  C   UNL     1      41.365  40.062   6.680  1.00  0.00    -0.000 C 
BRANCH  25  26
ATOM     26  C   UNL     1      42.655  40.385   5.901  1.00  0.00    -0.000 C 
BRANCH  26  27
ATOM     27  C   UNL     1      43.002  41.884   5.905  1.00  0.00    -0.000 C 
BRANCH  27  28
ATOM     28  C   UNL     1      44.357  42.184   6.572  1.00  0.00    -0.000 C 
BRANCH  28  29
ATOM     29  C   UNL     1      44.329  43.270   7.667  1.00  0.00    -0.000 C 
BRANCH  29  30
ATOM     30  C   UNL     1      42.938  43.854   7.973  1.00  0.00    -0.000 C 
BRANCH  30  31
ATOM     31  C   UNL     1      42.602  43.843   9.473  1.00  0.00    -0.003 C 
ATOM     32  C   UNL     1      43.219  45.043  10.186  1.00  0.00     0.004 C 
ENDBRANCH  30  31
ENDBRANCH  29  30
ENDBRANCH  28  29
ENDBRANCH  27  28
ENDBRANCH  26  27
ENDBRANCH  25  26
ENDBRANCH  24  25
ENDBRANCH  23  24
ENDBRANCH  22  23
ENDBRANCH  21  22
ENDBRANCH  20  21
ENDBRANCH  19  20
ENDBRANCH  18  19
ENDBRANCH   1  18
TORSDOF 28
ENDMDL
