MODEL 1
REMARK VINA RESULT:    -2.652      0.000      0.000
REMARK INTER + INTRA:          -3.231
REMARK INTER:                  -3.117
REMARK INTRA:                  -0.114
REMARK UNBOUND:                -0.114
REMARK SMILES O=C([O-])CCC(=O)[O-]
REMARK SMILES IDX 4 1 2 2 1 3 3 4 5 5 6 6 7 7 8 8
REMARK H PARENT
REMARK Flexibility Score: inf
ROOT
ATOM      1  C   UNL     1      72.378  31.174  60.766  1.00  0.00     0.059 C 
ENDROOT
BRANCH   1   2
ATOM      2  C   UNL     1      72.223  30.404  62.042  1.00  0.00     0.042 C 
ATOM      3  O   UNL     1      73.125  30.446  62.920  1.00  0.00    -0.550 OA
ATOM      4  O   UNL     1      71.065  29.673  62.278  1.00  0.00    -0.550 OA
ENDBRANCH   1   2
BRANCH   1   5
ATOM      5  C   UNL     1      71.662  32.527  60.832  1.00  0.00     0.059 C 
BRANCH   5   6
ATOM      6  C   UNL     1      70.527  32.600  59.855  1.00  0.00     0.042 C 
ATOM      7  O   UNL     1      70.176  33.709  59.375  1.00  0.00    -0.550 OA
ATOM      8  O   UNL     1      69.886  31.437  59.446  1.00  0.00    -0.550 OA
ENDBRANCH   5   6
ENDBRANCH   1   5
TORSDOF 3
ENDMDL
MODEL 2
REMARK VINA RESULT:    -2.628     21.019     21.865
REMARK INTER + INTRA:          -3.203
REMARK INTER:                  -3.117
REMARK INTRA:                  -0.087
REMARK UNBOUND:                -0.114
REMARK SMILES O=C([O-])CCC(=O)[O-]
REMARK SMILES IDX 4 1 2 2 1 3 3 4 5 5 6 6 7 7 8 8
REMARK H PARENT
REMARK Flexibility Score: inf
ROOT
ATOM      1  C   UNL     1      56.600  18.063  50.566  1.00  0.00     0.059 C 
ENDROOT
BRANCH   1   2
ATOM      2  C   UNL     1      55.873  19.209  51.202  1.00  0.00     0.042 C 
ATOM      3  O   UNL     1      56.402  19.844  52.153  1.00  0.00    -0.550 OA
ATOM      4  O   UNL     1      54.632  19.600  50.718  1.00  0.00    -0.550 OA
ENDBRANCH   1   2
BRANCH   1   5
ATOM      5  C   UNL     1      58.111  18.151  50.804  1.00  0.00     0.059 C 
BRANCH   5   6
ATOM      6  C   UNL     1      58.846  18.530  49.554  1.00  0.00     0.042 C 
ATOM      7  O   UNL     1      59.130  17.653  48.696  1.00  0.00    -0.550 OA
ATOM      8  O   UNL     1      59.181  19.857  49.319  1.00  0.00    -0.550 OA
ENDBRANCH   5   6
ENDBRANCH   1   5
TORSDOF 3
ENDMDL
MODEL 3
REMARK VINA RESULT:    -2.623      0.074      3.866
REMARK INTER + INTRA:          -3.198
REMARK INTER:                  -3.089
REMARK INTRA:                  -0.109
REMARK UNBOUND:                -0.114
REMARK SMILES O=C([O-])CCC(=O)[O-]
REMARK SMILES IDX 4 1 2 2 1 3 3 4 5 5 6 6 7 7 8 8
REMARK H PARENT
REMARK Flexibility Score: inf
ROOT
ATOM      1  C   UNL     1      71.628  32.462  60.836  1.00  0.00     0.059 C 
ENDROOT
BRANCH   1   2
ATOM      2  C   UNL     1      70.523  32.573  59.830  1.00  0.00     0.042 C 
ATOM      3  O   UNL     1      70.201  33.699  59.366  1.00  0.00    -0.550 OA
ATOM      4  O   UNL     1      69.878  31.431  59.375  1.00  0.00    -0.550 OA
ENDBRANCH   1   2
BRANCH   1   5
ATOM      5  C   UNL     1      72.333  31.104  60.753  1.00  0.00     0.059 C 
BRANCH   5   6
ATOM      6  C   UNL     1      72.194  30.331  62.029  1.00  0.00     0.042 C 
ATOM      7  O   UNL     1      73.125  30.337  62.877  1.00  0.00    -0.550 OA
ATOM      8  O   UNL     1      71.021  29.637  62.298  1.00  0.00    -0.550 OA
ENDBRANCH   5   6
ENDBRANCH   1   5
TORSDOF 3
ENDMDL
MODEL 4
REMARK VINA RESULT:    -2.590     21.059     21.856
REMARK INTER + INTRA:          -3.159
REMARK INTER:                  -3.062
REMARK INTRA:                  -0.097
REMARK UNBOUND:                -0.114
REMARK SMILES O=C([O-])CCC(=O)[O-]
REMARK SMILES IDX 4 1 2 2 1 3 3 4 5 5 6 6 7 7 8 8
REMARK H PARENT
REMARK Flexibility Score: inf
ROOT
ATOM      1  C   UNL     1      58.034  17.990  50.782  1.00  0.00     0.059 C 
ENDROOT
BRANCH   1   2
ATOM      2  C   UNL     1      58.832  18.417  49.588  1.00  0.00     0.042 C 
ATOM      3  O   UNL     1      59.176  17.570  48.721  1.00  0.00    -0.550 OA
ATOM      4  O   UNL     1      59.160  19.755  49.412  1.00  0.00    -0.550 OA
ENDBRANCH   1   2
BRANCH   1   5
ATOM      5  C   UNL     1      56.529  18.017  50.495  1.00  0.00     0.059 C 
BRANCH   5   6
ATOM      6  C   UNL     1      55.864  19.192  51.144  1.00  0.00     0.042 C 
ATOM      7  O   UNL     1      54.728  19.571  50.755  1.00  0.00    -0.550 OA
ATOM      8  O   UNL     1      56.481  19.842  52.205  1.00  0.00    -0.550 OA
ENDBRANCH   5   6
ENDBRANCH   1   5
TORSDOF 3
ENDMDL
MODEL 5
REMARK VINA RESULT:    -2.583      1.161      1.277
REMARK INTER + INTRA:          -3.151
REMARK INTER:                  -3.087
REMARK INTRA:                  -0.063
REMARK UNBOUND:                -0.114
REMARK SMILES O=C([O-])CCC(=O)[O-]
REMARK SMILES IDX 4 1 2 2 1 3 3 4 5 5 6 6 7 7 8 8
REMARK H PARENT
REMARK Flexibility Score: inf
ROOT
ATOM      1  C   UNL     1      72.768  30.649  60.663  1.00  0.00     0.059 C 
ENDROOT
BRANCH   1   2
ATOM      2  C   UNL     1      72.395  30.365  62.086  1.00  0.00     0.042 C 
ATOM      3  O   UNL     1      73.125  30.778  63.026  1.00  0.00    -0.550 OA
ATOM      4  O   UNL     1      71.222  29.681  62.375  1.00  0.00    -0.550 OA
ENDBRANCH   1   2
BRANCH   1   5
ATOM      5  C   UNL     1      71.531  30.880  59.789  1.00  0.00     0.059 C 
BRANCH   5   6
ATOM      6  C   UNL     1      71.232  32.340  59.630  1.00  0.00     0.042 C 
ATOM      7  O   UNL     1      70.974  33.047  60.639  1.00  0.00    -0.550 OA
ATOM      8  O   UNL     1      71.279  32.926  58.371  1.00  0.00    -0.550 OA
ENDBRANCH   5   6
ENDBRANCH   1   5
TORSDOF 3
ENDMDL
MODEL 6
REMARK VINA RESULT:    -2.555     16.873     18.417
REMARK INTER + INTRA:          -3.117
REMARK INTER:                  -3.060
REMARK INTRA:                  -0.056
REMARK UNBOUND:                -0.114
REMARK SMILES O=C([O-])CCC(=O)[O-]
REMARK SMILES IDX 4 1 2 2 1 3 3 4 5 5 6 6 7 7 8 8
REMARK H PARENT
REMARK Flexibility Score: inf
ROOT
ATOM      1  C   UNL     1      56.573  28.828  50.760  1.00  0.00     0.059 C 
ENDROOT
BRANCH   1   2
ATOM      2  C   UNL     1      55.373  27.973  50.485  1.00  0.00     0.042 C 
ATOM      3  O   UNL     1      54.246  28.505  50.301  1.00  0.00    -0.550 OA
ATOM      4  O   UNL     1      55.507  26.594  50.393  1.00  0.00    -0.550 OA
ENDBRANCH   1   2
BRANCH   1   5
ATOM      5  C   UNL     1      57.877  28.038  50.608  1.00  0.00     0.059 C 
BRANCH   5   6
ATOM      6  C   UNL     1      58.869  28.769  49.756  1.00  0.00     0.042 C 
ATOM      7  O   UNL     1      58.622  29.937  49.357  1.00  0.00    -0.550 OA
ATOM      8  O   UNL     1      60.084  28.174  49.436  1.00  0.00    -0.550 OA
ENDBRANCH   5   6
ENDBRANCH   1   5
TORSDOF 3
ENDMDL
MODEL 7
REMARK VINA RESULT:    -2.552     17.167     18.324
REMARK INTER + INTRA:          -3.114
REMARK INTER:                  -2.987
REMARK INTRA:                  -0.127
REMARK UNBOUND:                -0.114
REMARK SMILES O=C([O-])CCC(=O)[O-]
REMARK SMILES IDX 4 1 2 2 1 3 3 4 5 5 6 6 7 7 8 8
REMARK H PARENT
REMARK Flexibility Score: inf
ROOT
ATOM      1  C   UNL     1      57.632  28.653  51.089  1.00  0.00     0.059 C 
ENDROOT
BRANCH   1   2
ATOM      2  C   UNL     1      58.555  28.836  49.923  1.00  0.00     0.042 C 
ATOM      3  O   UNL     1      58.601  29.941  49.319  1.00  0.00    -0.550 OA
ATOM      4  O   UNL     1      59.392  27.800  49.528  1.00  0.00    -0.550 OA
ENDBRANCH   1   2
BRANCH   1   5
ATOM      5  C   UNL     1      56.205  28.331  50.635  1.00  0.00     0.059 C 
BRANCH   5   6
ATOM      6  C   UNL     1      55.975  26.853  50.542  1.00  0.00     0.042 C 
ATOM      7  O   UNL     1      55.017  26.404  49.859  1.00  0.00    -0.550 OA
ATOM      8  O   UNL     1      56.841  25.973  51.177  1.00  0.00    -0.550 OA
ENDBRANCH   5   6
ENDBRANCH   1   5
TORSDOF 3
ENDMDL
MODEL 8
REMARK VINA RESULT:    -2.542      2.633      3.684
REMARK INTER + INTRA:          -3.102
REMARK INTER:                  -3.067
REMARK INTRA:                  -0.034
REMARK UNBOUND:                -0.114
REMARK SMILES O=C([O-])CCC(=O)[O-]
REMARK SMILES IDX 4 1 2 2 1 3 3 4 5 5 6 6 7 7 8 8
REMARK H PARENT
REMARK Flexibility Score: inf
ROOT
ATOM      1  C   UNL     1      70.998  29.371  61.639  1.00  0.00     0.059 C 
ENDROOT
BRANCH   1   2
ATOM      2  C   UNL     1      72.018  30.452  61.832  1.00  0.00     0.042 C 
ATOM      3  O   UNL     1      72.002  31.475  61.097  1.00  0.00    -0.550 OA
ATOM      4  O   UNL     1      72.959  30.348  62.848  1.00  0.00    -0.550 OA
ENDBRANCH   1   2
BRANCH   1   5
ATOM      5  C   UNL     1      69.725  29.645  62.447  1.00  0.00     0.059 C 
BRANCH   5   6
ATOM      6  C   UNL     1      68.561  28.858  61.926  1.00  0.00     0.042 C 
ATOM      7  O   UNL     1      68.324  28.821  60.690  1.00  0.00    -0.550 OA
ATOM      8  O   UNL     1      67.763  28.135  62.803  1.00  0.00    -0.550 OA
ENDBRANCH   5   6
ENDBRANCH   1   5
TORSDOF 3
ENDMDL
MODEL 9
REMARK VINA RESULT:    -2.518      1.739      3.567
REMARK INTER + INTRA:          -3.074
REMARK INTER:                  -2.908
REMARK INTRA:                  -0.167
REMARK UNBOUND:                -0.114
REMARK SMILES O=C([O-])CCC(=O)[O-]
REMARK SMILES IDX 4 1 2 2 1 3 3 4 5 5 6 6 7 7 8 8
REMARK H PARENT
REMARK Flexibility Score: inf
ROOT
ATOM      1  C   UNL     1      72.643  30.870  60.874  1.00  0.00     0.059 C 
ENDROOT
BRANCH   1   2
ATOM      2  C   UNL     1      71.656  31.720  60.133  1.00  0.00     0.042 C 
ATOM      3  O   UNL     1      71.327  31.425  58.953  1.00  0.00    -0.550 OA
ATOM      4  O   UNL     1      71.071  32.813  60.758  1.00  0.00    -0.550 OA
ENDBRANCH   1   2
BRANCH   1   5
ATOM      5  C   UNL     1      72.016  30.232  62.118  1.00  0.00     0.059 C 
BRANCH   5   6
ATOM      6  C   UNL     1      70.825  29.392  61.768  1.00  0.00     0.042 C 
ATOM      7  O   UNL     1      70.939  28.441  60.951  1.00  0.00    -0.550 OA
ATOM      8  O   UNL     1      69.599  29.637  62.375  1.00  0.00    -0.550 OA
ENDBRANCH   5   6
ENDBRANCH   1   5
TORSDOF 3
ENDMDL
