MODEL 1
REMARK VINA RESULT:    -3.434      0.000      0.000
REMARK INTER + INTRA:          -8.533
REMARK INTER:                  -6.445
REMARK INTRA:                  -2.088
REMARK UNBOUND:                -2.088
REMARK SMILES O=C([O-])CCCCCCCCCCCCCCC(=O)[O-]
REMARK SMILES IDX 10 1 9 2 8 3 7 4 6 5 5 6 4 7 2 8 1 9 3 10 11 11 12 12 13 13
REMARK SMILES IDX 14 14 15 15 16 16 17 17 18 18 19 19 20 20
REMARK H PARENT
REMARK Flexibility Score: inf
ROOT
ATOM      1  C   UNL     1      57.887  28.456  50.536  1.00  0.00     0.000 C 
ENDROOT
BRANCH   1   2
ATOM      2  C   UNL     1      59.169  28.795  49.755  1.00  0.00     0.000 C 
BRANCH   2   3
ATOM      3  C   UNL     1      59.971  27.545  49.350  1.00  0.00     0.000 C 
BRANCH   3   4
ATOM      4  C   UNL     1      61.323  27.373  50.068  1.00  0.00     0.000 C 
BRANCH   4   5
ATOM      5  C   UNL     1      61.707  25.902  50.281  1.00  0.00     0.000 C 
BRANCH   5   6
ATOM      6  C   UNL     1      60.487  24.987  50.124  1.00  0.00     0.006 C 
BRANCH   6   7
ATOM      7  C   UNL     1      60.208  24.214  51.416  1.00  0.00     0.053 C 
BRANCH   7   8
ATOM      8  C   UNL     1      60.520  22.762  51.236  1.00  0.00     0.041 C 
ATOM      9  O   UNL     1      60.301  21.946  52.169  1.00  0.00    -0.550 OA
ATOM     10  O   UNL     1      61.007  22.302  50.019  1.00  0.00    -0.550 OA
ENDBRANCH   7   8
ENDBRANCH   6   7
ENDBRANCH   5   6
ENDBRANCH   4   5
ENDBRANCH   3   4
ENDBRANCH   2   3
ENDBRANCH   1   2
BRANCH   1  11
ATOM     11  C   UNL     1      58.164  27.589  51.775  1.00  0.00     0.000 C 
BRANCH  11  12
ATOM     12  C   UNL     1      57.189  26.408  51.903  1.00  0.00     0.000 C 
BRANCH  12  13
ATOM     13  C   UNL     1      56.743  25.915  50.517  1.00  0.00     0.000 C 
BRANCH  13  14
ATOM     14  C   UNL     1      55.230  25.650  50.440  1.00  0.00     0.000 C 
BRANCH  14  15
ATOM     15  C   UNL     1      54.446  26.861  49.906  1.00  0.00     0.000 C 
BRANCH  15  16
ATOM     16  C   UNL     1      53.881  27.754  51.026  1.00  0.00     0.006 C 
BRANCH  16  17
ATOM     17  C   UNL     1      54.239  29.244  50.878  1.00  0.00     0.053 C 
BRANCH  17  18
ATOM     18  C   UNL     1      54.418  29.926  52.201  1.00  0.00     0.041 C 
ATOM     19  O   UNL     1      55.516  29.843  52.813  1.00  0.00    -0.550 OA
ATOM     20  O   UNL     1      53.362  30.622  52.778  1.00  0.00    -0.550 OA
ENDBRANCH  17  18
ENDBRANCH  16  17
ENDBRANCH  15  16
ENDBRANCH  14  15
ENDBRANCH  13  14
ENDBRANCH  12  13
ENDBRANCH  11  12
ENDBRANCH   1  11
TORSDOF 15
ENDMDL
MODEL 2
REMARK VINA RESULT:    -3.337      2.659      3.977
REMARK INTER + INTRA:          -8.352
REMARK INTER:                  -6.234
REMARK INTRA:                  -2.118
REMARK UNBOUND:                -2.088
REMARK SMILES O=C([O-])CCCCCCCCCCCCCCC(=O)[O-]
REMARK SMILES IDX 10 1 9 2 8 3 7 4 6 5 5 6 4 7 2 8 1 9 3 10 11 11 12 12 13 13
REMARK SMILES IDX 14 14 15 15 16 16 17 17 18 18 19 19 20 20
REMARK H PARENT
REMARK Flexibility Score: inf
ROOT
ATOM      1  C   UNL     1      58.359  24.961  51.735  1.00  0.00     0.000 C 
ENDROOT
BRANCH   1   2
ATOM      2  C   UNL     1      59.076  25.019  50.375  1.00  0.00     0.000 C 
BRANCH   2   3
ATOM      3  C   UNL     1      60.445  25.721  50.450  1.00  0.00     0.000 C 
BRANCH   3   4
ATOM      4  C   UNL     1      60.389  27.241  50.688  1.00  0.00     0.000 C 
BRANCH   4   5
ATOM      5  C   UNL     1      59.473  27.971  49.695  1.00  0.00     0.000 C 
BRANCH   5   6
ATOM      6  C   UNL     1      58.352  28.718  50.427  1.00  0.00     0.006 C 
BRANCH   6   7
ATOM      7  C   UNL     1      58.738  29.003  51.881  1.00  0.00     0.053 C 
BRANCH   7   8
ATOM      8  C   UNL     1      57.515  29.167  52.726  1.00  0.00     0.041 C 
ATOM      9  O   UNL     1      56.778  28.178  52.974  1.00  0.00    -0.550 OA
ATOM     10  O   UNL     1      57.215  30.405  53.280  1.00  0.00    -0.550 OA
ENDBRANCH   7   8
ENDBRANCH   6   7
ENDBRANCH   5   6
ENDBRANCH   4   5
ENDBRANCH   3   4
ENDBRANCH   2   3
ENDBRANCH   1   2
BRANCH   1  11
ATOM     11  C   UNL     1      56.831  25.069  51.600  1.00  0.00     0.000 C 
BRANCH  11  12
ATOM     12  C   UNL     1      56.396  25.728  50.281  1.00  0.00     0.000 C 
BRANCH  12  13
ATOM     13  C   UNL     1      54.995  25.250  49.868  1.00  0.00     0.000 C 
BRANCH  13  14
ATOM     14  C   UNL     1      53.974  26.398  49.794  1.00  0.00     0.000 C 
BRANCH  14  15
ATOM     15  C   UNL     1      54.563  27.741  50.259  1.00  0.00     0.000 C 
BRANCH  15  16
ATOM     16  C   UNL     1      53.493  28.719  50.779  1.00  0.00     0.006 C 
BRANCH  16  17
ATOM     17  C   UNL     1      54.070  29.960  51.485  1.00  0.00     0.053 C 
BRANCH  17  18
ATOM     18  C   UNL     1      53.601  30.084  52.904  1.00  0.00     0.041 C 
ATOM     19  O   UNL     1      53.265  31.207  53.364  1.00  0.00    -0.550 OA
ATOM     20  O   UNL     1      53.570  28.967  53.730  1.00  0.00    -0.550 OA
ENDBRANCH  17  18
ENDBRANCH  16  17
ENDBRANCH  15  16
ENDBRANCH  14  15
ENDBRANCH  13  14
ENDBRANCH  12  13
ENDBRANCH  11  12
ENDBRANCH   1  11
TORSDOF 15
ENDMDL
MODEL 3
REMARK VINA RESULT:    -3.303      1.172      7.414
REMARK INTER + INTRA:          -8.287
REMARK INTER:                  -6.096
REMARK INTRA:                  -2.191
REMARK UNBOUND:                -2.088
REMARK SMILES O=C([O-])CCCCCCCCCCCCCCC(=O)[O-]
REMARK SMILES IDX 10 1 9 2 8 3 7 4 6 5 5 6 4 7 2 8 1 9 3 10 11 11 12 12 13 13
REMARK SMILES IDX 14 14 15 15 16 16 17 17 18 18 19 19 20 20
REMARK H PARENT
REMARK Flexibility Score: inf
ROOT
ATOM      1  C   UNL     1      57.506  27.536  52.443  1.00  0.00     0.000 C 
ENDROOT
BRANCH   1   2
ATOM      2  C   UNL     1      56.693  26.350  51.895  1.00  0.00     0.000 C 
BRANCH   2   3
ATOM      3  C   UNL     1      56.155  26.599  50.474  1.00  0.00     0.000 C 
BRANCH   3   4
ATOM      4  C   UNL     1      54.622  26.677  50.359  1.00  0.00     0.000 C 
BRANCH   4   5
ATOM      5  C   UNL     1      54.097  28.118  50.284  1.00  0.00     0.000 C 
BRANCH   5   6
ATOM      6  C   UNL     1      53.437  28.532  51.604  1.00  0.00     0.006 C 
BRANCH   6   7
ATOM      7  C   UNL     1      53.930  29.909  52.059  1.00  0.00     0.053 C 
BRANCH   7   8
ATOM      8  C   UNL     1      54.730  29.789  53.317  1.00  0.00     0.041 C 
ATOM      9  O   UNL     1      54.548  28.815  54.094  1.00  0.00    -0.550 OA
ATOM     10  O   UNL     1      55.713  30.728  53.608  1.00  0.00    -0.550 OA
ENDBRANCH   7   8
ENDBRANCH   6   7
ENDBRANCH   5   6
ENDBRANCH   4   5
ENDBRANCH   3   4
ENDBRANCH   2   3
ENDBRANCH   1   2
BRANCH   1  11
ATOM     11  C   UNL     1      57.661  28.669  51.415  1.00  0.00     0.000 C 
BRANCH  11  12
ATOM     12  C   UNL     1      59.128  28.935  51.040  1.00  0.00     0.000 C 
BRANCH  12  13
ATOM     13  C   UNL     1      59.410  28.497  49.595  1.00  0.00     0.000 C 
BRANCH  13  14
ATOM     14  C   UNL     1      60.417  27.337  49.511  1.00  0.00     0.000 C 
BRANCH  14  15
ATOM     15  C   UNL     1      59.752  25.964  49.708  1.00  0.00     0.000 C 
BRANCH  15  16
ATOM     16  C   UNL     1      60.197  25.260  51.003  1.00  0.00     0.006 C 
BRANCH  16  17
ATOM     17  C   UNL     1      59.999  23.733  50.985  1.00  0.00     0.053 C 
BRANCH  17  18
ATOM     18  C   UNL     1      61.192  23.006  50.442  1.00  0.00     0.041 C 
ATOM     19  O   UNL     1      61.084  21.813  50.054  1.00  0.00    -0.550 OA
ATOM     20  O   UNL     1      62.433  23.632  50.399  1.00  0.00    -0.550 OA
ENDBRANCH  17  18
ENDBRANCH  16  17
ENDBRANCH  15  16
ENDBRANCH  14  15
ENDBRANCH  13  14
ENDBRANCH  12  13
ENDBRANCH  11  12
ENDBRANCH   1  11
TORSDOF 15
ENDMDL
MODEL 4
REMARK VINA RESULT:    -3.286      1.451      3.054
REMARK INTER + INTRA:          -8.255
REMARK INTER:                  -6.303
REMARK INTRA:                  -1.952
REMARK UNBOUND:                -2.088
REMARK SMILES O=C([O-])CCCCCCCCCCCCCCC(=O)[O-]
REMARK SMILES IDX 10 1 9 2 8 3 7 4 6 5 5 6 4 7 2 8 1 9 3 10 11 11 12 12 13 13
REMARK SMILES IDX 14 14 15 15 16 16 17 17 18 18 19 19 20 20
REMARK H PARENT
REMARK Flexibility Score: inf
ROOT
ATOM      1  C   UNL     1      56.682  25.415  50.715  1.00  0.00     0.000 C 
ENDROOT
BRANCH   1   2
ATOM      2  C   UNL     1      56.907  26.727  51.486  1.00  0.00     0.000 C 
BRANCH   2   3
ATOM      3  C   UNL     1      57.140  27.934  50.558  1.00  0.00     0.000 C 
BRANCH   3   4
ATOM      4  C   UNL     1      58.513  28.614  50.700  1.00  0.00     0.000 C 
BRANCH   4   5
ATOM      5  C   UNL     1      59.437  28.357  49.500  1.00  0.00     0.000 C 
BRANCH   5   6
ATOM      6  C   UNL     1      60.597  27.432  49.887  1.00  0.00     0.006 C 
BRANCH   6   7
ATOM      7  C   UNL     1      60.204  25.960  49.727  1.00  0.00     0.053 C 
BRANCH   7   8
ATOM      8  C   UNL     1      60.354  25.234  51.026  1.00  0.00     0.041 C 
ATOM      9  O   UNL     1      59.948  24.048  51.139  1.00  0.00    -0.550 OA
ATOM     10  O   UNL     1      60.987  25.851  52.098  1.00  0.00    -0.550 OA
ENDBRANCH   7   8
ENDBRANCH   6   7
ENDBRANCH   5   6
ENDBRANCH   4   5
ENDBRANCH   3   4
ENDBRANCH   2   3
ENDBRANCH   1   2
BRANCH   1  11
ATOM     11  C   UNL     1      55.460  25.481  49.783  1.00  0.00     0.000 C 
BRANCH  11  12
ATOM     12  C   UNL     1      54.160  25.818  50.531  1.00  0.00     0.000 C 
BRANCH  12  13
ATOM     13  C   UNL     1      53.481  27.051  49.916  1.00  0.00     0.000 C 
BRANCH  13  14
ATOM     14  C   UNL     1      53.137  28.124  50.964  1.00  0.00     0.000 C 
BRANCH  14  15
ATOM     15  C   UNL     1      54.080  29.337  50.897  1.00  0.00     0.000 C 
BRANCH  15  16
ATOM     16  C   UNL     1      53.916  30.293  52.092  1.00  0.00     0.006 C 
BRANCH  16  17
ATOM     17  C   UNL     1      54.136  29.626  53.462  1.00  0.00     0.053 C 
BRANCH  17  18
ATOM     18  C   UNL     1      55.585  29.376  53.754  1.00  0.00     0.041 C 
ATOM     19  O   UNL     1      55.931  28.374  54.435  1.00  0.00    -0.550 OA
ATOM     20  O   UNL     1      56.552  30.268  53.306  1.00  0.00    -0.550 OA
ENDBRANCH  17  18
ENDBRANCH  16  17
ENDBRANCH  15  16
ENDBRANCH  14  15
ENDBRANCH  13  14
ENDBRANCH  12  13
ENDBRANCH  11  12
ENDBRANCH   1  11
TORSDOF 15
ENDMDL
MODEL 5
REMARK VINA RESULT:    -3.257      2.235      6.587
REMARK INTER + INTRA:          -8.201
REMARK INTER:                  -5.716
REMARK INTRA:                  -2.486
REMARK UNBOUND:                -2.088
REMARK SMILES O=C([O-])CCCCCCCCCCCCCCC(=O)[O-]
REMARK SMILES IDX 10 1 9 2 8 3 7 4 6 5 5 6 4 7 2 8 1 9 3 10 11 11 12 12 13 13
REMARK SMILES IDX 14 14 15 15 16 16 17 17 18 18 19 19 20 20
REMARK H PARENT
REMARK Flexibility Score: inf
ROOT
ATOM      1  C   UNL     1      59.476  27.276  53.213  1.00  0.00     0.000 C 
ENDROOT
BRANCH   1   2
ATOM      2  C   UNL     1      58.632  26.021  53.495  1.00  0.00     0.000 C 
BRANCH   2   3
ATOM      3  C   UNL     1      57.322  25.986  52.686  1.00  0.00     0.000 C 
BRANCH   3   4
ATOM      4  C   UNL     1      57.409  25.261  51.331  1.00  0.00     0.000 C 
BRANCH   4   5
ATOM      5  C   UNL     1      56.351  25.738  50.326  1.00  0.00     0.000 C 
BRANCH   5   6
ATOM      6  C   UNL     1      55.519  26.888  50.907  1.00  0.00     0.006 C 
BRANCH   6   7
ATOM      7  C   UNL     1      54.312  27.199  50.017  1.00  0.00     0.053 C 
BRANCH   7   8
ATOM      8  C   UNL     1      53.329  26.072  50.053  1.00  0.00     0.041 C 
ATOM      9  O   UNL     1      52.875  25.662  51.153  1.00  0.00    -0.550 OA
ATOM     10  O   UNL     1      52.876  25.507  48.867  1.00  0.00    -0.550 OA
ENDBRANCH   7   8
ENDBRANCH   6   7
ENDBRANCH   5   6
ENDBRANCH   4   5
ENDBRANCH   3   4
ENDBRANCH   2   3
ENDBRANCH   1   2
BRANCH   1  11
ATOM     11  C   UNL     1      58.627  28.460  52.720  1.00  0.00     0.000 C 
BRANCH  11  12
ATOM     12  C   UNL     1      59.254  29.180  51.516  1.00  0.00     0.000 C 
BRANCH  12  13
ATOM     13  C   UNL     1      58.668  28.651  50.198  1.00  0.00     0.000 C 
BRANCH  13  14
ATOM     14  C   UNL     1      59.690  27.850  49.373  1.00  0.00     0.000 C 
BRANCH  14  15
ATOM     15  C   UNL     1      61.078  27.809  50.034  1.00  0.00     0.000 C 
BRANCH  15  16
ATOM     16  C   UNL     1      61.702  26.402  50.035  1.00  0.00     0.006 C 
BRANCH  16  17
ATOM     17  C   UNL     1      60.670  25.259  50.024  1.00  0.00     0.053 C 
BRANCH  17  18
ATOM     18  C   UNL     1      60.975  24.200  51.040  1.00  0.00     0.041 C 
ATOM     19  O   UNL     1      61.547  24.504  52.120  1.00  0.00    -0.550 OA
ATOM     20  O   UNL     1      60.661  22.871  50.780  1.00  0.00    -0.550 OA
ENDBRANCH  17  18
ENDBRANCH  16  17
ENDBRANCH  15  16
ENDBRANCH  14  15
ENDBRANCH  13  14
ENDBRANCH  12  13
ENDBRANCH  11  12
ENDBRANCH   1  11
TORSDOF 15
ENDMDL
MODEL 6
REMARK VINA RESULT:    -3.198      3.056      4.427
REMARK INTER + INTRA:          -8.091
REMARK INTER:                  -6.271
REMARK INTRA:                  -1.820
REMARK UNBOUND:                -2.088
REMARK SMILES O=C([O-])CCCCCCCCCCCCCCC(=O)[O-]
REMARK SMILES IDX 10 1 9 2 8 3 7 4 6 5 5 6 4 7 2 8 1 9 3 10 11 11 12 12 13 13
REMARK SMILES IDX 14 14 15 15 16 16 17 17 18 18 19 19 20 20
REMARK H PARENT
REMARK Flexibility Score: inf
ROOT
ATOM      1  C   UNL     1      59.626  25.757  49.635  1.00  0.00     0.000 C 
ENDROOT
BRANCH   1   2
ATOM      2  C   UNL     1      59.171  24.878  50.813  1.00  0.00     0.000 C 
BRANCH   2   3
ATOM      3  C   UNL     1      60.348  24.315  51.630  1.00  0.00     0.000 C 
BRANCH   3   4
ATOM      4  C   UNL     1      61.071  23.114  50.994  1.00  0.00     0.000 C 
BRANCH   4   5
ATOM      5  C   UNL     1      62.570  23.366  50.771  1.00  0.00     0.000 C 
BRANCH   5   6
ATOM      6  C   UNL     1      62.973  24.760  51.264  1.00  0.00     0.006 C 
BRANCH   6   7
ATOM      7  C   UNL     1      64.105  25.341  50.412  1.00  0.00     0.053 C 
BRANCH   7   8
ATOM      8  C   UNL     1      63.825  26.771  50.073  1.00  0.00     0.041 C 
ATOM      9  O   UNL     1      63.745  27.134  48.871  1.00  0.00    -0.550 OA
ATOM     10  O   UNL     1      63.604  27.694  51.088  1.00  0.00    -0.550 OA
ENDBRANCH   7   8
ENDBRANCH   6   7
ENDBRANCH   5   6
ENDBRANCH   4   5
ENDBRANCH   3   4
ENDBRANCH   2   3
ENDBRANCH   1   2
BRANCH   1  11
ATOM     11  C   UNL     1      60.199  27.108  50.095  1.00  0.00     0.000 C 
BRANCH  11  12
ATOM     12  C   UNL     1      59.317  28.298  49.686  1.00  0.00     0.000 C 
BRANCH  12  13
ATOM     13  C   UNL     1      58.403  28.723  50.846  1.00  0.00     0.000 C 
BRANCH  13  14
ATOM     14  C   UNL     1      56.965  28.201  50.692  1.00  0.00     0.000 C 
BRANCH  14  15
ATOM     15  C   UNL     1      56.506  27.372  51.903  1.00  0.00     0.000 C 
BRANCH  15  16
ATOM     16  C   UNL     1      55.786  26.071  51.505  1.00  0.00     0.006 C 
BRANCH  16  17
ATOM     17  C   UNL     1      55.522  25.939  49.993  1.00  0.00     0.053 C 
BRANCH  17  18
ATOM     18  C   UNL     1      54.197  25.305  49.694  1.00  0.00     0.041 C 
ATOM     19  O   UNL     1      53.255  25.998  49.228  1.00  0.00    -0.550 OA
ATOM     20  O   UNL     1      53.989  23.958  49.965  1.00  0.00    -0.550 OA
ENDBRANCH  17  18
ENDBRANCH  16  17
ENDBRANCH  15  16
ENDBRANCH  14  15
ENDBRANCH  13  14
ENDBRANCH  12  13
ENDBRANCH  11  12
ENDBRANCH   1  11
TORSDOF 15
ENDMDL
MODEL 7
REMARK VINA RESULT:    -3.191      3.196      6.268
REMARK INTER + INTRA:          -8.077
REMARK INTER:                  -5.869
REMARK INTRA:                  -2.207
REMARK UNBOUND:                -2.088
REMARK SMILES O=C([O-])CCCCCCCCCCCCCCC(=O)[O-]
REMARK SMILES IDX 10 1 9 2 8 3 7 4 6 5 5 6 4 7 2 8 1 9 3 10 11 11 12 12 13 13
REMARK SMILES IDX 14 14 15 15 16 16 17 17 18 18 19 19 20 20
REMARK H PARENT
REMARK Flexibility Score: inf
ROOT
ATOM      1  C   UNL     1      58.356  25.996  53.935  1.00  0.00     0.000 C 
ENDROOT
BRANCH   1   2
ATOM      2  C   UNL     1      58.650  27.244  53.085  1.00  0.00     0.000 C 
BRANCH   2   3
ATOM      3  C   UNL     1      57.375  28.006  52.678  1.00  0.00     0.000 C 
BRANCH   3   4
ATOM      4  C   UNL     1      57.193  28.216  51.164  1.00  0.00     0.000 C 
BRANCH   4   5
ATOM      5  C   UNL     1      55.781  27.861  50.674  1.00  0.00     0.000 C 
BRANCH   5   6
ATOM      6  C   UNL     1      55.401  26.433  51.081  1.00  0.00     0.006 C 
BRANCH   6   7
ATOM      7  C   UNL     1      55.498  25.476  49.890  1.00  0.00     0.053 C 
BRANCH   7   8
ATOM      8  C   UNL     1      54.184  24.804  49.648  1.00  0.00     0.041 C 
ATOM      9  O   UNL     1      53.899  23.734  50.247  1.00  0.00    -0.550 OA
ATOM     10  O   UNL     1      53.251  25.388  48.799  1.00  0.00    -0.550 OA
ENDBRANCH   7   8
ENDBRANCH   6   7
ENDBRANCH   5   6
ENDBRANCH   4   5
ENDBRANCH   3   4
ENDBRANCH   2   3
ENDBRANCH   1   2
BRANCH   1  11
ATOM     11  C   UNL     1      59.038  24.733  53.383  1.00  0.00     0.000 C 
BRANCH  11  12
ATOM     12  C   UNL     1      58.777  24.525  51.883  1.00  0.00     0.000 C 
BRANCH  12  13
ATOM     13  C   UNL     1      60.006  23.910  51.195  1.00  0.00     0.000 C 
BRANCH  13  14
ATOM     14  C   UNL     1      60.597  24.824  50.108  1.00  0.00     0.000 C 
BRANCH  14  15
ATOM     15  C   UNL     1      59.658  25.984  49.739  1.00  0.00     0.000 C 
BRANCH  15  16
ATOM     16  C   UNL     1      60.398  27.322  49.553  1.00  0.00     0.006 C 
BRANCH  16  17
ATOM     17  C   UNL     1      61.499  27.578  50.599  1.00  0.00     0.053 C 
BRANCH  17  18
ATOM     18  C   UNL     1      62.777  28.061  49.981  1.00  0.00     0.041 C 
ATOM     19  O   UNL     1      63.390  27.339  49.151  1.00  0.00    -0.550 OA
ATOM     20  O   UNL     1      63.311  29.290  50.348  1.00  0.00    -0.550 OA
ENDBRANCH  17  18
ENDBRANCH  16  17
ENDBRANCH  15  16
ENDBRANCH  14  15
ENDBRANCH  13  14
ENDBRANCH  12  13
ENDBRANCH  11  12
ENDBRANCH   1  11
TORSDOF 15
ENDMDL
MODEL 8
REMARK VINA RESULT:    -3.170      2.406      7.466
REMARK INTER + INTRA:          -8.038
REMARK INTER:                  -6.092
REMARK INTRA:                  -1.946
REMARK UNBOUND:                -2.088
REMARK SMILES O=C([O-])CCCCCCCCCCCCCCC(=O)[O-]
REMARK SMILES IDX 10 1 9 2 8 3 7 4 6 5 5 6 4 7 2 8 1 9 3 10 11 11 12 12 13 13
REMARK SMILES IDX 14 14 15 15 16 16 17 17 18 18 19 19 20 20
REMARK H PARENT
REMARK Flexibility Score: inf
ROOT
ATOM      1  C   UNL     1      57.165  27.279  52.190  1.00  0.00     0.000 C 
ENDROOT
BRANCH   1   2
ATOM      2  C   UNL     1      56.993  25.805  51.783  1.00  0.00     0.000 C 
BRANCH   2   3
ATOM      3  C   UNL     1      56.545  25.636  50.319  1.00  0.00     0.000 C 
BRANCH   3   4
ATOM      4  C   UNL     1      55.109  25.118  50.129  1.00  0.00     0.000 C 
BRANCH   4   5
ATOM      5  C   UNL     1      54.137  26.205  49.647  1.00  0.00     0.000 C 
BRANCH   5   6
ATOM      6  C   UNL     1      53.573  27.001  50.830  1.00  0.00     0.006 C 
BRANCH   6   7
ATOM      7  C   UNL     1      53.808  28.503  50.644  1.00  0.00     0.053 C 
BRANCH   7   8
ATOM      8  C   UNL     1      53.912  29.185  51.972  1.00  0.00     0.041 C 
ATOM      9  O   UNL     1      53.702  28.542  53.033  1.00  0.00    -0.550 OA
ATOM     10  O   UNL     1      54.289  30.521  52.038  1.00  0.00    -0.550 OA
ENDBRANCH   7   8
ENDBRANCH   6   7
ENDBRANCH   5   6
ENDBRANCH   4   5
ENDBRANCH   3   4
ENDBRANCH   2   3
ENDBRANCH   1   2
BRANCH   1  11
ATOM     11  C   UNL     1      57.628  28.163  51.020  1.00  0.00     0.000 C 
BRANCH  11  12
ATOM     12  C   UNL     1      58.886  28.979  51.354  1.00  0.00     0.000 C 
BRANCH  12  13
ATOM     13  C   UNL     1      60.048  28.595  50.425  1.00  0.00     0.000 C 
BRANCH  13  14
ATOM     14  C   UNL     1      59.679  27.467  49.447  1.00  0.00     0.000 C 
BRANCH  14  15
ATOM     15  C   UNL     1      60.271  26.109  49.862  1.00  0.00     0.000 C 
BRANCH  15  16
ATOM     16  C   UNL     1      61.450  26.242  50.844  1.00  0.00     0.006 C 
BRANCH  16  17
ATOM     17  C   UNL     1      62.775  25.665  50.312  1.00  0.00     0.053 C 
BRANCH  17  18
ATOM     18  C   UNL     1      63.755  26.734  49.933  1.00  0.00     0.041 C 
ATOM     19  O   UNL     1      63.618  27.364  48.851  1.00  0.00    -0.550 OA
ATOM     20  O   UNL     1      64.842  27.009  50.754  1.00  0.00    -0.550 OA
ENDBRANCH  17  18
ENDBRANCH  16  17
ENDBRANCH  15  16
ENDBRANCH  14  15
ENDBRANCH  13  14
ENDBRANCH  12  13
ENDBRANCH  11  12
ENDBRANCH   1  11
TORSDOF 15
ENDMDL
MODEL 9
REMARK VINA RESULT:    -3.142      2.380      6.699
REMARK INTER + INTRA:          -7.986
REMARK INTER:                  -5.519
REMARK INTRA:                  -2.467
REMARK UNBOUND:                -2.088
REMARK SMILES O=C([O-])CCCCCCCCCCCCCCC(=O)[O-]
REMARK SMILES IDX 10 1 9 2 8 3 7 4 6 5 5 6 4 7 2 8 1 9 3 10 11 11 12 12 13 13
REMARK SMILES IDX 14 14 15 15 16 16 17 17 18 18 19 19 20 20
REMARK H PARENT
REMARK Flexibility Score: inf
ROOT
ATOM      1  C   UNL     1      59.707  27.327  53.686  1.00  0.00     0.000 C 
ENDROOT
BRANCH   1   2
ATOM      2  C   UNL     1      59.137  25.944  54.045  1.00  0.00     0.000 C 
BRANCH   2   3
ATOM      3  C   UNL     1      58.123  25.427  53.009  1.00  0.00     0.000 C 
BRANCH   3   4
ATOM      4  C   UNL     1      58.717  25.066  51.635  1.00  0.00     0.000 C 
BRANCH   4   5
ATOM      5  C   UNL     1      57.719  25.250  50.483  1.00  0.00     0.000 C 
BRANCH   5   6
ATOM      6  C   UNL     1      56.321  25.589  51.014  1.00  0.00     0.006 C 
BRANCH   6   7
ATOM      7  C   UNL     1      55.404  26.069  49.886  1.00  0.00     0.053 C 
BRANCH   7   8
ATOM      8  C   UNL     1      54.491  27.148  50.377  1.00  0.00     0.041 C 
ATOM      9  O   UNL     1      53.401  27.372  49.789  1.00  0.00    -0.550 OA
ATOM     10  O   UNL     1      54.823  27.874  51.514  1.00  0.00    -0.550 OA
ENDBRANCH   7   8
ENDBRANCH   6   7
ENDBRANCH   5   6
ENDBRANCH   4   5
ENDBRANCH   3   4
ENDBRANCH   2   3
ENDBRANCH   1   2
BRANCH   1  11
ATOM     11  C   UNL     1      58.606  28.369  53.425  1.00  0.00     0.000 C 
BRANCH  11  12
ATOM     12  C   UNL     1      58.912  29.266  52.215  1.00  0.00     0.000 C 
BRANCH  12  13
ATOM     13  C   UNL     1      58.150  28.784  50.971  1.00  0.00     0.000 C 
BRANCH  13  14
ATOM     14  C   UNL     1      59.049  28.679  49.727  1.00  0.00     0.000 C 
BRANCH  14  15
ATOM     15  C   UNL     1      60.519  28.405  50.084  1.00  0.00     0.000 C 
BRANCH  15  16
ATOM     16  C   UNL     1      61.001  27.016  49.627  1.00  0.00     0.006 C 
BRANCH  16  17
ATOM     17  C   UNL     1      62.018  26.361  50.580  1.00  0.00     0.053 C 
BRANCH  17  18
ATOM     18  C   UNL     1      63.379  26.231  49.967  1.00  0.00     0.041 C 
ATOM     19  O   UNL     1      64.163  25.324  50.352  1.00  0.00    -0.550 OA
ATOM     20  O   UNL     1      63.798  27.134  48.996  1.00  0.00    -0.550 OA
ENDBRANCH  17  18
ENDBRANCH  16  17
ENDBRANCH  15  16
ENDBRANCH  14  15
ENDBRANCH  13  14
ENDBRANCH  12  13
ENDBRANCH  11  12
ENDBRANCH   1  11
TORSDOF 15
ENDMDL
