MODEL 1
REMARK VINA RESULT:    -2.775      0.000      0.000
REMARK INTER + INTRA:          -5.343
REMARK INTER:                  -4.398
REMARK INTRA:                  -0.945
REMARK UNBOUND:                -0.945
REMARK SMILES CCCCCCCCCCCC(=O)[O-]
REMARK SMILES IDX 7 1 8 2 9 3 10 4 11 5 12 6 13 7 14 8 6 9 5 10 4 11 3 12 2 13
REMARK SMILES IDX 1 14
REMARK H PARENT
REMARK Flexibility Score: inf
ROOT
ATOM      1  C   UNL     1      32.997  63.387  15.671  1.00  0.00     0.000 C 
ENDROOT
BRANCH   1   2
ATOM      2  C   UNL     1      31.850  62.809  14.835  1.00  0.00     0.000 C 
BRANCH   2   3
ATOM      3  C   UNL     1      30.849  63.906  14.440  1.00  0.00     0.000 C 
BRANCH   3   4
ATOM      4  C   UNL     1      29.602  63.939  15.342  1.00  0.00     0.006 C 
BRANCH   4   5
ATOM      5  C   UNL     1      29.381  65.286  16.053  1.00  0.00     0.053 C 
BRANCH   5   6
ATOM      6  C   UNL     1      28.365  65.202  17.151  1.00  0.00     0.041 C 
ATOM      7  O   UNL     1      28.725  65.261  18.356  1.00  0.00    -0.550 OA
ATOM      8  O   UNL     1      27.022  65.025  16.843  1.00  0.00    -0.550 OA
ENDBRANCH   5   6
ENDBRANCH   4   5
ENDBRANCH   3   4
ENDBRANCH   2   3
ENDBRANCH   1   2
BRANCH   1   9
ATOM      9  C   UNL     1      32.902  62.921  17.132  1.00  0.00     0.000 C 
BRANCH   9  10
ATOM     10  C   UNL     1      32.333  64.001  18.065  1.00  0.00    -0.000 C 
BRANCH  10  11
ATOM     11  C   UNL     1      31.752  63.414  19.363  1.00  0.00    -0.000 C 
BRANCH  11  12
ATOM     12  C   UNL     1      32.800  63.305  20.482  1.00  0.00    -0.000 C 
BRANCH  12  13
ATOM     13  C   UNL     1      32.741  61.958  21.218  1.00  0.00    -0.003 C 
ATOM     14  C   UNL     1      32.833  60.792  20.238  1.00  0.00     0.004 C 
ENDBRANCH  12  13
ENDBRANCH  11  12
ENDBRANCH  10  11
ENDBRANCH   9  10
ENDBRANCH   1   9
TORSDOF 10
ENDMDL
MODEL 2
REMARK VINA RESULT:    -2.595      2.957      5.733
REMARK INTER + INTRA:          -5.056
REMARK INTER:                  -4.179
REMARK INTRA:                  -0.877
REMARK UNBOUND:                -0.945
REMARK SMILES CCCCCCCCCCCC(=O)[O-]
REMARK SMILES IDX 7 1 8 2 9 3 10 4 11 5 12 6 13 7 14 8 6 9 5 10 4 11 3 12 2 13
REMARK SMILES IDX 1 14
REMARK H PARENT
REMARK Flexibility Score: inf
ROOT
ATOM      1  C   UNL     1      29.324  65.610  18.838  1.00  0.00     0.000 C 
ENDROOT
BRANCH   1   2
ATOM      2  C   UNL     1      30.246  65.923  20.022  1.00  0.00     0.000 C 
BRANCH   2   3
ATOM      3  C   UNL     1      31.627  65.278  19.831  1.00  0.00     0.000 C 
BRANCH   3   4
ATOM      4  C   UNL     1      31.792  63.961  20.611  1.00  0.00     0.006 C 
BRANCH   4   5
ATOM      5  C   UNL     1      32.344  62.799  19.767  1.00  0.00     0.053 C 
BRANCH   5   6
ATOM      6  C   UNL     1      32.693  61.598  20.591  1.00  0.00     0.041 C 
ATOM      7  O   UNL     1      32.817  60.469  20.049  1.00  0.00    -0.550 OA
ATOM      8  O   UNL     1      32.850  61.722  21.966  1.00  0.00    -0.550 OA
ENDBRANCH   5   6
ENDBRANCH   4   5
ENDBRANCH   3   4
ENDBRANCH   2   3
ENDBRANCH   1   2
BRANCH   1   9
ATOM      9  C   UNL     1      29.946  66.086  17.516  1.00  0.00     0.000 C 
BRANCH   9  10
ATOM     10  C   UNL     1      29.284  65.449  16.284  1.00  0.00    -0.000 C 
BRANCH  10  11
ATOM     11  C   UNL     1      30.120  64.303  15.689  1.00  0.00    -0.000 C 
BRANCH  11  12
ATOM     12  C   UNL     1      31.488  64.154  16.374  1.00  0.00    -0.000 C 
BRANCH  12  13
ATOM     13  C   UNL     1      32.335  63.025  15.767  1.00  0.00    -0.003 C 
ATOM     14  C   UNL     1      32.674  63.319  14.308  1.00  0.00     0.004 C 
ENDBRANCH  12  13
ENDBRANCH  11  12
ENDBRANCH  10  11
ENDBRANCH   9  10
ENDBRANCH   1   9
TORSDOF 10
ENDMDL
MODEL 3
REMARK VINA RESULT:    -2.489      2.530      3.652
REMARK INTER + INTRA:          -4.890
REMARK INTER:                  -3.952
REMARK INTRA:                  -0.937
REMARK UNBOUND:                -0.945
REMARK SMILES CCCCCCCCCCCC(=O)[O-]
REMARK SMILES IDX 7 1 8 2 9 3 10 4 11 5 12 6 13 7 14 8 6 9 5 10 4 11 3 12 2 13
REMARK SMILES IDX 1 14
REMARK H PARENT
REMARK Flexibility Score: inf
ROOT
ATOM      1  C   UNL     1      29.632  66.092  18.713  1.00  0.00     0.000 C 
ENDROOT
BRANCH   1   2
ATOM      2  C   UNL     1      28.854  65.140  17.797  1.00  0.00     0.000 C 
BRANCH   2   3
ATOM      3  C   UNL     1      29.167  65.418  16.320  1.00  0.00     0.000 C 
BRANCH   3   4
ATOM      4  C   UNL     1      30.071  64.347  15.682  1.00  0.00     0.006 C 
BRANCH   4   5
ATOM      5  C   UNL     1      31.454  64.220  16.346  1.00  0.00     0.053 C 
BRANCH   5   6
ATOM      6  C   UNL     1      32.299  63.151  15.726  1.00  0.00     0.041 C 
ATOM      7  O   UNL     1      32.870  62.292  16.447  1.00  0.00    -0.550 OA
ATOM      8  O   UNL     1      32.482  63.122  14.348  1.00  0.00    -0.550 OA
ENDBRANCH   5   6
ENDBRANCH   4   5
ENDBRANCH   3   4
ENDBRANCH   2   3
ENDBRANCH   1   2
BRANCH   1   9
ATOM      9  C   UNL     1      30.440  65.310  19.760  1.00  0.00     0.000 C 
BRANCH   9  10
ATOM     10  C   UNL     1      31.933  65.673  19.752  1.00  0.00    -0.000 C 
BRANCH  10  11
ATOM     11  C   UNL     1      32.843  64.432  19.761  1.00  0.00    -0.000 C 
BRANCH  11  12
ATOM     12  C   UNL     1      32.049  63.120  19.852  1.00  0.00    -0.000 C 
BRANCH  12  13
ATOM     13  C   UNL     1      32.950  61.896  20.076  1.00  0.00    -0.003 C 
ATOM     14  C   UNL     1      32.221  60.815  20.869  1.00  0.00     0.004 C 
ENDBRANCH  12  13
ENDBRANCH  11  12
ENDBRANCH  10  11
ENDBRANCH   9  10
ENDBRANCH   1   9
TORSDOF 10
ENDMDL
MODEL 4
REMARK VINA RESULT:    -2.420     11.600     15.194
REMARK INTER + INTRA:          -4.779
REMARK INTER:                  -4.016
REMARK INTRA:                  -0.764
REMARK UNBOUND:                -0.945
REMARK SMILES CCCCCCCCCCCC(=O)[O-]
REMARK SMILES IDX 7 1 8 2 9 3 10 4 11 5 12 6 13 7 14 8 6 9 5 10 4 11 3 12 2 13
REMARK SMILES IDX 1 14
REMARK H PARENT
REMARK Flexibility Score: inf
ROOT
ATOM      1  C   UNL     1      16.545  65.026  17.147  1.00  0.00     0.000 C 
ENDROOT
BRANCH   1   2
ATOM      2  C   UNL     1      16.704  66.125  16.091  1.00  0.00     0.000 C 
BRANCH   2   3
ATOM      3  C   UNL     1      18.007  65.944  15.299  1.00  0.00     0.000 C 
BRANCH   3   4
ATOM      4  C   UNL     1      19.266  66.011  16.182  1.00  0.00     0.006 C 
BRANCH   4   5
ATOM      5  C   UNL     1      20.585  66.023  15.390  1.00  0.00     0.053 C 
BRANCH   5   6
ATOM      6  C   UNL     1      21.749  65.532  16.196  1.00  0.00     0.041 C 
ATOM      7  O   UNL     1      21.598  64.603  17.031  1.00  0.00    -0.550 OA
ATOM      8  O   UNL     1      22.997  66.125  16.045  1.00  0.00    -0.550 OA
ENDBRANCH   5   6
ENDBRANCH   4   5
ENDBRANCH   3   4
ENDBRANCH   2   3
ENDBRANCH   1   2
BRANCH   1   9
ATOM      9  C   UNL     1      15.071  64.622  17.304  1.00  0.00     0.000 C 
BRANCH   9  10
ATOM     10  C   UNL     1      14.124  65.488  16.457  1.00  0.00    -0.000 C 
BRANCH  10  11
ATOM     11  C   UNL     1      13.126  64.647  15.642  1.00  0.00    -0.000 C 
BRANCH  11  12
ATOM     12  C   UNL     1      13.599  64.405  14.200  1.00  0.00    -0.000 C 
BRANCH  12  13
ATOM     13  C   UNL     1      14.376  65.598  13.622  1.00  0.00    -0.003 C 
ATOM     14  C   UNL     1      14.995  65.247  12.272  1.00  0.00     0.004 C 
ENDBRANCH  12  13
ENDBRANCH  11  12
ENDBRANCH  10  11
ENDBRANCH   9  10
ENDBRANCH   1   9
TORSDOF 10
ENDMDL
MODEL 5
REMARK VINA RESULT:    -2.280      2.116      3.361
REMARK INTER + INTRA:          -4.558
REMARK INTER:                  -3.999
REMARK INTRA:                  -0.559
REMARK UNBOUND:                -0.945
REMARK SMILES CCCCCCCCCCCC(=O)[O-]
REMARK SMILES IDX 7 1 8 2 9 3 10 4 11 5 12 6 13 7 14 8 6 9 5 10 4 11 3 12 2 13
REMARK SMILES IDX 1 14
REMARK H PARENT
REMARK Flexibility Score: inf
ROOT
ATOM      1  C   UNL     1      31.528  64.170  19.718  1.00  0.00     0.000 C 
ENDROOT
BRANCH   1   2
ATOM      2  C   UNL     1      32.009  64.921  18.472  1.00  0.00     0.000 C 
BRANCH   2   3
ATOM      3  C   UNL     1      30.897  65.816  17.904  1.00  0.00     0.000 C 
BRANCH   3   4
ATOM      4  C   UNL     1      29.975  65.079  16.915  1.00  0.00     0.006 C 
BRANCH   4   5
ATOM      5  C   UNL     1      28.690  65.851  16.565  1.00  0.00     0.053 C 
BRANCH   5   6
ATOM      6  C   UNL     1      27.463  65.235  17.164  1.00  0.00     0.041 C 
ATOM      7  O   UNL     1      27.541  64.568  18.228  1.00  0.00    -0.550 OA
ATOM      8  O   UNL     1      26.236  65.372  16.527  1.00  0.00    -0.550 OA
ENDBRANCH   5   6
ENDBRANCH   4   5
ENDBRANCH   3   4
ENDBRANCH   2   3
ENDBRANCH   1   2
BRANCH   1   9
ATOM      9  C   UNL     1      32.191  62.788  19.818  1.00  0.00     0.000 C 
BRANCH   9  10
ATOM     10  C   UNL     1      32.771  62.505  21.213  1.00  0.00    -0.000 C 
BRANCH  10  11
ATOM     11  C   UNL     1      33.109  63.792  21.984  1.00  0.00    -0.000 C 
BRANCH  11  12
ATOM     12  C   UNL     1      32.469  63.828  23.381  1.00  0.00    -0.000 C 
BRANCH  12  13
ATOM     13  C   UNL     1      32.140  65.255  23.845  1.00  0.00    -0.003 C 
ATOM     14  C   UNL     1      30.649  65.410  24.130  1.00  0.00     0.004 C 
ENDBRANCH  12  13
ENDBRANCH  11  12
ENDBRANCH  10  11
ENDBRANCH   9  10
ENDBRANCH   1   9
TORSDOF 10
ENDMDL
MODEL 6
REMARK VINA RESULT:    -2.216      1.546      2.969
REMARK INTER + INTRA:          -4.456
REMARK INTER:                  -3.490
REMARK INTRA:                  -0.966
REMARK UNBOUND:                -0.945
REMARK SMILES CCCCCCCCCCCC(=O)[O-]
REMARK SMILES IDX 7 1 8 2 9 3 10 4 11 5 12 6 13 7 14 8 6 9 5 10 4 11 3 12 2 13
REMARK SMILES IDX 1 14
REMARK H PARENT
REMARK Flexibility Score: inf
ROOT
ATOM      1  C   UNL     1      30.184  63.557  15.309  1.00  0.00     0.000 C 
ENDROOT
BRANCH   1   2
ATOM      2  C   UNL     1      29.810  64.993  15.693  1.00  0.00     0.000 C 
BRANCH   2   3
ATOM      3  C   UNL     1      29.745  65.156  17.219  1.00  0.00     0.000 C 
BRANCH   3   4
ATOM      4  C   UNL     1      28.312  65.064  17.776  1.00  0.00     0.006 C 
BRANCH   4   5
ATOM      5  C   UNL     1      27.351  66.121  17.203  1.00  0.00     0.053 C 
BRANCH   5   6
ATOM      6  C   UNL     1      26.214  65.515  16.438  1.00  0.00     0.041 C 
ATOM      7  O   UNL     1      25.060  66.013  16.513  1.00  0.00    -0.550 OA
ATOM      8  O   UNL     1      26.423  64.379  15.666  1.00  0.00    -0.550 OA
ENDBRANCH   5   6
ENDBRANCH   4   5
ENDBRANCH   3   4
ENDBRANCH   2   3
ENDBRANCH   1   2
BRANCH   1   9
ATOM      9  C   UNL     1      31.353  63.542  14.311  1.00  0.00     0.000 C 
BRANCH   9  10
ATOM     10  C   UNL     1      32.725  63.512  15.003  1.00  0.00    -0.000 C 
BRANCH  10  11
ATOM     11  C   UNL     1      32.708  62.706  16.313  1.00  0.00    -0.000 C 
BRANCH  11  12
ATOM     12  C   UNL     1      33.050  63.566  17.540  1.00  0.00    -0.000 C 
BRANCH  12  13
ATOM     13  C   UNL     1      32.821  62.825  18.866  1.00  0.00    -0.003 C 
ATOM     14  C   UNL     1      31.937  63.642  19.805  1.00  0.00     0.004 C 
ENDBRANCH  12  13
ENDBRANCH  11  12
ENDBRANCH  10  11
ENDBRANCH   9  10
ENDBRANCH   1   9
TORSDOF 10
ENDMDL
MODEL 7
REMARK VINA RESULT:    -2.215      2.593      5.543
REMARK INTER + INTRA:          -4.455
REMARK INTER:                  -4.133
REMARK INTRA:                  -0.322
REMARK UNBOUND:                -0.945
REMARK SMILES CCCCCCCCCCCC(=O)[O-]
REMARK SMILES IDX 7 1 8 2 9 3 10 4 11 5 12 6 13 7 14 8 6 9 5 10 4 11 3 12 2 13
REMARK SMILES IDX 1 14
REMARK H PARENT
REMARK Flexibility Score: inf
ROOT
ATOM      1  C   UNL     1      27.629  64.779  17.921  1.00  0.00     0.000 C 
ENDROOT
BRANCH   1   2
ATOM      2  C   UNL     1      27.792  65.912  18.941  1.00  0.00     0.000 C 
BRANCH   2   3
ATOM      3  C   UNL     1      29.270  66.125  19.297  1.00  0.00     0.000 C 
BRANCH   3   4
ATOM      4  C   UNL     1      29.541  66.069  20.812  1.00  0.00     0.006 C 
BRANCH   4   5
ATOM      5  C   UNL     1      31.034  66.117  21.183  1.00  0.00     0.053 C 
BRANCH   5   6
ATOM      6  C   UNL     1      31.797  64.935  20.670  1.00  0.00     0.041 C 
ATOM      7  O   UNL     1      32.013  63.945  21.416  1.00  0.00    -0.550 OA
ATOM      8  O   UNL     1      32.299  64.941  19.374  1.00  0.00    -0.550 OA
ENDBRANCH   5   6
ENDBRANCH   4   5
ENDBRANCH   3   4
ENDBRANCH   2   3
ENDBRANCH   1   2
BRANCH   1   9
ATOM      9  C   UNL     1      27.621  65.328  16.486  1.00  0.00     0.000 C 
BRANCH   9  10
ATOM     10  C   UNL     1      29.017  65.752  16.002  1.00  0.00    -0.000 C 
BRANCH  10  11
ATOM     11  C   UNL     1      30.053  64.622  16.128  1.00  0.00    -0.000 C 
BRANCH  11  12
ATOM     12  C   UNL     1      30.209  63.817  14.829  1.00  0.00    -0.000 C 
BRANCH  12  13
ATOM     13  C   UNL     1      31.587  63.149  14.706  1.00  0.00    -0.003 C 
ATOM     14  C   UNL     1      32.384  63.297  15.999  1.00  0.00     0.004 C 
ENDBRANCH  12  13
ENDBRANCH  11  12
ENDBRANCH  10  11
ENDBRANCH   9  10
ENDBRANCH   1   9
TORSDOF 10
ENDMDL
