MODEL 1
REMARK VINA RESULT:    -2.963      0.000      0.000
REMARK INTER + INTRA:          -3.516
REMARK INTER:                  -3.483
REMARK INTRA:                  -0.033
REMARK UNBOUND:                -0.033
REMARK SMILES O=C([O-])CCC(=O)[O-]
REMARK SMILES IDX 4 1 2 2 1 3 3 4 5 5 6 6 7 7 8 8
REMARK H PARENT
REMARK Flexibility Score: inf
ROOT
ATOM      1  C   UNL     1      -4.820 -14.685  22.971  1.00  0.00     0.059 C 
ENDROOT
BRANCH   1   2
ATOM      2  C   UNL     1      -3.480 -14.733  22.303  1.00  0.00     0.042 C 
ATOM      3  O   UNL     1      -2.975 -15.839  21.975  1.00  0.00    -0.550 OA
ATOM      4  O   UNL     1      -2.769 -13.560  22.083  1.00  0.00    -0.550 OA
ENDBRANCH   1   2
BRANCH   1   5
ATOM      5  C   UNL     1      -5.901 -15.358  22.119  1.00  0.00     0.059 C 
BRANCH   5   6
ATOM      6  C   UNL     1      -7.143 -14.522  22.039  1.00  0.00     0.042 C 
ATOM      7  O   UNL     1      -7.545 -13.889  23.050  1.00  0.00    -0.550 OA
ATOM      8  O   UNL     1      -7.876 -14.478  20.861  1.00  0.00    -0.550 OA
ENDBRANCH   5   6
ENDBRANCH   1   5
TORSDOF 3
ENDMDL
MODEL 2
REMARK VINA RESULT:    -2.957      0.055      4.187
REMARK INTER + INTRA:          -3.509
REMARK INTER:                  -3.476
REMARK INTRA:                  -0.032
REMARK UNBOUND:                -0.033
REMARK SMILES O=C([O-])CCC(=O)[O-]
REMARK SMILES IDX 4 1 2 2 1 3 3 4 5 5 6 6 7 7 8 8
REMARK H PARENT
REMARK Flexibility Score: inf
ROOT
ATOM      1  C   UNL     1      -5.897 -15.347  22.142  1.00  0.00     0.059 C 
ENDROOT
BRANCH   1   2
ATOM      2  C   UNL     1      -7.139 -14.513  22.056  1.00  0.00     0.042 C 
ATOM      3  O   UNL     1      -7.537 -13.865  23.058  1.00  0.00    -0.550 OA
ATOM      4  O   UNL     1      -7.879 -14.487  20.881  1.00  0.00    -0.550 OA
ENDBRANCH   1   2
BRANCH   1   5
ATOM      5  C   UNL     1      -4.798 -14.642  22.943  1.00  0.00     0.059 C 
BRANCH   5   6
ATOM      6  C   UNL     1      -3.467 -14.737  22.258  1.00  0.00     0.042 C 
ATOM      7  O   UNL     1      -2.975 -15.863  21.986  1.00  0.00    -0.550 OA
ATOM      8  O   UNL     1      -2.754 -13.583  21.961  1.00  0.00    -0.550 OA
ENDBRANCH   5   6
ENDBRANCH   1   5
TORSDOF 3
ENDMDL
MODEL 3
REMARK VINA RESULT:    -2.892      1.382      1.844
REMARK INTER + INTRA:          -3.433
REMARK INTER:                  -3.402
REMARK INTRA:                  -0.030
REMARK UNBOUND:                -0.033
REMARK SMILES O=C([O-])CCC(=O)[O-]
REMARK SMILES IDX 4 1 2 2 1 3 3 4 5 5 6 6 7 7 8 8
REMARK H PARENT
REMARK Flexibility Score: inf
ROOT
ATOM      1  C   UNL     1      -3.579 -14.934  21.962  1.00  0.00     0.059 C 
ENDROOT
BRANCH   1   2
ATOM      2  C   UNL     1      -2.489 -13.919  22.128  1.00  0.00     0.042 C 
ATOM      3  O   UNL     1      -1.787 -13.909  23.173  1.00  0.00    -0.550 OA
ATOM      4  O   UNL     1      -2.278 -12.959  21.147  1.00  0.00    -0.550 OA
ENDBRANCH   1   2
BRANCH   1   5
ATOM      5  C   UNL     1      -4.655 -14.789  23.042  1.00  0.00     0.059 C 
BRANCH   5   6
ATOM      6  C   UNL     1      -6.035 -14.844  22.459  1.00  0.00     0.042 C 
ATOM      7  O   UNL     1      -6.469 -15.916  21.962  1.00  0.00    -0.550 OA
ATOM      8  O   UNL     1      -6.823 -13.702  22.428  1.00  0.00    -0.550 OA
ENDBRANCH   5   6
ENDBRANCH   1   5
TORSDOF 3
ENDMDL
MODEL 4
REMARK VINA RESULT:    -2.862     16.090     16.751
REMARK INTER + INTRA:          -3.397
REMARK INTER:                  -3.341
REMARK INTRA:                  -0.056
REMARK UNBOUND:                -0.033
REMARK SMILES O=C([O-])CCC(=O)[O-]
REMARK SMILES IDX 4 1 2 2 1 3 3 4 5 5 6 6 7 7 8 8
REMARK H PARENT
REMARK Flexibility Score: inf
ROOT
ATOM      1  C   UNL     1      -9.675  -1.625  11.934  1.00  0.00     0.059 C 
ENDROOT
BRANCH   1   2
ATOM      2  C   UNL     1     -10.000  -1.319  13.365  1.00  0.00     0.042 C 
ATOM      3  O   UNL     1      -9.290  -0.507  14.016  1.00  0.00    -0.550 OA
ATOM      4  O   UNL     1     -11.061  -1.961  13.990  1.00  0.00    -0.550 OA
ENDBRANCH   1   2
BRANCH   1   5
ATOM      5  C   UNL     1     -10.420  -2.869  11.440  1.00  0.00     0.059 C 
BRANCH   5   6
ATOM      6  C   UNL     1      -9.513  -3.792  10.683  1.00  0.00     0.042 C 
ATOM      7  O   UNL     1      -9.914  -4.345   9.625  1.00  0.00    -0.550 OA
ATOM      8  O   UNL     1      -8.243  -4.074  11.168  1.00  0.00    -0.550 OA
ENDBRANCH   5   6
ENDBRANCH   1   5
TORSDOF 3
ENDMDL
MODEL 5
REMARK VINA RESULT:    -2.838     16.988     18.281
REMARK INTER + INTRA:          -3.369
REMARK INTER:                  -3.279
REMARK INTRA:                  -0.089
REMARK UNBOUND:                -0.033
REMARK SMILES O=C([O-])CCC(=O)[O-]
REMARK SMILES IDX 4 1 2 2 1 3 3 4 5 5 6 6 7 7 8 8
REMARK H PARENT
REMARK Flexibility Score: inf
ROOT
ATOM      1  C   UNL     1     -11.103  -3.719   9.354  1.00  0.00     0.059 C 
ENDROOT
BRANCH   1   2
ATOM      2  C   UNL     1     -11.124  -2.905   8.096  1.00  0.00     0.042 C 
ATOM      3  O   UNL     1     -11.105  -3.474   6.973  1.00  0.00    -0.550 OA
ATOM      4  O   UNL     1     -11.123  -1.518   8.165  1.00  0.00    -0.550 OA
ENDBRANCH   1   2
BRANCH   1   5
ATOM      5  C   UNL     1     -11.079  -2.831  10.602  1.00  0.00     0.059 C 
BRANCH   5   6
ATOM      6  C   UNL     1      -9.705  -2.744  11.194  1.00  0.00     0.042 C 
ATOM      7  O   UNL     1      -8.879  -3.678  11.015  1.00  0.00    -0.550 OA
ATOM      8  O   UNL     1      -9.351  -1.653  11.976  1.00  0.00    -0.550 OA
ENDBRANCH   5   6
ENDBRANCH   1   5
TORSDOF 3
ENDMDL
MODEL 6
REMARK VINA RESULT:    -2.825     16.016     16.549
REMARK INTER + INTRA:          -3.353
REMARK INTER:                  -3.293
REMARK INTRA:                  -0.060
REMARK UNBOUND:                -0.033
REMARK SMILES O=C([O-])CCC(=O)[O-]
REMARK SMILES IDX 4 1 2 2 1 3 3 4 5 5 6 6 7 7 8 8
REMARK H PARENT
REMARK Flexibility Score: inf
ROOT
ATOM      1  C   UNL     1     -10.330  -3.006  11.547  1.00  0.00     0.059 C 
ENDROOT
BRANCH   1   2
ATOM      2  C   UNL     1      -9.319  -3.861  10.846  1.00  0.00     0.042 C 
ATOM      3  O   UNL     1      -8.119  -3.865  11.228  1.00  0.00    -0.550 OA
ATOM      4  O   UNL     1      -9.693  -4.620   9.744  1.00  0.00    -0.550 OA
ENDBRANCH   1   2
BRANCH   1   5
ATOM      5  C   UNL     1      -9.751  -1.639  11.925  1.00  0.00     0.059 C 
BRANCH   5   6
ATOM      6  C   UNL     1     -10.020  -1.303  13.361  1.00  0.00     0.042 C 
ATOM      7  O   UNL     1      -9.250  -0.524  13.983  1.00  0.00    -0.550 OA
ATOM      8  O   UNL     1     -11.095  -1.881  14.022  1.00  0.00    -0.550 OA
ENDBRANCH   5   6
ENDBRANCH   1   5
TORSDOF 3
ENDMDL
MODEL 7
REMARK VINA RESULT:    -2.818     16.247     16.734
REMARK INTER + INTRA:          -3.346
REMARK INTER:                  -3.287
REMARK INTRA:                  -0.059
REMARK UNBOUND:                -0.033
REMARK SMILES O=C([O-])CCC(=O)[O-]
REMARK SMILES IDX 4 1 2 2 1 3 3 4 5 5 6 6 7 7 8 8
REMARK H PARENT
REMARK Flexibility Score: inf
ROOT
ATOM      1  C   UNL     1     -10.524  -2.710  11.324  1.00  0.00     0.059 C 
ENDROOT
BRANCH   1   2
ATOM      2  C   UNL     1      -9.704  -3.697  10.550  1.00  0.00     0.042 C 
ATOM      3  O   UNL     1     -10.156  -4.202   9.489  1.00  0.00    -0.550 OA
ATOM      4  O   UNL     1      -8.460  -4.092  11.024  1.00  0.00    -0.550 OA
ENDBRANCH   1   2
BRANCH   1   5
ATOM      5  C   UNL     1      -9.655  -1.599  11.921  1.00  0.00     0.059 C 
BRANCH   5   6
ATOM      6  C   UNL     1     -10.014  -1.323  13.350  1.00  0.00     0.042 C 
ATOM      7  O   UNL     1      -9.315  -0.533  14.037  1.00  0.00    -0.550 OA
ATOM      8  O   UNL     1     -11.095  -1.971  13.933  1.00  0.00    -0.550 OA
ENDBRANCH   5   6
ENDBRANCH   1   5
TORSDOF 3
ENDMDL
MODEL 8
REMARK VINA RESULT:    -2.657      1.649      4.296
REMARK INTER + INTRA:          -3.156
REMARK INTER:                  -3.081
REMARK INTRA:                  -0.075
REMARK UNBOUND:                -0.033
REMARK SMILES O=C([O-])CCC(=O)[O-]
REMARK SMILES IDX 4 1 2 2 1 3 3 4 5 5 6 6 7 7 8 8
REMARK H PARENT
REMARK Flexibility Score: inf
ROOT
ATOM      1  C   UNL     1      -4.236 -15.112  22.914  1.00  0.00     0.059 C 
ENDROOT
BRANCH   1   2
ATOM      2  C   UNL     1      -5.627 -14.798  22.454  1.00  0.00     0.042 C 
ATOM      3  O   UNL     1      -6.059 -13.617  22.502  1.00  0.00    -0.550 OA
ATOM      4  O   UNL     1      -6.461 -15.818  22.013  1.00  0.00    -0.550 OA
ENDBRANCH   1   2
BRANCH   1   5
ATOM      5  C   UNL     1      -3.208 -14.881  21.801  1.00  0.00     0.059 C 
BRANCH   5   6
ATOM      6  C   UNL     1      -2.361 -13.675  22.072  1.00  0.00     0.042 C 
ATOM      7  O   UNL     1      -2.287 -12.749  21.222  1.00  0.00    -0.550 OA
ATOM      8  O   UNL     1      -1.621 -13.593  23.245  1.00  0.00    -0.550 OA
ENDBRANCH   5   6
ENDBRANCH   1   5
TORSDOF 3
ENDMDL
