MODEL 1
REMARK VINA RESULT:    -2.840      0.000      0.000
REMARK INTER + INTRA:          -3.210
REMARK INTER:                  -3.172
REMARK INTRA:                  -0.038
REMARK UNBOUND:                -0.038
REMARK SMILES CCCC(=O)[O-]
REMARK SMILES IDX 3 1 4 2 5 3 6 4 2 5 1 6
REMARK H PARENT
REMARK Flexibility Score: inf
ROOT
ATOM      1  C   UNL     1     105.139  11.223  14.889  1.00  0.00     0.052 C 
ENDROOT
BRANCH   1   2
ATOM      2  C   UNL     1     103.810  11.634  15.440  1.00  0.00     0.041 C 
ATOM      3  O   UNL     1     102.862  11.921  14.662  1.00  0.00    -0.550 OA
ATOM      4  O   UNL     1     103.603  11.652  16.813  1.00  0.00    -0.550 OA
ENDBRANCH   1   2
BRANCH   1   5
ATOM      5  C   UNL     1     106.269  11.700  15.803  1.00  0.00     0.003 C 
ATOM      6  C   UNL     1     107.055  10.521  16.369  1.00  0.00     0.004 C 
ENDBRANCH   1   5
TORSDOF 2
ENDMDL
MODEL 2
REMARK VINA RESULT:    -2.829      0.069      1.323
REMARK INTER + INTRA:          -3.198
REMARK INTER:                  -3.160
REMARK INTRA:                  -0.039
REMARK UNBOUND:                -0.038
REMARK SMILES CCCC(=O)[O-]
REMARK SMILES IDX 3 1 4 2 5 3 6 4 2 5 1 6
REMARK H PARENT
REMARK Flexibility Score: inf
ROOT
ATOM      1  C   UNL     1     105.137  11.220  14.933  1.00  0.00     0.052 C 
ENDROOT
BRANCH   1   2
ATOM      2  C   UNL     1     103.809  11.597  15.510  1.00  0.00     0.041 C 
ATOM      3  O   UNL     1     103.656  11.661  16.758  1.00  0.00    -0.550 OA
ATOM      4  O   UNL     1     102.754  11.927  14.669  1.00  0.00    -0.550 OA
ENDBRANCH   1   2
BRANCH   1   5
ATOM      5  C   UNL     1     106.272  11.691  15.846  1.00  0.00     0.003 C 
ATOM      6  C   UNL     1     107.078  10.509  16.377  1.00  0.00     0.004 C 
ENDBRANCH   1   5
TORSDOF 2
ENDMDL
MODEL 3
REMARK VINA RESULT:    -2.757      3.096      3.832
REMARK INTER + INTRA:          -3.117
REMARK INTER:                  -3.079
REMARK INTRA:                  -0.038
REMARK UNBOUND:                -0.038
REMARK SMILES CCCC(=O)[O-]
REMARK SMILES IDX 3 1 4 2 5 3 6 4 2 5 1 6
REMARK H PARENT
REMARK Flexibility Score: inf
ROOT
ATOM      1  C   UNL     1     106.400  11.472  16.998  1.00  0.00     0.052 C 
ENDROOT
BRANCH   1   2
ATOM      2  C   UNL     1     107.383  10.411  17.380  1.00  0.00     0.041 C 
ATOM      3  O   UNL     1     107.746   9.550  16.535  1.00  0.00    -0.550 OA
ATOM      4  O   UNL     1     107.937  10.402  18.654  1.00  0.00    -0.550 OA
ENDBRANCH   1   2
BRANCH   1   5
ATOM      5  C   UNL     1     106.303  11.590  15.475  1.00  0.00     0.003 C 
ATOM      6  C   UNL     1     104.895  11.263  14.986  1.00  0.00     0.004 C 
ENDBRANCH   1   5
TORSDOF 2
ENDMDL
MODEL 4
REMARK VINA RESULT:    -2.730      3.099      3.977
REMARK INTER + INTRA:          -3.088
REMARK INTER:                  -3.050
REMARK INTRA:                  -0.037
REMARK UNBOUND:                -0.038
REMARK SMILES CCCC(=O)[O-]
REMARK SMILES IDX 3 1 4 2 5 3 6 4 2 5 1 6
REMARK H PARENT
REMARK Flexibility Score: inf
ROOT
ATOM      1  C   UNL     1     106.370  11.575  16.994  1.00  0.00     0.052 C 
ENDROOT
BRANCH   1   2
ATOM      2  C   UNL     1     107.362  10.550  17.446  1.00  0.00     0.041 C 
ATOM      3  O   UNL     1     107.850  10.609  18.605  1.00  0.00    -0.550 OA
ATOM      4  O   UNL     1     107.710   9.502  16.604  1.00  0.00    -0.550 OA
ENDBRANCH   1   2
BRANCH   1   5
ATOM      5  C   UNL     1     106.273  11.591  15.467  1.00  0.00     0.003 C 
ATOM      6  C   UNL     1     104.866  11.232  15.000  1.00  0.00     0.004 C 
ENDBRANCH   1   5
TORSDOF 2
ENDMDL
MODEL 5
REMARK VINA RESULT:    -2.692      1.622      2.159
REMARK INTER + INTRA:          -3.045
REMARK INTER:                  -3.033
REMARK INTRA:                  -0.012
REMARK UNBOUND:                -0.038
REMARK SMILES CCCC(=O)[O-]
REMARK SMILES IDX 3 1 4 2 5 3 6 4 2 5 1 6
REMARK H PARENT
REMARK Flexibility Score: inf
ROOT
ATOM      1  C   UNL     1     106.313  11.644  16.805  1.00  0.00     0.052 C 
ENDROOT
BRANCH   1   2
ATOM      2  C   UNL     1     105.408  12.060  15.689  1.00  0.00     0.041 C 
ATOM      3  O   UNL     1     104.732  13.119  15.783  1.00  0.00    -0.550 OA
ATOM      4  O   UNL     1     105.348  11.306  14.524  1.00  0.00    -0.550 OA
ENDBRANCH   1   2
BRANCH   1   5
ATOM      5  C   UNL     1     107.164  10.443  16.386  1.00  0.00     0.003 C 
ATOM      6  C   UNL     1     107.723   9.712  17.602  1.00  0.00     0.004 C 
ENDBRANCH   1   5
TORSDOF 2
ENDMDL
MODEL 6
REMARK VINA RESULT:    -2.656     13.637     14.075
REMARK INTER + INTRA:          -3.004
REMARK INTER:                  -2.997
REMARK INTRA:                  -0.007
REMARK UNBOUND:                -0.038
REMARK SMILES CCCC(=O)[O-]
REMARK SMILES IDX 3 1 4 2 5 3 6 4 2 5 1 6
REMARK H PARENT
REMARK Flexibility Score: inf
ROOT
ATOM      1  C   UNL     1      96.277   5.209  23.256  1.00  0.00     0.052 C 
ENDROOT
BRANCH   1   2
ATOM      2  C   UNL     1      96.132   4.020  24.152  1.00  0.00     0.041 C 
ATOM      3  O   UNL     1      96.143   2.857  23.669  1.00  0.00    -0.550 OA
ATOM      4  O   UNL     1      96.036   4.193  25.528  1.00  0.00    -0.550 OA
ENDBRANCH   1   2
BRANCH   1   5
ATOM      5  C   UNL     1      95.280   6.301  23.650  1.00  0.00     0.003 C 
ATOM      6  C   UNL     1      94.677   6.967  22.417  1.00  0.00     0.004 C 
ENDBRANCH   1   5
TORSDOF 2
ENDMDL
MODEL 7
REMARK VINA RESULT:    -2.633     14.203     14.599
REMARK INTER + INTRA:          -2.979
REMARK INTER:                  -2.973
REMARK INTRA:                  -0.006
REMARK UNBOUND:                -0.038
REMARK SMILES CCCC(=O)[O-]
REMARK SMILES IDX 3 1 4 2 5 3 6 4 2 5 1 6
REMARK H PARENT
REMARK Flexibility Score: inf
ROOT
ATOM      1  C   UNL     1      96.448   4.319  23.658  1.00  0.00     0.052 C 
ENDROOT
BRANCH   1   2
ATOM      2  C   UNL     1      96.335   2.974  24.303  1.00  0.00     0.041 C 
ATOM      3  O   UNL     1      95.953   1.979  23.632  1.00  0.00    -0.550 OA
ATOM      4  O   UNL     1      96.701   2.809  25.633  1.00  0.00    -0.550 OA
ENDBRANCH   1   2
BRANCH   1   5
ATOM      5  C   UNL     1      95.695   5.371  24.476  1.00  0.00     0.003 C 
ATOM      6  C   UNL     1      95.099   6.448  23.575  1.00  0.00     0.004 C 
ENDBRANCH   1   5
TORSDOF 2
ENDMDL
MODEL 8
REMARK VINA RESULT:    -2.492      2.174      3.093
REMARK INTER + INTRA:          -2.821
REMARK INTER:                  -2.783
REMARK INTRA:                  -0.038
REMARK UNBOUND:                -0.038
REMARK SMILES CCCC(=O)[O-]
REMARK SMILES IDX 3 1 4 2 5 3 6 4 2 5 1 6
REMARK H PARENT
REMARK Flexibility Score: inf
ROOT
ATOM      1  C   UNL     1     105.087  12.003  16.915  1.00  0.00     0.052 C 
ENDROOT
BRANCH   1   2
ATOM      2  C   UNL     1     105.832  11.304  15.822  1.00  0.00     0.041 C 
ATOM      3  O   UNL     1     105.388  11.317  14.644  1.00  0.00    -0.550 OA
ATOM      4  O   UNL     1     107.043  10.681  16.095  1.00  0.00    -0.550 OA
ENDBRANCH   1   2
BRANCH   1   5
ATOM      5  C   UNL     1     103.697  12.423  16.432  1.00  0.00     0.003 C 
ATOM      6  C   UNL     1     102.628  11.448  16.917  1.00  0.00     0.004 C 
ENDBRANCH   1   5
TORSDOF 2
ENDMDL
MODEL 9
REMARK VINA RESULT:    -2.475     13.238     13.785
REMARK INTER + INTRA:          -2.802
REMARK INTER:                  -2.752
REMARK INTRA:                  -0.051
REMARK UNBOUND:                -0.038
REMARK SMILES CCCC(=O)[O-]
REMARK SMILES IDX 3 1 4 2 5 3 6 4 2 5 1 6
REMARK H PARENT
REMARK Flexibility Score: inf
ROOT
ATOM      1  C   UNL     1      97.003   4.366  23.634  1.00  0.00     0.052 C 
ENDROOT
BRANCH   1   2
ATOM      2  C   UNL     1      96.568   3.097  24.296  1.00  0.00     0.041 C 
ATOM      3  O   UNL     1      95.953   2.217  23.637  1.00  0.00    -0.550 OA
ATOM      4  O   UNL     1      96.885   2.863  25.628  1.00  0.00    -0.550 OA
ENDBRANCH   1   2
BRANCH   1   5
ATOM      5  C   UNL     1      98.405   4.762  24.105  1.00  0.00     0.003 C 
ATOM      6  C   UNL     1      99.480   4.129  23.227  1.00  0.00     0.004 C 
ENDBRANCH   1   5
TORSDOF 2
ENDMDL
