MODEL 1
REMARK VINA RESULT:    -3.129      0.000      0.000
REMARK INTER + INTRA:          -3.989
REMARK INTER:                  -3.769
REMARK INTRA:                  -0.221
REMARK UNBOUND:                -0.221
REMARK SMILES OCC(O)CO
REMARK SMILES IDX 3 1 5 2 6 3 2 5 1 6 4 8
REMARK H PARENT 6 4 1 7 4 9
REMARK Flexibility Score: inf
ROOT
ATOM      1  C   UNL     1       0.472   9.582  -1.773  1.00  0.00     0.165 C 
ENDROOT
BRANCH   1   2
ATOM      2  C   UNL     1       0.656   9.151  -3.239  1.00  0.00     0.190 C 
BRANCH   2   3
ATOM      3  O   UNL     1       0.509   7.761  -3.363  1.00  0.00    -0.394 OA
ATOM      4  H   UNL     1       1.186   7.462  -4.025  1.00  0.00     0.210 HD
ENDBRANCH   2   3
ENDBRANCH   1   2
BRANCH   1   5
ATOM      5  C   UNL     1      -0.998   9.892  -1.453  1.00  0.00     0.190 C 
BRANCH   5   6
ATOM      6  O   UNL     1      -1.826   9.421  -2.481  1.00  0.00    -0.394 OA
ATOM      7  H   UNL     1      -2.472   8.802  -2.053  1.00  0.00     0.210 HD
ENDBRANCH   5   6
ENDBRANCH   1   5
BRANCH   1   8
ATOM      8  O   UNL     1       0.963   8.593  -0.902  1.00  0.00    -0.388 OA
ATOM      9  H   UNL     1       1.056   9.005  -0.003  1.00  0.00     0.211 HD
ENDBRANCH   1   8
TORSDOF 5
ENDMDL
MODEL 2
REMARK VINA RESULT:    -3.121      0.850      2.524
REMARK INTER + INTRA:          -3.980
REMARK INTER:                  -3.757
REMARK INTRA:                  -0.223
REMARK UNBOUND:                -0.221
REMARK SMILES OCC(O)CO
REMARK SMILES IDX 3 1 5 2 6 3 2 5 1 6 4 8
REMARK H PARENT 6 4 1 7 4 9
REMARK Flexibility Score: inf
ROOT
ATOM      1  C   UNL     1       0.221   9.083  -3.228  1.00  0.00     0.165 C 
ENDROOT
BRANCH   1   2
ATOM      2  C   UNL     1      -1.310   9.243  -3.205  1.00  0.00     0.190 C 
BRANCH   2   3
ATOM      3  O   UNL     1      -1.746   9.604  -1.921  1.00  0.00    -0.394 OA
ATOM      4  H   UNL     1      -1.003  10.112  -1.502  1.00  0.00     0.210 HD
ENDBRANCH   2   3
ENDBRANCH   1   2
BRANCH   1   5
ATOM      5  C   UNL     1       0.866   9.613  -1.938  1.00  0.00     0.190 C 
BRANCH   5   6
ATOM      6  O   UNL     1       0.877   8.612  -0.958  1.00  0.00    -0.394 OA
ATOM      7  H   UNL     1      -0.035   8.221  -0.954  1.00  0.00     0.210 HD
ENDBRANCH   5   6
ENDBRANCH   1   5
BRANCH   1   8
ATOM      8  O   UNL     1       0.574   7.737  -3.433  1.00  0.00    -0.388 OA
ATOM      9  H   UNL     1       1.561   7.669  -3.345  1.00  0.00     0.211 HD
ENDBRANCH   1   8
TORSDOF 5
ENDMDL
MODEL 3
REMARK VINA RESULT:    -2.989      0.642      2.613
REMARK INTER + INTRA:          -3.821
REMARK INTER:                  -3.597
REMARK INTRA:                  -0.224
REMARK UNBOUND:                -0.221
REMARK SMILES OCC(O)CO
REMARK SMILES IDX 3 1 5 2 6 3 2 5 1 6 4 8
REMARK H PARENT 6 4 1 7 4 9
REMARK Flexibility Score: inf
ROOT
ATOM      1  C   UNL     1      -0.369   9.809  -2.367  1.00  0.00     0.165 C 
ENDROOT
BRANCH   1   2
ATOM      2  C   UNL     1      -0.025   9.688  -0.871  1.00  0.00     0.190 C 
BRANCH   2   3
ATOM      3  O   UNL     1       0.903   8.656  -0.664  1.00  0.00    -0.394 OA
ATOM      4  H   UNL     1       1.797   9.031  -0.879  1.00  0.00     0.210 HD
ENDBRANCH   2   3
ENDBRANCH   1   2
BRANCH   1   5
ATOM      5  C   UNL     1       0.682   9.120  -3.249  1.00  0.00     0.190 C 
BRANCH   5   6
ATOM      6  O   UNL     1       0.355   7.769  -3.425  1.00  0.00    -0.394 OA
ATOM      7  H   UNL     1       0.743   7.288  -2.648  1.00  0.00     0.210 HD
ENDBRANCH   5   6
ENDBRANCH   1   5
BRANCH   1   8
ATOM      8  O   UNL     1      -1.646   9.279  -2.624  1.00  0.00    -0.388 OA
ATOM      9  H   UNL     1      -2.278   9.693  -1.980  1.00  0.00     0.211 HD
ENDBRANCH   1   8
TORSDOF 5
ENDMDL
MODEL 4
REMARK VINA RESULT:    -2.962     13.095     13.962
REMARK INTER + INTRA:          -3.789
REMARK INTER:                  -3.569
REMARK INTRA:                  -0.219
REMARK UNBOUND:                -0.221
REMARK SMILES OCC(O)CO
REMARK SMILES IDX 3 1 5 2 6 3 2 5 1 6 4 8
REMARK H PARENT 6 4 1 7 4 9
REMARK Flexibility Score: inf
ROOT
ATOM      1  C   UNL     1       3.444  -3.462  -5.285  1.00  0.00     0.165 C 
ENDROOT
BRANCH   1   2
ATOM      2  C   UNL     1       4.500  -4.565  -5.480  1.00  0.00     0.190 C 
BRANCH   2   3
ATOM      3  O   UNL     1       4.487  -5.453  -4.394  1.00  0.00    -0.394 OA
ATOM      4  H   UNL     1       4.999  -5.016  -3.664  1.00  0.00     0.210 HD
ENDBRANCH   2   3
ENDBRANCH   1   2
BRANCH   1   5
ATOM      5  C   UNL     1       2.018  -4.002  -5.468  1.00  0.00     0.190 C 
BRANCH   5   6
ATOM      6  O   UNL     1       1.590  -4.642  -4.298  1.00  0.00    -0.394 OA
ATOM      7  H   UNL     1       0.769  -5.144  -4.543  1.00  0.00     0.210 HD
ENDBRANCH   5   6
ENDBRANCH   1   5
BRANCH   1   8
ATOM      8  O   UNL     1       3.581  -2.866  -4.018  1.00  0.00    -0.388 OA
ATOM      9  H   UNL     1       3.928  -1.946  -4.156  1.00  0.00     0.211 HD
ENDBRANCH   1   8
TORSDOF 5
ENDMDL
MODEL 5
REMARK VINA RESULT:    -2.960     12.694     13.607
REMARK INTER + INTRA:          -3.787
REMARK INTER:                  -3.567
REMARK INTRA:                  -0.220
REMARK UNBOUND:                -0.221
REMARK SMILES OCC(O)CO
REMARK SMILES IDX 3 1 5 2 6 3 2 5 1 6 4 8
REMARK H PARENT 6 4 1 7 4 9
REMARK Flexibility Score: inf
ROOT
ATOM      1  C   UNL     1       3.392  -4.092  -5.243  1.00  0.00     0.165 C 
ENDROOT
BRANCH   1   2
ATOM      2  C   UNL     1       2.049  -4.689  -4.785  1.00  0.00     0.190 C 
BRANCH   2   3
ATOM      3  O   UNL     1       1.113  -4.647  -5.829  1.00  0.00    -0.394 OA
ATOM      4  H   UNL     1       0.225  -4.826  -5.422  1.00  0.00     0.210 HD
ENDBRANCH   2   3
ENDBRANCH   1   2
BRANCH   1   5
ATOM      5  C   UNL     1       3.392  -2.559  -5.152  1.00  0.00     0.190 C 
BRANCH   5   6
ATOM      6  O   UNL     1       2.285  -2.034  -5.832  1.00  0.00    -0.394 OA
ATOM      7  H   UNL     1       1.975  -1.259  -5.297  1.00  0.00     0.210 HD
ENDBRANCH   5   6
ENDBRANCH   1   5
BRANCH   1   8
ATOM      8  O   UNL     1       4.452  -4.626  -4.489  1.00  0.00    -0.388 OA
ATOM      9  H   UNL     1       4.748  -5.461  -4.937  1.00  0.00     0.211 HD
ENDBRANCH   1   8
TORSDOF 5
ENDMDL
MODEL 6
REMARK VINA RESULT:    -2.877     13.595     14.533
REMARK INTER + INTRA:          -3.686
REMARK INTER:                  -3.467
REMARK INTRA:                  -0.219
REMARK UNBOUND:                -0.221
REMARK SMILES OCC(O)CO
REMARK SMILES IDX 3 1 5 2 6 3 2 5 1 6 4 8
REMARK H PARENT 6 4 1 7 4 9
REMARK Flexibility Score: inf
ROOT
ATOM      1  C   UNL     1       2.038  -4.886  -4.847  1.00  0.00     0.165 C 
ENDROOT
BRANCH   1   2
ATOM      2  C   UNL     1       2.982  -6.084  -5.051  1.00  0.00     0.190 C 
BRANCH   2   3
ATOM      3  O   UNL     1       4.214  -5.849  -4.422  1.00  0.00    -0.394 OA
ATOM      4  H   UNL     1       4.336  -4.864  -4.397  1.00  0.00     0.210 HD
ENDBRANCH   2   3
ENDBRANCH   1   2
BRANCH   1   5
ATOM      5  C   UNL     1       2.712  -3.560  -5.231  1.00  0.00     0.190 C 
BRANCH   5   6
ATOM      6  O   UNL     1       3.498  -3.094  -4.169  1.00  0.00    -0.394 OA
ATOM      7  H   UNL     1       4.433  -3.343  -4.389  1.00  0.00     0.210 HD
ENDBRANCH   5   6
ENDBRANCH   1   5
BRANCH   1   8
ATOM      8  O   UNL     1       0.852  -5.061  -5.583  1.00  0.00    -0.388 OA
ATOM      9  H   UNL     1       0.239  -4.317  -5.345  1.00  0.00     0.211 HD
ENDBRANCH   1   8
TORSDOF 5
ENDMDL
MODEL 7
REMARK VINA RESULT:    -2.836     12.726     13.666
REMARK INTER + INTRA:          -3.637
REMARK INTER:                  -3.413
REMARK INTRA:                  -0.224
REMARK UNBOUND:                -0.221
REMARK SMILES OCC(O)CO
REMARK SMILES IDX 3 1 5 2 6 3 2 5 1 6 4 8
REMARK H PARENT 6 4 1 7 4 9
REMARK Flexibility Score: inf
ROOT
ATOM      1  C   UNL     1       3.177  -3.954  -4.880  1.00  0.00     0.165 C 
ENDROOT
BRANCH   1   2
ATOM      2  C   UNL     1       3.327  -2.514  -5.404  1.00  0.00     0.190 C 
BRANCH   2   3
ATOM      3  O   UNL     1       2.128  -2.078  -5.987  1.00  0.00    -0.394 OA
ATOM      4  H   UNL     1       1.396  -2.369  -5.382  1.00  0.00     0.210 HD
ENDBRANCH   2   3
ENDBRANCH   1   2
BRANCH   1   5
ATOM      5  C   UNL     1       2.433  -4.848  -5.882  1.00  0.00     0.190 C 
BRANCH   5   6
ATOM      6  O   UNL     1       1.054  -4.800  -5.642  1.00  0.00    -0.394 OA
ATOM      7  H   UNL     1       0.910  -5.251  -4.769  1.00  0.00     0.210 HD
ENDBRANCH   5   6
ENDBRANCH   1   5
BRANCH   1   8
ATOM      8  O   UNL     1       4.435  -4.503  -4.576  1.00  0.00    -0.388 OA
ATOM      9  H   UNL     1       4.474  -4.638  -3.593  1.00  0.00     0.211 HD
ENDBRANCH   1   8
TORSDOF 5
ENDMDL
MODEL 8
REMARK VINA RESULT:    -2.821      9.379     10.579
REMARK INTER + INTRA:          -3.619
REMARK INTER:                  -3.399
REMARK INTRA:                  -0.220
REMARK UNBOUND:                -0.221
REMARK SMILES OCC(O)CO
REMARK SMILES IDX 3 1 5 2 6 3 2 5 1 6 4 8
REMARK H PARENT 6 4 1 7 4 9
REMARK Flexibility Score: inf
ROOT
ATOM      1  C   UNL     1       4.738   1.015  -7.540  1.00  0.00     0.165 C 
ENDROOT
BRANCH   1   2
ATOM      2  C   UNL     1       4.444  -0.338  -6.865  1.00  0.00     0.190 C 
BRANCH   2   3
ATOM      3  O   UNL     1       3.181  -0.812  -7.250  1.00  0.00    -0.394 OA
ATOM      4  H   UNL     1       2.634  -0.865  -6.423  1.00  0.00     0.210 HD
ENDBRANCH   2   3
ENDBRANCH   1   2
BRANCH   1   5
ATOM      5  C   UNL     1       3.931   2.155  -6.901  1.00  0.00     0.190 C 
BRANCH   5   6
ATOM      6  O   UNL     1       3.392   1.738  -5.677  1.00  0.00    -0.394 OA
ATOM      7  H   UNL     1       3.848   0.886  -5.451  1.00  0.00     0.210 HD
ENDBRANCH   5   6
ENDBRANCH   1   5
BRANCH   1   8
ATOM      8  O   UNL     1       6.113   1.303  -7.490  1.00  0.00    -0.388 OA
ATOM      9  H   UNL     1       6.340   1.522  -6.549  1.00  0.00     0.211 HD
ENDBRANCH   1   8
TORSDOF 5
ENDMDL
MODEL 9
REMARK VINA RESULT:    -2.795     13.534     14.495
REMARK INTER + INTRA:          -3.587
REMARK INTER:                  -3.367
REMARK INTRA:                  -0.221
REMARK UNBOUND:                -0.221
REMARK SMILES OCC(O)CO
REMARK SMILES IDX 3 1 5 2 6 3 2 5 1 6 4 8
REMARK H PARENT 6 4 1 7 4 9
REMARK Flexibility Score: inf
ROOT
ATOM      1  C   UNL     1       4.108  -4.271  -6.015  1.00  0.00     0.165 C 
ENDROOT
BRANCH   1   2
ATOM      2  C   UNL     1       3.424  -5.449  -5.297  1.00  0.00     0.190 C 
BRANCH   2   3
ATOM      3  O   UNL     1       4.280  -5.996  -4.330  1.00  0.00    -0.394 OA
ATOM      4  H   UNL     1       3.909  -5.739  -3.445  1.00  0.00     0.210 HD
ENDBRANCH   2   3
ENDBRANCH   1   2
BRANCH   1   5
ATOM      5  C   UNL     1       3.784  -2.930  -5.341  1.00  0.00     0.190 C 
BRANCH   5   6
ATOM      6  O   UNL     1       3.467  -3.132  -3.992  1.00  0.00    -0.394 OA
ATOM      7  H   UNL     1       2.542  -3.493  -3.977  1.00  0.00     0.210 HD
ENDBRANCH   5   6
ENDBRANCH   1   5
BRANCH   1   8
ATOM      8  O   UNL     1       5.499  -4.467  -6.071  1.00  0.00    -0.388 OA
ATOM      9  H   UNL     1       5.816  -4.122  -6.947  1.00  0.00     0.211 HD
ENDBRANCH   1   8
TORSDOF 5
ENDMDL
