MODEL 1
REMARK VINA RESULT:    -4.291      0.000      0.000
REMARK INTER + INTRA:          -4.291
REMARK INTER:                  -4.291
REMARK INTRA:                   0.000
REMARK UNBOUND:                 0.000
REMARK SMILES CC1(C)O[C@]2(C)CC[C@H]1CC2
REMARK SMILES IDX 1 1 2 2 9 3 10 4 11 5 5 6 4 7 7 8 8 9 6 10 3 11
REMARK H PARENT
REMARK Flexibility Score: inf
ROOT
ATOM      1  C   UNL     1       3.675  12.592   0.998  1.00  0.00     0.042 C 
ATOM      2  C   UNL     1       3.027  12.219  -0.353  1.00  0.00     0.066 C 
ATOM      3  C   UNL     1       3.969  11.256  -1.175  1.00  0.00     0.021 C 
ATOM      4  C   UNL     1       4.135   9.939  -0.381  1.00  0.00     0.009 C 
ATOM      5  C   UNL     1       2.738   9.393   0.000  1.00  0.00     0.035 C 
ATOM      6  C   UNL     1       1.633  10.297  -0.620  1.00  0.00     0.066 C 
ATOM      7  O   UNL     1       1.752  11.616  -0.085  1.00  0.00    -0.369 OA
ATOM      8  C   UNL     1       1.829  10.352  -2.162  1.00  0.00     0.035 C 
ATOM      9  C   UNL     1       3.250  10.875  -2.492  1.00  0.00     0.009 C 
ATOM     10  C   UNL     1       0.243   9.750  -0.278  1.00  0.00     0.042 C 
ATOM     11  C   UNL     1       2.784  13.533  -1.125  1.00  0.00     0.042 C 
ENDROOT
TORSDOF 0
ENDMDL
MODEL 2
REMARK VINA RESULT:    -4.119      7.261      9.440
REMARK INTER + INTRA:          -4.119
REMARK INTER:                  -4.119
REMARK INTRA:                   0.000
REMARK UNBOUND:                 0.000
REMARK SMILES CC1(C)O[C@]2(C)CC[C@H]1CC2
REMARK SMILES IDX 1 1 2 2 9 3 10 4 11 5 5 6 4 7 7 8 8 9 6 10 3 11
REMARK H PARENT
REMARK Flexibility Score: inf
ROOT
ATOM      1  C   UNL     1       7.923  12.641   6.584  1.00  0.00     0.042 C 
ATOM      2  C   UNL     1       6.713  13.477   6.111  1.00  0.00     0.066 C 
ATOM      3  C   UNL     1       5.518  13.354   7.134  1.00  0.00     0.021 C 
ATOM      4  C   UNL     1       5.970  13.950   8.488  1.00  0.00     0.009 C 
ATOM      5  C   UNL     1       6.547  15.367   8.253  1.00  0.00     0.035 C 
ATOM      6  C   UNL     1       6.397  15.755   6.754  1.00  0.00     0.066 C 
ATOM      7  O   UNL     1       7.144  14.837   5.954  1.00  0.00    -0.369 OA
ATOM      8  C   UNL     1       4.894  15.673   6.358  1.00  0.00     0.035 C 
ATOM      9  C   UNL     1       4.356  14.248   6.638  1.00  0.00     0.009 C 
ATOM     10  C   UNL     1       6.935  17.169   6.513  1.00  0.00     0.042 C 
ATOM     11  C   UNL     1       6.300  12.941   4.723  1.00  0.00     0.042 C 
ENDROOT
TORSDOF 0
ENDMDL
MODEL 3
REMARK VINA RESULT:    -4.116      7.686      9.033
REMARK INTER + INTRA:          -4.116
REMARK INTER:                  -4.116
REMARK INTRA:                   0.000
REMARK UNBOUND:                 0.000
REMARK SMILES CC1(C)O[C@]2(C)CC[C@H]1CC2
REMARK SMILES IDX 1 1 2 2 9 3 10 4 11 5 5 6 4 7 7 8 8 9 6 10 3 11
REMARK H PARENT
REMARK Flexibility Score: inf
ROOT
ATOM      1  C   UNL     1       7.759  15.225   4.442  1.00  0.00     0.042 C 
ATOM      2  C   UNL     1       7.307  14.215   5.520  1.00  0.00     0.066 C 
ATOM      3  C   UNL     1       7.565  14.791   6.966  1.00  0.00     0.021 C 
ATOM      4  C   UNL     1       6.696  16.058   7.150  1.00  0.00     0.009 C 
ATOM      5  C   UNL     1       5.229  15.728   6.779  1.00  0.00     0.035 C 
ATOM      6  C   UNL     1       5.101  14.216   6.436  1.00  0.00     0.066 C 
ATOM      7  O   UNL     1       5.919  13.921   5.303  1.00  0.00    -0.369 OA
ATOM      8  C   UNL     1       5.590  13.377   7.651  1.00  0.00     0.035 C 
ATOM      9  C   UNL     1       7.049  13.763   8.002  1.00  0.00     0.009 C 
ATOM     10  C   UNL     1       3.648  13.868   6.098  1.00  0.00     0.042 C 
ATOM     11  C   UNL     1       8.113  12.917   5.299  1.00  0.00     0.042 C 
ENDROOT
TORSDOF 0
ENDMDL
MODEL 4
REMARK VINA RESULT:    -4.097      0.942      3.298
REMARK INTER + INTRA:          -4.097
REMARK INTER:                  -4.097
REMARK INTRA:                   0.000
REMARK UNBOUND:                 0.000
REMARK SMILES CC1(C)O[C@]2(C)CC[C@H]1CC2
REMARK SMILES IDX 1 1 2 2 9 3 10 4 11 5 5 6 4 7 7 8 8 9 6 10 3 11
REMARK H PARENT
REMARK Flexibility Score: inf
ROOT
ATOM      1  C   UNL     1       0.236  10.499  -1.874  1.00  0.00     0.042 C 
ATOM      2  C   UNL     1       1.335  10.106  -0.862  1.00  0.00     0.066 C 
ATOM      3  C   UNL     1       2.599   9.530  -1.608  1.00  0.00     0.021 C 
ATOM      4  C   UNL     1       3.193  10.647  -2.499  1.00  0.00     0.009 C 
ATOM      5  C   UNL     1       3.405  11.921  -1.646  1.00  0.00     0.035 C 
ATOM      6  C   UNL     1       3.038  11.628  -0.162  1.00  0.00     0.066 C 
ATOM      7  O   UNL     1       1.658  11.267  -0.082  1.00  0.00    -0.369 OA
ATOM      8  C   UNL     1       3.906  10.442   0.349  1.00  0.00     0.035 C 
ATOM      9  C   UNL     1       3.683   9.202  -0.552  1.00  0.00     0.009 C 
ATOM     10  C   UNL     1       3.274  12.871   0.701  1.00  0.00     0.042 C 
ATOM     11  C   UNL     1       0.729   9.047   0.084  1.00  0.00     0.042 C 
ENDROOT
TORSDOF 0
ENDMDL
MODEL 5
REMARK VINA RESULT:    -4.072      1.227      3.459
REMARK INTER + INTRA:          -4.072
REMARK INTER:                  -4.072
REMARK INTRA:                   0.000
REMARK UNBOUND:                 0.000
REMARK SMILES CC1(C)O[C@]2(C)CC[C@H]1CC2
REMARK SMILES IDX 1 1 2 2 9 3 10 4 11 5 5 6 4 7 7 8 8 9 6 10 3 11
REMARK H PARENT
REMARK Flexibility Score: inf
ROOT
ATOM      1  C   UNL     1       1.430  10.046  -0.411  1.00  0.00     0.042 C 
ATOM      2  C   UNL     1       2.942  10.341  -0.530  1.00  0.00     0.066 C 
ATOM      3  C   UNL     1       3.208  11.457  -1.612  1.00  0.00     0.021 C 
ATOM      4  C   UNL     1       2.535  12.767  -1.140  1.00  0.00     0.009 C 
ATOM      5  C   UNL     1       2.983  13.077   0.309  1.00  0.00     0.035 C 
ATOM      6  C   UNL     1       4.029  12.022   0.774  1.00  0.00     0.066 C 
ATOM      7  O   UNL     1       3.425  10.728   0.766  1.00  0.00    -0.369 OA
ATOM      8  C   UNL     1       5.230  12.031  -0.215  1.00  0.00     0.035 C 
ATOM      9  C   UNL     1       4.729  11.747  -1.653  1.00  0.00     0.009 C 
ATOM     10  C   UNL     1       4.506  12.335   2.195  1.00  0.00     0.042 C 
ATOM     11  C   UNL     1       3.637   9.020  -0.926  1.00  0.00     0.042 C 
ENDROOT
TORSDOF 0
ENDMDL
MODEL 6
REMARK VINA RESULT:    -4.064      1.738      3.249
REMARK INTER + INTRA:          -4.064
REMARK INTER:                  -4.064
REMARK INTRA:                   0.000
REMARK UNBOUND:                 0.000
REMARK SMILES CC1(C)O[C@]2(C)CC[C@H]1CC2
REMARK SMILES IDX 1 1 2 2 9 3 10 4 11 5 5 6 4 7 7 8 8 9 6 10 3 11
REMARK H PARENT
REMARK Flexibility Score: inf
ROOT
ATOM      1  C   UNL     1       3.618  13.923  -1.499  1.00  0.00     0.042 C 
ATOM      2  C   UNL     1       4.184  12.659  -0.814  1.00  0.00     0.066 C 
ATOM      3  C   UNL     1       3.016  11.701  -0.362  1.00  0.00     0.021 C 
ATOM      4  C   UNL     1       2.259  11.223  -1.624  1.00  0.00     0.009 C 
ATOM      5  C   UNL     1       3.275  10.655  -2.644  1.00  0.00     0.035 C 
ATOM      6  C   UNL     1       4.703  10.667  -2.026  1.00  0.00     0.066 C 
ATOM      7  O   UNL     1       5.077  12.015  -1.735  1.00  0.00    -0.369 OA
ATOM      8  C   UNL     1       4.691   9.845  -0.705  1.00  0.00     0.035 C 
ATOM      9  C   UNL     1       3.640  10.433   0.269  1.00  0.00     0.009 C 
ATOM     10  C   UNL     1       5.716  10.077  -3.012  1.00  0.00     0.042 C 
ATOM     11  C   UNL     1       5.008  13.128   0.405  1.00  0.00     0.042 C 
ENDROOT
TORSDOF 0
ENDMDL
MODEL 7
REMARK VINA RESULT:    -4.060      7.871      9.128
REMARK INTER + INTRA:          -4.060
REMARK INTER:                  -4.060
REMARK INTRA:                   0.000
REMARK UNBOUND:                 0.000
REMARK SMILES CC1(C)O[C@]2(C)CC[C@H]1CC2
REMARK SMILES IDX 1 1 2 2 9 3 10 4 11 5 5 6 4 7 7 8 8 9 6 10 3 11
REMARK H PARENT
REMARK Flexibility Score: inf
ROOT
ATOM      1  C   UNL     1       6.953  17.301   7.232  1.00  0.00     0.042 C 
ATOM      2  C   UNL     1       6.870  16.061   6.314  1.00  0.00     0.066 C 
ATOM      3  C   UNL     1       7.675  14.855   6.934  1.00  0.00     0.021 C 
ATOM      4  C   UNL     1       7.010  14.462   8.275  1.00  0.00     0.009 C 
ATOM      5  C   UNL     1       5.494  14.250   8.050  1.00  0.00     0.035 C 
ATOM      6  C   UNL     1       5.159  14.410   6.539  1.00  0.00     0.066 C 
ATOM      7  O   UNL     1       5.485  15.738   6.125  1.00  0.00    -0.369 OA
ATOM      8  C   UNL     1       6.010  13.397   5.721  1.00  0.00     0.035 C 
ATOM      9  C   UNL     1       7.516  13.629   6.002  1.00  0.00     0.009 C 
ATOM     10  C   UNL     1       3.666  14.171   6.296  1.00  0.00     0.042 C 
ATOM     11  C   UNL     1       7.460  16.464   4.945  1.00  0.00     0.042 C 
ENDROOT
TORSDOF 0
ENDMDL
MODEL 8
REMARK VINA RESULT:    -4.038      1.346      2.418
REMARK INTER + INTRA:          -4.038
REMARK INTER:                  -4.038
REMARK INTRA:                   0.000
REMARK UNBOUND:                 0.000
REMARK SMILES CC1(C)O[C@]2(C)CC[C@H]1CC2
REMARK SMILES IDX 1 1 2 2 9 3 10 4 11 5 5 6 4 7 7 8 8 9 6 10 3 11
REMARK H PARENT
REMARK Flexibility Score: inf
ROOT
ATOM      1  C   UNL     1       5.377  10.382   0.917  1.00  0.00     0.042 C 
ATOM      2  C   UNL     1       4.433  11.561   0.593  1.00  0.00     0.066 C 
ATOM      3  C   UNL     1       4.983  12.394  -0.629  1.00  0.00     0.021 C 
ATOM      4  C   UNL     1       4.999  11.480  -1.877  1.00  0.00     0.009 C 
ATOM      5  C   UNL     1       3.608  10.824  -2.047  1.00  0.00     0.035 C 
ATOM      6  C   UNL     1       2.632  11.371  -0.965  1.00  0.00     0.066 C 
ATOM      7  O   UNL     1       3.127  11.027   0.330  1.00  0.00    -0.369 OA
ATOM      8  C   UNL     1       2.558  12.921  -1.088  1.00  0.00     0.035 C 
ATOM      9  C   UNL     1       3.975  13.527  -0.941  1.00  0.00     0.009 C 
ATOM     10  C   UNL     1       1.241  10.755  -1.141  1.00  0.00     0.042 C 
ATOM     11  C   UNL     1       4.346  12.441   1.859  1.00  0.00     0.042 C 
ENDROOT
TORSDOF 0
ENDMDL
MODEL 9
REMARK VINA RESULT:    -4.011      6.913      9.394
REMARK INTER + INTRA:          -4.011
REMARK INTER:                  -4.011
REMARK INTRA:                   0.000
REMARK UNBOUND:                 0.000
REMARK SMILES CC1(C)O[C@]2(C)CC[C@H]1CC2
REMARK SMILES IDX 1 1 2 2 9 3 10 4 11 5 5 6 4 7 7 8 8 9 6 10 3 11
REMARK H PARENT
REMARK Flexibility Score: inf
ROOT
ATOM      1  C   UNL     1       5.417  12.712   4.941  1.00  0.00     0.042 C 
ATOM      2  C   UNL     1       5.299  13.762   6.069  1.00  0.00     0.066 C 
ATOM      3  C   UNL     1       6.004  13.249   7.383  1.00  0.00     0.021 C 
ATOM      4  C   UNL     1       7.514  13.075   7.093  1.00  0.00     0.009 C 
ATOM      5  C   UNL     1       8.066  14.378   6.466  1.00  0.00     0.035 C 
ATOM      6  C   UNL     1       6.945  15.457   6.422  1.00  0.00     0.066 C 
ATOM      7  O   UNL     1       5.876  14.989   5.598  1.00  0.00    -0.369 OA
ATOM      8  C   UNL     1       6.413  15.692   7.865  1.00  0.00     0.035 C 
ATOM      9  C   UNL     1       5.899  14.357   8.459  1.00  0.00     0.009 C 
ATOM     10  C   UNL     1       7.486  16.763   5.833  1.00  0.00     0.042 C 
ATOM     11  C   UNL     1       3.794  14.003   6.315  1.00  0.00     0.042 C 
ENDROOT
TORSDOF 0
ENDMDL
