MODEL 1
REMARK VINA RESULT:    -5.748      0.000      0.000
REMARK INTER + INTRA:         -12.271
REMARK INTER:                  -9.948
REMARK INTRA:                  -2.323
REMARK UNBOUND:                -2.323
REMARK SMILES OC[C@@H]1O[C@@H](O)[C@@H](O)[C@@H](O)[C@@H]1O[C@@H]1O[C@@H](CO)[C@@H](O[C@H]2O[C@H](CO)[C@@H](O)[C@H](O)[C@@H]2O)[C@@H](O)[C@@H]1O
REMARK SMILES IDX 18 1 15 2 14 3 13 4 33 5 31 6 19 7 20 8 22 9 25 10 21 11
REMARK SMILES IDX 27 12 29 13 23 14 24 15 26 17 28 19 30 21 16 23 17 24 32 26
REMARK SMILES IDX 34 28 12 30 11 31 3 32 9 33 4 34 7 35 5 36 2 37 1 38 10 40
REMARK SMILES IDX 8 42 6 44
REMARK H PARENT 24 16 26 18 28 20 30 22 17 25 32 27 34 29 1 39 10 41 8 43 6 45
REMARK Flexibility Score: inf
ROOT
ATOM      1  C   UNL     1      16.369   0.767 -12.705  1.00  0.00     0.184 C 
ATOM      2  C   UNL     1      17.671   1.208 -13.373  1.00  0.00     0.178 C 
ATOM      3  O   UNL     1      17.375   2.233 -14.331  1.00  0.00    -0.341 OA
ATOM      4  C   UNL     1      16.585   1.767 -15.430  1.00  0.00     0.282 C 
ATOM      5  C   UNL     1      15.192   1.155 -14.998  1.00  0.00     0.202 C 
ATOM      6  C   UNL     1      15.474   0.182 -13.841  1.00  0.00     0.180 C 
ENDROOT
BRANCH   1   7
ATOM      7  O   UNL     1      15.896   1.919 -12.020  1.00  0.00    -0.341 OA
BRANCH   7   8
ATOM      8  C   UNL     1      15.827   1.866 -10.608  1.00  0.00     0.282 C 
ATOM      9  C   UNL     1      16.750   2.794  -8.643  1.00  0.00     0.178 C 
ATOM     10  C   UNL     1      15.482   2.439  -7.828  1.00  0.00     0.177 C 
ATOM     11  O   UNL     1      16.490   2.972 -10.041  1.00  0.00    -0.341 OA
ATOM     12  C   UNL     1      14.567   1.375  -8.528  1.00  0.00     0.179 C 
ATOM     13  C   UNL     1      14.393   1.672 -10.003  1.00  0.00     0.202 C 
BRANCH   9  14
ATOM     14  C   UNL     1      17.962   1.868  -8.381  1.00  0.00     0.191 C 
BRANCH  14  15
ATOM     15  O   UNL     1      19.106   2.274  -9.100  1.00  0.00    -0.394 OA
ATOM     16  H   UNL     1      18.882   2.231 -10.073  1.00  0.00     0.210 HD
ENDBRANCH  14  15
ENDBRANCH   9  14
BRANCH  10  17
ATOM     17  O   UNL     1      14.784   3.630  -7.533  1.00  0.00    -0.387 OA
ATOM     18  H   UNL     1      13.956   3.652  -8.078  1.00  0.00     0.211 HD
ENDBRANCH  10  17
BRANCH  12  19
ATOM     19  O   UNL     1      15.124   0.089  -8.374  1.00  0.00    -0.387 OA
ATOM     20  H   UNL     1      14.661  -0.335  -7.603  1.00  0.00     0.211 HD
ENDBRANCH  12  19
BRANCH  13  21
ATOM     21  O   UNL     1      13.786   0.576 -10.634  1.00  0.00    -0.385 OA
ATOM     22  H   UNL     1      12.955   0.356 -10.153  1.00  0.00     0.211 HD
ENDBRANCH  13  21
ENDBRANCH   7   8
ENDBRANCH   1   7
BRANCH   2  23
ATOM     23  C   UNL     1      18.695   1.686 -12.284  1.00  0.00     0.191 C 
BRANCH  23  24
ATOM     24  O   UNL     1      18.671   3.081 -12.057  1.00  0.00    -0.394 OA
ATOM     25  H   UNL     1      17.723   3.397 -12.026  1.00  0.00     0.210 HD
ENDBRANCH  23  24
ENDBRANCH   2  23
BRANCH   6  26
ATOM     26  O   UNL     1      14.292  -0.378 -13.354  1.00  0.00    -0.387 OA
ATOM     27  H   UNL     1      13.692   0.401 -13.155  1.00  0.00     0.211 HD
ENDBRANCH   6  26
BRANCH   5  28
ATOM     28  O   UNL     1      14.584   0.444 -16.065  1.00  0.00    -0.385 OA
ATOM     29  H   UNL     1      14.785  -0.522 -15.977  1.00  0.00     0.211 HD
ENDBRANCH   5  28
BRANCH   4  30
ATOM     30  O   UNL     1      17.245   0.747 -16.142  1.00  0.00    -0.341 OA
BRANCH  30  31
ATOM     31  C   UNL     1      17.644   1.120 -17.450  1.00  0.00     0.184 C 
ATOM     32  C   UNL     1      18.304  -0.097 -18.165  1.00  0.00     0.178 C 
ATOM     33  C   UNL     1      18.726   2.208 -17.324  1.00  0.00     0.180 C 
ATOM     34  O   UNL     1      19.324  -0.635 -17.328  1.00  0.00    -0.342 OA
ATOM     35  C   UNL     1      19.960   1.635 -16.579  1.00  0.00     0.201 C 
ATOM     36  C   UNL     1      20.417   0.277 -17.188  1.00  0.00     0.279 C 
BRANCH  32  37
ATOM     37  C   UNL     1      17.320  -1.229 -18.514  1.00  0.00     0.191 C 
BRANCH  37  38
ATOM     38  O   UNL     1      16.388  -1.480 -17.493  1.00  0.00    -0.394 OA
ATOM     39  H   UNL     1      16.884  -1.521 -16.641  1.00  0.00     0.210 HD
ENDBRANCH  37  38
ENDBRANCH  32  37
BRANCH  33  40
ATOM     40  O   UNL     1      19.093   2.673 -18.607  1.00  0.00    -0.387 OA
ATOM     41  H   UNL     1      18.712   2.052 -19.278  1.00  0.00     0.211 HD
ENDBRANCH  33  40
BRANCH  35  42
ATOM     42  O   UNL     1      21.004   2.579 -16.528  1.00  0.00    -0.385 OA
ATOM     43  H   UNL     1      21.821   2.157 -16.906  1.00  0.00     0.211 HD
ENDBRANCH  35  42
BRANCH  36  44
ATOM     44  O   UNL     1      21.064   0.474 -18.431  1.00  0.00    -0.366 OA
ATOM     45  H   UNL     1      21.947   0.896 -18.240  1.00  0.00     0.213 HD
ENDBRANCH  36  44
ENDBRANCH  30  31
ENDBRANCH   4  30
TORSDOF 18
ENDMDL
MODEL 2
REMARK VINA RESULT:    -5.713      1.958      8.337
REMARK INTER + INTRA:         -12.212
REMARK INTER:                  -9.494
REMARK INTRA:                  -2.718
REMARK UNBOUND:                -2.323
REMARK SMILES OC[C@@H]1O[C@@H](O)[C@@H](O)[C@@H](O)[C@@H]1O[C@@H]1O[C@@H](CO)[C@@H](O[C@H]2O[C@H](CO)[C@@H](O)[C@H](O)[C@@H]2O)[C@@H](O)[C@@H]1O
REMARK SMILES IDX 18 1 15 2 14 3 13 4 33 5 31 6 19 7 20 8 22 9 25 10 21 11
REMARK SMILES IDX 27 12 29 13 23 14 24 15 26 17 28 19 30 21 16 23 17 24 32 26
REMARK SMILES IDX 34 28 12 30 11 31 3 32 9 33 4 34 7 35 5 36 2 37 1 38 10 40
REMARK SMILES IDX 8 42 6 44
REMARK H PARENT 24 16 26 18 28 20 30 22 17 25 32 27 34 29 1 39 10 41 8 43 6 45
REMARK Flexibility Score: inf
ROOT
ATOM      1  C   UNL     1      18.225   1.033 -14.406  1.00  0.00     0.184 C 
ATOM      2  C   UNL     1      17.509   2.003 -13.467  1.00  0.00     0.178 C 
ATOM      3  O   UNL     1      18.424   2.415 -12.442  1.00  0.00    -0.341 OA
ATOM      4  C   UNL     1      18.815   1.347 -11.573  1.00  0.00     0.282 C 
ATOM      5  C   UNL     1      19.510   0.139 -12.322  1.00  0.00     0.202 C 
ATOM      6  C   UNL     1      18.627  -0.198 -13.535  1.00  0.00     0.180 C 
ENDROOT
BRANCH   1   7
ATOM      7  O   UNL     1      19.271   1.793 -14.997  1.00  0.00    -0.341 OA
BRANCH   7   8
ATOM      8  C   UNL     1      19.538   1.592 -16.371  1.00  0.00     0.282 C 
ATOM      9  C   UNL     1      18.919   2.311 -18.533  1.00  0.00     0.178 C 
ATOM     10  C   UNL     1      20.283   1.870 -19.118  1.00  0.00     0.177 C 
ATOM     11  O   UNL     1      18.981   2.634 -17.138  1.00  0.00    -0.341 OA
ATOM     12  C   UNL     1      21.071   0.883 -18.187  1.00  0.00     0.179 C 
ATOM     13  C   UNL     1      21.039   1.333 -16.742  1.00  0.00     0.202 C 
BRANCH   9  14
ATOM     14  C   UNL     1      17.740   1.366 -18.868  1.00  0.00     0.191 C 
BRANCH  14  15
ATOM     15  O   UNL     1      16.576   1.687 -18.138  1.00  0.00    -0.394 OA
ATOM     16  H   UNL     1      16.701   2.603 -17.760  1.00  0.00     0.210 HD
ENDBRANCH  14  15
ENDBRANCH   9  14
BRANCH  10  17
ATOM     17  O   UNL     1      21.036   3.021 -19.432  1.00  0.00    -0.387 OA
ATOM     18  H   UNL     1      21.954   2.904 -19.074  1.00  0.00     0.211 HD
ENDBRANCH  10  17
BRANCH  12  19
ATOM     19  O   UNL     1      20.520  -0.411 -18.286  1.00  0.00    -0.387 OA
ATOM     20  H   UNL     1      20.655  -0.712 -19.224  1.00  0.00     0.211 HD
ENDBRANCH  12  19
BRANCH  13  21
ATOM     21  O   UNL     1      21.532   0.307 -15.921  1.00  0.00    -0.385 OA
ATOM     22  H   UNL     1      22.333   0.637 -15.451  1.00  0.00     0.211 HD
ENDBRANCH  13  21
ENDBRANCH   7   8
ENDBRANCH   1   7
BRANCH   2  23
ATOM     23  C   UNL     1      16.941   3.216 -14.284  1.00  0.00     0.191 C 
BRANCH  23  24
ATOM     24  O   UNL     1      16.456   2.861 -15.563  1.00  0.00    -0.394 OA
ATOM     25  H   UNL     1      16.973   2.079 -15.910  1.00  0.00     0.210 HD
ENDBRANCH  23  24
ENDBRANCH   2  23
BRANCH   6  26
ATOM     26  O   UNL     1      19.186  -1.229 -14.293  1.00  0.00    -0.387 OA
ATOM     27  H   UNL     1      19.988  -1.535 -13.774  1.00  0.00     0.211 HD
ENDBRANCH   6  26
BRANCH   5  28
ATOM     28  O   UNL     1      19.605  -1.004 -11.485  1.00  0.00    -0.385 OA
ATOM     29  H   UNL     1      18.740  -1.484 -11.480  1.00  0.00     0.211 HD
ENDBRANCH   5  28
BRANCH   4  30
ATOM     30  O   UNL     1      17.705   0.794 -10.905  1.00  0.00    -0.341 OA
BRANCH  30  31
ATOM     31  C   UNL     1      17.534   1.266  -9.580  1.00  0.00     0.184 C 
ATOM     32  C   UNL     1      16.598   0.300  -8.794  1.00  0.00     0.178 C 
ATOM     33  C   UNL     1      16.818   2.627  -9.650  1.00  0.00     0.180 C 
ATOM     34  O   UNL     1      15.405   0.091  -9.545  1.00  0.00    -0.342 OA
ATOM     35  C   UNL     1      15.417   2.449 -10.293  1.00  0.00     0.201 C 
ATOM     36  C   UNL     1      14.624   1.287  -9.625  1.00  0.00     0.279 C 
BRANCH  32  37
ATOM     37  C   UNL     1      17.224  -1.074  -8.494  1.00  0.00     0.191 C 
BRANCH  37  38
ATOM     38  O   UNL     1      18.598  -1.127  -8.785  1.00  0.00    -0.394 OA
ATOM     39  H   UNL     1      18.902  -0.203  -8.947  1.00  0.00     0.210 HD
ENDBRANCH  37  38
ENDBRANCH  32  37
BRANCH  33  40
ATOM     40  O   UNL     1      16.702   3.178  -8.354  1.00  0.00    -0.387 OA
ATOM     41  H   UNL     1      17.096   4.086  -8.370  1.00  0.00     0.211 HD
ENDBRANCH  33  40
BRANCH  35  42
ATOM     42  O   UNL     1      14.700   3.661 -10.288  1.00  0.00    -0.385 OA
ATOM     43  H   UNL     1      13.836   3.507  -9.822  1.00  0.00     0.211 HD
ENDBRANCH  35  42
BRANCH  36  44
ATOM     44  O   UNL     1      14.160   1.666  -8.344  1.00  0.00    -0.366 OA
ATOM     45  H   UNL     1      14.758   2.393  -8.016  1.00  0.00     0.213 HD
ENDBRANCH  36  44
ENDBRANCH  30  31
ENDBRANCH   4  30
TORSDOF 18
ENDMDL
MODEL 3
REMARK VINA RESULT:    -5.710      1.765      3.317
REMARK INTER + INTRA:         -12.205
REMARK INTER:                 -10.418
REMARK INTRA:                  -1.788
REMARK UNBOUND:                -2.323
REMARK SMILES OC[C@@H]1O[C@@H](O)[C@@H](O)[C@@H](O)[C@@H]1O[C@@H]1O[C@@H](CO)[C@@H](O[C@H]2O[C@H](CO)[C@@H](O)[C@H](O)[C@@H]2O)[C@@H](O)[C@@H]1O
REMARK SMILES IDX 18 1 15 2 14 3 13 4 33 5 31 6 19 7 20 8 22 9 25 10 21 11
REMARK SMILES IDX 27 12 29 13 23 14 24 15 26 17 28 19 30 21 16 23 17 24 32 26
REMARK SMILES IDX 34 28 12 30 11 31 3 32 9 33 4 34 7 35 5 36 2 37 1 38 10 40
REMARK SMILES IDX 8 42 6 44
REMARK H PARENT 24 16 26 18 28 20 30 22 17 25 32 27 34 29 1 39 10 41 8 43 6 45
REMARK Flexibility Score: inf
ROOT
ATOM      1  C   UNL     1      19.016   0.339 -10.992  1.00  0.00     0.184 C 
ATOM      2  C   UNL     1      19.865   1.358 -11.751  1.00  0.00     0.178 C 
ATOM      3  O   UNL     1      19.085   2.543 -11.966  1.00  0.00    -0.341 OA
ATOM      4  C   UNL     1      17.968   2.333 -12.836  1.00  0.00     0.282 C 
ATOM      5  C   UNL     1      16.958   1.229 -12.322  1.00  0.00     0.202 C 
ATOM      6  C   UNL     1      17.802   0.010 -11.916  1.00  0.00     0.180 C 
ENDROOT
BRANCH   1   7
ATOM      7  O   UNL     1      18.743   0.947  -9.737  1.00  0.00    -0.341 OA
BRANCH   7   8
ATOM      8  C   UNL     1      17.413   1.349  -9.473  1.00  0.00     0.282 C 
ATOM      9  C   UNL     1      15.321   0.555  -8.717  1.00  0.00     0.178 C 
ATOM     10  C   UNL     1      14.894   1.975  -8.272  1.00  0.00     0.177 C 
ATOM     11  O   UNL     1      16.743   0.367  -8.717  1.00  0.00    -0.341 OA
ATOM     12  C   UNL     1      15.768   3.115  -8.901  1.00  0.00     0.179 C 
ATOM     13  C   UNL     1      17.243   2.779  -8.853  1.00  0.00     0.202 C 
BRANCH   9  14
ATOM     14  C   UNL     1      14.663   0.067 -10.030  1.00  0.00     0.191 C 
BRANCH  14  15
ATOM     15  O   UNL     1      13.611   0.911 -10.444  1.00  0.00    -0.394 OA
ATOM     16  H   UNL     1      13.895   1.853 -10.269  1.00  0.00     0.210 HD
ENDBRANCH  14  15
ENDBRANCH   9  14
BRANCH  10  17
ATOM     17  O   UNL     1      14.887   2.026  -6.861  1.00  0.00    -0.387 OA
ATOM     18  H   UNL     1      15.520   2.731  -6.569  1.00  0.00     0.211 HD
ENDBRANCH  10  17
BRANCH  12  19
ATOM     19  O   UNL     1      15.382   3.332 -10.239  1.00  0.00    -0.387 OA
ATOM     20  H   UNL     1      14.592   2.753 -10.410  1.00  0.00     0.211 HD
ENDBRANCH  12  19
BRANCH  13  21
ATOM     21  O   UNL     1      17.959   3.695  -9.639  1.00  0.00    -0.385 OA
ATOM     22  H   UNL     1      18.906   3.671  -9.368  1.00  0.00     0.211 HD
ENDBRANCH  13  21
ENDBRANCH   7   8
ENDBRANCH   1   7
BRANCH   2  23
ATOM     23  C   UNL     1      21.187   1.648 -10.959  1.00  0.00     0.191 C 
BRANCH  23  24
ATOM     24  O   UNL     1      21.089   2.748 -10.076  1.00  0.00    -0.394 OA
ATOM     25  H   UNL     1      20.189   2.747  -9.642  1.00  0.00     0.210 HD
ENDBRANCH  23  24
ENDBRANCH   2  23
BRANCH   6  26
ATOM     26  O   UNL     1      16.999  -1.009 -11.399  1.00  0.00    -0.387 OA
ATOM     27  H   UNL     1      17.411  -1.863 -11.727  1.00  0.00     0.211 HD
ENDBRANCH   6  26
BRANCH   5  28
ATOM     28  O   UNL     1      16.046   0.845 -13.340  1.00  0.00    -0.385 OA
ATOM     29  H   UNL     1      16.153  -0.120 -13.533  1.00  0.00     0.211 HD
ENDBRANCH   5  28
BRANCH   4  30
ATOM     30  O   UNL     1      18.383   1.904 -14.112  1.00  0.00    -0.341 OA
BRANCH  30  31
ATOM     31  C   UNL     1      18.985   2.920 -14.896  1.00  0.00     0.184 C 
ATOM     32  C   UNL     1      18.074   3.251 -16.116  1.00  0.00     0.178 C 
ATOM     33  C   UNL     1      20.306   2.364 -15.460  1.00  0.00     0.180 C 
ATOM     34  O   UNL     1      17.747   2.043 -16.797  1.00  0.00    -0.342 OA
ATOM     35  C   UNL     1      20.013   1.146 -16.376  1.00  0.00     0.201 C 
ATOM     36  C   UNL     1      18.900   1.467 -17.416  1.00  0.00     0.279 C 
BRANCH  32  37
ATOM     37  C   UNL     1      16.761   3.963 -15.742  1.00  0.00     0.191 C 
BRANCH  37  38
ATOM     38  O   UNL     1      15.748   3.075 -15.345  1.00  0.00    -0.394 OA
ATOM     39  H   UNL     1      16.024   2.675 -14.486  1.00  0.00     0.210 HD
ENDBRANCH  37  38
ENDBRANCH  32  37
BRANCH  33  40
ATOM     40  O   UNL     1      20.984   3.374 -16.179  1.00  0.00    -0.387 OA
ATOM     41  H   UNL     1      21.957   3.244 -16.047  1.00  0.00     0.211 HD
ENDBRANCH  33  40
BRANCH  35  42
ATOM     42  O   UNL     1      21.193   0.672 -16.979  1.00  0.00    -0.385 OA
ATOM     43  H   UNL     1      21.643   0.058 -16.340  1.00  0.00     0.211 HD
ENDBRANCH  35  42
BRANCH  36  44
ATOM     44  O   UNL     1      19.394   2.313 -18.437  1.00  0.00    -0.366 OA
ATOM     45  H   UNL     1      18.722   3.038 -18.570  1.00  0.00     0.213 HD
ENDBRANCH  36  44
ENDBRANCH  30  31
ENDBRANCH   4  30
TORSDOF 18
ENDMDL
MODEL 4
REMARK VINA RESULT:    -5.687      1.629      8.465
REMARK INTER + INTRA:         -12.167
REMARK INTER:                  -9.843
REMARK INTRA:                  -2.324
REMARK UNBOUND:                -2.323
REMARK SMILES OC[C@@H]1O[C@@H](O)[C@@H](O)[C@@H](O)[C@@H]1O[C@@H]1O[C@@H](CO)[C@@H](O[C@H]2O[C@H](CO)[C@@H](O)[C@H](O)[C@@H]2O)[C@@H](O)[C@@H]1O
REMARK SMILES IDX 18 1 15 2 14 3 13 4 33 5 31 6 19 7 20 8 22 9 25 10 21 11
REMARK SMILES IDX 27 12 29 13 23 14 24 15 26 17 28 19 30 21 16 23 17 24 32 26
REMARK SMILES IDX 34 28 12 30 11 31 3 32 9 33 4 34 7 35 5 36 2 37 1 38 10 40
REMARK SMILES IDX 8 42 6 44
REMARK H PARENT 24 16 26 18 28 20 30 22 17 25 32 27 34 29 1 39 10 41 8 43 6 45
REMARK Flexibility Score: inf
ROOT
ATOM      1  C   UNL     1      18.747   1.147 -13.994  1.00  0.00     0.184 C 
ATOM      2  C   UNL     1      17.249   1.116 -13.696  1.00  0.00     0.178 C 
ATOM      3  O   UNL     1      16.871   2.361 -13.092  1.00  0.00    -0.341 OA
ATOM      4  C   UNL     1      17.457   2.562 -11.801  1.00  0.00     0.282 C 
ATOM      5  C   UNL     1      19.039   2.541 -11.810  1.00  0.00     0.202 C 
ATOM      6  C   UNL     1      19.461   1.300 -12.615  1.00  0.00     0.180 C 
ENDROOT
BRANCH   1   7
ATOM      7  O   UNL     1      18.915   2.193 -14.942  1.00  0.00    -0.341 OA
BRANCH   7   8
ATOM      8  C   UNL     1      19.216   1.833 -16.276  1.00  0.00     0.282 C 
ATOM      9  C   UNL     1      18.499   2.112 -18.509  1.00  0.00     0.178 C 
ATOM     10  C   UNL     1      19.918   1.808 -19.049  1.00  0.00     0.177 C 
ATOM     11  O   UNL     1      18.504   2.647 -17.179  1.00  0.00    -0.341 OA
ATOM     12  C   UNL     1      20.848   1.108 -17.997  1.00  0.00     0.179 C 
ATOM     13  C   UNL     1      20.740   1.759 -16.635  1.00  0.00     0.202 C 
BRANCH   9  14
ATOM     14  C   UNL     1      17.485   0.954 -18.675  1.00  0.00     0.191 C 
BRANCH  14  15
ATOM     15  O   UNL     1      16.154   1.384 -18.499  1.00  0.00    -0.394 OA
ATOM     16  H   UNL     1      15.670   0.669 -17.997  1.00  0.00     0.210 HD
ENDBRANCH  14  15
ENDBRANCH   9  14
BRANCH  10  17
ATOM     17  O   UNL     1      20.482   3.003 -19.545  1.00  0.00    -0.387 OA
ATOM     18  H   UNL     1      21.029   3.414 -18.828  1.00  0.00     0.211 HD
ENDBRANCH  10  17
BRANCH  12  19
ATOM     19  O   UNL     1      20.509  -0.256 -17.891  1.00  0.00    -0.387 OA
ATOM     20  H   UNL     1      20.573  -0.497 -16.928  1.00  0.00     0.211 HD
ENDBRANCH  12  19
BRANCH  13  21
ATOM     21  O   UNL     1      21.386   0.958 -15.680  1.00  0.00    -0.385 OA
ATOM     22  H   UNL     1      21.739   1.540 -14.967  1.00  0.00     0.211 HD
ENDBRANCH  13  21
ENDBRANCH   7   8
ENDBRANCH   1   7
BRANCH   2  23
ATOM     23  C   UNL     1      16.448   0.824 -15.013  1.00  0.00     0.191 C 
BRANCH  23  24
ATOM     24  O   UNL     1      15.926   1.985 -15.628  1.00  0.00    -0.394 OA
ATOM     25  H   UNL     1      16.075   2.773 -15.032  1.00  0.00     0.210 HD
ENDBRANCH  23  24
ENDBRANCH   2  23
BRANCH   6  26
ATOM     26  O   UNL     1      20.851   1.219 -12.722  1.00  0.00    -0.387 OA
ATOM     27  H   UNL     1      21.162   0.838 -11.847  1.00  0.00     0.211 HD
ENDBRANCH   6  26
BRANCH   5  28
ATOM     28  O   UNL     1      19.564   2.442 -10.495  1.00  0.00    -0.385 OA
ATOM     29  H   UNL     1      18.877   2.062  -9.892  1.00  0.00     0.211 HD
ENDBRANCH   5  28
BRANCH   4  30
ATOM     30  O   UNL     1      17.067   1.555 -10.896  1.00  0.00    -0.341 OA
BRANCH  30  31
ATOM     31  C   UNL     1      15.758   1.719 -10.378  1.00  0.00     0.184 C 
ATOM     32  C   UNL     1      15.799   1.664  -8.821  1.00  0.00     0.178 C 
ATOM     33  C   UNL     1      14.910   0.524 -10.848  1.00  0.00     0.180 C 
ATOM     34  O   UNL     1      16.493   0.488  -8.413  1.00  0.00    -0.342 OA
ATOM     35  C   UNL     1      15.501  -0.794 -10.281  1.00  0.00     0.201 C 
ATOM     36  C   UNL     1      15.760  -0.693  -8.749  1.00  0.00     0.279 C 
BRANCH  32  37
ATOM     37  C   UNL     1      16.484   2.878  -8.168  1.00  0.00     0.191 C 
BRANCH  37  38
ATOM     38  O   UNL     1      17.877   2.884  -8.347  1.00  0.00    -0.394 OA
ATOM     39  H   UNL     1      18.056   2.683  -9.296  1.00  0.00     0.210 HD
ENDBRANCH  37  38
ENDBRANCH  32  37
BRANCH  33  40
ATOM     40  O   UNL     1      13.571   0.688 -10.426  1.00  0.00    -0.387 OA
ATOM     41  H   UNL     1      12.979   0.347 -11.143  1.00  0.00     0.211 HD
ENDBRANCH  33  40
BRANCH  35  42
ATOM     42  O   UNL     1      14.694  -1.898 -10.618  1.00  0.00    -0.385 OA
ATOM     43  H   UNL     1      15.152  -2.407 -11.338  1.00  0.00     0.211 HD
ENDBRANCH  35  42
BRANCH  36  44
ATOM     44  O   UNL     1      14.544  -0.746  -8.028  1.00  0.00    -0.366 OA
ATOM     45  H   UNL     1      14.017   0.063  -8.278  1.00  0.00     0.213 HD
ENDBRANCH  36  44
ENDBRANCH  30  31
ENDBRANCH   4  30
TORSDOF 18
ENDMDL
MODEL 5
REMARK VINA RESULT:    -5.667      1.790      8.090
REMARK INTER + INTRA:         -12.131
REMARK INTER:                  -9.685
REMARK INTRA:                  -2.446
REMARK UNBOUND:                -2.323
REMARK SMILES OC[C@@H]1O[C@@H](O)[C@@H](O)[C@@H](O)[C@@H]1O[C@@H]1O[C@@H](CO)[C@@H](O[C@H]2O[C@H](CO)[C@@H](O)[C@H](O)[C@@H]2O)[C@@H](O)[C@@H]1O
REMARK SMILES IDX 18 1 15 2 14 3 13 4 33 5 31 6 19 7 20 8 22 9 25 10 21 11
REMARK SMILES IDX 27 12 29 13 23 14 24 15 26 17 28 19 30 21 16 23 17 24 32 26
REMARK SMILES IDX 34 28 12 30 11 31 3 32 9 33 4 34 7 35 5 36 2 37 1 38 10 40
REMARK SMILES IDX 8 42 6 44
REMARK H PARENT 24 16 26 18 28 20 30 22 17 25 32 27 34 29 1 39 10 41 8 43 6 45
REMARK Flexibility Score: inf
ROOT
ATOM      1  C   UNL     1      18.385   1.316 -14.400  1.00  0.00     0.184 C 
ATOM      2  C   UNL     1      19.016   1.463 -13.016  1.00  0.00     0.178 C 
ATOM      3  O   UNL     1      19.039   0.180 -12.378  1.00  0.00    -0.341 OA
ATOM      4  C   UNL     1      17.732  -0.329 -12.089  1.00  0.00     0.282 C 
ATOM      5  C   UNL     1      16.814  -0.491 -13.367  1.00  0.00     0.202 C 
ATOM      6  C   UNL     1      16.924   0.823 -14.160  1.00  0.00     0.180 C 
ENDROOT
BRANCH   1   7
ATOM      7  O   UNL     1      19.261   0.457 -15.117  1.00  0.00    -0.341 OA
BRANCH   7   8
ATOM      8  C   UNL     1      19.364   0.637 -16.516  1.00  0.00     0.282 C 
ATOM      9  C   UNL     1      18.479   1.869 -18.325  1.00  0.00     0.178 C 
ATOM     10  C   UNL     1      19.768   1.660 -19.156  1.00  0.00     0.177 C 
ATOM     11  O   UNL     1      18.704   1.817 -16.911  1.00  0.00    -0.341 OA
ATOM     12  C   UNL     1      20.676   0.499 -18.617  1.00  0.00     0.179 C 
ATOM     13  C   UNL     1      20.813   0.552 -17.110  1.00  0.00     0.202 C 
BRANCH   9  14
ATOM     14  C   UNL     1      17.281   0.993 -18.764  1.00  0.00     0.191 C 
BRANCH  14  15
ATOM     15  O   UNL     1      16.083   1.368 -18.121  1.00  0.00    -0.394 OA
ATOM     16  H   UNL     1      16.301   2.107 -17.486  1.00  0.00     0.210 HD
ENDBRANCH  14  15
ENDBRANCH   9  14
BRANCH  10  17
ATOM     17  O   UNL     1      20.463   2.886 -19.235  1.00  0.00    -0.387 OA
ATOM     18  H   UNL     1      19.799   3.622 -19.256  1.00  0.00     0.211 HD
ENDBRANCH  10  17
BRANCH  12  19
ATOM     19  O   UNL     1      20.135  -0.746 -18.993  1.00  0.00    -0.387 OA
ATOM     20  H   UNL     1      20.262  -1.362 -18.223  1.00  0.00     0.211 HD
ENDBRANCH  12  19
BRANCH  13  21
ATOM     21  O   UNL     1      21.415  -0.630 -16.652  1.00  0.00    -0.385 OA
ATOM     22  H   UNL     1      22.209  -0.814 -17.205  1.00  0.00     0.211 HD
ENDBRANCH  13  21
ENDBRANCH   7   8
ENDBRANCH   1   7
BRANCH   2  23
ATOM     23  C   UNL     1      20.449   2.091 -13.147  1.00  0.00     0.191 C 
BRANCH  23  24
ATOM     24  O   UNL     1      21.458   1.144 -13.434  1.00  0.00    -0.394 OA
ATOM     25  H   UNL     1      21.654   1.153 -14.415  1.00  0.00     0.210 HD
ENDBRANCH  23  24
ENDBRANCH   2  23
BRANCH   6  26
ATOM     26  O   UNL     1      16.181   0.761 -15.341  1.00  0.00    -0.387 OA
ATOM     27  H   UNL     1      16.645   1.382 -15.978  1.00  0.00     0.211 HD
ENDBRANCH   6  26
BRANCH   5  28
ATOM     28  O   UNL     1      15.458  -0.704 -13.008  1.00  0.00    -0.385 OA
ATOM     29  H   UNL     1      14.882  -0.586 -13.804  1.00  0.00     0.211 HD
ENDBRANCH   5  28
BRANCH   4  30
ATOM     30  O   UNL     1      17.028   0.526 -11.219  1.00  0.00    -0.341 OA
BRANCH  30  31
ATOM     31  C   UNL     1      17.500   0.507  -9.883  1.00  0.00     0.184 C 
ATOM     32  C   UNL     1      16.291   0.514  -8.899  1.00  0.00     0.178 C 
ATOM     33  C   UNL     1      18.284   1.809  -9.639  1.00  0.00     0.180 C 
ATOM     34  O   UNL     1      15.416   1.585  -9.241  1.00  0.00    -0.342 OA
ATOM     35  C   UNL     1      17.341   3.030  -9.810  1.00  0.00     0.201 C 
ATOM     36  C   UNL     1      16.026   2.855  -8.995  1.00  0.00     0.279 C 
BRANCH  32  37
ATOM     37  C   UNL     1      15.477  -0.792  -8.898  1.00  0.00     0.191 C 
BRANCH  37  38
ATOM     38  O   UNL     1      14.775  -1.003 -10.097  1.00  0.00    -0.394 OA
ATOM     39  H   UNL     1      15.265  -0.534 -10.813  1.00  0.00     0.210 HD
ENDBRANCH  37  38
ENDBRANCH  32  37
BRANCH  33  40
ATOM     40  O   UNL     1      18.847   1.797  -8.343  1.00  0.00    -0.387 OA
ATOM     41  H   UNL     1      18.107   1.842  -7.686  1.00  0.00     0.211 HD
ENDBRANCH  33  40
BRANCH  35  42
ATOM     42  O   UNL     1      18.007   4.232  -9.504  1.00  0.00    -0.385 OA
ATOM     43  H   UNL     1      18.776   4.326 -10.126  1.00  0.00     0.211 HD
ENDBRANCH  35  42
BRANCH  36  44
ATOM     44  O   UNL     1      16.263   3.035  -7.612  1.00  0.00    -0.366 OA
ATOM     45  H   UNL     1      15.551   2.537  -7.123  1.00  0.00     0.213 HD
ENDBRANCH  36  44
ENDBRANCH  30  31
ENDBRANCH   4  30
TORSDOF 18
ENDMDL
MODEL 6
REMARK VINA RESULT:    -5.637      1.836      2.865
REMARK INTER + INTRA:         -12.080
REMARK INTER:                 -10.507
REMARK INTRA:                  -1.573
REMARK UNBOUND:                -2.323
REMARK SMILES OC[C@@H]1O[C@@H](O)[C@@H](O)[C@@H](O)[C@@H]1O[C@@H]1O[C@@H](CO)[C@@H](O[C@H]2O[C@H](CO)[C@@H](O)[C@H](O)[C@@H]2O)[C@@H](O)[C@@H]1O
REMARK SMILES IDX 18 1 15 2 14 3 13 4 33 5 31 6 19 7 20 8 22 9 25 10 21 11
REMARK SMILES IDX 27 12 29 13 23 14 24 15 26 17 28 19 30 21 16 23 17 24 32 26
REMARK SMILES IDX 34 28 12 30 11 31 3 32 9 33 4 34 7 35 5 36 2 37 1 38 10 40
REMARK SMILES IDX 8 42 6 44
REMARK H PARENT 24 16 26 18 28 20 30 22 17 25 32 27 34 29 1 39 10 41 8 43 6 45
REMARK Flexibility Score: inf
ROOT
ATOM      1  C   UNL     1      17.116   1.724 -13.656  1.00  0.00     0.184 C 
ATOM      2  C   UNL     1      18.486   1.103 -13.925  1.00  0.00     0.178 C 
ATOM      3  O   UNL     1      19.411   2.148 -14.255  1.00  0.00    -0.341 OA
ATOM      4  C   UNL     1      19.102   2.807 -15.488  1.00  0.00     0.282 C 
ATOM      5  C   UNL     1      17.665   3.468 -15.514  1.00  0.00     0.202 C 
ATOM      6  C   UNL     1      16.680   2.410 -14.988  1.00  0.00     0.180 C 
ENDROOT
BRANCH   1   7
ATOM      7  O   UNL     1      17.303   2.553 -12.517  1.00  0.00    -0.341 OA
BRANCH   7   8
ATOM      8  C   UNL     1      16.728   2.136 -11.294  1.00  0.00     0.282 C 
ATOM      9  C   UNL     1      17.251   1.596  -9.056  1.00  0.00     0.178 C 
ATOM     10  C   UNL     1      15.810   1.922  -8.594  1.00  0.00     0.177 C 
ATOM     11  O   UNL     1      17.641   2.311 -10.236  1.00  0.00    -0.341 OA
ATOM     12  C   UNL     1      14.775   1.979  -9.772  1.00  0.00     0.179 C 
ATOM     13  C   UNL     1      15.322   2.744 -10.959  1.00  0.00     0.202 C 
BRANCH   9  14
ATOM     14  C   UNL     1      17.571   0.085  -9.148  1.00  0.00     0.191 C 
BRANCH  14  15
ATOM     15  O   UNL     1      18.959  -0.168  -9.121  1.00  0.00    -0.394 OA
ATOM     16  H   UNL     1      19.233  -0.239  -8.163  1.00  0.00     0.210 HD
ENDBRANCH  14  15
ENDBRANCH   9  14
BRANCH  10  17
ATOM     17  O   UNL     1      15.831   3.119  -7.847  1.00  0.00    -0.387 OA
ATOM     18  H   UNL     1      16.576   3.070  -7.195  1.00  0.00     0.211 HD
ENDBRANCH  10  17
BRANCH  12  19
ATOM     19  O   UNL     1      14.437   0.671 -10.176  1.00  0.00    -0.387 OA
ATOM     20  H   UNL     1      14.767   0.056  -9.468  1.00  0.00     0.211 HD
ENDBRANCH  12  19
BRANCH  13  21
ATOM     21  O   UNL     1      14.480   2.558 -12.066  1.00  0.00    -0.385 OA
ATOM     22  H   UNL     1      14.405   3.412 -12.552  1.00  0.00     0.211 HD
ENDBRANCH  13  21
ENDBRANCH   7   8
ENDBRANCH   1   7
BRANCH   2  23
ATOM     23  C   UNL     1      18.948   0.267 -12.681  1.00  0.00     0.191 C 
BRANCH  23  24
ATOM     24  O   UNL     1      19.823   0.968 -11.820  1.00  0.00    -0.394 OA
ATOM     25  H   UNL     1      19.308   1.660 -11.314  1.00  0.00     0.210 HD
ENDBRANCH  23  24
ENDBRANCH   2  23
BRANCH   6  26
ATOM     26  O   UNL     1      15.381   2.919 -14.926  1.00  0.00    -0.387 OA
ATOM     27  H   UNL     1      15.429   3.691 -14.288  1.00  0.00     0.211 HD
ENDBRANCH   6  26
BRANCH   5  28
ATOM     28  O   UNL     1      17.288   3.840 -16.831  1.00  0.00    -0.385 OA
ATOM     29  H   UNL     1      17.939   3.469 -17.478  1.00  0.00     0.211 HD
ENDBRANCH   5  28
BRANCH   4  30
ATOM     30  O   UNL     1      19.127   1.908 -16.572  1.00  0.00    -0.341 OA
BRANCH  30  31
ATOM     31  C   UNL     1      20.428   1.476 -16.934  1.00  0.00     0.184 C 
ATOM     32  C   UNL     1      20.503   1.274 -18.478  1.00  0.00     0.178 C 
ATOM     33  C   UNL     1      20.666   0.099 -16.289  1.00  0.00     0.180 C 
ATOM     34  O   UNL     1      19.425   0.439 -18.893  1.00  0.00    -0.342 OA
ATOM     35  C   UNL     1      19.638  -0.924 -16.840  1.00  0.00     0.201 C 
ATOM     36  C   UNL     1      19.577  -0.893 -18.395  1.00  0.00     0.279 C 
BRANCH  32  37
ATOM     37  C   UNL     1      20.437   2.583 -19.285  1.00  0.00     0.191 C 
BRANCH  37  38
ATOM     38  O   UNL     1      21.305   2.591 -20.390  1.00  0.00    -0.394 OA
ATOM     39  H   UNL     1      22.222   2.471 -20.048  1.00  0.00     0.210 HD
ENDBRANCH  37  38
ENDBRANCH  32  37
BRANCH  33  40
ATOM     40  O   UNL     1      21.985  -0.334 -16.553  1.00  0.00    -0.387 OA
ATOM     41  H   UNL     1      21.968  -1.318 -16.666  1.00  0.00     0.211 HD
ENDBRANCH  33  40
BRANCH  35  42
ATOM     42  O   UNL     1      19.888  -2.215 -16.337  1.00  0.00    -0.385 OA
ATOM     43  H   UNL     1      19.672  -2.872 -17.051  1.00  0.00     0.211 HD
ENDBRANCH  35  42
BRANCH  36  44
ATOM     44  O   UNL     1      20.722  -1.507 -18.956  1.00  0.00    -0.366 OA
ATOM     45  H   UNL     1      21.153  -2.043 -18.234  1.00  0.00     0.213 HD
ENDBRANCH  36  44
ENDBRANCH  30  31
ENDBRANCH   4  30
TORSDOF 18
ENDMDL
MODEL 7
REMARK VINA RESULT:    -5.604      1.868      7.912
REMARK INTER + INTRA:         -12.022
REMARK INTER:                 -10.595
REMARK INTRA:                  -1.427
REMARK UNBOUND:                -2.323
REMARK SMILES OC[C@@H]1O[C@@H](O)[C@@H](O)[C@@H](O)[C@@H]1O[C@@H]1O[C@@H](CO)[C@@H](O[C@H]2O[C@H](CO)[C@@H](O)[C@H](O)[C@@H]2O)[C@@H](O)[C@@H]1O
REMARK SMILES IDX 18 1 15 2 14 3 13 4 33 5 31 6 19 7 20 8 22 9 25 10 21 11
REMARK SMILES IDX 27 12 29 13 23 14 24 15 26 17 28 19 30 21 16 23 17 24 32 26
REMARK SMILES IDX 34 28 12 30 11 31 3 32 9 33 4 34 7 35 5 36 2 37 1 38 10 40
REMARK SMILES IDX 8 42 6 44
REMARK H PARENT 24 16 26 18 28 20 30 22 17 25 32 27 34 29 1 39 10 41 8 43 6 45
REMARK Flexibility Score: inf
ROOT
ATOM      1  C   UNL     1      16.793   0.232 -15.642  1.00  0.00     0.184 C 
ATOM      2  C   UNL     1      16.253   1.424 -14.854  1.00  0.00     0.178 C 
ATOM      3  O   UNL     1      17.265   2.438 -14.796  1.00  0.00    -0.341 OA
ATOM      4  C   UNL     1      18.417   2.042 -14.043  1.00  0.00     0.282 C 
ATOM      5  C   UNL     1      19.127   0.744 -14.600  1.00  0.00     0.202 C 
ATOM      6  C   UNL     1      18.022  -0.298 -14.840  1.00  0.00     0.180 C 
ENDROOT
BRANCH   1   7
ATOM      7  O   UNL     1      17.026   0.729 -16.953  1.00  0.00    -0.341 OA
BRANCH   7   8
ATOM      8  C   UNL     1      18.367   0.942 -17.350  1.00  0.00     0.282 C 
ATOM      9  C   UNL     1      20.252  -0.143 -18.269  1.00  0.00     0.178 C 
ATOM     10  C   UNL     1      20.822   1.198 -18.794  1.00  0.00     0.177 C 
ATOM     11  O   UNL     1      18.825  -0.135 -18.133  1.00  0.00    -0.341 OA
ATOM     12  C   UNL     1      20.172   2.458 -18.123  1.00  0.00     0.179 C 
ATOM     13  C   UNL     1      18.666   2.325 -18.026  1.00  0.00     0.202 C 
BRANCH   9  14
ATOM     14  C   UNL     1      20.961  -0.693 -17.008  1.00  0.00     0.191 C 
BRANCH  14  15
ATOM     15  O   UNL     1      22.135   0.028 -16.701  1.00  0.00    -0.394 OA
ATOM     16  H   UNL     1      22.718   0.014 -17.512  1.00  0.00     0.210 HD
ENDBRANCH  14  15
ENDBRANCH   9  14
BRANCH  10  17
ATOM     17  O   UNL     1      20.701   1.223 -20.201  1.00  0.00    -0.387 OA
ATOM     18  H   UNL     1      20.483   2.148 -20.481  1.00  0.00     0.211 HD
ENDBRANCH  10  17
BRANCH  12  19
ATOM     19  O   UNL     1      20.708   2.643 -16.833  1.00  0.00    -0.387 OA
ATOM     20  H   UNL     1      20.317   3.484 -16.475  1.00  0.00     0.211 HD
ENDBRANCH  12  19
BRANCH  13  21
ATOM     21  O   UNL     1      18.158   3.343 -17.205  1.00  0.00    -0.385 OA
ATOM     22  H   UNL     1      18.049   4.159 -17.746  1.00  0.00     0.211 HD
ENDBRANCH  13  21
ENDBRANCH   7   8
ENDBRANCH   1   7
BRANCH   2  23
ATOM     23  C   UNL     1      14.926   1.943 -15.512  1.00  0.00     0.191 C 
BRANCH  23  24
ATOM     24  O   UNL     1      15.138   2.824 -16.596  1.00  0.00    -0.394 OA
ATOM     25  H   UNL     1      15.690   2.368 -17.294  1.00  0.00     0.210 HD
ENDBRANCH  23  24
ENDBRANCH   2  23
BRANCH   6  26
ATOM     26  O   UNL     1      18.546  -1.473 -15.382  1.00  0.00    -0.387 OA
ATOM     27  H   UNL     1      18.233  -1.488 -16.335  1.00  0.00     0.211 HD
ENDBRANCH   6  26
BRANCH   5  28
ATOM     28  O   UNL     1      20.062   0.223 -13.668  1.00  0.00    -0.385 OA
ATOM     29  H   UNL     1      20.618   0.960 -13.310  1.00  0.00     0.211 HD
ENDBRANCH   5  28
BRANCH   4  30
ATOM     30  O   UNL     1      18.082   1.749 -12.706  1.00  0.00    -0.341 OA
BRANCH  30  31
ATOM     31  C   UNL     1      17.888   2.895 -11.895  1.00  0.00     0.184 C 
ATOM     32  C   UNL     1      18.939   2.907 -10.744  1.00  0.00     0.178 C 
ATOM     33  C   UNL     1      16.501   2.780 -11.235  1.00  0.00     0.180 C 
ATOM     34  O   UNL     1      18.912   1.651 -10.073  1.00  0.00    -0.342 OA
ATOM     35  C   UNL     1      16.455   1.522 -10.328  1.00  0.00     0.201 C 
ATOM     36  C   UNL     1      17.680   1.462  -9.370  1.00  0.00     0.279 C 
BRANCH  32  37
ATOM     37  C   UNL     1      20.380   3.171 -11.214  1.00  0.00     0.191 C 
BRANCH  37  38
ATOM     38  O   UNL     1      21.246   3.518 -10.163  1.00  0.00    -0.394 OA
ATOM     39  H   UNL     1      20.693   3.665  -9.360  1.00  0.00     0.210 HD
ENDBRANCH  37  38
ENDBRANCH  32  37
BRANCH  33  40
ATOM     40  O   UNL     1      16.229   3.944 -10.482  1.00  0.00    -0.387 OA
ATOM     41  H   UNL     1      17.082   4.267 -10.096  1.00  0.00     0.211 HD
ENDBRANCH  33  40
BRANCH  35  42
ATOM     42  O   UNL     1      15.230   1.439  -9.640  1.00  0.00    -0.385 OA
ATOM     43  H   UNL     1      14.542   1.101 -10.272  1.00  0.00     0.211 HD
ENDBRANCH  35  42
BRANCH  36  44
ATOM     44  O   UNL     1      17.551   2.410  -8.327  1.00  0.00    -0.366 OA
ATOM     45  H   UNL     1      16.644   2.815  -8.408  1.00  0.00     0.213 HD
ENDBRANCH  36  44
ENDBRANCH  30  31
ENDBRANCH   4  30
TORSDOF 18
ENDMDL
MODEL 8
REMARK VINA RESULT:    -5.533      1.670      2.525
REMARK INTER + INTRA:         -11.899
REMARK INTER:                  -9.266
REMARK INTRA:                  -2.633
REMARK UNBOUND:                -2.323
REMARK SMILES OC[C@@H]1O[C@@H](O)[C@@H](O)[C@@H](O)[C@@H]1O[C@@H]1O[C@@H](CO)[C@@H](O[C@H]2O[C@H](CO)[C@@H](O)[C@H](O)[C@@H]2O)[C@@H](O)[C@@H]1O
REMARK SMILES IDX 18 1 15 2 14 3 13 4 33 5 31 6 19 7 20 8 22 9 25 10 21 11
REMARK SMILES IDX 27 12 29 13 23 14 24 15 26 17 28 19 30 21 16 23 17 24 32 26
REMARK SMILES IDX 34 28 12 30 11 31 3 32 9 33 4 34 7 35 5 36 2 37 1 38 10 40
REMARK SMILES IDX 8 42 6 44
REMARK H PARENT 24 16 26 18 28 20 30 22 17 25 32 27 34 29 1 39 10 41 8 43 6 45
REMARK Flexibility Score: inf
ROOT
ATOM      1  C   UNL     1      17.280   0.537 -12.342  1.00  0.00     0.184 C 
ATOM      2  C   UNL     1      18.744   0.422 -12.766  1.00  0.00     0.178 C 
ATOM      3  O   UNL     1      19.134   1.639 -13.418  1.00  0.00    -0.341 OA
ATOM      4  C   UNL     1      18.451   1.858 -14.656  1.00  0.00     0.282 C 
ATOM      5  C   UNL     1      16.877   1.923 -14.513  1.00  0.00     0.202 C 
ATOM      6  C   UNL     1      16.460   0.715 -13.657  1.00  0.00     0.180 C 
ENDROOT
BRANCH   1   7
ATOM      7  O   UNL     1      17.250   1.599 -11.398  1.00  0.00    -0.341 OA
BRANCH   7   8
ATOM      8  C   UNL     1      16.323   1.511 -10.334  1.00  0.00     0.282 C 
ATOM      9  C   UNL     1      16.107   0.859  -8.074  1.00  0.00     0.178 C 
ATOM     10  C   UNL     1      14.892   1.799  -7.874  1.00  0.00     0.177 C 
ATOM     11  O   UNL     1      16.993   1.297  -9.113  1.00  0.00    -0.341 OA
ATOM     12  C   UNL     1      14.241   2.272  -9.221  1.00  0.00     0.179 C 
ATOM     13  C   UNL     1      15.288   2.685 -10.233  1.00  0.00     0.202 C 
BRANCH   9  14
ATOM     14  C   UNL     1      15.746  -0.641  -8.199  1.00  0.00     0.191 C 
BRANCH  14  15
ATOM     15  O   UNL     1      16.893  -1.458  -8.276  1.00  0.00    -0.394 OA
ATOM     16  H   UNL     1      16.937  -1.829  -9.203  1.00  0.00     0.210 HD
ENDBRANCH  14  15
ENDBRANCH   9  14
BRANCH  10  17
ATOM     17  O   UNL     1      15.286   2.885  -7.063  1.00  0.00    -0.387 OA
ATOM     18  H   UNL     1      14.882   3.713  -7.429  1.00  0.00     0.211 HD
ENDBRANCH  10  17
BRANCH  12  19
ATOM     19  O   UNL     1      13.452   1.236  -9.761  1.00  0.00    -0.387 OA
ATOM     20  H   UNL     1      12.779   1.663 -10.354  1.00  0.00     0.211 HD
ENDBRANCH  12  19
BRANCH  13  21
ATOM     21  O   UNL     1      14.685   2.858 -11.488  1.00  0.00    -0.385 OA
ATOM     22  H   UNL     1      15.169   2.309 -12.148  1.00  0.00     0.211 HD
ENDBRANCH  13  21
ENDBRANCH   7   8
ENDBRANCH   1   7
BRANCH   2  23
ATOM     23  C   UNL     1      19.638   0.100 -11.517  1.00  0.00     0.191 C 
BRANCH  23  24
ATOM     24  O   UNL     1      18.955  -0.601 -10.497  1.00  0.00    -0.394 OA
ATOM     25  H   UNL     1      17.974  -0.590 -10.685  1.00  0.00     0.210 HD
ENDBRANCH  23  24
ENDBRANCH   2  23
BRANCH   6  26
ATOM     26  O   UNL     1      15.082   0.710 -13.432  1.00  0.00    -0.387 OA
ATOM     27  H   UNL     1      14.797   1.669 -13.513  1.00  0.00     0.211 HD
ENDBRANCH   6  26
BRANCH   5  28
ATOM     28  O   UNL     1      16.237   1.840 -15.777  1.00  0.00    -0.385 OA
ATOM     29  H   UNL     1      16.905   1.969 -16.496  1.00  0.00     0.211 HD
ENDBRANCH   5  28
BRANCH   4  30
ATOM     30  O   UNL     1      18.708   0.824 -15.577  1.00  0.00    -0.341 OA
BRANCH  30  31
ATOM     31  C   UNL     1      19.845   1.046 -16.393  1.00  0.00     0.184 C 
ATOM     32  C   UNL     1      19.416   1.085 -17.891  1.00  0.00     0.178 C 
ATOM     33  C   UNL     1      20.789  -0.159 -16.228  1.00  0.00     0.180 C 
ATOM     34  O   UNL     1      18.647  -0.077 -18.188  1.00  0.00    -0.342 OA
ATOM     35  C   UNL     1      20.081  -1.451 -16.714  1.00  0.00     0.201 C 
ATOM     36  C   UNL     1      19.446  -1.261 -18.123  1.00  0.00     0.279 C 
BRANCH  32  37
ATOM     37  C   UNL     1      18.585   2.324 -18.272  1.00  0.00     0.191 C 
BRANCH  37  38
ATOM     38  O   UNL     1      17.231   2.027 -18.502  1.00  0.00    -0.394 OA
ATOM     39  H   UNL     1      16.788   1.965 -17.622  1.00  0.00     0.210 HD
ENDBRANCH  37  38
ENDBRANCH  32  37
BRANCH  33  40
ATOM     40  O   UNL     1      21.979   0.058 -16.959  1.00  0.00    -0.387 OA
ATOM     41  H   UNL     1      22.005   1.012 -17.225  1.00  0.00     0.211 HD
ENDBRANCH  33  40
BRANCH  35  42
ATOM     42  O   UNL     1      20.951  -2.557 -16.661  1.00  0.00    -0.385 OA
ATOM     43  H   UNL     1      21.474  -2.498 -15.819  1.00  0.00     0.211 HD
ENDBRANCH  35  42
BRANCH  36  44
ATOM     44  O   UNL     1      20.444  -1.245 -19.126  1.00  0.00    -0.366 OA
ATOM     45  H   UNL     1      19.977  -1.289 -20.007  1.00  0.00     0.213 HD
ENDBRANCH  36  44
ENDBRANCH  30  31
ENDBRANCH   4  30
TORSDOF 18
ENDMDL
MODEL 9
REMARK VINA RESULT:    -5.475      1.676      8.386
REMARK INTER + INTRA:         -11.799
REMARK INTER:                  -9.292
REMARK INTRA:                  -2.507
REMARK UNBOUND:                -2.323
REMARK SMILES OC[C@@H]1O[C@@H](O)[C@@H](O)[C@@H](O)[C@@H]1O[C@@H]1O[C@@H](CO)[C@@H](O[C@H]2O[C@H](CO)[C@@H](O)[C@H](O)[C@@H]2O)[C@@H](O)[C@@H]1O
REMARK SMILES IDX 18 1 15 2 14 3 13 4 33 5 31 6 19 7 20 8 22 9 25 10 21 11
REMARK SMILES IDX 27 12 29 13 23 14 24 15 26 17 28 19 30 21 16 23 17 24 32 26
REMARK SMILES IDX 34 28 12 30 11 31 3 32 9 33 4 34 7 35 5 36 2 37 1 38 10 40
REMARK SMILES IDX 8 42 6 44
REMARK H PARENT 24 16 26 18 28 20 30 22 17 25 32 27 34 29 1 39 10 41 8 43 6 45
REMARK Flexibility Score: inf
ROOT
ATOM      1  C   UNL     1      18.139   0.412 -14.519  1.00  0.00     0.184 C 
ATOM      2  C   UNL     1      16.712   0.426 -13.973  1.00  0.00     0.178 C 
ATOM      3  O   UNL     1      16.402   1.751 -13.520  1.00  0.00    -0.341 OA
ATOM      4  C   UNL     1      17.187   2.161 -12.395  1.00  0.00     0.282 C 
ATOM      5  C   UNL     1      18.746   2.142 -12.665  1.00  0.00     0.202 C 
ATOM      6  C   UNL     1      19.066   0.788 -13.321  1.00  0.00     0.180 C 
ENDROOT
BRANCH   1   7
ATOM      7  O   UNL     1      18.117   1.290 -15.636  1.00  0.00    -0.341 OA
BRANCH   7   8
ATOM      8  C   UNL     1      19.088   1.098 -16.646  1.00  0.00     0.282 C 
ATOM      9  C   UNL     1      20.852  -0.322 -17.315  1.00  0.00     0.178 C 
ATOM     10  C   UNL     1      20.692   0.104 -18.795  1.00  0.00     0.177 C 
ATOM     11  O   UNL     1      19.643  -0.194 -16.557  1.00  0.00    -0.341 OA
ATOM     12  C   UNL     1      19.867   1.426 -18.978  1.00  0.00     0.179 C 
ATOM     13  C   UNL     1      18.629   1.436 -18.106  1.00  0.00     0.202 C 
BRANCH   9  14
ATOM     14  C   UNL     1      22.070   0.305 -16.594  1.00  0.00     0.191 C 
BRANCH  14  15
ATOM     15  O   UNL     1      22.430  -0.414 -15.435  1.00  0.00    -0.394 OA
ATOM     16  H   UNL     1      21.915  -0.030 -14.671  1.00  0.00     0.210 HD
ENDBRANCH  14  15
ENDBRANCH   9  14
BRANCH  10  17
ATOM     17  O   UNL     1      20.139  -0.973 -19.521  1.00  0.00    -0.387 OA
ATOM     18  H   UNL     1      20.795  -1.716 -19.530  1.00  0.00     0.211 HD
ENDBRANCH  10  17
BRANCH  12  19
ATOM     19  O   UNL     1      20.670   2.539 -18.662  1.00  0.00    -0.387 OA
ATOM     20  H   UNL     1      20.054   3.289 -18.445  1.00  0.00     0.211 HD
ENDBRANCH  12  19
BRANCH  13  21
ATOM     21  O   UNL     1      18.063   2.721 -18.110  1.00  0.00    -0.385 OA
ATOM     22  H   UNL     1      17.162   2.669 -17.716  1.00  0.00     0.211 HD
ENDBRANCH  13  21
ENDBRANCH   7   8
ENDBRANCH   1   7
BRANCH   2  23
ATOM     23  C   UNL     1      15.714  -0.077 -15.074  1.00  0.00     0.191 C 
BRANCH  23  24
ATOM     24  O   UNL     1      15.329   0.927 -15.991  1.00  0.00    -0.394 OA
ATOM     25  H   UNL     1      15.097   0.505 -16.868  1.00  0.00     0.210 HD
ENDBRANCH  23  24
ENDBRANCH   2  23
BRANCH   6  26
ATOM     26  O   UNL     1      20.421   0.694 -13.644  1.00  0.00    -0.387 OA
ATOM     27  H   UNL     1      20.463   0.798 -14.641  1.00  0.00     0.211 HD
ENDBRANCH   6  26
BRANCH   5  28
ATOM     28  O   UNL     1      19.483   2.259 -11.458  1.00  0.00    -0.385 OA
ATOM     29  H   UNL     1      20.234   2.890 -11.589  1.00  0.00     0.211 HD
ENDBRANCH   5  28
BRANCH   4  30
ATOM     30  O   UNL     1      16.982   1.313 -11.288  1.00  0.00    -0.341 OA
BRANCH  30  31
ATOM     31  C   UNL     1      15.797   1.590 -10.561  1.00  0.00     0.184 C 
ATOM     32  C   UNL     1      16.121   1.660  -9.038  1.00  0.00     0.178 C 
ATOM     33  C   UNL     1      14.831   0.409 -10.761  1.00  0.00     0.180 C 
ATOM     34  O   UNL     1      16.832   0.485  -8.657  1.00  0.00    -0.342 OA
ATOM     35  C   UNL     1      15.464  -0.889 -10.193  1.00  0.00     0.201 C 
ATOM     36  C   UNL     1      16.004  -0.677  -8.748  1.00  0.00     0.279 C 
BRANCH  32  37
ATOM     37  C   UNL     1      16.960   2.884  -8.631  1.00  0.00     0.191 C 
BRANCH  37  38
ATOM     38  O   UNL     1      18.295   2.803  -9.061  1.00  0.00    -0.394 OA
ATOM     39  H   UNL     1      18.853   3.257  -8.386  1.00  0.00     0.210 HD
ENDBRANCH  37  38
ENDBRANCH  32  37
BRANCH  33  40
ATOM     40  O   UNL     1      13.600   0.680 -10.122  1.00  0.00    -0.387 OA
ATOM     41  H   UNL     1      13.058  -0.149 -10.135  1.00  0.00     0.211 HD
ENDBRANCH  33  40
BRANCH  35  42
ATOM     42  O   UNL     1      14.567  -1.970 -10.279  1.00  0.00    -0.385 OA
ATOM     43  H   UNL     1      14.090  -2.046  -9.410  1.00  0.00     0.211 HD
ENDBRANCH  35  42
BRANCH  36  44
ATOM     44  O   UNL     1      14.939  -0.605  -7.819  1.00  0.00    -0.366 OA
ATOM     45  H   UNL     1      14.571   0.320  -7.863  1.00  0.00     0.213 HD
ENDBRANCH  36  44
ENDBRANCH  30  31
ENDBRANCH   4  30
TORSDOF 18
ENDMDL
