MODEL 1
REMARK VINA RESULT:    -2.808      0.000      0.000
REMARK INTER + INTRA:          -3.567
REMARK INTER:                  -3.465
REMARK INTRA:                  -0.102
REMARK UNBOUND:                -0.102
REMARK SMILES CCCCCC(=O)[O-]
REMARK SMILES IDX 4 1 5 2 6 3 7 4 8 5 3 6 2 7 1 8
REMARK H PARENT
REMARK Flexibility Score: inf
ROOT
ATOM      1  C   UNL     1      -8.677  21.054  17.638  1.00  0.00     0.006 C 
ENDROOT
BRANCH   1   2
ATOM      2  C   UNL     1      -8.788  22.560  17.896  1.00  0.00     0.053 C 
BRANCH   2   3
ATOM      3  C   UNL     1      -8.575  22.861  19.346  1.00  0.00     0.041 C 
ATOM      4  O   UNL     1      -9.014  23.932  19.842  1.00  0.00    -0.550 OA
ATOM      5  O   UNL     1      -7.848  21.983  20.139  1.00  0.00    -0.550 OA
ENDBRANCH   2   3
ENDBRANCH   1   2
BRANCH   1   6
ATOM      6  C   UNL     1      -7.418  20.729  16.821  1.00  0.00     0.000 C 
BRANCH   6   7
ATOM      7  C   UNL     1      -7.571  21.082  15.334  1.00  0.00    -0.003 C 
ATOM      8  C   UNL     1      -6.242  21.056  14.580  1.00  0.00     0.004 C 
ENDBRANCH   6   7
ENDBRANCH   1   6
TORSDOF 4
ENDMDL
MODEL 2
REMARK VINA RESULT:    -2.541      4.873      6.073
REMARK INTER + INTRA:          -3.237
REMARK INTER:                  -3.189
REMARK INTRA:                  -0.048
REMARK UNBOUND:                -0.102
REMARK SMILES CCCCCC(=O)[O-]
REMARK SMILES IDX 4 1 5 2 6 3 7 4 8 5 3 6 2 7 1 8
REMARK H PARENT
REMARK Flexibility Score: inf
ROOT
ATOM      1  C   UNL     1      -3.216  19.953  15.834  1.00  0.00     0.006 C 
ENDROOT
BRANCH   1   2
ATOM      2  C   UNL     1      -2.546  20.029  17.210  1.00  0.00     0.053 C 
BRANCH   2   3
ATOM      3  C   UNL     1      -1.374  20.958  17.173  1.00  0.00     0.041 C 
ATOM      4  O   UNL     1      -1.132  21.711  18.152  1.00  0.00    -0.550 OA
ATOM      5  O   UNL     1      -0.579  21.029  16.036  1.00  0.00    -0.550 OA
ENDBRANCH   2   3
ENDBRANCH   1   2
BRANCH   1   6
ATOM      6  C   UNL     1      -4.733  20.162  15.949  1.00  0.00     0.000 C 
BRANCH   6   7
ATOM      7  C   UNL     1      -5.346  20.754  14.671  1.00  0.00    -0.003 C 
ATOM      8  C   UNL     1      -6.812  21.150  14.847  1.00  0.00     0.004 C 
ENDBRANCH   6   7
ENDBRANCH   1   6
TORSDOF 4
ENDMDL
MODEL 3
REMARK VINA RESULT:    -2.518      1.388      1.733
REMARK INTER + INTRA:          -3.209
REMARK INTER:                  -3.127
REMARK INTRA:                  -0.082
REMARK UNBOUND:                -0.102
REMARK SMILES CCCCCC(=O)[O-]
REMARK SMILES IDX 4 1 5 2 6 3 7 4 8 5 3 6 2 7 1 8
REMARK H PARENT
REMARK Flexibility Score: inf
ROOT
ATOM      1  C   UNL     1      -8.664  21.181  17.710  1.00  0.00     0.006 C 
ENDROOT
BRANCH   1   2
ATOM      2  C   UNL     1      -8.425  22.096  18.916  1.00  0.00     0.053 C 
BRANCH   2   3
ATOM      3  C   UNL     1      -7.476  21.458  19.879  1.00  0.00     0.041 C 
ATOM      4  O   UNL     1      -6.399  20.952  19.467  1.00  0.00    -0.550 OA
ATOM      5  O   UNL     1      -7.803  21.377  21.227  1.00  0.00    -0.550 OA
ENDBRANCH   2   3
ENDBRANCH   1   2
BRANCH   1   6
ATOM      6  C   UNL     1      -8.007  21.756  16.446  1.00  0.00     0.000 C 
BRANCH   6   7
ATOM      7  C   UNL     1      -7.547  20.663  15.471  1.00  0.00    -0.003 C 
ATOM      8  C   UNL     1      -6.347  21.091  14.626  1.00  0.00     0.004 C 
ENDBRANCH   6   7
ENDBRANCH   1   6
TORSDOF 4
ENDMDL
MODEL 4
REMARK VINA RESULT:    -2.374      2.485      4.117
REMARK INTER + INTRA:          -3.031
REMARK INTER:                  -2.828
REMARK INTRA:                  -0.202
REMARK UNBOUND:                -0.102
REMARK SMILES CCCCCC(=O)[O-]
REMARK SMILES IDX 4 1 5 2 6 3 7 4 8 5 3 6 2 7 1 8
REMARK H PARENT
REMARK Flexibility Score: inf
ROOT
ATOM      1  C   UNL     1      -9.088  21.207  17.598  1.00  0.00     0.006 C 
ENDROOT
BRANCH   1   2
ATOM      2  C   UNL     1      -8.747  20.885  16.140  1.00  0.00     0.053 C 
BRANCH   2   3
ATOM      3  C   UNL     1      -7.265  20.819  15.949  1.00  0.00     0.041 C 
ATOM      4  O   UNL     1      -6.740  21.277  14.900  1.00  0.00    -0.550 OA
ATOM      5  O   UNL     1      -6.467  20.207  16.907  1.00  0.00    -0.550 OA
ENDBRANCH   2   3
ENDBRANCH   1   2
BRANCH   1   6
ATOM      6  C   UNL     1      -9.045  22.722  17.849  1.00  0.00     0.000 C 
BRANCH   6   7
ATOM      7  C   UNL     1      -8.606  23.071  19.279  1.00  0.00    -0.003 C 
ATOM      8  C   UNL     1      -7.759  21.973  19.921  1.00  0.00     0.004 C 
ENDBRANCH   6   7
ENDBRANCH   1   6
TORSDOF 4
ENDMDL
MODEL 5
REMARK VINA RESULT:    -2.229     15.140     16.725
REMARK INTER + INTRA:          -2.852
REMARK INTER:                  -2.675
REMARK INTRA:                  -0.177
REMARK UNBOUND:                -0.102
REMARK SMILES CCCCCC(=O)[O-]
REMARK SMILES IDX 4 1 5 2 6 3 7 4 8 5 3 6 2 7 1 8
REMARK H PARENT
REMARK Flexibility Score: inf
ROOT
ATOM      1  C   UNL     1       7.846  19.893  14.966  1.00  0.00     0.006 C 
ENDROOT
BRANCH   1   2
ATOM      2  C   UNL     1       9.155  20.601  14.604  1.00  0.00     0.053 C 
BRANCH   2   3
ATOM      3  C   UNL     1       9.113  21.092  13.192  1.00  0.00     0.041 C 
ATOM      4  O   UNL     1       8.430  20.482  12.328  1.00  0.00    -0.550 OA
ATOM      5  O   UNL     1       9.870  22.195  12.817  1.00  0.00    -0.550 OA
ENDBRANCH   2   3
ENDBRANCH   1   2
BRANCH   1   6
ATOM      6  C   UNL     1       7.184  20.552  16.186  1.00  0.00     0.000 C 
BRANCH   6   7
ATOM      7  C   UNL     1       5.746  21.009  15.902  1.00  0.00    -0.003 C 
ATOM      8  C   UNL     1       5.343  20.820  14.440  1.00  0.00     0.004 C 
ENDBRANCH   6   7
ENDBRANCH   1   6
TORSDOF 4
ENDMDL
MODEL 6
REMARK VINA RESULT:    -2.190      3.798      5.244
REMARK INTER + INTRA:          -2.804
REMARK INTER:                  -2.717
REMARK INTRA:                  -0.087
REMARK UNBOUND:                -0.102
REMARK SMILES CCCCCC(=O)[O-]
REMARK SMILES IDX 4 1 5 2 6 3 7 4 8 5 3 6 2 7 1 8
REMARK H PARENT
REMARK Flexibility Score: inf
ROOT
ATOM      1  C   UNL     1      -4.620  19.961  16.002  1.00  0.00     0.006 C 
ENDROOT
BRANCH   1   2
ATOM      2  C   UNL     1      -3.108  19.879  16.235  1.00  0.00     0.053 C 
BRANCH   2   3
ATOM      3  C   UNL     1      -2.800  19.894  17.698  1.00  0.00     0.041 C 
ATOM      4  O   UNL     1      -1.605  19.876  18.095  1.00  0.00    -0.550 OA
ATOM      5  O   UNL     1      -3.833  19.875  18.626  1.00  0.00    -0.550 OA
ENDBRANCH   2   3
ENDBRANCH   1   2
BRANCH   1   6
ATOM      6  C   UNL     1      -4.934  20.649  14.665  1.00  0.00     0.000 C 
BRANCH   6   7
ATOM      7  C   UNL     1      -6.423  20.997  14.516  1.00  0.00    -0.003 C 
ATOM      8  C   UNL     1      -7.191  20.883  15.832  1.00  0.00     0.004 C 
ENDBRANCH   6   7
ENDBRANCH   1   6
TORSDOF 4
ENDMDL
MODEL 7
REMARK VINA RESULT:    -2.128     16.507     18.151
REMARK INTER + INTRA:          -2.728
REMARK INTER:                  -2.674
REMARK INTRA:                  -0.054
REMARK UNBOUND:                -0.102
REMARK SMILES CCCCCC(=O)[O-]
REMARK SMILES IDX 4 1 5 2 6 3 7 4 8 5 3 6 2 7 1 8
REMARK H PARENT
REMARK Flexibility Score: inf
ROOT
ATOM      1  C   UNL     1       9.729  21.632  13.039  1.00  0.00     0.006 C 
ENDROOT
BRANCH   1   2
ATOM      2  C   UNL     1       9.571  20.998  14.424  1.00  0.00     0.053 C 
BRANCH   2   3
ATOM      3  C   UNL     1       8.166  20.531  14.631  1.00  0.00     0.041 C 
ATOM      4  O   UNL     1       7.461  20.187  13.647  1.00  0.00    -0.550 OA
ATOM      5  O   UNL     1       7.616  20.524  15.907  1.00  0.00    -0.550 OA
ENDBRANCH   2   3
ENDBRANCH   1   2
BRANCH   1   6
ATOM      6  C   UNL     1      10.929  22.590  13.006  1.00  0.00     0.000 C 
BRANCH   6   7
ATOM      7  C   UNL     1      11.110  23.263  11.637  1.00  0.00    -0.003 C 
ATOM      8  C   UNL     1      10.749  24.748  11.657  1.00  0.00     0.004 C 
ENDBRANCH   6   7
ENDBRANCH   1   6
TORSDOF 4
ENDMDL
MODEL 8
REMARK VINA RESULT:    -2.063     14.857     16.383
REMARK INTER + INTRA:          -2.648
REMARK INTER:                  -2.563
REMARK INTRA:                  -0.084
REMARK UNBOUND:                -0.102
REMARK SMILES CCCCCC(=O)[O-]
REMARK SMILES IDX 4 1 5 2 6 3 7 4 8 5 3 6 2 7 1 8
REMARK H PARENT
REMARK Flexibility Score: inf
ROOT
ATOM      1  C   UNL     1       8.101  20.596  14.205  1.00  0.00     0.006 C 
ENDROOT
BRANCH   1   2
ATOM      2  C   UNL     1       7.339  20.368  15.514  1.00  0.00     0.053 C 
BRANCH   2   3
ATOM      3  C   UNL     1       5.906  20.770  15.364  1.00  0.00     0.041 C 
ATOM      4  O   UNL     1       5.287  21.283  16.333  1.00  0.00    -0.550 OA
ATOM      5  O   UNL     1       5.238  20.531  14.170  1.00  0.00    -0.550 OA
ENDBRANCH   2   3
ENDBRANCH   1   2
BRANCH   1   6
ATOM      6  C   UNL     1       9.616  20.458  14.419  1.00  0.00     0.000 C 
BRANCH   6   7
ATOM      7  C   UNL     1      10.378  21.752  14.096  1.00  0.00    -0.003 C 
ATOM      8  C   UNL     1      11.020  22.384  15.331  1.00  0.00     0.004 C 
ENDBRANCH   6   7
ENDBRANCH   1   6
TORSDOF 4
ENDMDL
MODEL 9
REMARK VINA RESULT:    -1.977     17.829     19.507
REMARK INTER + INTRA:          -2.541
REMARK INTER:                  -2.488
REMARK INTRA:                  -0.054
REMARK UNBOUND:                -0.102
REMARK SMILES CCCCCC(=O)[O-]
REMARK SMILES IDX 4 1 5 2 6 3 7 4 8 5 3 6 2 7 1 8
REMARK H PARENT
REMARK Flexibility Score: inf
ROOT
ATOM      1  C   UNL     1      10.756  22.432  12.746  1.00  0.00     0.006 C 
ENDROOT
BRANCH   1   2
ATOM      2  C   UNL     1      11.124  22.606  11.269  1.00  0.00     0.053 C 
BRANCH   2   3
ATOM      3  C   UNL     1      11.011  24.041  10.865  1.00  0.00     0.041 C 
ATOM      4  O   UNL     1      11.100  24.366   9.652  1.00  0.00    -0.550 OA
ATOM      5  O   UNL     1      10.858  25.026  11.832  1.00  0.00    -0.550 OA
ENDBRANCH   2   3
ENDBRANCH   1   2
BRANCH   1   6
ATOM      6  C   UNL     1       9.800  21.245  12.938  1.00  0.00     0.000 C 
BRANCH   6   7
ATOM      7  C   UNL     1       9.465  20.991  14.416  1.00  0.00    -0.003 C 
ATOM      8  C   UNL     1       8.023  20.528  14.623  1.00  0.00     0.004 C 
ENDBRANCH   6   7
ENDBRANCH   1   6
TORSDOF 4
ENDMDL
