MODEL 1
REMARK VINA RESULT:    -4.595      0.000      0.000
REMARK INTER + INTRA:          -7.925
REMARK INTER:                  -7.012
REMARK INTRA:                  -0.913
REMARK UNBOUND:                -0.913
REMARK SMILES O=C([O-])CCCCCCCCC(=O)[O-]
REMARK SMILES IDX 7 1 6 2 5 3 4 4 2 5 1 6 3 7 8 8 9 9 10 10 11 11 12 12 13 13
REMARK SMILES IDX 14 14
REMARK H PARENT
REMARK Flexibility Score: inf
ROOT
ATOM      1  C   UNL     1     -25.871 -31.764 -10.718  1.00  0.00     0.000 C 
ENDROOT
BRANCH   1   2
ATOM      2  C   UNL     1     -24.688 -31.475 -11.659  1.00  0.00     0.000 C 
BRANCH   2   3
ATOM      3  C   UNL     1     -23.884 -32.740 -12.001  1.00  0.00     0.006 C 
BRANCH   3   4
ATOM      4  C   UNL     1     -24.734 -34.016 -11.943  1.00  0.00     0.053 C 
BRANCH   4   5
ATOM      5  C   UNL     1     -24.006 -35.157 -12.582  1.00  0.00     0.041 C 
ATOM      6  O   UNL     1     -24.637 -36.173 -12.972  1.00  0.00    -0.550 OA
ATOM      7  O   UNL     1     -22.635 -35.075 -12.794  1.00  0.00    -0.550 OA
ENDBRANCH   4   5
ENDBRANCH   3   4
ENDBRANCH   2   3
ENDBRANCH   1   2
BRANCH   1   8
ATOM      8  C   UNL     1     -27.102 -30.897 -11.036  1.00  0.00     0.000 C 
BRANCH   8   9
ATOM      9  C   UNL     1     -27.439 -30.880 -12.537  1.00  0.00     0.000 C 
BRANCH   9  10
ATOM     10  C   UNL     1     -28.468 -31.957 -12.927  1.00  0.00     0.006 C 
BRANCH  10  11
ATOM     11  C   UNL     1     -27.878 -33.152 -13.692  1.00  0.00     0.053 C 
BRANCH  11  12
ATOM     12  C   UNL     1     -27.982 -34.426 -12.909  1.00  0.00     0.041 C 
ATOM     13  O   UNL     1     -27.866 -35.537 -13.488  1.00  0.00    -0.550 OA
ATOM     14  O   UNL     1     -28.240 -34.383 -11.544  1.00  0.00    -0.550 OA
ENDBRANCH  11  12
ENDBRANCH  10  11
ENDBRANCH   9  10
ENDBRANCH   8   9
ENDBRANCH   1   8
TORSDOF 9
ENDMDL
MODEL 2
REMARK VINA RESULT:    -4.590      0.206      3.924
REMARK INTER + INTRA:          -7.917
REMARK INTER:                  -7.007
REMARK INTRA:                  -0.910
REMARK UNBOUND:                -0.913
REMARK SMILES O=C([O-])CCCCCCCCC(=O)[O-]
REMARK SMILES IDX 7 1 6 2 5 3 4 4 2 5 1 6 3 7 8 8 9 9 10 10 11 11 12 12 13 13
REMARK SMILES IDX 14 14
REMARK H PARENT
REMARK Flexibility Score: inf
ROOT
ATOM      1  C   UNL     1     -27.316 -30.955 -10.990  1.00  0.00     0.000 C 
ENDROOT
BRANCH   1   2
ATOM      2  C   UNL     1     -27.534 -30.904 -12.512  1.00  0.00     0.000 C 
BRANCH   2   3
ATOM      3  C   UNL     1     -28.538 -31.961 -13.001  1.00  0.00     0.006 C 
BRANCH   3   4
ATOM      4  C   UNL     1     -27.859 -33.138 -13.714  1.00  0.00     0.053 C 
BRANCH   4   5
ATOM      5  C   UNL     1     -28.028 -34.395 -12.921  1.00  0.00     0.041 C 
ATOM      6  O   UNL     1     -27.893 -35.517 -13.475  1.00  0.00    -0.550 OA
ATOM      7  O   UNL     1     -28.284 -34.328 -11.556  1.00  0.00    -0.550 OA
ENDBRANCH   4   5
ENDBRANCH   3   4
ENDBRANCH   2   3
ENDBRANCH   1   2
BRANCH   1   8
ATOM      8  C   UNL     1     -25.871 -31.328 -10.614  1.00  0.00     0.000 C 
BRANCH   8   9
ATOM      9  C   UNL     1     -24.926 -31.323 -11.828  1.00  0.00     0.000 C 
BRANCH   9  10
ATOM     10  C   UNL     1     -24.023 -32.569 -11.881  1.00  0.00     0.006 C 
BRANCH  10  11
ATOM     11  C   UNL     1     -24.783 -33.905 -11.890  1.00  0.00     0.053 C 
BRANCH  11  12
ATOM     12  C   UNL     1     -24.010 -34.986 -12.584  1.00  0.00     0.041 C 
ATOM     13  O   UNL     1     -22.790 -34.821 -12.850  1.00  0.00    -0.550 OA
ATOM     14  O   UNL     1     -24.646 -36.161 -12.964  1.00  0.00    -0.550 OA
ENDBRANCH  11  12
ENDBRANCH  10  11
ENDBRANCH   9  10
ENDBRANCH   8   9
ENDBRANCH   1   8
TORSDOF 9
ENDMDL
MODEL 3
REMARK VINA RESULT:    -4.564      2.194      3.756
REMARK INTER + INTRA:          -7.878
REMARK INTER:                  -6.942
REMARK INTRA:                  -0.936
REMARK UNBOUND:                -0.913
REMARK SMILES O=C([O-])CCCCCCCCC(=O)[O-]
REMARK SMILES IDX 7 1 6 2 5 3 4 4 2 5 1 6 3 7 8 8 9 9 10 10 11 11 12 12 13 13
REMARK SMILES IDX 14 14
REMARK H PARENT
REMARK Flexibility Score: inf
ROOT
ATOM      1  C   UNL     1     -27.665 -33.372 -13.133  1.00  0.00     0.000 C 
ENDROOT
BRANCH   1   2
ATOM      2  C   UNL     1     -27.847 -34.164 -11.826  1.00  0.00     0.000 C 
BRANCH   2   3
ATOM      3  C   UNL     1     -26.522 -34.732 -11.291  1.00  0.00     0.006 C 
BRANCH   3   4
ATOM      4  C   UNL     1     -25.303 -34.235 -12.080  1.00  0.00     0.053 C 
BRANCH   4   5
ATOM      5  C   UNL     1     -24.566 -35.389 -12.681  1.00  0.00     0.041 C 
ATOM      6  O   UNL     1     -25.191 -36.288 -13.301  1.00  0.00    -0.550 OA
ATOM      7  O   UNL     1     -23.179 -35.448 -12.599  1.00  0.00    -0.550 OA
ENDBRANCH   4   5
ENDBRANCH   3   4
ENDBRANCH   2   3
ENDBRANCH   1   2
BRANCH   1   8
ATOM      8  C   UNL     1     -28.259 -31.955 -13.050  1.00  0.00     0.000 C 
BRANCH   8   9
ATOM      9  C   UNL     1     -27.900 -31.240 -11.735  1.00  0.00     0.000 C 
BRANCH   9  10
ATOM     10  C   UNL     1     -26.447 -30.732 -11.714  1.00  0.00     0.006 C 
BRANCH  10  11
ATOM     11  C   UNL     1     -25.702 -30.992 -10.394  1.00  0.00     0.053 C 
BRANCH  11  12
ATOM     12  C   UNL     1     -24.236 -30.705 -10.512  1.00  0.00     0.041 C 
ATOM     13  O   UNL     1     -23.686 -30.670 -11.644  1.00  0.00    -0.550 OA
ATOM     14  O   UNL     1     -23.472 -30.507  -9.369  1.00  0.00    -0.550 OA
ENDBRANCH  11  12
ENDBRANCH  10  11
ENDBRANCH   9  10
ENDBRANCH   8   9
ENDBRANCH   1   8
TORSDOF 9
ENDMDL
MODEL 4
REMARK VINA RESULT:    -4.513      2.055      3.882
REMARK INTER + INTRA:          -7.800
REMARK INTER:                  -6.981
REMARK INTRA:                  -0.819
REMARK UNBOUND:                -0.913
REMARK SMILES O=C([O-])CCCCCCCCC(=O)[O-]
REMARK SMILES IDX 7 1 6 2 5 3 4 4 2 5 1 6 3 7 8 8 9 9 10 10 11 11 12 12 13 13
REMARK SMILES IDX 14 14
REMARK H PARENT
REMARK Flexibility Score: inf
ROOT
ATOM      1  C   UNL     1     -28.388 -31.365 -12.984  1.00  0.00     0.000 C 
ENDROOT
BRANCH   1   2
ATOM      2  C   UNL     1     -27.875 -30.836 -11.633  1.00  0.00     0.000 C 
BRANCH   2   3
ATOM      3  C   UNL     1     -26.347 -30.664 -11.609  1.00  0.00     0.006 C 
BRANCH   3   4
ATOM      4  C   UNL     1     -25.705 -31.259 -10.349  1.00  0.00     0.053 C 
BRANCH   4   5
ATOM      5  C   UNL     1     -24.225 -31.042 -10.367  1.00  0.00     0.041 C 
ATOM      6  O   UNL     1     -23.706 -30.150  -9.647  1.00  0.00    -0.550 OA
ATOM      7  O   UNL     1     -23.411 -31.859 -11.143  1.00  0.00    -0.550 OA
ENDBRANCH   4   5
ENDBRANCH   3   4
ENDBRANCH   2   3
ENDBRANCH   1   2
BRANCH   1   8
ATOM      8  C   UNL     1     -27.850 -32.769 -13.309  1.00  0.00     0.000 C 
BRANCH   8   9
ATOM      9  C   UNL     1     -28.204 -33.802 -12.224  1.00  0.00     0.000 C 
BRANCH   9  10
ATOM     10  C   UNL     1     -27.085 -34.837 -12.003  1.00  0.00     0.006 C 
BRANCH  10  11
ATOM     11  C   UNL     1     -25.662 -34.277 -12.158  1.00  0.00     0.053 C 
BRANCH  11  12
ATOM     12  C   UNL     1     -24.708 -35.308 -12.678  1.00  0.00     0.041 C 
ATOM     13  O   UNL     1     -25.142 -36.362 -13.212  1.00  0.00    -0.550 OA
ATOM     14  O   UNL     1     -23.338 -35.119 -12.544  1.00  0.00    -0.550 OA
ENDBRANCH  11  12
ENDBRANCH  10  11
ENDBRANCH   9  10
ENDBRANCH   8   9
ENDBRANCH   1   8
TORSDOF 9
ENDMDL
MODEL 5
REMARK VINA RESULT:    -4.428      1.127      1.568
REMARK INTER + INTRA:          -7.670
REMARK INTER:                  -6.858
REMARK INTRA:                  -0.811
REMARK UNBOUND:                -0.913
REMARK SMILES O=C([O-])CCCCCCCCC(=O)[O-]
REMARK SMILES IDX 7 1 6 2 5 3 4 4 2 5 1 6 3 7 8 8 9 9 10 10 11 11 12 12 13 13
REMARK SMILES IDX 14 14
REMARK H PARENT
REMARK Flexibility Score: inf
ROOT
ATOM      1  C   UNL     1     -25.787 -31.535 -10.810  1.00  0.00     0.000 C 
ENDROOT
BRANCH   1   2
ATOM      2  C   UNL     1     -24.829 -31.739 -11.997  1.00  0.00     0.000 C 
BRANCH   2   3
ATOM      3  C   UNL     1     -24.030 -33.048 -11.892  1.00  0.00     0.006 C 
BRANCH   3   4
ATOM      4  C   UNL     1     -22.564 -32.882 -12.312  1.00  0.00     0.053 C 
BRANCH   4   5
ATOM      5  C   UNL     1     -22.094 -34.093 -13.054  1.00  0.00     0.041 C 
ATOM      6  O   UNL     1     -21.374 -33.969 -14.078  1.00  0.00    -0.550 OA
ATOM      7  O   UNL     1     -22.411 -35.363 -12.586  1.00  0.00    -0.550 OA
ENDBRANCH   4   5
ENDBRANCH   3   4
ENDBRANCH   2   3
ENDBRANCH   1   2
BRANCH   1   8
ATOM      8  C   UNL     1     -27.208 -31.151 -11.258  1.00  0.00     0.000 C 
BRANCH   8   9
ATOM      9  C   UNL     1     -27.437 -31.389 -12.761  1.00  0.00     0.000 C 
BRANCH   9  10
ATOM     10  C   UNL     1     -28.372 -32.581 -13.037  1.00  0.00     0.006 C 
BRANCH  10  11
ATOM     11  C   UNL     1     -27.707 -33.753 -13.776  1.00  0.00     0.053 C 
BRANCH  11  12
ATOM     12  C   UNL     1     -27.042 -34.707 -12.832  1.00  0.00     0.041 C 
ATOM     13  O   UNL     1     -26.165 -35.506 -13.252  1.00  0.00    -0.550 OA
ATOM     14  O   UNL     1     -27.415 -34.734 -11.493  1.00  0.00    -0.550 OA
ENDBRANCH  11  12
ENDBRANCH  10  11
ENDBRANCH   9  10
ENDBRANCH   8   9
ENDBRANCH   1   8
TORSDOF 9
ENDMDL
MODEL 6
REMARK VINA RESULT:    -4.384      2.406      5.557
REMARK INTER + INTRA:          -7.604
REMARK INTER:                  -7.071
REMARK INTRA:                  -0.533
REMARK UNBOUND:                -0.913
REMARK SMILES O=C([O-])CCCCCCCCC(=O)[O-]
REMARK SMILES IDX 7 1 6 2 5 3 4 4 2 5 1 6 3 7 8 8 9 9 10 10 11 11 12 12 13 13
REMARK SMILES IDX 14 14
REMARK H PARENT
REMARK Flexibility Score: inf
ROOT
ATOM      1  C   UNL     1     -26.942 -35.125 -13.209  1.00  0.00     0.000 C 
ENDROOT
BRANCH   1   2
ATOM      2  C   UNL     1     -27.726 -33.943 -13.805  1.00  0.00     0.000 C 
BRANCH   2   3
ATOM      3  C   UNL     1     -28.466 -33.126 -12.734  1.00  0.00     0.006 C 
BRANCH   3   4
ATOM      4  C   UNL     1     -28.549 -31.633 -13.081  1.00  0.00     0.053 C 
BRANCH   4   5
ATOM      5  C   UNL     1     -27.621 -30.844 -12.213  1.00  0.00     0.041 C 
ATOM      6  O   UNL     1     -27.640 -30.992 -10.964  1.00  0.00    -0.550 OA
ATOM      7  O   UNL     1     -26.698 -29.979 -12.789  1.00  0.00    -0.550 OA
ENDBRANCH   4   5
ENDBRANCH   3   4
ENDBRANCH   2   3
ENDBRANCH   1   2
BRANCH   1   8
ATOM      8  C   UNL     1     -26.175 -34.739 -11.931  1.00  0.00     0.000 C 
BRANCH   8   9
ATOM      9  C   UNL     1     -24.714 -34.349 -12.216  1.00  0.00     0.000 C 
BRANCH   9  10
ATOM     10  C   UNL     1     -23.867 -35.538 -12.704  1.00  0.00     0.006 C 
BRANCH  10  11
ATOM     11  C   UNL     1     -22.376 -35.447 -12.342  1.00  0.00     0.053 C 
BRANCH  11  12
ATOM     12  C   UNL     1     -21.782 -34.129 -12.735  1.00  0.00     0.041 C 
ATOM     13  O   UNL     1     -21.554 -33.874 -13.947  1.00  0.00    -0.550 OA
ATOM     14  O   UNL     1     -21.451 -33.197 -11.760  1.00  0.00    -0.550 OA
ENDBRANCH  11  12
ENDBRANCH  10  11
ENDBRANCH   9  10
ENDBRANCH   8   9
ENDBRANCH   1   8
TORSDOF 9
ENDMDL
MODEL 7
REMARK VINA RESULT:    -4.230      2.143      3.367
REMARK INTER + INTRA:          -7.368
REMARK INTER:                  -6.757
REMARK INTRA:                  -0.611
REMARK UNBOUND:                -0.913
REMARK SMILES O=C([O-])CCCCCCCCC(=O)[O-]
REMARK SMILES IDX 7 1 6 2 5 3 4 4 2 5 1 6 3 7 8 8 9 9 10 10 11 11 12 12 13 13
REMARK SMILES IDX 14 14
REMARK H PARENT
REMARK Flexibility Score: inf
ROOT
ATOM      1  C   UNL     1     -26.186 -35.521 -13.376  1.00  0.00     0.000 C 
ENDROOT
BRANCH   1   2
ATOM      2  C   UNL     1     -25.230 -35.374 -12.179  1.00  0.00     0.000 C 
BRANCH   2   3
ATOM      3  C   UNL     1     -23.753 -35.512 -12.583  1.00  0.00     0.006 C 
BRANCH   3   4
ATOM      4  C   UNL     1     -23.032 -34.161 -12.664  1.00  0.00     0.053 C 
BRANCH   4   5
ATOM      5  C   UNL     1     -21.592 -34.358 -13.020  1.00  0.00     0.041 C 
ATOM      6  O   UNL     1     -20.809 -34.918 -12.210  1.00  0.00    -0.550 OA
ATOM      7  O   UNL     1     -21.125 -33.969 -14.270  1.00  0.00    -0.550 OA
ENDBRANCH   4   5
ENDBRANCH   3   4
ENDBRANCH   2   3
ENDBRANCH   1   2
BRANCH   1   8
ATOM      8  C   UNL     1     -27.550 -34.854 -13.127  1.00  0.00     0.000 C 
BRANCH   8   9
ATOM      9  C   UNL     1     -27.661 -33.472 -13.794  1.00  0.00     0.000 C 
BRANCH   9  10
ATOM     10  C   UNL     1     -28.402 -32.447 -12.917  1.00  0.00     0.006 C 
BRANCH  10  11
ATOM     11  C   UNL     1     -27.566 -31.214 -12.535  1.00  0.00     0.053 C 
BRANCH  11  12
ATOM     12  C   UNL     1     -26.219 -31.594 -12.002  1.00  0.00     0.041 C 
ATOM     13  O   UNL     1     -25.180 -31.346 -12.669  1.00  0.00    -0.550 OA
ATOM     14  O   UNL     1     -26.114 -32.250 -10.782  1.00  0.00    -0.550 OA
ENDBRANCH  11  12
ENDBRANCH  10  11
ENDBRANCH   9  10
ENDBRANCH   8   9
ENDBRANCH   1   8
TORSDOF 9
ENDMDL
MODEL 8
REMARK VINA RESULT:    -4.216      2.859      5.341
REMARK INTER + INTRA:          -7.347
REMARK INTER:                  -6.705
REMARK INTRA:                  -0.642
REMARK UNBOUND:                -0.913
REMARK SMILES O=C([O-])CCCCCCCCC(=O)[O-]
REMARK SMILES IDX 7 1 6 2 5 3 4 4 2 5 1 6 3 7 8 8 9 9 10 10 11 11 12 12 13 13
REMARK SMILES IDX 14 14
REMARK H PARENT
REMARK Flexibility Score: inf
ROOT
ATOM      1  C   UNL     1     -26.163 -35.506 -13.480  1.00  0.00     0.000 C 
ENDROOT
BRANCH   1   2
ATOM      2  C   UNL     1     -27.475 -34.799 -13.098  1.00  0.00     0.000 C 
BRANCH   2   3
ATOM      3  C   UNL     1     -27.627 -33.429 -13.778  1.00  0.00     0.006 C 
BRANCH   3   4
ATOM      4  C   UNL     1     -28.554 -32.482 -13.004  1.00  0.00     0.053 C 
BRANCH   4   5
ATOM      5  C   UNL     1     -27.820 -31.239 -12.613  1.00  0.00     0.041 C 
ATOM      6  O   UNL     1     -28.199 -30.564 -11.621  1.00  0.00    -0.550 OA
ATOM      7  O   UNL     1     -26.685 -30.851 -13.315  1.00  0.00    -0.550 OA
ENDBRANCH   4   5
ENDBRANCH   3   4
ENDBRANCH   2   3
ENDBRANCH   1   2
BRANCH   1   8
ATOM      8  C   UNL     1     -25.152 -35.540 -12.320  1.00  0.00     0.000 C 
BRANCH   8   9
ATOM      9  C   UNL     1     -24.163 -34.362 -12.365  1.00  0.00     0.000 C 
BRANCH   9  10
ATOM     10  C   UNL     1     -24.699 -33.109 -11.649  1.00  0.00     0.006 C 
BRANCH  10  11
ATOM     11  C   UNL     1     -23.637 -32.035 -11.367  1.00  0.00     0.053 C 
BRANCH  11  12
ATOM     12  C   UNL     1     -24.085 -31.066 -10.315  1.00  0.00     0.041 C 
ATOM     13  O   UNL     1     -25.312 -30.881 -10.105  1.00  0.00    -0.550 OA
ATOM     14  O   UNL     1     -23.145 -30.343  -9.590  1.00  0.00    -0.550 OA
ENDBRANCH  11  12
ENDBRANCH  10  11
ENDBRANCH   9  10
ENDBRANCH   8   9
ENDBRANCH   1   8
TORSDOF 9
ENDMDL
MODEL 9
REMARK VINA RESULT:    -4.159      2.081      3.457
REMARK INTER + INTRA:          -7.260
REMARK INTER:                  -6.501
REMARK INTRA:                  -0.759
REMARK UNBOUND:                -0.913
REMARK SMILES O=C([O-])CCCCCCCCC(=O)[O-]
REMARK SMILES IDX 7 1 6 2 5 3 4 4 2 5 1 6 3 7 8 8 9 9 10 10 11 11 12 12 13 13
REMARK SMILES IDX 14 14
REMARK H PARENT
REMARK Flexibility Score: inf
ROOT
ATOM      1  C   UNL     1     -28.071 -34.498 -13.595  1.00  0.00     0.000 C 
ENDROOT
BRANCH   1   2
ATOM      2  C   UNL     1     -26.605 -34.914 -13.812  1.00  0.00     0.000 C 
BRANCH   2   3
ATOM      3  C   UNL     1     -25.835 -35.069 -12.491  1.00  0.00     0.006 C 
BRANCH   3   4
ATOM      4  C   UNL     1     -24.562 -35.912 -12.643  1.00  0.00     0.053 C 
BRANCH   4   5
ATOM      5  C   UNL     1     -23.350 -35.035 -12.612  1.00  0.00     0.041 C 
ATOM      6  O   UNL     1     -22.199 -35.543 -12.641  1.00  0.00    -0.550 OA
ATOM      7  O   UNL     1     -23.492 -33.652 -12.603  1.00  0.00    -0.550 OA
ENDBRANCH   4   5
ENDBRANCH   3   4
ENDBRANCH   2   3
ENDBRANCH   1   2
BRANCH   1   8
ATOM      8  C   UNL     1     -28.225 -33.437 -12.491  1.00  0.00     0.000 C 
BRANCH   8   9
ATOM      9  C   UNL     1     -28.601 -32.054 -13.051  1.00  0.00     0.000 C 
BRANCH   9  10
ATOM     10  C   UNL     1     -27.753 -30.919 -12.448  1.00  0.00     0.006 C 
BRANCH  10  11
ATOM     11  C   UNL     1     -26.240 -31.063 -12.681  1.00  0.00     0.053 C 
BRANCH  11  12
ATOM     12  C   UNL     1     -25.473 -31.075 -11.394  1.00  0.00     0.041 C 
ATOM     13  O   UNL     1     -26.024 -31.466 -10.331  1.00  0.00    -0.550 OA
ATOM     14  O   UNL     1     -24.160 -30.623 -11.363  1.00  0.00    -0.550 OA
ENDBRANCH  11  12
ENDBRANCH  10  11
ENDBRANCH   9  10
ENDBRANCH   8   9
ENDBRANCH   1   8
TORSDOF 9
ENDMDL
