MODEL 1
REMARK VINA RESULT:    -3.121      0.000      0.000
REMARK INTER + INTRA:          -3.961
REMARK INTER:                  -3.850
REMARK INTRA:                  -0.110
REMARK UNBOUND:                -0.110
REMARK SMILES CCCCCC(=O)[O-]
REMARK SMILES IDX 4 1 5 2 6 3 7 4 8 5 3 6 2 7 1 8
REMARK H PARENT
REMARK Flexibility Score: inf
ROOT
ATOM      1  C   UNL     1      14.137  32.035  -9.860  1.00  0.00     0.006 C 
ENDROOT
BRANCH   1   2
ATOM      2  C   UNL     1      12.629  31.773  -9.730  1.00  0.00     0.053 C 
BRANCH   2   3
ATOM      3  C   UNL     1      12.319  30.307  -9.698  1.00  0.00     0.041 C 
ATOM      4  O   UNL     1      12.245  29.700  -8.598  1.00  0.00    -0.550 OA
ATOM      5  O   UNL     1      12.141  29.607 -10.884  1.00  0.00    -0.550 OA
ENDBRANCH   2   3
ENDBRANCH   1   2
BRANCH   1   6
ATOM      6  C   UNL     1      14.806  32.257  -8.493  1.00  0.00     0.000 C 
BRANCH   6   7
ATOM      7  C   UNL     1      16.241  32.793  -8.622  1.00  0.00    -0.003 C 
ATOM      8  C   UNL     1      16.358  33.940  -9.625  1.00  0.00     0.004 C 
ENDBRANCH   6   7
ENDBRANCH   1   6
TORSDOF 4
ENDMDL
MODEL 2
REMARK VINA RESULT:    -3.068     19.724     20.711
REMARK INTER + INTRA:          -3.895
REMARK INTER:                  -3.805
REMARK INTRA:                  -0.091
REMARK UNBOUND:                -0.110
REMARK SMILES CCCCCC(=O)[O-]
REMARK SMILES IDX 4 1 5 2 6 3 7 4 8 5 3 6 2 7 1 8
REMARK H PARENT
REMARK Flexibility Score: inf
ROOT
ATOM      1  C   UNL     1      28.081  19.022  -1.886  1.00  0.00     0.006 C 
ENDROOT
BRANCH   1   2
ATOM      2  C   UNL     1      28.057  19.560  -3.324  1.00  0.00     0.053 C 
BRANCH   2   3
ATOM      3  C   UNL     1      28.456  21.003  -3.387  1.00  0.00     0.041 C 
ATOM      4  O   UNL     1      28.989  21.468  -4.428  1.00  0.00    -0.550 OA
ATOM      5  O   UNL     1      28.267  21.826  -2.284  1.00  0.00    -0.550 OA
ENDBRANCH   2   3
ENDBRANCH   1   2
BRANCH   1   6
ATOM      6  C   UNL     1      29.024  17.816  -1.733  1.00  0.00     0.000 C 
BRANCH   6   7
ATOM      7  C   UNL     1      28.760  17.023  -0.444  1.00  0.00    -0.003 C 
ATOM      8  C   UNL     1      27.271  16.881  -0.129  1.00  0.00     0.004 C 
ENDBRANCH   6   7
ENDBRANCH   1   6
TORSDOF 4
ENDMDL
MODEL 3
REMARK VINA RESULT:    -3.048     17.596     18.796
REMARK INTER + INTRA:          -3.871
REMARK INTER:                  -3.817
REMARK INTRA:                  -0.054
REMARK UNBOUND:                -0.110
REMARK SMILES CCCCCC(=O)[O-]
REMARK SMILES IDX 4 1 5 2 6 3 7 4 8 5 3 6 2 7 1 8
REMARK H PARENT
REMARK Flexibility Score: inf
ROOT
ATOM      1  C   UNL     1      27.983  22.155  -2.908  1.00  0.00     0.006 C 
ENDROOT
BRANCH   1   2
ATOM      2  C   UNL     1      28.413  23.415  -2.144  1.00  0.00     0.053 C 
BRANCH   2   3
ATOM      3  C   UNL     1      27.248  24.097  -1.493  1.00  0.00     0.041 C 
ATOM      4  O   UNL     1      26.122  24.102  -2.055  1.00  0.00    -0.550 OA
ATOM      5  O   UNL     1      27.415  24.754  -0.281  1.00  0.00    -0.550 OA
ENDBRANCH   2   3
ENDBRANCH   1   2
BRANCH   1   6
ATOM      6  C   UNL     1      28.714  20.897  -2.410  1.00  0.00     0.000 C 
BRANCH   6   7
ATOM      7  C   UNL     1      27.898  19.615  -2.635  1.00  0.00    -0.003 C 
ATOM      8  C   UNL     1      28.211  18.525  -1.609  1.00  0.00     0.004 C 
ENDBRANCH   6   7
ENDBRANCH   1   6
TORSDOF 4
ENDMDL
MODEL 4
REMARK VINA RESULT:    -2.987     18.838     19.925
REMARK INTER + INTRA:          -3.796
REMARK INTER:                  -3.747
REMARK INTRA:                  -0.049
REMARK UNBOUND:                -0.110
REMARK SMILES CCCCCC(=O)[O-]
REMARK SMILES IDX 4 1 5 2 6 3 7 4 8 5 3 6 2 7 1 8
REMARK H PARENT
REMARK Flexibility Score: inf
ROOT
ATOM      1  C   UNL     1      28.922  20.408  -2.238  1.00  0.00     0.006 C 
ENDROOT
BRANCH   1   2
ATOM      2  C   UNL     1      28.287  21.470  -3.147  1.00  0.00     0.053 C 
BRANCH   2   3
ATOM      3  C   UNL     1      28.025  22.749  -2.413  1.00  0.00     0.041 C 
ATOM      4  O   UNL     1      26.863  23.230  -2.372  1.00  0.00    -0.550 OA
ATOM      5  O   UNL     1      29.072  23.427  -1.801  1.00  0.00    -0.550 OA
ENDBRANCH   2   3
ENDBRANCH   1   2
BRANCH   1   6
ATOM      6  C   UNL     1      28.004  19.191  -2.038  1.00  0.00     0.000 C 
BRANCH   6   7
ATOM      7  C   UNL     1      28.744  17.990  -1.428  1.00  0.00    -0.003 C 
ATOM      8  C   UNL     1      27.848  17.132  -0.535  1.00  0.00     0.004 C 
ENDBRANCH   6   7
ENDBRANCH   1   6
TORSDOF 4
ENDMDL
MODEL 5
REMARK VINA RESULT:    -2.920     13.111     14.244
REMARK INTER + INTRA:          -3.713
REMARK INTER:                  -3.605
REMARK INTRA:                  -0.108
REMARK UNBOUND:                -0.110
REMARK SMILES CCCCCC(=O)[O-]
REMARK SMILES IDX 4 1 5 2 6 3 7 4 8 5 3 6 2 7 1 8
REMARK H PARENT
REMARK Flexibility Score: inf
ROOT
ATOM      1  C   UNL     1      16.116  18.703 -10.863  1.00  0.00     0.006 C 
ENDROOT
BRANCH   1   2
ATOM      2  C   UNL     1      17.299  17.760 -11.124  1.00  0.00     0.053 C 
BRANCH   2   3
ATOM      3  C   UNL     1      18.608  18.489 -11.102  1.00  0.00     0.041 C 
ATOM      4  O   UNL     1      19.691  17.847 -11.124  1.00  0.00    -0.550 OA
ATOM      5  O   UNL     1      18.632  19.876 -11.024  1.00  0.00    -0.550 OA
ENDBRANCH   2   3
ENDBRANCH   1   2
BRANCH   1   6
ATOM      6  C   UNL     1      15.852  18.900  -9.361  1.00  0.00     0.000 C 
BRANCH   6   7
ATOM      7  C   UNL     1      15.815  17.572  -8.590  1.00  0.00    -0.003 C 
ATOM      8  C   UNL     1      14.396  17.143  -8.213  1.00  0.00     0.004 C 
ENDBRANCH   6   7
ENDBRANCH   1   6
TORSDOF 4
ENDMDL
MODEL 6
REMARK VINA RESULT:    -2.919      1.141      1.704
REMARK INTER + INTRA:          -3.712
REMARK INTER:                  -3.585
REMARK INTRA:                  -0.126
REMARK UNBOUND:                -0.110
REMARK SMILES CCCCCC(=O)[O-]
REMARK SMILES IDX 4 1 5 2 6 3 7 4 8 5 3 6 2 7 1 8
REMARK H PARENT
REMARK Flexibility Score: inf
ROOT
ATOM      1  C   UNL     1      12.533  31.519  -9.556  1.00  0.00     0.006 C 
ENDROOT
BRANCH   1   2
ATOM      2  C   UNL     1      12.214  30.090 -10.019  1.00  0.00     0.053 C 
BRANCH   2   3
ATOM      3  C   UNL     1      11.877  29.193  -8.867  1.00  0.00     0.041 C 
ATOM      4  O   UNL     1      12.555  29.240  -7.807  1.00  0.00    -0.550 OA
ATOM      5  O   UNL     1      10.832  28.284  -8.975  1.00  0.00    -0.550 OA
ENDBRANCH   2   3
ENDBRANCH   1   2
BRANCH   1   6
ATOM      6  C   UNL     1      14.008  31.889  -9.792  1.00  0.00     0.000 C 
BRANCH   6   7
ATOM      7  C   UNL     1      14.771  32.128  -8.480  1.00  0.00    -0.003 C 
ATOM      8  C   UNL     1      16.043  32.953  -8.675  1.00  0.00     0.004 C 
ENDBRANCH   6   7
ENDBRANCH   1   6
TORSDOF 4
ENDMDL
MODEL 7
REMARK VINA RESULT:    -2.796      2.862      4.567
REMARK INTER + INTRA:          -3.560
REMARK INTER:                  -3.464
REMARK INTRA:                  -0.096
REMARK UNBOUND:                -0.110
REMARK SMILES CCCCCC(=O)[O-]
REMARK SMILES IDX 4 1 5 2 6 3 7 4 8 5 3 6 2 7 1 8
REMARK H PARENT
REMARK Flexibility Score: inf
ROOT
ATOM      1  C   UNL     1      13.713  31.827 -10.078  1.00  0.00     0.006 C 
ENDROOT
BRANCH   1   2
ATOM      2  C   UNL     1      14.633  32.135  -8.889  1.00  0.00     0.053 C 
BRANCH   2   3
ATOM      3  C   UNL     1      16.014  32.509  -9.334  1.00  0.00     0.041 C 
ATOM      4  O   UNL     1      16.781  31.637  -9.819  1.00  0.00    -0.550 OA
ATOM      5  O   UNL     1      16.464  33.815  -9.185  1.00  0.00    -0.550 OA
ENDBRANCH   2   3
ENDBRANCH   1   2
BRANCH   1   6
ATOM      6  C   UNL     1      12.295  31.434  -9.628  1.00  0.00     0.000 C 
BRANCH   6   7
ATOM      7  C   UNL     1      12.048  29.921  -9.719  1.00  0.00    -0.003 C 
ATOM      8  C   UNL     1      11.997  29.244  -8.349  1.00  0.00     0.004 C 
ENDBRANCH   6   7
ENDBRANCH   1   6
TORSDOF 4
ENDMDL
MODEL 8
REMARK VINA RESULT:    -2.786     12.517     13.233
REMARK INTER + INTRA:          -3.547
REMARK INTER:                  -3.432
REMARK INTRA:                  -0.115
REMARK UNBOUND:                -0.110
REMARK SMILES CCCCCC(=O)[O-]
REMARK SMILES IDX 4 1 5 2 6 3 7 4 8 5 3 6 2 7 1 8
REMARK H PARENT
REMARK Flexibility Score: inf
ROOT
ATOM      1  C   UNL     1      17.461  17.751 -10.575  1.00  0.00     0.006 C 
ENDROOT
BRANCH   1   2
ATOM      2  C   UNL     1      16.310  18.763 -10.660  1.00  0.00     0.053 C 
BRANCH   2   3
ATOM      3  C   UNL     1      15.473  18.763  -9.417  1.00  0.00     0.041 C 
ATOM      4  O   UNL     1      15.145  19.850  -8.874  1.00  0.00    -0.550 OA
ATOM      5  O   UNL     1      15.083  17.561  -8.840  1.00  0.00    -0.550 OA
ENDBRANCH   2   3
ENDBRANCH   1   2
BRANCH   1   6
ATOM      6  C   UNL     1      18.785  18.332 -11.098  1.00  0.00     0.000 C 
BRANCH   6   7
ATOM      7  C   UNL     1      18.785  19.868 -11.120  1.00  0.00    -0.003 C 
ATOM      8  C   UNL     1      20.194  20.462 -11.123  1.00  0.00     0.004 C 
ENDBRANCH   6   7
ENDBRANCH   1   6
TORSDOF 4
ENDMDL
MODEL 9
REMARK VINA RESULT:    -0.518     18.290     19.299
REMARK INTER + INTRA:          -0.750
REMARK INTER:                  -0.657
REMARK INTRA:                  -0.092
REMARK UNBOUND:                -0.110
REMARK SMILES CCCCCC(=O)[O-]
REMARK SMILES IDX 4 1 5 2 6 3 7 4 8 5 3 6 2 7 1 8
REMARK H PARENT
REMARK Flexibility Score: inf
ROOT
ATOM      1  C   UNL     1      28.692  21.367  -2.459  1.00  0.00     0.006 C 
ENDROOT
BRANCH   1   2
ATOM      2  C   UNL     1      27.695  20.204  -2.563  1.00  0.00     0.053 C 
BRANCH   2   3
ATOM      3  C   UNL     1      28.346  18.884  -2.278  1.00  0.00     0.041 C 
ATOM      4  O   UNL     1      29.125  18.367  -3.120  1.00  0.00    -0.550 OA
ATOM      5  O   UNL     1      28.067  18.212  -1.094  1.00  0.00    -0.550 OA
ENDBRANCH   2   3
ENDBRANCH   1   2
BRANCH   1   6
ATOM      6  C   UNL     1      28.147  22.656  -3.097  1.00  0.00     0.000 C 
BRANCH   6   7
ATOM      7  C   UNL     1      27.914  23.770  -2.066  1.00  0.00    -0.003 C 
ATOM      8  C   UNL     1      26.433  24.002  -1.767  1.00  0.00     0.004 C 
ENDBRANCH   6   7
ENDBRANCH   1   6
TORSDOF 4
ENDMDL
