MODEL 1
REMARK VINA RESULT:    -4.099      0.000      0.000
REMARK INTER + INTRA:          -4.671
REMARK INTER:                  -4.579
REMARK INTRA:                  -0.092
REMARK UNBOUND:                -0.092
REMARK SMILES CCc1ccc(O)cc1O
REMARK SMILES IDX 3 1 9 2 8 3 6 4 5 5 4 6 2 7 1 8 10 9 7 11
REMARK H PARENT 10 10 7 12
REMARK Flexibility Score: inf
ROOT
ATOM      1  C   UNL     1     174.658 176.817 181.724  1.00  0.00    -0.006 A 
ATOM      2  C   UNL     1     175.974 176.851 182.249  1.00  0.00     0.122 A 
ATOM      3  C   UNL     1     177.049 177.165 181.406  1.00  0.00     0.092 A 
ATOM      4  C   UNL     1     176.833 177.463 180.055  1.00  0.00     0.119 A 
ATOM      5  C   UNL     1     175.536 177.448 179.541  1.00  0.00     0.047 A 
ATOM      6  C   UNL     1     174.456 177.133 180.368  1.00  0.00     0.011 A 
ENDROOT
BRANCH   1   7
ATOM      7  C   UNL     1     173.458 176.497 182.582  1.00  0.00     0.036 C 
ATOM      8  C   UNL     1     172.470 177.661 182.597  1.00  0.00     0.009 C 
ENDBRANCH   1   7
BRANCH   2   9
ATOM      9  O   UNL     1     176.252 176.585 183.591  1.00  0.00    -0.508 OA
ATOM     10  H   UNL     1     176.658 177.261 184.223  1.00  0.00     0.293 HD
ENDBRANCH   2   9
BRANCH   4  11
ATOM     11  O   UNL     1     177.901 177.777 179.218  1.00  0.00    -0.508 OA
ATOM     12  H   UNL     1     178.036 178.714 178.859  1.00  0.00     0.293 HD
ENDBRANCH   4  11
TORSDOF 3
ENDMDL
MODEL 2
REMARK VINA RESULT:    -4.054      2.488      3.972
REMARK INTER + INTRA:          -4.620
REMARK INTER:                  -4.534
REMARK INTRA:                  -0.087
REMARK UNBOUND:                -0.092
REMARK SMILES CCc1ccc(O)cc1O
REMARK SMILES IDX 3 1 9 2 8 3 6 4 5 5 4 6 2 7 1 8 10 9 7 11
REMARK H PARENT 10 10 7 12
REMARK Flexibility Score: inf
ROOT
ATOM      1  C   UNL     1     176.711 176.231 179.360  1.00  0.00    -0.006 A 
ATOM      2  C   UNL     1     176.722 175.009 180.079  1.00  0.00     0.122 A 
ATOM      3  C   UNL     1     176.765 175.029 181.479  1.00  0.00     0.092 A 
ATOM      4  C   UNL     1     176.779 176.243 182.176  1.00  0.00     0.119 A 
ATOM      5  C   UNL     1     176.749 177.446 181.470  1.00  0.00     0.047 A 
ATOM      6  C   UNL     1     176.710 177.443 180.075  1.00  0.00     0.011 A 
ENDROOT
BRANCH   1   7
ATOM      7  C   UNL     1     176.654 176.278 177.852  1.00  0.00     0.036 C 
ATOM      8  C   UNL     1     175.222 176.103 177.353  1.00  0.00     0.009 C 
ENDBRANCH   1   7
BRANCH   2   9
ATOM      9  O   UNL     1     176.688 173.767 179.443  1.00  0.00    -0.508 OA
ATOM     10  H   UNL     1     176.945 173.625 178.476  1.00  0.00     0.293 HD
ENDBRANCH   2   9
BRANCH   4  11
ATOM     11  O   UNL     1     176.819 176.262 183.568  1.00  0.00    -0.508 OA
ATOM     12  H   UNL     1     177.175 175.476 184.099  1.00  0.00     0.293 HD
ENDBRANCH   4  11
TORSDOF 3
ENDMDL
MODEL 3
REMARK VINA RESULT:    -4.051      2.936      4.215
REMARK INTER + INTRA:          -4.617
REMARK INTER:                  -4.531
REMARK INTRA:                  -0.085
REMARK UNBOUND:                -0.092
REMARK SMILES CCc1ccc(O)cc1O
REMARK SMILES IDX 3 1 9 2 8 3 6 4 5 5 4 6 2 7 1 8 10 9 7 11
REMARK H PARENT 10 10 7 12
REMARK Flexibility Score: inf
ROOT
ATOM      1  C   UNL     1     176.549 174.071 181.066  1.00  0.00    -0.006 A 
ATOM      2  C   UNL     1     176.897 175.132 180.193  1.00  0.00     0.122 A 
ATOM      3  C   UNL     1     177.031 176.431 180.699  1.00  0.00     0.092 A 
ATOM      4  C   UNL     1     176.841 176.690 182.063  1.00  0.00     0.119 A 
ATOM      5  C   UNL     1     176.516 175.643 182.926  1.00  0.00     0.047 A 
ATOM      6  C   UNL     1     176.376 174.343 182.435  1.00  0.00     0.011 A 
ENDROOT
BRANCH   1   7
ATOM      7  C   UNL     1     176.401 172.648 180.584  1.00  0.00     0.036 C 
ATOM      8  C   UNL     1     176.759 171.657 181.688  1.00  0.00     0.009 C 
ENDBRANCH   1   7
BRANCH   2   9
ATOM      9  O   UNL     1     177.121 174.936 178.828  1.00  0.00    -0.508 OA
ATOM     10  H   UNL     1     178.017 174.675 178.440  1.00  0.00     0.293 HD
ENDBRANCH   2   9
BRANCH   4  11
ATOM     11  O   UNL     1     176.975 177.981 182.566  1.00  0.00    -0.508 OA
ATOM     12  H   UNL     1     176.275 178.692 182.395  1.00  0.00     0.293 HD
ENDBRANCH   4  11
TORSDOF 3
ENDMDL
MODEL 4
REMARK VINA RESULT:    -4.012      1.621      2.290
REMARK INTER + INTRA:          -4.574
REMARK INTER:                  -4.508
REMARK INTRA:                  -0.065
REMARK UNBOUND:                -0.092
REMARK SMILES CCc1ccc(O)cc1O
REMARK SMILES IDX 3 1 9 2 8 3 6 4 5 5 4 6 2 7 1 8 10 9 7 11
REMARK H PARENT 10 10 7 12
REMARK Flexibility Score: inf
ROOT
ATOM      1  C   UNL     1     174.267 176.943 181.607  1.00  0.00    -0.006 A 
ATOM      2  C   UNL     1     174.163 177.210 180.218  1.00  0.00     0.122 A 
ATOM      3  C   UNL     1     175.324 177.422 179.464  1.00  0.00     0.092 A 
ATOM      4  C   UNL     1     176.587 177.356 180.064  1.00  0.00     0.119 A 
ATOM      5  C   UNL     1     176.692 177.076 181.427  1.00  0.00     0.047 A 
ATOM      6  C   UNL     1     175.543 176.866 182.193  1.00  0.00     0.011 A 
ENDROOT
BRANCH   1   7
ATOM      7  C   UNL     1     173.054 176.695 182.472  1.00  0.00     0.036 C 
ATOM      8  C   UNL     1     172.361 178.007 182.830  1.00  0.00     0.009 C 
ENDBRANCH   1   7
BRANCH   2   9
ATOM      9  O   UNL     1     172.934 177.267 179.557  1.00  0.00    -0.508 OA
ATOM     10  H   UNL     1     172.153 177.826 179.873  1.00  0.00     0.293 HD
ENDBRANCH   2   9
BRANCH   4  11
ATOM     11  O   UNL     1     177.742 177.565 179.314  1.00  0.00    -0.508 OA
ATOM     12  H   UNL     1     178.578 177.960 179.727  1.00  0.00     0.293 HD
ENDBRANCH   4  11
TORSDOF 3
ENDMDL
MODEL 5
REMARK VINA RESULT:    -3.996      1.014      3.233
REMARK INTER + INTRA:          -4.555
REMARK INTER:                  -4.470
REMARK INTRA:                  -0.085
REMARK UNBOUND:                -0.092
REMARK SMILES CCc1ccc(O)cc1O
REMARK SMILES IDX 3 1 9 2 8 3 6 4 5 5 4 6 2 7 1 8 10 9 7 11
REMARK H PARENT 10 10 7 12
REMARK Flexibility Score: inf
ROOT
ATOM      1  C   UNL     1     175.131 177.166 180.139  1.00  0.00    -0.006 A 
ATOM      2  C   UNL     1     176.528 177.159 180.382  1.00  0.00     0.122 A 
ATOM      3  C   UNL     1     177.004 176.963 181.685  1.00  0.00     0.092 A 
ATOM      4  C   UNL     1     176.114 176.758 182.747  1.00  0.00     0.119 A 
ATOM      5  C   UNL     1     174.740 176.747 182.506  1.00  0.00     0.047 A 
ATOM      6  C   UNL     1     174.250 176.944 181.213  1.00  0.00     0.011 A 
ENDROOT
BRANCH   1   7
ATOM      7  C   UNL     1     174.556 177.360 178.756  1.00  0.00     0.036 C 
ATOM      8  C   UNL     1     173.067 177.024 178.731  1.00  0.00     0.009 C 
ENDBRANCH   1   7
BRANCH   2   9
ATOM      9  O   UNL     1     177.466 177.336 179.363  1.00  0.00    -0.508 OA
ATOM     10  H   UNL     1     177.341 176.990 178.421  1.00  0.00     0.293 HD
ENDBRANCH   2   9
BRANCH   4  11
ATOM     11  O   UNL     1     176.587 176.563 184.042  1.00  0.00    -0.508 OA
ATOM     12  H   UNL     1     177.568 176.675 184.271  1.00  0.00     0.293 HD
ENDBRANCH   4  11
TORSDOF 3
ENDMDL
MODEL 6
REMARK VINA RESULT:    -3.873      2.832      4.160
REMARK INTER + INTRA:          -4.418
REMARK INTER:                  -4.315
REMARK INTRA:                  -0.103
REMARK UNBOUND:                -0.092
REMARK SMILES CCc1ccc(O)cc1O
REMARK SMILES IDX 3 1 9 2 8 3 6 4 5 5 4 6 2 7 1 8 10 9 7 11
REMARK H PARENT 10 10 7 12
REMARK Flexibility Score: inf
ROOT
ATOM      1  C   UNL     1     176.537 174.630 181.444  1.00  0.00    -0.006 A 
ATOM      2  C   UNL     1     176.371 175.172 180.144  1.00  0.00     0.122 A 
ATOM      3  C   UNL     1     175.364 176.117 179.911  1.00  0.00     0.092 A 
ATOM      4  C   UNL     1     174.531 176.545 180.952  1.00  0.00     0.119 A 
ATOM      5  C   UNL     1     174.705 176.026 182.235  1.00  0.00     0.047 A 
ATOM      6  C   UNL     1     175.702 175.080 182.482  1.00  0.00     0.011 A 
ENDROOT
BRANCH   1   7
ATOM      7  C   UNL     1     177.610 173.617 181.762  1.00  0.00     0.036 C 
ATOM      8  C   UNL     1     177.061 172.195 181.683  1.00  0.00     0.009 C 
ENDBRANCH   1   7
BRANCH   2   9
ATOM      9  O   UNL     1     177.183 174.803 179.070  1.00  0.00    -0.508 OA
ATOM     10  H   UNL     1     178.126 175.143 178.938  1.00  0.00     0.293 HD
ENDBRANCH   2   9
BRANCH   4  11
ATOM     11  O   UNL     1     173.531 177.486 180.720  1.00  0.00    -0.508 OA
ATOM     12  H   UNL     1     173.544 178.083 179.902  1.00  0.00     0.293 HD
ENDBRANCH   4  11
TORSDOF 3
ENDMDL
MODEL 7
REMARK VINA RESULT:    -3.844      3.022      3.813
REMARK INTER + INTRA:          -4.386
REMARK INTER:                  -4.289
REMARK INTRA:                  -0.097
REMARK UNBOUND:                -0.092
REMARK SMILES CCc1ccc(O)cc1O
REMARK SMILES IDX 3 1 9 2 8 3 6 4 5 5 4 6 2 7 1 8 10 9 7 11
REMARK H PARENT 10 10 7 12
REMARK Flexibility Score: inf
ROOT
ATOM      1  C   UNL     1     176.314 175.651 182.093  1.00  0.00    -0.006 A 
ATOM      2  C   UNL     1     175.538 175.719 180.908  1.00  0.00     0.122 A 
ATOM      3  C   UNL     1     175.598 174.673 179.979  1.00  0.00     0.092 A 
ATOM      4  C   UNL     1     176.404 173.553 180.215  1.00  0.00     0.119 A 
ATOM      5  C   UNL     1     177.155 173.476 181.389  1.00  0.00     0.047 A 
ATOM      6  C   UNL     1     177.107 174.512 182.324  1.00  0.00     0.011 A 
ENDROOT
BRANCH   1   7
ATOM      7  C   UNL     1     176.284 176.739 183.138  1.00  0.00     0.036 C 
ATOM      8  C   UNL     1     177.264 177.857 182.792  1.00  0.00     0.009 C 
ENDBRANCH   1   7
BRANCH   2   9
ATOM      9  O   UNL     1     174.698 176.798 180.625  1.00  0.00    -0.508 OA
ATOM     10  H   UNL     1     174.852 177.441 179.860  1.00  0.00     0.293 HD
ENDBRANCH   2   9
BRANCH   4  11
ATOM     11  O   UNL     1     176.463 172.512 179.292  1.00  0.00    -0.508 OA
ATOM     12  H   UNL     1     177.347 172.174 178.930  1.00  0.00     0.293 HD
ENDBRANCH   4  11
TORSDOF 3
ENDMDL
MODEL 8
REMARK VINA RESULT:    -3.844      2.886      4.425
REMARK INTER + INTRA:          -4.386
REMARK INTER:                  -4.301
REMARK INTRA:                  -0.084
REMARK UNBOUND:                -0.092
REMARK SMILES CCc1ccc(O)cc1O
REMARK SMILES IDX 3 1 9 2 8 3 6 4 5 5 4 6 2 7 1 8 10 9 7 11
REMARK H PARENT 10 10 7 12
REMARK Flexibility Score: inf
ROOT
ATOM      1  C   UNL     1     176.637 175.823 181.036  1.00  0.00    -0.006 A 
ATOM      2  C   UNL     1     176.730 174.859 180.000  1.00  0.00     0.122 A 
ATOM      3  C   UNL     1     176.327 173.540 180.244  1.00  0.00     0.092 A 
ATOM      4  C   UNL     1     175.817 173.168 181.494  1.00  0.00     0.119 A 
ATOM      5  C   UNL     1     175.708 174.120 182.508  1.00  0.00     0.047 A 
ATOM      6  C   UNL     1     176.109 175.438 182.281  1.00  0.00     0.011 A 
ENDROOT
BRANCH   1   7
ATOM      7  C   UNL     1     177.044 177.263 180.833  1.00  0.00     0.036 C 
ATOM      8  C   UNL     1     177.384 177.928 182.164  1.00  0.00     0.009 C 
ENDBRANCH   1   7
BRANCH   2   9
ATOM      9  O   UNL     1     177.209 175.172 178.727  1.00  0.00    -0.508 OA
ATOM     10  H   UNL     1     177.966 175.820 178.557  1.00  0.00     0.293 HD
ENDBRANCH   2   9
BRANCH   4  11
ATOM     11  O   UNL     1     175.415 171.856 181.735  1.00  0.00    -0.508 OA
ATOM     12  H   UNL     1     174.940 171.597 182.591  1.00  0.00     0.293 HD
ENDBRANCH   4  11
TORSDOF 3
ENDMDL
MODEL 9
REMARK VINA RESULT:    -3.758      1.905      3.604
REMARK INTER + INTRA:          -4.289
REMARK INTER:                  -4.204
REMARK INTRA:                  -0.085
REMARK UNBOUND:                -0.092
REMARK SMILES CCc1ccc(O)cc1O
REMARK SMILES IDX 3 1 9 2 8 3 6 4 5 5 4 6 2 7 1 8 10 9 7 11
REMARK H PARENT 10 10 7 12
REMARK Flexibility Score: inf
ROOT
ATOM      1  C   UNL     1     175.143 177.000 180.075  1.00  0.00    -0.006 A 
ATOM      2  C   UNL     1     174.237 176.942 181.164  1.00  0.00     0.122 A 
ATOM      3  C   UNL     1     174.729 176.802 182.468  1.00  0.00     0.092 A 
ATOM      4  C   UNL     1     176.108 176.737 182.708  1.00  0.00     0.119 A 
ATOM      5  C   UNL     1     177.001 176.812 181.638  1.00  0.00     0.047 A 
ATOM      6  C   UNL     1     176.524 176.948 180.333  1.00  0.00     0.011 A 
ENDROOT
BRANCH   1   7
ATOM      7  C   UNL     1     174.676 177.161 178.648  1.00  0.00     0.036 C 
ATOM      8  C   UNL     1     175.462 176.250 177.709  1.00  0.00     0.009 C 
ENDBRANCH   1   7
BRANCH   2   9
ATOM      9  O   UNL     1     172.854 177.023 180.993  1.00  0.00    -0.508 OA
ATOM     10  H   UNL     1     172.328 177.882 181.083  1.00  0.00     0.293 HD
ENDBRANCH   2   9
BRANCH   4  11
ATOM     11  O   UNL     1     176.597 176.599 184.005  1.00  0.00    -0.508 OA
ATOM     12  H   UNL     1     177.469 177.029 184.291  1.00  0.00     0.293 HD
ENDBRANCH   4  11
TORSDOF 3
ENDMDL
