MODEL 1
REMARK VINA RESULT:    -5.715      0.000      0.000
REMARK INTER + INTRA:          -7.952
REMARK INTER:                  -7.218
REMARK INTRA:                  -0.733
REMARK UNBOUND:                -0.733
REMARK SMILES Oc1ccc(CCc2cc(O)cc(O)c2)cc1
REMARK SMILES IDX 6 1 5 2 4 3 3 4 2 5 16 6 17 7 1 8 7 10 8 11 15 12 9 13 13 14
REMARK SMILES IDX 10 15 12 16 14 17 11 19
REMARK H PARENT 1 9 14 18 11 20
REMARK Flexibility Score: inf
ROOT
ATOM      1  C   UNL     1      -0.523   1.294  28.809  1.00  0.00     0.040 C 
ENDROOT
BRANCH   1   2
ATOM      2  C   UNL     1      -1.508   1.100  27.687  1.00  0.00    -0.047 A 
ATOM      3  C   UNL     1      -1.459  -0.057  26.892  1.00  0.00     0.007 A 
ATOM      4  C   UNL     1      -2.395  -0.250  25.871  1.00  0.00     0.046 A 
ATOM      5  C   UNL     1      -3.395   0.704  25.642  1.00  0.00     0.115 A 
ATOM      6  C   UNL     1      -2.521   2.048  27.461  1.00  0.00     0.007 A 
ATOM      7  C   UNL     1      -3.455   1.851  26.440  1.00  0.00     0.046 A 
BRANCH   5   8
ATOM      8  O   UNL     1      -4.332   0.522  24.628  1.00  0.00    -0.508 OA
ATOM      9  H   UNL     1      -4.555  -0.400  24.272  1.00  0.00     0.293 HD
ENDBRANCH   5   8
ENDBRANCH   1   2
BRANCH   1  10
ATOM     10  C   UNL     1      -0.769   0.271  29.922  1.00  0.00     0.040 C 
BRANCH  10  11
ATOM     11  C   UNL     1      -2.147   0.446  30.505  1.00  0.00    -0.040 A 
ATOM     12  C   UNL     1      -2.466   1.607  31.228  1.00  0.00     0.050 A 
ATOM     13  C   UNL     1      -3.138  -0.523  30.283  1.00  0.00     0.050 A 
ATOM     14  C   UNL     1      -3.758   1.786  31.743  1.00  0.00     0.119 A 
ATOM     15  C   UNL     1      -4.429  -0.345  30.798  1.00  0.00     0.119 A 
ATOM     16  C   UNL     1      -4.734   0.808  31.528  1.00  0.00     0.092 A 
BRANCH  14  17
ATOM     17  O   UNL     1      -4.081   2.931  32.467  1.00  0.00    -0.508 OA
ATOM     18  H   UNL     1      -4.322   3.801  32.003  1.00  0.00     0.293 HD
ENDBRANCH  14  17
BRANCH  15  19
ATOM     19  O   UNL     1      -5.416  -1.306  30.586  1.00  0.00    -0.508 OA
ATOM     20  H   UNL     1      -5.201  -2.202  30.166  1.00  0.00     0.293 HD
ENDBRANCH  15  19
ENDBRANCH  10  11
ENDBRANCH   1  10
TORSDOF 6
ENDMDL
MODEL 2
REMARK VINA RESULT:    -5.696      0.082      2.032
REMARK INTER + INTRA:          -7.927
REMARK INTER:                  -7.245
REMARK INTRA:                  -0.682
REMARK UNBOUND:                -0.733
REMARK SMILES Oc1ccc(CCc2cc(O)cc(O)c2)cc1
REMARK SMILES IDX 6 1 5 2 4 3 3 4 2 5 16 6 17 7 1 8 7 10 8 11 15 12 9 13 13 14
REMARK SMILES IDX 10 15 12 16 14 17 11 19
REMARK H PARENT 1 9 14 18 11 20
REMARK Flexibility Score: inf
ROOT
ATOM      1  C   UNL     1      -0.450   1.237  28.851  1.00  0.00     0.040 C 
ENDROOT
BRANCH   1   2
ATOM      2  C   UNL     1      -1.432   1.053  27.726  1.00  0.00    -0.047 A 
ATOM      3  C   UNL     1      -1.417  -0.121  26.955  1.00  0.00     0.007 A 
ATOM      4  C   UNL     1      -2.351  -0.305  25.931  1.00  0.00     0.046 A 
ATOM      5  C   UNL     1      -3.318   0.678  25.675  1.00  0.00     0.115 A 
ATOM      6  C   UNL     1      -2.411   2.029  27.473  1.00  0.00     0.007 A 
ATOM      7  C   UNL     1      -3.345   1.842  26.449  1.00  0.00     0.046 A 
BRANCH   5   8
ATOM      8  O   UNL     1      -4.253   0.505  24.658  1.00  0.00    -0.508 OA
ATOM      9  H   UNL     1      -4.019   0.681  23.688  1.00  0.00     0.293 HD
ENDBRANCH   5   8
ENDBRANCH   1   2
BRANCH   1  10
ATOM     10  C   UNL     1      -0.764   0.276  30.001  1.00  0.00     0.040 C 
BRANCH  10  11
ATOM     11  C   UNL     1      -2.172   0.485  30.495  1.00  0.00    -0.040 A 
ATOM     12  C   UNL     1      -3.148  -0.503  30.289  1.00  0.00     0.050 A 
ATOM     13  C   UNL     1      -2.504   1.645  31.213  1.00  0.00     0.050 A 
ATOM     14  C   UNL     1      -4.449  -0.323  30.776  1.00  0.00     0.119 A 
ATOM     15  C   UNL     1      -3.806   1.825  31.701  1.00  0.00     0.119 A 
ATOM     16  C   UNL     1      -4.775   0.842  31.478  1.00  0.00     0.092 A 
BRANCH  14  17
ATOM     17  O   UNL     1      -5.426  -1.296  30.570  1.00  0.00    -0.508 OA
ATOM     18  H   UNL     1      -6.386  -1.153  30.862  1.00  0.00     0.293 HD
ENDBRANCH  14  17
BRANCH  15  19
ATOM     19  O   UNL     1      -4.145   2.976  32.409  1.00  0.00    -0.508 OA
ATOM     20  H   UNL     1      -3.438   3.610  32.761  1.00  0.00     0.293 HD
ENDBRANCH  15  19
ENDBRANCH  10  11
ENDBRANCH   1  10
TORSDOF 6
ENDMDL
MODEL 3
REMARK VINA RESULT:    -5.633     10.552     12.775
REMARK INTER + INTRA:          -7.849
REMARK INTER:                  -7.022
REMARK INTRA:                  -0.826
REMARK UNBOUND:                -0.733
REMARK SMILES Oc1ccc(CCc2cc(O)cc(O)c2)cc1
REMARK SMILES IDX 6 1 5 2 4 3 3 4 2 5 16 6 17 7 1 8 7 10 8 11 15 12 9 13 13 14
REMARK SMILES IDX 10 15 12 16 14 17 11 19
REMARK H PARENT 1 9 14 18 11 20
REMARK Flexibility Score: inf
ROOT
ATOM      1  C   UNL     1     -12.112   4.255  32.570  1.00  0.00     0.040 C 
ENDROOT
BRANCH   1   2
ATOM      2  C   UNL     1     -12.549   2.823  32.426  1.00  0.00    -0.047 A 
ATOM      3  C   UNL     1     -13.067   2.126  33.529  1.00  0.00     0.007 A 
ATOM      4  C   UNL     1     -13.504   0.805  33.387  1.00  0.00     0.046 A 
ATOM      5  C   UNL     1     -13.438   0.172  32.137  1.00  0.00     0.115 A 
ATOM      6  C   UNL     1     -12.497   2.188  31.173  1.00  0.00     0.007 A 
ATOM      7  C   UNL     1     -12.935   0.867  31.033  1.00  0.00     0.046 A 
BRANCH   5   8
ATOM      8  O   UNL     1     -13.870  -1.143  31.984  1.00  0.00    -0.508 OA
ATOM      9  H   UNL     1     -14.834  -1.407  32.148  1.00  0.00     0.293 HD
ENDBRANCH   5   8
ENDBRANCH   1   2
BRANCH   1  10
ATOM     10  C   UNL     1     -12.971   5.171  31.693  1.00  0.00     0.040 C 
BRANCH  10  11
ATOM     11  C   UNL     1     -14.362   5.289  32.257  1.00  0.00    -0.040 A 
ATOM     12  C   UNL     1     -14.558   5.775  33.560  1.00  0.00     0.050 A 
ATOM     13  C   UNL     1     -15.477   4.967  31.466  1.00  0.00     0.050 A 
ATOM     14  C   UNL     1     -15.854   5.916  34.075  1.00  0.00     0.119 A 
ATOM     15  C   UNL     1     -16.773   5.108  31.980  1.00  0.00     0.119 A 
ATOM     16  C   UNL     1     -16.957   5.579  33.284  1.00  0.00     0.092 A 
BRANCH  14  17
ATOM     17  O   UNL     1     -16.056   6.391  35.369  1.00  0.00    -0.508 OA
ATOM     18  H   UNL     1     -15.825   7.344  35.626  1.00  0.00     0.293 HD
ENDBRANCH  14  17
BRANCH  15  19
ATOM     19  O   UNL     1     -17.884   4.786  31.203  1.00  0.00    -0.508 OA
ATOM     20  H   UNL     1     -17.944   5.054  30.228  1.00  0.00     0.293 HD
ENDBRANCH  15  19
ENDBRANCH  10  11
ENDBRANCH   1  10
TORSDOF 6
ENDMDL
MODEL 4
REMARK VINA RESULT:    -5.585     10.507     12.865
REMARK INTER + INTRA:          -7.787
REMARK INTER:                  -6.984
REMARK INTRA:                  -0.803
REMARK UNBOUND:                -0.733
REMARK SMILES Oc1ccc(CCc2cc(O)cc(O)c2)cc1
REMARK SMILES IDX 6 1 5 2 4 3 3 4 2 5 16 6 17 7 1 8 7 10 8 11 15 12 9 13 13 14
REMARK SMILES IDX 10 15 12 16 14 17 11 19
REMARK H PARENT 1 9 14 18 11 20
REMARK Flexibility Score: inf
ROOT
ATOM      1  C   UNL     1     -12.089   4.294  32.393  1.00  0.00     0.040 C 
ENDROOT
BRANCH   1   2
ATOM      2  C   UNL     1     -12.534   2.859  32.308  1.00  0.00    -0.047 A 
ATOM      3  C   UNL     1     -13.083   2.219  33.431  1.00  0.00     0.007 A 
ATOM      4  C   UNL     1     -13.526   0.895  33.342  1.00  0.00     0.046 A 
ATOM      5  C   UNL     1     -13.436   0.202  32.126  1.00  0.00     0.115 A 
ATOM      6  C   UNL     1     -12.458   2.164  31.089  1.00  0.00     0.007 A 
ATOM      7  C   UNL     1     -12.903   0.841  31.002  1.00  0.00     0.046 A 
BRANCH   5   8
ATOM      8  O   UNL     1     -13.874  -1.115  32.026  1.00  0.00    -0.508 OA
ATOM      9  H   UNL     1     -13.232  -1.895  32.104  1.00  0.00     0.293 HD
ENDBRANCH   5   8
ENDBRANCH   1   2
BRANCH   1  10
ATOM     10  C   UNL     1     -12.972   5.183  31.513  1.00  0.00     0.040 C 
BRANCH  10  11
ATOM     11  C   UNL     1     -14.280   5.474  32.200  1.00  0.00    -0.040 A 
ATOM     12  C   UNL     1     -15.491   5.066  31.617  1.00  0.00     0.050 A 
ATOM     13  C   UNL     1     -14.295   6.104  33.455  1.00  0.00     0.050 A 
ATOM     14  C   UNL     1     -16.706   5.307  32.272  1.00  0.00     0.119 A 
ATOM     15  C   UNL     1     -15.511   6.345  34.109  1.00  0.00     0.119 A 
ATOM     16  C   UNL     1     -16.712   5.948  33.515  1.00  0.00     0.092 A 
BRANCH  14  17
ATOM     17  O   UNL     1     -17.913   4.912  31.697  1.00  0.00    -0.508 OA
ATOM     18  H   UNL     1     -18.488   5.562  31.174  1.00  0.00     0.293 HD
ENDBRANCH  14  17
BRANCH  15  19
ATOM     19  O   UNL     1     -15.535   6.976  35.352  1.00  0.00    -0.508 OA
ATOM     20  H   UNL     1     -14.955   7.783  35.548  1.00  0.00     0.293 HD
ENDBRANCH  15  19
ENDBRANCH  10  11
ENDBRANCH   1  10
TORSDOF 6
ENDMDL
MODEL 5
REMARK VINA RESULT:    -5.577     13.457     15.055
REMARK INTER + INTRA:          -7.778
REMARK INTER:                  -6.945
REMARK INTRA:                  -0.833
REMARK UNBOUND:                -0.733
REMARK SMILES Oc1ccc(CCc2cc(O)cc(O)c2)cc1
REMARK SMILES IDX 6 1 5 2 4 3 3 4 2 5 16 6 17 7 1 8 7 10 8 11 15 12 9 13 13 14
REMARK SMILES IDX 10 15 12 16 14 17 11 19
REMARK H PARENT 1 9 14 18 11 20
REMARK Flexibility Score: inf
ROOT
ATOM      1  C   UNL     1     -14.967   8.060  29.530  1.00  0.00     0.040 C 
ENDROOT
BRANCH   1   2
ATOM      2  C   UNL     1     -14.853   9.498  29.958  1.00  0.00    -0.047 A 
ATOM      3  C   UNL     1     -15.987  10.199  30.399  1.00  0.00     0.007 A 
ATOM      4  C   UNL     1     -15.874  11.525  30.827  1.00  0.00     0.046 A 
ATOM      5  C   UNL     1     -14.624  12.161  30.829  1.00  0.00     0.115 A 
ATOM      6  C   UNL     1     -13.601  10.135  29.974  1.00  0.00     0.007 A 
ATOM      7  C   UNL     1     -13.490  11.461  30.403  1.00  0.00     0.046 A 
BRANCH   5   8
ATOM      8  O   UNL     1     -14.500  13.481  31.253  1.00  0.00    -0.508 OA
ATOM      9  H   UNL     1     -14.734  14.257  30.645  1.00  0.00     0.293 HD
ENDBRANCH   5   8
ENDBRANCH   1   2
BRANCH   1  10
ATOM     10  C   UNL     1     -14.078   7.168  30.401  1.00  0.00     0.040 C 
BRANCH  10  11
ATOM     11  C   UNL     1     -14.676   7.003  31.773  1.00  0.00    -0.040 A 
ATOM     12  C   UNL     1     -13.925   7.323  32.915  1.00  0.00     0.050 A 
ATOM     13  C   UNL     1     -16.008   6.582  31.918  1.00  0.00     0.050 A 
ATOM     14  C   UNL     1     -14.492   7.201  34.191  1.00  0.00     0.119 A 
ATOM     15  C   UNL     1     -16.575   6.460  33.194  1.00  0.00     0.119 A 
ATOM     16  C   UNL     1     -15.815   6.768  34.326  1.00  0.00     0.092 A 
BRANCH  14  17
ATOM     17  O   UNL     1     -13.752   7.510  35.330  1.00  0.00    -0.508 OA
ATOM     18  H   UNL     1     -13.348   6.784  35.912  1.00  0.00     0.293 HD
ENDBRANCH  14  17
BRANCH  15  19
ATOM     19  O   UNL     1     -17.895   6.037  33.346  1.00  0.00    -0.508 OA
ATOM     20  H   UNL     1     -18.122   5.069  33.536  1.00  0.00     0.293 HD
ENDBRANCH  15  19
ENDBRANCH  10  11
ENDBRANCH   1  10
TORSDOF 6
ENDMDL
MODEL 6
REMARK VINA RESULT:    -5.537     13.557     15.179
REMARK INTER + INTRA:          -7.727
REMARK INTER:                  -6.912
REMARK INTRA:                  -0.815
REMARK UNBOUND:                -0.733
REMARK SMILES Oc1ccc(CCc2cc(O)cc(O)c2)cc1
REMARK SMILES IDX 6 1 5 2 4 3 3 4 2 5 16 6 17 7 1 8 7 10 8 11 15 12 9 13 13 14
REMARK SMILES IDX 10 15 12 16 14 17 11 19
REMARK H PARENT 1 9 14 18 11 20
REMARK Flexibility Score: inf
ROOT
ATOM      1  C   UNL     1     -15.069   8.077  29.490  1.00  0.00     0.040 C 
ENDROOT
BRANCH   1   2
ATOM      2  C   UNL     1     -14.912   9.490  29.981  1.00  0.00    -0.047 A 
ATOM      3  C   UNL     1     -13.654  10.113  29.962  1.00  0.00     0.007 A 
ATOM      4  C   UNL     1     -13.516  11.437  30.389  1.00  0.00     0.046 A 
ATOM      5  C   UNL     1     -14.636  12.157  30.827  1.00  0.00     0.115 A 
ATOM      6  C   UNL     1     -16.035  10.220  30.410  1.00  0.00     0.007 A 
ATOM      7  C   UNL     1     -15.894  11.544  30.835  1.00  0.00     0.046 A 
BRANCH   5   8
ATOM      8  O   UNL     1     -14.510  13.476  31.254  1.00  0.00    -0.508 OA
ATOM      9  H   UNL     1     -15.036  13.830  32.044  1.00  0.00     0.293 HD
ENDBRANCH   5   8
ENDBRANCH   1   2
BRANCH   1  10
ATOM     10  C   UNL     1     -14.241   7.115  30.348  1.00  0.00     0.040 C 
BRANCH  10  11
ATOM     11  C   UNL     1     -14.846   6.979  31.721  1.00  0.00    -0.040 A 
ATOM     12  C   UNL     1     -16.148   6.476  31.873  1.00  0.00     0.050 A 
ATOM     13  C   UNL     1     -14.092   7.299  32.861  1.00  0.00     0.050 A 
ATOM     14  C   UNL     1     -16.699   6.318  33.152  1.00  0.00     0.119 A 
ATOM     15  C   UNL     1     -14.642   7.142  34.140  1.00  0.00     0.119 A 
ATOM     16  C   UNL     1     -15.945   6.654  34.281  1.00  0.00     0.092 A 
BRANCH  14  17
ATOM     17  O   UNL     1     -17.993   5.827  33.312  1.00  0.00    -0.508 OA
ATOM     18  H   UNL     1     -18.186   5.026  33.904  1.00  0.00     0.293 HD
ENDBRANCH  14  17
BRANCH  15  19
ATOM     19  O   UNL     1     -13.902   7.464  35.276  1.00  0.00    -0.508 OA
ATOM     20  H   UNL     1     -13.917   6.878  36.102  1.00  0.00     0.293 HD
ENDBRANCH  15  19
ENDBRANCH  10  11
ENDBRANCH   1  10
TORSDOF 6
ENDMDL
MODEL 7
REMARK VINA RESULT:    -5.304     10.795     13.088
REMARK INTER + INTRA:          -7.433
REMARK INTER:                  -6.974
REMARK INTRA:                  -0.459
REMARK UNBOUND:                -0.733
REMARK SMILES Oc1ccc(CCc2cc(O)cc(O)c2)cc1
REMARK SMILES IDX 6 1 5 2 4 3 3 4 2 5 16 6 17 7 1 8 7 10 8 11 15 12 9 13 13 14
REMARK SMILES IDX 10 15 12 16 14 17 11 19
REMARK H PARENT 1 9 14 18 11 20
REMARK Flexibility Score: inf
ROOT
ATOM      1  C   UNL     1     -13.053   2.188  30.047  1.00  0.00     0.040 C 
ENDROOT
BRANCH   1   2
ATOM      2  C   UNL     1     -13.386   2.251  31.513  1.00  0.00    -0.047 A 
ATOM      3  C   UNL     1     -14.018   3.385  32.049  1.00  0.00     0.007 A 
ATOM      4  C   UNL     1     -14.356   3.428  33.406  1.00  0.00     0.046 A 
ATOM      5  C   UNL     1     -14.077   2.334  34.237  1.00  0.00     0.115 A 
ATOM      6  C   UNL     1     -13.120   1.152  32.348  1.00  0.00     0.007 A 
ATOM      7  C   UNL     1     -13.460   1.198  33.704  1.00  0.00     0.046 A 
BRANCH   5   8
ATOM      8  O   UNL     1     -14.409   2.367  35.589  1.00  0.00    -0.508 OA
ATOM      9  H   UNL     1     -13.785   2.770  36.278  1.00  0.00     0.293 HD
ENDBRANCH   5   8
ENDBRANCH   1   2
BRANCH   1  10
ATOM     10  C   UNL     1     -14.121   1.396  29.287  1.00  0.00     0.040 C 
BRANCH  10  11
ATOM     11  C   UNL     1     -14.595   2.169  28.084  1.00  0.00    -0.040 A 
ATOM     12  C   UNL     1     -13.782   2.271  26.944  1.00  0.00     0.050 A 
ATOM     13  C   UNL     1     -15.876   2.745  28.073  1.00  0.00     0.050 A 
ATOM     14  C   UNL     1     -14.236   2.963  25.812  1.00  0.00     0.119 A 
ATOM     15  C   UNL     1     -16.330   3.437  26.942  1.00  0.00     0.119 A 
ATOM     16  C   UNL     1     -15.508   3.546  25.816  1.00  0.00     0.092 A 
BRANCH  14  17
ATOM     17  O   UNL     1     -13.433   3.075  24.679  1.00  0.00    -0.508 OA
ATOM     18  H   UNL     1     -12.443   2.858  24.708  1.00  0.00     0.293 HD
ENDBRANCH  14  17
BRANCH  15  19
ATOM     19  O   UNL     1     -17.597   4.017  26.926  1.00  0.00    -0.508 OA
ATOM     20  H   UNL     1     -18.343   3.677  27.522  1.00  0.00     0.293 HD
ENDBRANCH  15  19
ENDBRANCH  10  11
ENDBRANCH   1  10
TORSDOF 6
ENDMDL
MODEL 8
REMARK VINA RESULT:    -5.293     10.830     13.081
REMARK INTER + INTRA:          -7.419
REMARK INTER:                  -6.960
REMARK INTRA:                  -0.459
REMARK UNBOUND:                -0.733
REMARK SMILES Oc1ccc(CCc2cc(O)cc(O)c2)cc1
REMARK SMILES IDX 6 1 5 2 4 3 3 4 2 5 16 6 17 7 1 8 7 10 8 11 15 12 9 13 13 14
REMARK SMILES IDX 10 15 12 16 14 17 11 19
REMARK H PARENT 1 9 14 18 11 20
REMARK Flexibility Score: inf
ROOT
ATOM      1  C   UNL     1     -13.089   2.301  30.040  1.00  0.00     0.040 C 
ENDROOT
BRANCH   1   2
ATOM      2  C   UNL     1     -13.419   2.338  31.508  1.00  0.00    -0.047 A 
ATOM      3  C   UNL     1     -14.057   3.459  32.063  1.00  0.00     0.007 A 
ATOM      4  C   UNL     1     -14.393   3.478  33.421  1.00  0.00     0.046 A 
ATOM      5  C   UNL     1     -14.105   2.373  34.234  1.00  0.00     0.115 A 
ATOM      6  C   UNL     1     -13.144   1.227  32.324  1.00  0.00     0.007 A 
ATOM      7  C   UNL     1     -13.482   1.249  33.681  1.00  0.00     0.046 A 
BRANCH   5   8
ATOM      8  O   UNL     1     -14.435   2.381  35.586  1.00  0.00    -0.508 OA
ATOM      9  H   UNL     1     -14.206   3.167  36.183  1.00  0.00     0.293 HD
ENDBRANCH   5   8
ENDBRANCH   1   2
BRANCH   1  10
ATOM     10  C   UNL     1     -14.092   1.425  29.285  1.00  0.00     0.040 C 
BRANCH  10  11
ATOM     11  C   UNL     1     -14.598   2.139  28.059  1.00  0.00    -0.040 A 
ATOM     12  C   UNL     1     -15.851   2.773  28.076  1.00  0.00     0.050 A 
ATOM     13  C   UNL     1     -13.797   2.223  26.908  1.00  0.00     0.050 A 
ATOM     14  C   UNL     1     -16.308   3.465  26.946  1.00  0.00     0.119 A 
ATOM     15  C   UNL     1     -14.255   2.915  25.778  1.00  0.00     0.119 A 
ATOM     16  C   UNL     1     -15.509   3.531  25.800  1.00  0.00     0.092 A 
BRANCH  14  17
ATOM     17  O   UNL     1     -17.553   4.092  26.953  1.00  0.00    -0.508 OA
ATOM     18  H   UNL     1     -17.775   4.835  26.300  1.00  0.00     0.293 HD
ENDBRANCH  14  17
BRANCH  15  19
ATOM     19  O   UNL     1     -13.468   2.998  24.631  1.00  0.00    -0.508 OA
ATOM     20  H   UNL     1     -12.711   2.347  24.459  1.00  0.00     0.293 HD
ENDBRANCH  15  19
ENDBRANCH  10  11
ENDBRANCH   1  10
TORSDOF 6
ENDMDL
MODEL 9
REMARK VINA RESULT:    -5.283     11.833     13.884
REMARK INTER + INTRA:          -7.407
REMARK INTER:                  -6.923
REMARK INTRA:                  -0.484
REMARK UNBOUND:                -0.733
REMARK SMILES Oc1ccc(CCc2cc(O)cc(O)c2)cc1
REMARK SMILES IDX 6 1 5 2 4 3 3 4 2 5 16 6 17 7 1 8 7 10 8 11 15 12 9 13 13 14
REMARK SMILES IDX 10 15 12 16 14 17 11 19
REMARK H PARENT 1 9 14 18 11 20
REMARK Flexibility Score: inf
ROOT
ATOM      1  C   UNL     1     -12.376  10.392  30.372  1.00  0.00     0.040 C 
ENDROOT
BRANCH   1   2
ATOM      2  C   UNL     1     -13.826  10.228  30.743  1.00  0.00    -0.047 A 
ATOM      3  C   UNL     1     -14.309   8.986  31.184  1.00  0.00     0.007 A 
ATOM      4  C   UNL     1     -15.648   8.843  31.560  1.00  0.00     0.046 A 
ATOM      5  C   UNL     1     -16.515   9.944  31.509  1.00  0.00     0.115 A 
ATOM      6  C   UNL     1     -14.695  11.331  30.706  1.00  0.00     0.007 A 
ATOM      7  C   UNL     1     -16.034  11.186  31.083  1.00  0.00     0.046 A 
BRANCH   5   8
ATOM      8  O   UNL     1     -17.851   9.813  31.881  1.00  0.00    -0.508 OA
ATOM      9  H   UNL     1     -18.515  10.566  31.743  1.00  0.00     0.293 HD
ENDBRANCH   5   8
ENDBRANCH   1   2
BRANCH   1  10
ATOM     10  C   UNL     1     -11.601  11.056  31.513  1.00  0.00     0.040 C 
BRANCH  10  11
ATOM     11  C   UNL     1     -10.446  10.189  31.941  1.00  0.00    -0.040 A 
ATOM     12  C   UNL     1      -9.326  10.040  31.107  1.00  0.00     0.050 A 
ATOM     13  C   UNL     1     -10.455   9.570  33.201  1.00  0.00     0.050 A 
ATOM     14  C   UNL     1      -8.237   9.260  31.518  1.00  0.00     0.119 A 
ATOM     15  C   UNL     1      -9.366   8.790  33.613  1.00  0.00     0.119 A 
ATOM     16  C   UNL     1      -8.262   8.635  32.770  1.00  0.00     0.092 A 
BRANCH  14  17
ATOM     17  O   UNL     1      -7.126   9.100  30.693  1.00  0.00    -0.508 OA
ATOM     18  H   UNL     1      -6.615   9.899  30.333  1.00  0.00     0.293 HD
ENDBRANCH  14  17
BRANCH  15  19
ATOM     19  O   UNL     1      -9.370   8.167  34.860  1.00  0.00    -0.508 OA
ATOM     20  H   UNL     1     -10.190   8.180  35.456  1.00  0.00     0.293 HD
ENDBRANCH  15  19
ENDBRANCH  10  11
ENDBRANCH   1  10
TORSDOF 6
ENDMDL
