MODEL 1
REMARK VINA RESULT:    -3.675      0.000      0.000
REMARK INTER + INTRA:          -4.795
REMARK INTER:                  -4.749
REMARK INTRA:                  -0.046
REMARK UNBOUND:                -0.046
REMARK SMILES CCCCCCC=O
REMARK SMILES IDX 4 1 3 2 2 3 1 4 5 5 6 6 7 7 8 8
REMARK H PARENT
REMARK Flexibility Score: inf
ROOT
ATOM      1  C   UNL     1      25.564  56.766  -9.267  1.00  0.00     0.000 C 
ENDROOT
BRANCH   1   2
ATOM      2  C   UNL     1      24.328  56.482  -8.395  1.00  0.00    -0.000 C 
BRANCH   2   3
ATOM      3  C   UNL     1      23.938  54.996  -8.291  1.00  0.00    -0.003 C 
ATOM      4  C   UNL     1      22.690  54.764  -7.440  1.00  0.00     0.004 C 
ENDBRANCH   2   3
ENDBRANCH   1   2
BRANCH   1   5
ATOM      5  C   UNL     1      25.797  58.268  -9.503  1.00  0.00     0.008 C 
BRANCH   5   6
ATOM      6  C   UNL     1      26.960  58.527 -10.471  1.00  0.00     0.072 C 
BRANCH   6   7
ATOM      7  C   UNL     1      27.467  59.939 -10.390  1.00  0.00     0.224 C 
ATOM      8  O   UNL     1      28.455  60.267 -11.026  1.00  0.00    -0.303 OA
ENDBRANCH   6   7
ENDBRANCH   5   6
ENDBRANCH   1   5
TORSDOF 5
ENDMDL
MODEL 2
REMARK VINA RESULT:    -3.675      3.171      5.754
REMARK INTER + INTRA:          -4.795
REMARK INTER:                  -4.743
REMARK INTRA:                  -0.052
REMARK UNBOUND:                -0.046
REMARK SMILES CCCCCCC=O
REMARK SMILES IDX 4 1 3 2 2 3 1 4 5 5 6 6 7 7 8 8
REMARK H PARENT
REMARK Flexibility Score: inf
ROOT
ATOM      1  C   UNL     1      25.551  57.967  -9.391  1.00  0.00     0.000 C 
ENDROOT
BRANCH   1   2
ATOM      2  C   UNL     1      26.721  58.269 -10.344  1.00  0.00    -0.000 C 
BRANCH   2   3
ATOM      3  C   UNL     1      27.213  59.728 -10.323  1.00  0.00    -0.003 C 
ATOM      4  C   UNL     1      28.700  59.862 -10.652  1.00  0.00     0.004 C 
ENDBRANCH   2   3
ENDBRANCH   1   2
BRANCH   1   5
ATOM      5  C   UNL     1      25.497  56.493  -8.959  1.00  0.00     0.008 C 
BRANCH   5   6
ATOM      6  C   UNL     1      24.065  55.939  -8.975  1.00  0.00     0.072 C 
BRANCH   6   7
ATOM      7  C   UNL     1      23.680  55.314  -7.664  1.00  0.00     0.224 C 
ATOM      8  O   UNL     1      22.656  54.656  -7.582  1.00  0.00    -0.303 OA
ENDBRANCH   6   7
ENDBRANCH   5   6
ENDBRANCH   1   5
TORSDOF 5
ENDMDL
MODEL 3
REMARK VINA RESULT:    -3.506     17.827     18.888
REMARK INTER + INTRA:          -4.577
REMARK INTER:                  -4.343
REMARK INTRA:                  -0.234
REMARK UNBOUND:                -0.046
REMARK SMILES CCCCCCC=O
REMARK SMILES IDX 4 1 3 2 2 3 1 4 5 5 6 6 7 7 8 8
REMARK H PARENT
REMARK Flexibility Score: inf
ROOT
ATOM      1  C   UNL     1      17.595  44.232   0.069  1.00  0.00     0.000 C 
ENDROOT
BRANCH   1   2
ATOM      2  C   UNL     1      17.050  43.598   1.360  1.00  0.00    -0.000 C 
BRANCH   2   3
ATOM      3  C   UNL     1      15.779  44.262   1.921  1.00  0.00    -0.003 C 
ATOM      4  C   UNL     1      15.047  45.118   0.887  1.00  0.00     0.004 C 
ENDBRANCH   2   3
ENDBRANCH   1   2
BRANCH   1   5
ATOM      5  C   UNL     1      19.120  44.431   0.098  1.00  0.00     0.008 C 
BRANCH   5   6
ATOM      6  C   UNL     1      19.745  43.916   1.401  1.00  0.00     0.072 C 
BRANCH   6   7
ATOM      7  C   UNL     1      20.652  42.739   1.175  1.00  0.00     0.224 C 
ATOM      8  O   UNL     1      20.604  42.131   0.119  1.00  0.00    -0.303 OA
ENDBRANCH   6   7
ENDBRANCH   5   6
ENDBRANCH   1   5
TORSDOF 5
ENDMDL
MODEL 4
REMARK VINA RESULT:    -3.398     17.924     19.065
REMARK INTER + INTRA:          -4.437
REMARK INTER:                  -4.025
REMARK INTRA:                  -0.412
REMARK UNBOUND:                -0.046
REMARK SMILES CCCCCCC=O
REMARK SMILES IDX 4 1 3 2 2 3 1 4 5 5 6 6 7 7 8 8
REMARK H PARENT
REMARK Flexibility Score: inf
ROOT
ATOM      1  C   UNL     1      19.450  44.580   0.093  1.00  0.00     0.000 C 
ENDROOT
BRANCH   1   2
ATOM      2  C   UNL     1      19.734  44.020   1.498  1.00  0.00    -0.000 C 
BRANCH   2   3
ATOM      3  C   UNL     1      20.585  42.738   1.523  1.00  0.00    -0.003 C 
ATOM      4  C   UNL     1      20.923  42.217   0.126  1.00  0.00     0.004 C 
ENDBRANCH   2   3
ENDBRANCH   1   2
BRANCH   1   5
ATOM      5  C   UNL     1      17.947  44.718  -0.203  1.00  0.00     0.008 C 
BRANCH   5   6
ATOM      6  C   UNL     1      17.124  43.602   0.456  1.00  0.00     0.072 C 
BRANCH   6   7
ATOM      7  C   UNL     1      16.991  42.393  -0.426  1.00  0.00     0.224 C 
ATOM      8  O   UNL     1      17.523  41.344  -0.104  1.00  0.00    -0.303 OA
ENDBRANCH   6   7
ENDBRANCH   5   6
ENDBRANCH   1   5
TORSDOF 5
ENDMDL
MODEL 5
REMARK VINA RESULT:    -3.382     18.285     18.888
REMARK INTER + INTRA:          -4.417
REMARK INTER:                  -4.219
REMARK INTRA:                  -0.198
REMARK UNBOUND:                -0.046
REMARK SMILES CCCCCCC=O
REMARK SMILES IDX 4 1 3 2 2 3 1 4 5 5 6 6 7 7 8 8
REMARK H PARENT
REMARK Flexibility Score: inf
ROOT
ATOM      1  C   UNL     1      18.493  43.537   2.184  1.00  0.00     0.000 C 
ENDROOT
BRANCH   1   2
ATOM      2  C   UNL     1      19.632  43.764   1.175  1.00  0.00    -0.000 C 
BRANCH   2   3
ATOM      3  C   UNL     1      20.799  42.766   1.282  1.00  0.00    -0.003 C 
ATOM      4  C   UNL     1      21.037  41.985  -0.010  1.00  0.00     0.004 C 
ENDBRANCH   2   3
ENDBRANCH   1   2
BRANCH   1   5
ATOM      5  C   UNL     1      17.110  43.454   1.516  1.00  0.00     0.008 C 
BRANCH   5   6
ATOM      6  C   UNL     1      17.138  43.959   0.066  1.00  0.00     0.072 C 
BRANCH   6   7
ATOM      7  C   UNL     1      16.083  44.996  -0.198  1.00  0.00     0.224 C 
ATOM      8  O   UNL     1      16.222  45.783  -1.120  1.00  0.00    -0.303 OA
ENDBRANCH   6   7
ENDBRANCH   5   6
ENDBRANCH   1   5
TORSDOF 5
ENDMDL
MODEL 6
REMARK VINA RESULT:    -3.381     17.509     19.005
REMARK INTER + INTRA:          -4.415
REMARK INTER:                  -4.063
REMARK INTRA:                  -0.352
REMARK UNBOUND:                -0.046
REMARK SMILES CCCCCCC=O
REMARK SMILES IDX 4 1 3 2 2 3 1 4 5 5 6 6 7 7 8 8
REMARK H PARENT
REMARK Flexibility Score: inf
ROOT
ATOM      1  C   UNL     1      17.829  42.467   1.526  1.00  0.00     0.000 C 
ENDROOT
BRANCH   1   2
ATOM      2  C   UNL     1      16.317  42.747   1.469  1.00  0.00    -0.000 C 
BRANCH   2   3
ATOM      3  C   UNL     1      15.909  44.178   1.865  1.00  0.00    -0.003 C 
ATOM      4  C   UNL     1      15.290  44.964   0.710  1.00  0.00     0.004 C 
ENDBRANCH   2   3
ENDBRANCH   1   2
BRANCH   1   5
ATOM      5  C   UNL     1      18.609  43.545   2.296  1.00  0.00     0.008 C 
BRANCH   5   6
ATOM      6  C   UNL     1      19.767  44.121   1.470  1.00  0.00     0.072 C 
BRANCH   6   7
ATOM      7  C   UNL     1      19.424  44.246   0.013  1.00  0.00     0.224 C 
ATOM      8  O   UNL     1      18.933  45.280  -0.409  1.00  0.00    -0.303 OA
ENDBRANCH   6   7
ENDBRANCH   5   6
ENDBRANCH   1   5
TORSDOF 5
ENDMDL
MODEL 7
REMARK VINA RESULT:    -3.349     15.859     17.304
REMARK INTER + INTRA:          -4.373
REMARK INTER:                  -4.205
REMARK INTRA:                  -0.168
REMARK UNBOUND:                -0.046
REMARK SMILES CCCCCCC=O
REMARK SMILES IDX 4 1 3 2 2 3 1 4 5 5 6 6 7 7 8 8
REMARK H PARENT
REMARK Flexibility Score: inf
ROOT
ATOM      1  C   UNL     1      32.069  44.812   1.594  1.00  0.00     0.000 C 
ENDROOT
BRANCH   1   2
ATOM      2  C   UNL     1      32.838  46.042   2.108  1.00  0.00    -0.000 C 
BRANCH   2   3
ATOM      3  C   UNL     1      32.591  46.387   3.588  1.00  0.00    -0.003 C 
ATOM      4  C   UNL     1      31.869  47.721   3.778  1.00  0.00     0.004 C 
ENDBRANCH   2   3
ENDBRANCH   1   2
BRANCH   1   5
ATOM      5  C   UNL     1      31.112  45.145   0.437  1.00  0.00     0.008 C 
BRANCH   5   6
ATOM      6  C   UNL     1      29.644  45.151   0.885  1.00  0.00     0.072 C 
BRANCH   6   7
ATOM      7  C   UNL     1      28.692  45.067  -0.275  1.00  0.00     0.224 C 
ATOM      8  O   UNL     1      28.032  46.043  -0.591  1.00  0.00    -0.303 OA
ENDBRANCH   6   7
ENDBRANCH   5   6
ENDBRANCH   1   5
TORSDOF 5
ENDMDL
MODEL 8
REMARK VINA RESULT:    -3.336     18.515     19.638
REMARK INTER + INTRA:          -4.357
REMARK INTER:                  -4.033
REMARK INTRA:                  -0.324
REMARK UNBOUND:                -0.046
REMARK SMILES CCCCCCC=O
REMARK SMILES IDX 4 1 3 2 2 3 1 4 5 5 6 6 7 7 8 8
REMARK H PARENT
REMARK Flexibility Score: inf
ROOT
ATOM      1  C   UNL     1      17.383  43.172   1.605  1.00  0.00     0.000 C 
ENDROOT
BRANCH   1   2
ATOM      2  C   UNL     1      17.195  41.650   1.474  1.00  0.00    -0.000 C 
BRANCH   2   3
ATOM      3  C   UNL     1      16.741  41.172   0.083  1.00  0.00    -0.003 C 
ATOM      4  C   UNL     1      17.799  41.389  -0.998  1.00  0.00     0.004 C 
ENDBRANCH   2   3
ENDBRANCH   1   2
BRANCH   1   5
ATOM      5  C   UNL     1      18.748  43.558   2.198  1.00  0.00     0.008 C 
BRANCH   5   6
ATOM      6  C   UNL     1      19.823  43.720   1.114  1.00  0.00     0.072 C 
BRANCH   6   7
ATOM      7  C   UNL     1      20.775  42.558   1.073  1.00  0.00     0.224 C 
ATOM      8  O   UNL     1      21.159  42.125  -0.000  1.00  0.00    -0.303 OA
ENDBRANCH   6   7
ENDBRANCH   5   6
ENDBRANCH   1   5
TORSDOF 5
ENDMDL
MODEL 9
REMARK VINA RESULT:    -3.321     17.680     19.629
REMARK INTER + INTRA:          -4.337
REMARK INTER:                  -4.038
REMARK INTRA:                  -0.299
REMARK UNBOUND:                -0.046
REMARK SMILES CCCCCCC=O
REMARK SMILES IDX 4 1 3 2 2 3 1 4 5 5 6 6 7 7 8 8
REMARK H PARENT
REMARK Flexibility Score: inf
ROOT
ATOM      1  C   UNL     1      17.736  42.317   1.613  1.00  0.00     0.000 C 
ENDROOT
BRANCH   1   2
ATOM      2  C   UNL     1      18.585  43.502   2.106  1.00  0.00    -0.000 C 
BRANCH   2   3
ATOM      3  C   UNL     1      19.714  43.931   1.151  1.00  0.00    -0.003 C 
ATOM      4  C   UNL     1      19.210  44.734  -0.047  1.00  0.00     0.004 C 
ENDBRANCH   2   3
ENDBRANCH   1   2
BRANCH   1   5
ATOM      5  C   UNL     1      16.243  42.661   1.487  1.00  0.00     0.008 C 
BRANCH   5   6
ATOM      6  C   UNL     1      15.954  44.123   1.858  1.00  0.00     0.072 C 
BRANCH   6   7
ATOM      7  C   UNL     1      15.347  44.892   0.719  1.00  0.00     0.224 C 
ATOM      8  O   UNL     1      14.437  45.676   0.932  1.00  0.00    -0.303 OA
ENDBRANCH   6   7
ENDBRANCH   5   6
ENDBRANCH   1   5
TORSDOF 5
ENDMDL
