MODEL 1
REMARK VINA RESULT:    -4.936      0.000      0.000
REMARK INTER + INTRA:          -6.052
REMARK INTER:                  -5.946
REMARK INTRA:                  -0.106
REMARK UNBOUND:                -0.106
REMARK SMILES O=c1c(O)c(-c2ccc(O)c(O)c2)oc2cc(O)cc(O)c12
REMARK SMILES IDX 5 1 3 2 2 3 1 4 22 5 20 6 19 7 17 8 16 9 15 10 14 11 6 12
REMARK SMILES IDX 7 13 8 14 9 15 13 16 11 17 10 18 12 20 4 22 21 24 18 26
REMARK H PARENT 10 19 12 21 4 23 21 25 18 27
REMARK Flexibility Score: inf
ROOT
ATOM      1  C   UNL     1      -3.244  -5.539 -28.855  1.00  0.00     0.180 A 
ATOM      2  C   UNL     1      -3.078  -6.745 -29.557  1.00  0.00     0.208 A 
ATOM      3  C   UNL     1      -3.171  -6.735 -30.958  1.00  0.00     0.238 A 
ATOM      4  O   UNL     1      -2.949  -7.804 -31.585  1.00  0.00    -0.285 OA
ATOM      5  C   UNL     1      -3.484  -5.532 -31.636  1.00  0.00     0.111 A 
ATOM      6  C   UNL     1      -3.648  -5.415 -33.049  1.00  0.00     0.134 A 
ATOM      7  C   UNL     1      -3.851  -4.151 -33.619  1.00  0.00     0.093 A 
ATOM      8  C   UNL     1      -3.960  -3.010 -32.820  1.00  0.00     0.123 A 
ATOM      9  C   UNL     1      -3.857  -3.122 -31.437  1.00  0.00     0.094 A 
ATOM     10  C   UNL     1      -3.616  -4.363 -30.842  1.00  0.00     0.146 A 
ATOM     11  O   UNL     1      -3.503  -4.420 -29.520  1.00  0.00    -0.452 OA
ENDROOT
BRANCH   1  12
ATOM     12  C   UNL     1      -3.144  -5.466 -27.379  1.00  0.00     0.025 A 
ATOM     13  C   UNL     1      -4.207  -4.919 -26.643  1.00  0.00     0.016 A 
ATOM     14  C   UNL     1      -4.127  -4.821 -25.252  1.00  0.00     0.051 A 
ATOM     15  C   UNL     1      -2.981  -5.253 -24.576  1.00  0.00     0.157 A 
ATOM     16  C   UNL     1      -1.984  -5.880 -26.700  1.00  0.00     0.062 A 
ATOM     17  C   UNL     1      -1.902  -5.782 -25.304  1.00  0.00     0.158 A 
BRANCH  15  18
ATOM     18  O   UNL     1      -2.931  -5.145 -23.187  1.00  0.00    -0.504 OA
ATOM     19  H   UNL     1      -2.086  -5.334 -22.663  1.00  0.00     0.293 HD
ENDBRANCH  15  18
BRANCH  17  20
ATOM     20  O   UNL     1      -0.751  -6.201 -24.639  1.00  0.00    -0.504 OA
ATOM     21  H   UNL     1      -0.486  -5.816 -23.741  1.00  0.00     0.293 HD
ENDBRANCH  17  20
ENDBRANCH   1  12
BRANCH   2  22
ATOM     22  O   UNL     1      -2.846  -7.937 -28.864  1.00  0.00    -0.502 OA
ATOM     23  H   UNL     1      -2.399  -7.958 -27.955  1.00  0.00     0.293 HD
ENDBRANCH   2  22
BRANCH   6  24
ATOM     24  O   UNL     1      -3.645  -6.499 -33.931  1.00  0.00    -0.507 OA
ATOM     25  H   UNL     1      -3.260  -6.485 -34.864  1.00  0.00     0.293 HD
ENDBRANCH   6  24
BRANCH   8  26
ATOM     26  O   UNL     1      -4.181  -1.759 -33.394  1.00  0.00    -0.508 OA
ATOM     27  H   UNL     1      -3.607  -1.417 -34.157  1.00  0.00     0.293 HD
ENDBRANCH   8  26
TORSDOF 6
ENDMDL
MODEL 2
REMARK VINA RESULT:    -4.932      0.643      1.456
REMARK INTER + INTRA:          -6.047
REMARK INTER:                  -5.949
REMARK INTRA:                  -0.099
REMARK UNBOUND:                -0.106
REMARK SMILES O=c1c(O)c(-c2ccc(O)c(O)c2)oc2cc(O)cc(O)c12
REMARK SMILES IDX 5 1 3 2 2 3 1 4 22 5 20 6 19 7 17 8 16 9 15 10 14 11 6 12
REMARK SMILES IDX 7 13 8 14 9 15 13 16 11 17 10 18 12 20 4 22 21 24 18 26
REMARK H PARENT 10 19 12 21 4 23 21 25 18 27
REMARK Flexibility Score: inf
ROOT
ATOM      1  C   UNL     1      -3.199  -5.467 -29.136  1.00  0.00     0.180 A 
ATOM      2  C   UNL     1      -3.110  -6.670 -29.858  1.00  0.00     0.208 A 
ATOM      3  C   UNL     1      -3.240  -6.636 -31.256  1.00  0.00     0.238 A 
ATOM      4  O   UNL     1      -3.085  -7.704 -31.902  1.00  0.00    -0.285 OA
ATOM      5  C   UNL     1      -3.514  -5.409 -31.909  1.00  0.00     0.111 A 
ATOM      6  C   UNL     1      -3.710  -5.264 -33.316  1.00  0.00     0.134 A 
ATOM      7  C   UNL     1      -3.868  -3.984 -33.863  1.00  0.00     0.093 A 
ATOM      8  C   UNL     1      -3.902  -2.851 -33.047  1.00  0.00     0.123 A 
ATOM      9  C   UNL     1      -3.767  -2.988 -31.668  1.00  0.00     0.094 A 
ATOM     10  C   UNL     1      -3.568  -4.247 -31.096  1.00  0.00     0.146 A 
ATOM     11  O   UNL     1      -3.423  -4.328 -29.779  1.00  0.00    -0.452 OA
ENDROOT
BRANCH   1  12
ATOM     12  C   UNL     1      -3.056  -5.420 -27.662  1.00  0.00     0.025 A 
ATOM     13  C   UNL     1      -1.872  -5.883 -27.070  1.00  0.00     0.016 A 
ATOM     14  C   UNL     1      -1.722  -5.868 -25.681  1.00  0.00     0.051 A 
ATOM     15  C   UNL     1      -2.759  -5.406 -24.863  1.00  0.00     0.157 A 
ATOM     16  C   UNL     1      -4.106  -4.976 -26.838  1.00  0.00     0.062 A 
ATOM     17  C   UNL     1      -3.959  -4.962 -25.443  1.00  0.00     0.158 A 
BRANCH  15  18
ATOM     18  O   UNL     1      -2.581  -5.401 -23.480  1.00  0.00    -0.504 OA
ATOM     19  H   UNL     1      -1.877  -4.827 -23.031  1.00  0.00     0.293 HD
ENDBRANCH  15  18
BRANCH  17  20
ATOM     20  O   UNL     1      -5.001  -4.514 -24.634  1.00  0.00    -0.504 OA
ATOM     21  H   UNL     1      -4.949  -3.632 -24.139  1.00  0.00     0.293 HD
ENDBRANCH  17  20
ENDBRANCH   1  12
BRANCH   2  22
ATOM     22  O   UNL     1      -2.915  -7.880 -29.188  1.00  0.00    -0.502 OA
ATOM     23  H   UNL     1      -2.175  -8.526 -29.436  1.00  0.00     0.293 HD
ENDBRANCH   2  22
BRANCH   6  24
ATOM     24  O   UNL     1      -3.782  -6.335 -34.212  1.00  0.00    -0.507 OA
ATOM     25  H   UNL     1      -4.243  -6.308 -35.108  1.00  0.00     0.293 HD
ENDBRANCH   6  24
BRANCH   8  26
ATOM     26  O   UNL     1      -4.079  -1.583 -33.598  1.00  0.00    -0.508 OA
ATOM     27  H   UNL     1      -4.954  -1.081 -33.504  1.00  0.00     0.293 HD
ENDBRANCH   8  26
TORSDOF 6
ENDMDL
MODEL 3
REMARK VINA RESULT:    -4.862      3.660      6.992
REMARK INTER + INTRA:          -5.963
REMARK INTER:                  -5.654
REMARK INTRA:                  -0.309
REMARK UNBOUND:                -0.106
REMARK SMILES O=c1c(O)c(-c2ccc(O)c(O)c2)oc2cc(O)cc(O)c12
REMARK SMILES IDX 5 1 3 2 2 3 1 4 22 5 20 6 19 7 17 8 16 9 15 10 14 11 6 12
REMARK SMILES IDX 7 13 8 14 9 15 13 16 11 17 10 18 12 20 4 22 21 24 18 26
REMARK H PARENT 10 19 12 21 4 23 21 25 18 27
REMARK Flexibility Score: inf
ROOT
ATOM      1  C   UNL     1      -0.631  -6.087 -23.821  1.00  0.00     0.180 A 
ATOM      2  C   UNL     1      -1.360  -5.327 -22.889  1.00  0.00     0.208 A 
ATOM      3  C   UNL     1      -2.590  -4.772 -23.277  1.00  0.00     0.238 A 
ATOM      4  O   UNL     1      -3.272  -4.156 -22.416  1.00  0.00    -0.285 OA
ATOM      5  C   UNL     1      -3.049  -4.934 -24.607  1.00  0.00     0.111 A 
ATOM      6  C   UNL     1      -4.258  -4.377 -25.122  1.00  0.00     0.134 A 
ATOM      7  C   UNL     1      -4.665  -4.694 -26.425  1.00  0.00     0.093 A 
ATOM      8  C   UNL     1      -3.874  -5.495 -27.251  1.00  0.00     0.123 A 
ATOM      9  C   UNL     1      -2.666  -5.998 -26.776  1.00  0.00     0.094 A 
ATOM     10  C   UNL     1      -2.252  -5.732 -25.469  1.00  0.00     0.146 A 
ATOM     11  O   UNL     1      -1.103  -6.250 -25.050  1.00  0.00    -0.452 OA
ENDROOT
BRANCH   1  12
ATOM     12  C   UNL     1       0.665  -6.718 -23.481  1.00  0.00     0.025 A 
ATOM     13  C   UNL     1       0.692  -8.056 -23.062  1.00  0.00     0.016 A 
ATOM     14  C   UNL     1       1.900  -8.666 -22.717  1.00  0.00     0.051 A 
ATOM     15  C   UNL     1       3.097  -7.944 -22.770  1.00  0.00     0.157 A 
ATOM     16  C   UNL     1       1.867  -5.987 -23.514  1.00  0.00     0.062 A 
ATOM     17  C   UNL     1       3.081  -6.597 -23.167  1.00  0.00     0.158 A 
BRANCH  15  18
ATOM     18  O   UNL     1       4.289  -8.580 -22.422  1.00  0.00    -0.504 OA
ATOM     19  H   UNL     1       4.370  -9.151 -21.590  1.00  0.00     0.293 HD
ENDBRANCH  15  18
BRANCH  17  20
ATOM     20  O   UNL     1       4.268  -5.867 -23.208  1.00  0.00    -0.504 OA
ATOM     21  H   UNL     1       5.172  -6.323 -23.208  1.00  0.00     0.293 HD
ENDBRANCH  17  20
ENDBRANCH   1  12
BRANCH   2  22
ATOM     22  O   UNL     1      -0.853  -5.115 -21.604  1.00  0.00    -0.502 OA
ATOM     23  H   UNL     1      -1.032  -5.752 -20.837  1.00  0.00     0.293 HD
ENDBRANCH   2  22
BRANCH   6  24
ATOM     24  O   UNL     1      -5.079  -3.494 -24.414  1.00  0.00    -0.507 OA
ATOM     25  H   UNL     1      -5.095  -3.399 -23.410  1.00  0.00     0.293 HD
ENDBRANCH   6  24
BRANCH   8  26
ATOM     26  O   UNL     1      -4.277  -5.791 -28.552  1.00  0.00    -0.508 OA
ATOM     27  H   UNL     1      -5.029  -5.282 -29.003  1.00  0.00     0.293 HD
ENDBRANCH   8  26
TORSDOF 6
ENDMDL
MODEL 4
REMARK VINA RESULT:    -4.813      4.034      8.435
REMARK INTER + INTRA:          -5.904
REMARK INTER:                  -5.688
REMARK INTRA:                  -0.216
REMARK UNBOUND:                -0.106
REMARK SMILES O=c1c(O)c(-c2ccc(O)c(O)c2)oc2cc(O)cc(O)c12
REMARK SMILES IDX 5 1 3 2 2 3 1 4 22 5 20 6 19 7 17 8 16 9 15 10 14 11 6 12
REMARK SMILES IDX 7 13 8 14 9 15 13 16 11 17 10 18 12 20 4 22 21 24 18 26
REMARK H PARENT 10 19 12 21 4 23 21 25 18 27
REMARK Flexibility Score: inf
ROOT
ATOM      1  C   UNL     1      -2.095  -2.222 -34.867  1.00  0.00     0.180 A 
ATOM      2  C   UNL     1      -2.494  -3.395 -35.530  1.00  0.00     0.208 A 
ATOM      3  C   UNL     1      -3.291  -4.326 -34.846  1.00  0.00     0.238 A 
ATOM      4  O   UNL     1      -3.707  -5.337 -35.469  1.00  0.00    -0.285 OA
ATOM      5  C   UNL     1      -3.632  -4.101 -33.489  1.00  0.00     0.111 A 
ATOM      6  C   UNL     1      -4.396  -4.999 -32.684  1.00  0.00     0.134 A 
ATOM      7  C   UNL     1      -4.763  -4.621 -31.386  1.00  0.00     0.093 A 
ATOM      8  C   UNL     1      -4.337  -3.407 -30.842  1.00  0.00     0.123 A 
ATOM      9  C   UNL     1      -3.545  -2.550 -31.600  1.00  0.00     0.094 A 
ATOM     10  C   UNL     1      -3.196  -2.880 -32.912  1.00  0.00     0.146 A 
ATOM     11  O   UNL     1      -2.457  -2.023 -33.605  1.00  0.00    -0.452 OA
ENDROOT
BRANCH   1  12
ATOM     12  C   UNL     1      -1.267  -1.186 -35.527  1.00  0.00     0.025 A 
ATOM     13  C   UNL     1      -1.826  -0.407 -36.551  1.00  0.00     0.016 A 
ATOM     14  C   UNL     1      -1.059   0.562 -37.203  1.00  0.00     0.051 A 
ATOM     15  C   UNL     1       0.282   0.756 -36.852  1.00  0.00     0.157 A 
ATOM     16  C   UNL     1       0.087  -1.004 -35.190  1.00  0.00     0.062 A 
ATOM     17  C   UNL     1       0.859  -0.033 -35.843  1.00  0.00     0.158 A 
BRANCH  15  18
ATOM     18  O   UNL     1       1.022   1.732 -37.518  1.00  0.00    -0.504 OA
ATOM     19  H   UNL     1       0.582   2.448 -38.084  1.00  0.00     0.293 HD
ENDBRANCH  15  18
BRANCH  17  20
ATOM     20  O   UNL     1       2.198   0.145 -35.498  1.00  0.00    -0.504 OA
ATOM     21  H   UNL     1       2.723  -0.576 -35.019  1.00  0.00     0.293 HD
ENDBRANCH  17  20
ENDBRANCH   1  12
BRANCH   2  22
ATOM     22  O   UNL     1      -2.084  -3.634 -36.845  1.00  0.00    -0.502 OA
ATOM     23  H   UNL     1      -1.454  -4.389 -37.089  1.00  0.00     0.293 HD
ENDBRANCH   2  22
BRANCH   6  24
ATOM     24  O   UNL     1      -4.798  -6.273 -33.096  1.00  0.00    -0.507 OA
ATOM     25  H   UNL     1      -5.653  -6.478 -33.591  1.00  0.00     0.293 HD
ENDBRANCH   6  24
BRANCH   8  26
ATOM     26  O   UNL     1      -4.691  -3.047 -29.543  1.00  0.00    -0.508 OA
ATOM     27  H   UNL     1      -3.991  -2.892 -28.826  1.00  0.00     0.293 HD
ENDBRANCH   8  26
TORSDOF 6
ENDMDL
MODEL 5
REMARK VINA RESULT:    -4.761      1.406      2.250
REMARK INTER + INTRA:          -5.841
REMARK INTER:                  -5.818
REMARK INTRA:                  -0.023
REMARK UNBOUND:                -0.106
REMARK SMILES O=c1c(O)c(-c2ccc(O)c(O)c2)oc2cc(O)cc(O)c12
REMARK SMILES IDX 5 1 3 2 2 3 1 4 22 5 20 6 19 7 17 8 16 9 15 10 14 11 6 12
REMARK SMILES IDX 7 13 8 14 9 15 13 16 11 17 10 18 12 20 4 22 21 24 18 26
REMARK H PARENT 10 19 12 21 4 23 21 25 18 27
REMARK Flexibility Score: inf
ROOT
ATOM      1  C   UNL     1      -3.077  -5.756 -27.241  1.00  0.00     0.180 A 
ATOM      2  C   UNL     1      -3.125  -7.083 -27.701  1.00  0.00     0.208 A 
ATOM      3  C   UNL     1      -3.289  -7.321 -29.075  1.00  0.00     0.238 A 
ATOM      4  O   UNL     1      -3.256  -8.510 -29.490  1.00  0.00    -0.285 OA
ATOM      5  C   UNL     1      -3.459  -6.233 -29.965  1.00  0.00     0.111 A 
ATOM      6  C   UNL     1      -3.677  -6.358 -31.370  1.00  0.00     0.134 A 
ATOM      7  C   UNL     1      -3.724  -5.207 -32.168  1.00  0.00     0.093 A 
ATOM      8  C   UNL     1      -3.626  -3.934 -31.602  1.00  0.00     0.123 A 
ATOM      9  C   UNL     1      -3.468  -3.800 -30.225  1.00  0.00     0.094 A 
ATOM     10  C   UNL     1      -3.378  -4.930 -29.408  1.00  0.00     0.146 A 
ATOM     11  O   UNL     1      -3.206  -4.755 -28.103  1.00  0.00    -0.452 OA
ENDROOT
BRANCH   1  12
ATOM     12  C   UNL     1      -2.892  -5.424 -25.809  1.00  0.00     0.025 A 
ATOM     13  C   UNL     1      -1.807  -5.974 -25.110  1.00  0.00     0.016 A 
ATOM     14  C   UNL     1      -1.624  -5.692 -23.754  1.00  0.00     0.051 A 
ATOM     15  C   UNL     1      -2.529  -4.872 -23.073  1.00  0.00     0.157 A 
ATOM     16  C   UNL     1      -3.813  -4.617 -25.119  1.00  0.00     0.062 A 
ATOM     17  C   UNL     1      -3.632  -4.334 -23.757  1.00  0.00     0.158 A 
BRANCH  15  18
ATOM     18  O   UNL     1      -2.319  -4.606 -21.720  1.00  0.00    -0.504 OA
ATOM     19  H   UNL     1      -2.095  -5.338 -21.057  1.00  0.00     0.293 HD
ENDBRANCH  15  18
BRANCH  17  20
ATOM     20  O   UNL     1      -4.546  -3.527 -23.082  1.00  0.00    -0.504 OA
ATOM     21  H   UNL     1      -5.495  -3.406 -23.415  1.00  0.00     0.293 HD
ENDBRANCH  17  20
ENDBRANCH   1  12
BRANCH   2  22
ATOM     22  O   UNL     1      -3.032  -8.145 -26.798  1.00  0.00    -0.502 OA
ATOM     23  H   UNL     1      -3.463  -9.046 -26.971  1.00  0.00     0.293 HD
ENDBRANCH   2  22
BRANCH   6  24
ATOM     24  O   UNL     1      -3.877  -7.576 -32.027  1.00  0.00    -0.507 OA
ATOM     25  H   UNL     1      -3.361  -7.890 -32.835  1.00  0.00     0.293 HD
ENDBRANCH   6  24
BRANCH   8  26
ATOM     26  O   UNL     1      -3.692  -2.794 -32.401  1.00  0.00    -0.508 OA
ATOM     27  H   UNL     1      -4.161  -2.803 -33.299  1.00  0.00     0.293 HD
ENDBRANCH   8  26
TORSDOF 6
ENDMDL
MODEL 6
REMARK VINA RESULT:    -4.734      1.566      6.796
REMARK INTER + INTRA:          -5.808
REMARK INTER:                  -5.628
REMARK INTRA:                  -0.180
REMARK UNBOUND:                -0.106
REMARK SMILES O=c1c(O)c(-c2ccc(O)c(O)c2)oc2cc(O)cc(O)c12
REMARK SMILES IDX 5 1 3 2 2 3 1 4 22 5 20 6 19 7 17 8 16 9 15 10 14 11 6 12
REMARK SMILES IDX 7 13 8 14 9 15 13 16 11 17 10 18 12 20 4 22 21 24 18 26
REMARK H PARENT 10 19 12 21 4 23 21 25 18 27
REMARK Flexibility Score: inf
ROOT
ATOM      1  C   UNL     1      -3.670  -5.221 -28.708  1.00  0.00     0.180 A 
ATOM      2  C   UNL     1      -2.972  -6.417 -28.470  1.00  0.00     0.208 A 
ATOM      3  C   UNL     1      -2.739  -6.818 -27.145  1.00  0.00     0.238 A 
ATOM      4  O   UNL     1      -2.179  -7.926 -26.939  1.00  0.00    -0.285 OA
ATOM      5  C   UNL     1      -3.157  -5.990 -26.074  1.00  0.00     0.111 A 
ATOM      6  C   UNL     1      -2.934  -6.274 -24.693  1.00  0.00     0.134 A 
ATOM      7  C   UNL     1      -3.487  -5.434 -23.717  1.00  0.00     0.093 A 
ATOM      8  C   UNL     1      -4.199  -4.287 -24.073  1.00  0.00     0.123 A 
ATOM      9  C   UNL     1      -4.374  -3.972 -25.417  1.00  0.00     0.094 A 
ATOM     10  C   UNL     1      -3.869  -4.810 -26.414  1.00  0.00     0.146 A 
ATOM     11  O   UNL     1      -4.078  -4.482 -27.683  1.00  0.00    -0.452 OA
ENDROOT
BRANCH   1  12
ATOM     12  C   UNL     1      -3.967  -4.740 -30.077  1.00  0.00     0.025 A 
ATOM     13  C   UNL     1      -4.845  -5.475 -30.889  1.00  0.00     0.016 A 
ATOM     14  C   UNL     1      -5.124  -5.053 -32.191  1.00  0.00     0.051 A 
ATOM     15  C   UNL     1      -4.520  -3.901 -32.707  1.00  0.00     0.157 A 
ATOM     16  C   UNL     1      -3.344  -3.595 -30.604  1.00  0.00     0.062 A 
ATOM     17  C   UNL     1      -3.622  -3.170 -31.911  1.00  0.00     0.158 A 
BRANCH  15  18
ATOM     18  O   UNL     1      -4.820  -3.503 -34.009  1.00  0.00    -0.504 OA
ATOM     19  H   UNL     1      -5.745  -3.191 -34.276  1.00  0.00     0.293 HD
ENDBRANCH  15  18
BRANCH  17  20
ATOM     20  O   UNL     1      -3.005  -2.030 -32.423  1.00  0.00    -0.504 OA
ATOM     21  H   UNL     1      -3.517  -1.349 -32.970  1.00  0.00     0.293 HD
ENDBRANCH  17  20
ENDBRANCH   1  12
BRANCH   2  22
ATOM     22  O   UNL     1      -2.501  -7.182 -29.541  1.00  0.00    -0.502 OA
ATOM     23  H   UNL     1      -2.766  -8.151 -29.675  1.00  0.00     0.293 HD
ENDBRANCH   2  22
BRANCH   6  24
ATOM     24  O   UNL     1      -2.162  -7.343 -24.227  1.00  0.00    -0.507 OA
ATOM     25  H   UNL     1      -1.542  -7.306 -23.432  1.00  0.00     0.293 HD
ENDBRANCH   6  24
BRANCH   8  26
ATOM     26  O   UNL     1      -4.730  -3.448 -23.095  1.00  0.00    -0.508 OA
ATOM     27  H   UNL     1      -4.649  -2.440 -23.161  1.00  0.00     0.293 HD
ENDBRANCH   8  26
TORSDOF 6
ENDMDL
MODEL 7
REMARK VINA RESULT:    -4.715      2.350      8.208
REMARK INTER + INTRA:          -5.786
REMARK INTER:                  -5.465
REMARK INTRA:                  -0.320
REMARK UNBOUND:                -0.106
REMARK SMILES O=c1c(O)c(-c2ccc(O)c(O)c2)oc2cc(O)cc(O)c12
REMARK SMILES IDX 5 1 3 2 2 3 1 4 22 5 20 6 19 7 17 8 16 9 15 10 14 11 6 12
REMARK SMILES IDX 7 13 8 14 9 15 13 16 11 17 10 18 12 20 4 22 21 24 18 26
REMARK H PARENT 10 19 12 21 4 23 21 25 18 27
REMARK Flexibility Score: inf
ROOT
ATOM      1  C   UNL     1      -2.410  -5.703 -25.802  1.00  0.00     0.180 A 
ATOM      2  C   UNL     1      -3.260  -4.901 -25.022  1.00  0.00     0.208 A 
ATOM      3  C   UNL     1      -2.969  -4.726 -23.660  1.00  0.00     0.238 A 
ATOM      4  O   UNL     1      -3.692  -3.947 -22.984  1.00  0.00    -0.285 OA
ATOM      5  C   UNL     1      -1.866  -5.399 -23.081  1.00  0.00     0.111 A 
ATOM      6  C   UNL     1      -1.504  -5.331 -21.702  1.00  0.00     0.134 A 
ATOM      7  C   UNL     1      -0.329  -5.955 -21.264  1.00  0.00     0.093 A 
ATOM      8  C   UNL     1       0.463  -6.698 -22.143  1.00  0.00     0.123 A 
ATOM      9  C   UNL     1       0.089  -6.816 -23.478  1.00  0.00     0.094 A 
ATOM     10  C   UNL     1      -1.057  -6.173 -23.954  1.00  0.00     0.146 A 
ATOM     11  O   UNL     1      -1.364  -6.296 -25.240  1.00  0.00    -0.452 OA
ENDROOT
BRANCH   1  12
ATOM     12  C   UNL     1      -2.642  -5.923 -27.249  1.00  0.00     0.025 A 
ATOM     13  C   UNL     1      -2.137  -4.998 -28.175  1.00  0.00     0.016 A 
ATOM     14  C   UNL     1      -2.362  -5.173 -29.543  1.00  0.00     0.051 A 
ATOM     15  C   UNL     1      -3.105  -6.264 -30.004  1.00  0.00     0.157 A 
ATOM     16  C   UNL     1      -3.407  -7.008 -27.712  1.00  0.00     0.062 A 
ATOM     17  C   UNL     1      -3.634  -7.185 -29.085  1.00  0.00     0.158 A 
BRANCH  15  18
ATOM     18  O   UNL     1      -3.310  -6.415 -31.375  1.00  0.00    -0.504 OA
ATOM     19  H   UNL     1      -3.801  -7.212 -31.761  1.00  0.00     0.293 HD
ENDBRANCH  15  18
BRANCH  17  20
ATOM     20  O   UNL     1      -4.388  -8.267 -29.536  1.00  0.00    -0.504 OA
ATOM     21  H   UNL     1      -5.062  -8.170 -30.285  1.00  0.00     0.293 HD
ENDBRANCH  17  20
ENDBRANCH   1  12
BRANCH   2  22
ATOM     22  O   UNL     1      -4.387  -4.306 -25.594  1.00  0.00    -0.502 OA
ATOM     23  H   UNL     1      -4.484  -3.301 -25.687  1.00  0.00     0.293 HD
ENDBRANCH   2  22
BRANCH   6  24
ATOM     24  O   UNL     1      -2.269  -4.691 -20.722  1.00  0.00    -0.507 OA
ATOM     25  H   UNL     1      -3.118  -5.060 -20.319  1.00  0.00     0.293 HD
ENDBRANCH   6  24
BRANCH   8  26
ATOM     26  O   UNL     1       1.621  -7.330 -21.694  1.00  0.00    -0.508 OA
ATOM     27  H   UNL     1       2.018  -7.127 -20.784  1.00  0.00     0.293 HD
ENDBRANCH   8  26
TORSDOF 6
ENDMDL
MODEL 8
REMARK VINA RESULT:    -4.606      3.561      6.970
REMARK INTER + INTRA:          -5.654
REMARK INTER:                  -5.322
REMARK INTRA:                  -0.333
REMARK UNBOUND:                -0.106
REMARK SMILES O=c1c(O)c(-c2ccc(O)c(O)c2)oc2cc(O)cc(O)c12
REMARK SMILES IDX 5 1 3 2 2 3 1 4 22 5 20 6 19 7 17 8 16 9 15 10 14 11 6 12
REMARK SMILES IDX 7 13 8 14 9 15 13 16 11 17 10 18 12 20 4 22 21 24 18 26
REMARK H PARENT 10 19 12 21 4 23 21 25 18 27
REMARK Flexibility Score: inf
ROOT
ATOM      1  C   UNL     1      -1.071  -5.772 -23.054  1.00  0.00     0.180 A 
ATOM      2  C   UNL     1      -2.161  -5.010 -22.599  1.00  0.00     0.208 A 
ATOM      3  C   UNL     1      -3.169  -4.652 -23.509  1.00  0.00     0.238 A 
ATOM      4  O   UNL     1      -4.178  -4.035 -23.080  1.00  0.00    -0.285 OA
ATOM      5  C   UNL     1      -3.047  -5.012 -24.874  1.00  0.00     0.111 A 
ATOM      6  C   UNL     1      -3.984  -4.664 -25.893  1.00  0.00     0.134 A 
ATOM      7  C   UNL     1      -3.814  -5.167 -27.189  1.00  0.00     0.093 A 
ATOM      8  C   UNL     1      -2.706  -5.950 -27.518  1.00  0.00     0.123 A 
ATOM      9  C   UNL     1      -1.757  -6.249 -26.544  1.00  0.00     0.094 A 
ATOM     10  C   UNL     1      -1.919  -5.795 -25.233  1.00  0.00     0.146 A 
ATOM     11  O   UNL     1      -1.000  -6.122 -24.332  1.00  0.00    -0.452 OA
ENDROOT
BRANCH   1  12
ATOM     12  C   UNL     1       0.023  -6.200 -22.151  1.00  0.00     0.025 A 
ATOM     13  C   UNL     1       1.189  -5.426 -22.067  1.00  0.00     0.016 A 
ATOM     14  C   UNL     1       2.242  -5.820 -21.238  1.00  0.00     0.051 A 
ATOM     15  C   UNL     1       2.152  -7.002 -20.494  1.00  0.00     0.157 A 
ATOM     16  C   UNL     1      -0.058  -7.398 -21.419  1.00  0.00     0.062 A 
ATOM     17  C   UNL     1       0.999  -7.797 -20.588  1.00  0.00     0.158 A 
BRANCH  15  18
ATOM     18  O   UNL     1       3.218  -7.369 -19.674  1.00  0.00    -0.504 OA
ATOM     19  H   UNL     1       4.107  -7.673 -20.051  1.00  0.00     0.293 HD
ENDBRANCH  15  18
BRANCH  17  20
ATOM     20  O   UNL     1       0.907  -8.983 -19.861  1.00  0.00    -0.504 OA
ATOM     21  H   UNL     1       1.348  -9.086 -18.954  1.00  0.00     0.293 HD
ENDBRANCH  17  20
ENDBRANCH   1  12
BRANCH   2  22
ATOM     22  O   UNL     1      -2.225  -4.600 -21.265  1.00  0.00    -0.502 OA
ATOM     23  H   UNL     1      -2.522  -5.219 -20.519  1.00  0.00     0.293 HD
ENDBRANCH   2  22
BRANCH   6  24
ATOM     24  O   UNL     1      -5.078  -3.815 -25.695  1.00  0.00    -0.507 OA
ATOM     25  H   UNL     1      -5.156  -3.137 -24.953  1.00  0.00     0.293 HD
ENDBRANCH   6  24
BRANCH   8  26
ATOM     26  O   UNL     1      -2.535  -6.431 -28.815  1.00  0.00    -0.508 OA
ATOM     27  H   UNL     1      -1.704  -6.216 -29.355  1.00  0.00     0.293 HD
ENDBRANCH   8  26
TORSDOF 6
ENDMDL
MODEL 9
REMARK VINA RESULT:    -4.598     19.998     22.031
REMARK INTER + INTRA:          -5.645
REMARK INTER:                  -5.557
REMARK INTRA:                  -0.088
REMARK UNBOUND:                -0.106
REMARK SMILES O=c1c(O)c(-c2ccc(O)c(O)c2)oc2cc(O)cc(O)c12
REMARK SMILES IDX 5 1 3 2 2 3 1 4 22 5 20 6 19 7 17 8 16 9 15 10 14 11 6 12
REMARK SMILES IDX 7 13 8 14 9 15 13 16 11 17 10 18 12 20 4 22 21 24 18 26
REMARK H PARENT 10 19 12 21 4 23 21 25 18 27
REMARK Flexibility Score: inf
ROOT
ATOM      1  C   UNL     1       9.327   9.605 -21.204  1.00  0.00     0.180 A 
ATOM      2  C   UNL     1       9.557   9.480 -22.585  1.00  0.00     0.208 A 
ATOM      3  C   UNL     1      10.874   9.565 -23.066  1.00  0.00     0.238 A 
ATOM      4  O   UNL     1      11.081   9.378 -24.294  1.00  0.00    -0.285 OA
ATOM      5  C   UNL     1      11.937   9.830 -22.169  1.00  0.00     0.111 A 
ATOM      6  C   UNL     1      13.304   9.982 -22.551  1.00  0.00     0.134 A 
ATOM      7  C   UNL     1      14.285  10.136 -21.563  1.00  0.00     0.093 A 
ATOM      8  C   UNL     1      13.941  10.208 -20.211  1.00  0.00     0.123 A 
ATOM      9  C   UNL     1      12.604  10.117 -19.833  1.00  0.00     0.094 A 
ATOM     10  C   UNL     1      11.607   9.924 -20.791  1.00  0.00     0.146 A 
ATOM     11  O   UNL     1      10.348   9.821 -20.383  1.00  0.00    -0.452 OA
ENDROOT
BRANCH   1  12
ATOM     12  C   UNL     1       7.969   9.512 -20.620  1.00  0.00     0.025 A 
ATOM     13  C   UNL     1       7.689   8.503 -19.686  1.00  0.00     0.016 A 
ATOM     14  C   UNL     1       6.410   8.382 -19.137  1.00  0.00     0.051 A 
ATOM     15  C   UNL     1       5.389   9.256 -19.524  1.00  0.00     0.157 A 
ATOM     16  C   UNL     1       6.936  10.376 -21.024  1.00  0.00     0.062 A 
ATOM     17  C   UNL     1       5.651  10.256 -20.475  1.00  0.00     0.158 A 
BRANCH  15  18
ATOM     18  O   UNL     1       4.123   9.113 -18.958  1.00  0.00    -0.504 OA
ATOM     19  H   UNL     1       3.547   9.911 -18.719  1.00  0.00     0.293 HD
ENDBRANCH  15  18
BRANCH  17  20
ATOM     20  O   UNL     1       4.635  11.121 -20.876  1.00  0.00    -0.504 OA
ATOM     21  H   UNL     1       3.942  10.846 -21.562  1.00  0.00     0.293 HD
ENDBRANCH  17  20
ENDBRANCH   1  12
BRANCH   2  22
ATOM     22  O   UNL     1       8.486   9.295 -23.464  1.00  0.00    -0.502 OA
ATOM     23  H   UNL     1       7.726   8.655 -23.266  1.00  0.00     0.293 HD
ENDBRANCH   2  22
BRANCH   6  24
ATOM     24  O   UNL     1      13.748  10.014 -23.877  1.00  0.00    -0.507 OA
ATOM     25  H   UNL     1      14.151  10.819 -24.332  1.00  0.00     0.293 HD
ENDBRANCH   6  24
BRANCH   8  26
ATOM     26  O   UNL     1      14.921  10.380 -19.236  1.00  0.00    -0.508 OA
ATOM     27  H   UNL     1      14.844   9.945 -18.324  1.00  0.00     0.293 HD
ENDBRANCH   8  26
TORSDOF 6
ENDMDL
