MODEL 1
REMARK VINA RESULT:    -2.966      0.000      0.000
REMARK INTER + INTRA:          -3.605
REMARK INTER:                  -3.486
REMARK INTRA:                  -0.119
REMARK UNBOUND:                -0.119
REMARK SMILES O=C([O-])CCC(=O)[O-]
REMARK SMILES IDX 4 1 2 2 1 3 3 4 5 5 6 6 7 7 8 8
REMARK H PARENT
REMARK Flexibility Score: inf
ROOT
ATOM      1  C   UNL     1     119.991 145.620 133.571  1.00  0.00     0.059 C 
ENDROOT
BRANCH   1   2
ATOM      2  C   UNL     1     118.525 145.675 133.868  1.00  0.00     0.042 C 
ATOM      3  O   UNL     1     118.105 145.426 135.028  1.00  0.00    -0.550 OA
ATOM      4  O   UNL     1     117.620 145.955 132.852  1.00  0.00    -0.550 OA
ENDBRANCH   1   2
BRANCH   1   5
ATOM      5  C   UNL     1     120.634 146.991 133.789  1.00  0.00     0.059 C 
BRANCH   5   6
ATOM      6  C   UNL     1     120.667 147.764 132.508  1.00  0.00     0.042 C 
ATOM      7  O   UNL     1     121.318 147.328 131.522  1.00  0.00    -0.550 OA
ATOM      8  O   UNL     1     119.941 148.941 132.388  1.00  0.00    -0.550 OA
ENDBRANCH   5   6
ENDBRANCH   1   5
TORSDOF 3
ENDMDL
MODEL 2
REMARK VINA RESULT:    -2.947      0.407      3.658
REMARK INTER + INTRA:          -3.584
REMARK INTER:                  -3.477
REMARK INTRA:                  -0.106
REMARK UNBOUND:                -0.119
REMARK SMILES O=C([O-])CCC(=O)[O-]
REMARK SMILES IDX 4 1 2 2 1 3 3 4 5 5 6 6 7 7 8 8
REMARK H PARENT
REMARK Flexibility Score: inf
ROOT
ATOM      1  C   UNL     1     120.551 147.359 133.495  1.00  0.00     0.059 C 
ENDROOT
BRANCH   1   2
ATOM      2  C   UNL     1     120.446 148.099 132.198  1.00  0.00     0.042 C 
ATOM      3  O   UNL     1     119.889 149.227 132.156  1.00  0.00    -0.550 OA
ATOM      4  O   UNL     1     120.920 147.520 131.028  1.00  0.00    -0.550 OA
ENDBRANCH   1   2
BRANCH   1   5
ATOM      5  C   UNL     1     120.076 145.915 133.328  1.00  0.00     0.059 C 
BRANCH   5   6
ATOM      6  C   UNL     1     118.624 145.798 133.666  1.00  0.00     0.042 C 
ATOM      7  O   UNL     1     117.751 145.958 132.773  1.00  0.00    -0.550 OA
ATOM      8  O   UNL     1     118.236 145.464 134.957  1.00  0.00    -0.550 OA
ENDBRANCH   5   6
ENDBRANCH   1   5
TORSDOF 3
ENDMDL
MODEL 3
REMARK VINA RESULT:    -2.938      2.936      4.284
REMARK INTER + INTRA:          -3.572
REMARK INTER:                  -3.453
REMARK INTRA:                  -0.119
REMARK UNBOUND:                -0.119
REMARK SMILES O=C([O-])CCC(=O)[O-]
REMARK SMILES IDX 4 1 2 2 1 3 3 4 5 5 6 6 7 7 8 8
REMARK H PARENT
REMARK Flexibility Score: inf
ROOT
ATOM      1  C   UNL     1     121.590 145.384 133.864  1.00  0.00     0.059 C 
ENDROOT
BRANCH   1   2
ATOM      2  C   UNL     1     120.463 146.365 133.932  1.00  0.00     0.042 C 
ATOM      3  O   UNL     1     119.325 145.997 134.326  1.00  0.00    -0.550 OA
ATOM      4  O   UNL     1     120.656 147.676 133.514  1.00  0.00    -0.550 OA
ENDBRANCH   1   2
BRANCH   1   5
ATOM      5  C   UNL     1     122.206 145.179 135.249  1.00  0.00     0.059 C 
BRANCH   5   6
ATOM      6  C   UNL     1     121.841 143.833 135.792  1.00  0.00     0.042 C 
ATOM      7  O   UNL     1     121.027 143.100 135.171  1.00  0.00    -0.550 OA
ATOM      8  O   UNL     1     122.438 143.369 136.957  1.00  0.00    -0.550 OA
ENDBRANCH   5   6
ENDBRANCH   1   5
TORSDOF 3
ENDMDL
MODEL 4
REMARK VINA RESULT:    -2.934      2.394      2.890
REMARK INTER + INTRA:          -3.567
REMARK INTER:                  -3.473
REMARK INTRA:                  -0.094
REMARK UNBOUND:                -0.119
REMARK SMILES O=C([O-])CCC(=O)[O-]
REMARK SMILES IDX 4 1 2 2 1 3 3 4 5 5 6 6 7 7 8 8
REMARK H PARENT
REMARK Flexibility Score: inf
ROOT
ATOM      1  C   UNL     1     121.153 145.098 133.763  1.00  0.00     0.059 C 
ENDROOT
BRANCH   1   2
ATOM      2  C   UNL     1     121.813 144.705 135.046  1.00  0.00     0.042 C 
ATOM      3  O   UNL     1     122.818 145.340 135.462  1.00  0.00    -0.550 OA
ATOM      4  O   UNL     1     121.348 143.608 135.760  1.00  0.00    -0.550 OA
ENDBRANCH   1   2
BRANCH   1   5
ATOM      5  C   UNL     1     120.412 146.426 133.925  1.00  0.00     0.059 C 
BRANCH   5   6
ATOM      6  C   UNL     1     120.878 147.415 132.903  1.00  0.00     0.042 C 
ATOM      7  O   UNL     1     121.870 147.152 132.174  1.00  0.00    -0.550 OA
ATOM      8  O   UNL     1     120.186 148.605 132.723  1.00  0.00    -0.550 OA
ENDBRANCH   5   6
ENDBRANCH   1   5
TORSDOF 3
ENDMDL
MODEL 5
REMARK VINA RESULT:    -2.918     16.694     17.666
REMARK INTER + INTRA:          -3.549
REMARK INTER:                  -3.438
REMARK INTRA:                  -0.111
REMARK UNBOUND:                -0.119
REMARK SMILES O=C([O-])CCC(=O)[O-]
REMARK SMILES IDX 4 1 2 2 1 3 3 4 5 5 6 6 7 7 8 8
REMARK H PARENT
REMARK Flexibility Score: inf
ROOT
ATOM      1  C   UNL     1     129.314 160.176 134.857  1.00  0.00     0.059 C 
ENDROOT
BRANCH   1   2
ATOM      2  C   UNL     1     128.751 161.018 135.957  1.00  0.00     0.042 C 
ATOM      3  O   UNL     1     129.105 162.220 136.079  1.00  0.00    -0.550 OA
ATOM      4  O   UNL     1     127.872 160.463 136.878  1.00  0.00    -0.550 OA
ENDBRANCH   1   2
BRANCH   1   5
ATOM      5  C   UNL     1     129.049 160.822 133.497  1.00  0.00     0.059 C 
BRANCH   5   6
ATOM      6  C   UNL     1     130.321 161.345 132.907  1.00  0.00     0.042 C 
ATOM      7  O   UNL     1     131.368 161.394 133.604  1.00  0.00    -0.550 OA
ATOM      8  O   UNL     1     130.361 161.733 131.574  1.00  0.00    -0.550 OA
ENDBRANCH   5   6
ENDBRANCH   1   5
TORSDOF 3
ENDMDL
MODEL 6
REMARK VINA RESULT:    -2.908     16.689     17.890
REMARK INTER + INTRA:          -3.537
REMARK INTER:                  -3.419
REMARK INTRA:                  -0.119
REMARK UNBOUND:                -0.119
REMARK SMILES O=C([O-])CCC(=O)[O-]
REMARK SMILES IDX 4 1 2 2 1 3 3 4 5 5 6 6 7 7 8 8
REMARK H PARENT
REMARK Flexibility Score: inf
ROOT
ATOM      1  C   UNL     1     129.023 160.751 133.571  1.00  0.00     0.059 C 
ENDROOT
BRANCH   1   2
ATOM      2  C   UNL     1     130.311 161.217 132.970  1.00  0.00     0.042 C 
ATOM      3  O   UNL     1     130.361 161.543 131.755  1.00  0.00    -0.550 OA
ATOM      4  O   UNL     1     131.468 161.245 133.739  1.00  0.00    -0.550 OA
ENDBRANCH   1   2
BRANCH   1   5
ATOM      5  C   UNL     1     129.269 160.128 134.947  1.00  0.00     0.059 C 
BRANCH   5   6
ATOM      6  C   UNL     1     128.689 160.989 136.024  1.00  0.00     0.042 C 
ATOM      7  O   UNL     1     127.914 160.493 136.883  1.00  0.00    -0.550 OA
ATOM      8  O   UNL     1     129.044 162.329 136.108  1.00  0.00    -0.550 OA
ENDBRANCH   5   6
ENDBRANCH   1   5
TORSDOF 3
ENDMDL
MODEL 7
REMARK VINA RESULT:    -2.900     16.490     18.329
REMARK INTER + INTRA:          -3.528
REMARK INTER:                  -3.426
REMARK INTRA:                  -0.102
REMARK UNBOUND:                -0.119
REMARK SMILES O=C([O-])CCC(=O)[O-]
REMARK SMILES IDX 4 1 2 2 1 3 3 4 5 5 6 6 7 7 8 8
REMARK H PARENT
REMARK Flexibility Score: inf
ROOT
ATOM      1  C   UNL     1     130.799 161.178 133.455  1.00  0.00     0.059 C 
ENDROOT
BRANCH   1   2
ATOM      2  C   UNL     1     132.078 161.209 134.230  1.00  0.00     0.042 C 
ATOM      3  O   UNL     1     132.364 160.270 135.018  1.00  0.00    -0.550 OA
ATOM      4  O   UNL     1     132.931 162.299 134.120  1.00  0.00    -0.550 OA
ENDBRANCH   1   2
BRANCH   1   5
ATOM      5  C   UNL     1     129.650 161.740 134.293  1.00  0.00     0.059 C 
BRANCH   5   6
ATOM      6  C   UNL     1     128.885 160.631 134.944  1.00  0.00     0.042 C 
ATOM      7  O   UNL     1     128.663 159.562 134.317  1.00  0.00    -0.550 OA
ATOM      8  O   UNL     1     128.458 160.760 136.259  1.00  0.00    -0.550 OA
ENDBRANCH   5   6
ENDBRANCH   1   5
TORSDOF 3
ENDMDL
MODEL 8
REMARK VINA RESULT:    -2.896      2.374      4.122
REMARK INTER + INTRA:          -3.523
REMARK INTER:                  -3.418
REMARK INTRA:                  -0.105
REMARK UNBOUND:                -0.119
REMARK SMILES O=C([O-])CCC(=O)[O-]
REMARK SMILES IDX 4 1 2 2 1 3 3 4 5 5 6 6 7 7 8 8
REMARK H PARENT
REMARK Flexibility Score: inf
ROOT
ATOM      1  C   UNL     1     120.559 146.575 134.025  1.00  0.00     0.059 C 
ENDROOT
BRANCH   1   2
ATOM      2  C   UNL     1     120.974 147.365 132.824  1.00  0.00     0.042 C 
ATOM      3  O   UNL     1     122.001 147.036 132.174  1.00  0.00    -0.550 OA
ATOM      4  O   UNL     1     120.254 148.493 132.452  1.00  0.00    -0.550 OA
ENDBRANCH   1   2
BRANCH   1   5
ATOM      5  C   UNL     1     120.918 145.099 133.846  1.00  0.00     0.059 C 
BRANCH   5   6
ATOM      6  C   UNL     1     121.720 144.609 135.010  1.00  0.00     0.042 C 
ATOM      7  O   UNL     1     122.733 145.249 135.395  1.00  0.00    -0.550 OA
ATOM      8  O   UNL     1     121.319 143.473 135.701  1.00  0.00    -0.550 OA
ENDBRANCH   5   6
ENDBRANCH   1   5
TORSDOF 3
ENDMDL
MODEL 9
REMARK VINA RESULT:    -2.895     16.485     18.082
REMARK INTER + INTRA:          -3.522
REMARK INTER:                  -3.424
REMARK INTRA:                  -0.098
REMARK UNBOUND:                -0.119
REMARK SMILES O=C([O-])CCC(=O)[O-]
REMARK SMILES IDX 4 1 2 2 1 3 3 4 5 5 6 6 7 7 8 8
REMARK H PARENT
REMARK Flexibility Score: inf
ROOT
ATOM      1  C   UNL     1     129.657 161.736 134.258  1.00  0.00     0.059 C 
ENDROOT
BRANCH   1   2
ATOM      2  C   UNL     1     128.900 160.629 134.919  1.00  0.00     0.042 C 
ATOM      3  O   UNL     1     128.572 159.606 134.263  1.00  0.00    -0.550 OA
ATOM      4  O   UNL     1     128.515 160.747 136.248  1.00  0.00    -0.550 OA
ENDBRANCH   1   2
BRANCH   1   5
ATOM      5  C   UNL     1     130.806 161.174 133.419  1.00  0.00     0.059 C 
BRANCH   5   6
ATOM      6  C   UNL     1     132.084 161.200 134.196  1.00  0.00     0.042 C 
ATOM      7  O   UNL     1     132.389 160.236 134.947  1.00  0.00    -0.550 OA
ATOM      8  O   UNL     1     132.963 162.267 134.054  1.00  0.00    -0.550 OA
ENDBRANCH   5   6
ENDBRANCH   1   5
TORSDOF 3
ENDMDL
