MODEL 1
REMARK VINA RESULT:    -1.764      0.000      0.000
REMARK INTER + INTRA:          -1.764
REMARK INTER:                  -1.764
REMARK INTRA:                   0.000
REMARK UNBOUND:                 0.000
REMARK SMILES CC(=O)[O-]
REMARK SMILES IDX 1 1 2 2 3 3 4 4
REMARK H PARENT
REMARK Flexibility Score: inf
ROOT
ATOM      1  C   UNL     1      54.707  27.659  50.094  1.00  0.00     0.063 C 
ATOM      2  C   UNL     1      55.145  26.284  49.716  1.00  0.00     0.038 C 
ATOM      3  O   UNL     1      56.306  25.890  50.002  1.00  0.00    -0.550 OA
ATOM      4  O   UNL     1      54.292  25.454  48.999  1.00  0.00    -0.550 OA
ENDROOT
TORSDOF 0
ENDMDL
MODEL 2
REMARK VINA RESULT:    -1.750      4.622      5.050
REMARK INTER + INTRA:          -1.750
REMARK INTER:                  -1.750
REMARK INTRA:                   0.000
REMARK UNBOUND:                 0.000
REMARK SMILES CC(=O)[O-]
REMARK SMILES IDX 1 1 2 2 3 3 4 4
REMARK H PARENT
REMARK Flexibility Score: inf
ROOT
ATOM      1  C   UNL     1      59.196  28.885  49.317  1.00  0.00     0.063 C 
ATOM      2  C   UNL     1      59.984  27.618  49.321  1.00  0.00     0.038 C 
ATOM      3  O   UNL     1      61.240  27.655  49.246  1.00  0.00    -0.550 OA
ATOM      4  O   UNL     1      59.330  26.392  49.353  1.00  0.00    -0.550 OA
ENDROOT
TORSDOF 0
ENDMDL
MODEL 3
REMARK VINA RESULT:    -1.748     16.502     17.183
REMARK INTER + INTRA:          -1.748
REMARK INTER:                  -1.748
REMARK INTRA:                   0.000
REMARK UNBOUND:                 0.000
REMARK SMILES CC(=O)[O-]
REMARK SMILES IDX 1 1 2 2 3 3 4 4
REMARK H PARENT
REMARK Flexibility Score: inf
ROOT
ATOM      1  C   UNL     1      62.890  35.591  61.031  1.00  0.00     0.063 C 
ATOM      2  C   UNL     1      64.194  34.933  61.337  1.00  0.00     0.038 C 
ATOM      3  O   UNL     1      64.347  33.703  61.115  1.00  0.00    -0.550 OA
ATOM      4  O   UNL     1      65.223  35.664  61.917  1.00  0.00    -0.550 OA
ENDROOT
TORSDOF 0
ENDMDL
MODEL 4
REMARK VINA RESULT:    -1.745     14.197     14.608
REMARK INTER + INTRA:          -1.745
REMARK INTER:                  -1.745
REMARK INTRA:                   0.000
REMARK UNBOUND:                 0.000
REMARK SMILES CC(=O)[O-]
REMARK SMILES IDX 1 1 2 2 3 3 4 4
REMARK H PARENT
REMARK Flexibility Score: inf
ROOT
ATOM      1  C   UNL     1      61.230  30.849  61.726  1.00  0.00     0.063 C 
ATOM      2  C   UNL     1      62.397  29.919  61.717  1.00  0.00     0.038 C 
ATOM      3  O   UNL     1      62.212  28.674  61.746  1.00  0.00    -0.550 OA
ATOM      4  O   UNL     1      63.690  30.426  61.732  1.00  0.00    -0.550 OA
ENDROOT
TORSDOF 0
ENDMDL
MODEL 5
REMARK VINA RESULT:    -1.731      1.481      2.091
REMARK INTER + INTRA:          -1.731
REMARK INTER:                  -1.731
REMARK INTRA:                   0.000
REMARK UNBOUND:                 0.000
REMARK SMILES CC(=O)[O-]
REMARK SMILES IDX 1 1 2 2 3 3 4 4
REMARK H PARENT
REMARK Flexibility Score: inf
ROOT
ATOM      1  C   UNL     1      53.725  25.490  49.083  1.00  0.00     0.063 C 
ATOM      2  C   UNL     1      54.744  26.421  49.649  1.00  0.00     0.038 C 
ATOM      3  O   UNL     1      54.473  27.642  49.795  1.00  0.00    -0.550 OA
ATOM      4  O   UNL     1      56.014  25.953  49.966  1.00  0.00    -0.550 OA
ENDROOT
TORSDOF 0
ENDMDL
MODEL 6
REMARK VINA RESULT:    -1.637      7.463      7.707
REMARK INTER + INTRA:          -1.637
REMARK INTER:                  -1.637
REMARK INTRA:                   0.000
REMARK UNBOUND:                 0.000
REMARK SMILES CC(=O)[O-]
REMARK SMILES IDX 1 1 2 2 3 3 4 4
REMARK H PARENT
REMARK Flexibility Score: inf
ROOT
ATOM      1  C   UNL     1      56.316  19.091  52.279  1.00  0.00     0.063 C 
ATOM      2  C   UNL     1      56.073  18.826  50.831  1.00  0.00     0.038 C 
ATOM      3  O   UNL     1      56.926  18.196  50.153  1.00  0.00    -0.550 OA
ATOM      4  O   UNL     1      54.930  19.320  50.215  1.00  0.00    -0.550 OA
ENDROOT
TORSDOF 0
ENDMDL
MODEL 7
REMARK VINA RESULT:    -1.635     20.555     21.160
REMARK INTER + INTRA:          -1.635
REMARK INTER:                  -1.635
REMARK INTRA:                   0.000
REMARK UNBOUND:                 0.000
REMARK SMILES CC(=O)[O-]
REMARK SMILES IDX 1 1 2 2 3 3 4 4
REMARK H PARENT
REMARK Flexibility Score: inf
ROOT
ATOM      1  C   UNL     1      72.057  32.048  60.644  1.00  0.00     0.063 C 
ATOM      2  C   UNL     1      71.951  30.838  61.510  1.00  0.00     0.038 C 
ATOM      3  O   UNL     1      70.869  30.197  61.569  1.00  0.00    -0.550 OA
ATOM      4  O   UNL     1      73.029  30.446  62.294  1.00  0.00    -0.550 OA
ENDROOT
TORSDOF 0
ENDMDL
MODEL 8
REMARK VINA RESULT:    -1.632     20.082     20.711
REMARK INTER + INTRA:          -1.632
REMARK INTER:                  -1.632
REMARK INTRA:                   0.000
REMARK UNBOUND:                 0.000
REMARK SMILES CC(=O)[O-]
REMARK SMILES IDX 1 1 2 2 3 3 4 4
REMARK H PARENT
REMARK Flexibility Score: inf
ROOT
ATOM      1  C   UNL     1      72.593  31.288  61.188  1.00  0.00     0.063 C 
ATOM      2  C   UNL     1      71.618  32.155  60.464  1.00  0.00     0.038 C 
ATOM      3  O   UNL     1      70.853  31.657  59.598  1.00  0.00    -0.550 OA
ATOM      4  O   UNL     1      71.591  33.523  60.705  1.00  0.00    -0.550 OA
ENDROOT
TORSDOF 0
ENDMDL
MODEL 9
REMARK VINA RESULT:    -1.616     20.462     21.034
REMARK INTER + INTRA:          -1.616
REMARK INTER:                  -1.616
REMARK INTRA:                   0.000
REMARK UNBOUND:                 0.000
REMARK SMILES CC(=O)[O-]
REMARK SMILES IDX 1 1 2 2 3 3 4 4
REMARK H PARENT
REMARK Flexibility Score: inf
ROOT
ATOM      1  C   UNL     1      73.125  30.607  62.074  1.00  0.00     0.063 C 
ATOM      2  C   UNL     1      71.895  30.988  61.321  1.00  0.00     0.038 C 
ATOM      3  O   UNL     1      71.854  32.074  60.686  1.00  0.00    -0.550 OA
ATOM      4  O   UNL     1      70.771  30.172  61.364  1.00  0.00    -0.550 OA
ENDROOT
TORSDOF 0
ENDMDL
