MODEL 1
REMARK VINA RESULT:    -2.451      0.000      0.000
REMARK INTER + INTRA:          -2.451
REMARK INTER:                  -2.451
REMARK INTRA:                   0.000
REMARK UNBOUND:                 0.000
REMARK SMILES CC(=O)[O-]
REMARK SMILES IDX 1 1 2 2 3 3 4 4
REMARK H PARENT
REMARK Flexibility Score: inf
ROOT
ATOM      1  C   UNL     1     -35.750  -8.256 112.316  1.00  0.00     0.063 C 
ATOM      2  C   UNL     1     -35.160  -8.840 111.078  1.00  0.00     0.038 C 
ATOM      3  O   UNL     1     -35.880  -9.030 110.064  1.00  0.00    -0.550 OA
ATOM      4  O   UNL     1     -33.802  -9.125 111.023  1.00  0.00    -0.550 OA
ENDROOT
TORSDOF 0
ENDMDL
MODEL 2
REMARK VINA RESULT:    -2.372      1.451      2.127
REMARK INTER + INTRA:          -2.372
REMARK INTER:                  -2.372
REMARK INTRA:                   0.000
REMARK UNBOUND:                 0.000
REMARK SMILES CC(=O)[O-]
REMARK SMILES IDX 1 1 2 2 3 3 4 4
REMARK H PARENT
REMARK Flexibility Score: inf
ROOT
ATOM      1  C   UNL     1     -33.988  -9.097 111.265  1.00  0.00     0.063 C 
ATOM      2  C   UNL     1     -35.432  -8.746 111.384  1.00  0.00     0.038 C 
ATOM      3  O   UNL     1     -35.845  -8.101 112.384  1.00  0.00    -0.550 OA
ATOM      4  O   UNL     1     -36.316  -9.082 110.368  1.00  0.00    -0.550 OA
ENDROOT
TORSDOF 0
ENDMDL
MODEL 3
REMARK VINA RESULT:    -2.321     18.783     18.921
REMARK INTER + INTRA:          -2.321
REMARK INTER:                  -2.321
REMARK INTRA:                   0.000
REMARK UNBOUND:                 0.000
REMARK SMILES CC(=O)[O-]
REMARK SMILES IDX 1 1 2 2 3 3 4 4
REMARK H PARENT
REMARK Flexibility Score: inf
ROOT
ATOM      1  C   UNL     1     -36.236   9.644 111.358  1.00  0.00     0.063 C 
ATOM      2  C   UNL     1     -35.468  10.089 110.159  1.00  0.00     0.038 C 
ATOM      3  O   UNL     1     -35.824  11.118 109.528  1.00  0.00    -0.550 OA
ATOM      4  O   UNL     1     -34.329   9.399 109.767  1.00  0.00    -0.550 OA
ENDROOT
TORSDOF 0
ENDMDL
MODEL 4
REMARK VINA RESULT:    -2.273     18.587     18.789
REMARK INTER + INTRA:          -2.273
REMARK INTER:                  -2.273
REMARK INTRA:                   0.000
REMARK UNBOUND:                 0.000
REMARK SMILES CC(=O)[O-]
REMARK SMILES IDX 1 1 2 2 3 3 4 4
REMARK H PARENT
REMARK Flexibility Score: inf
ROOT
ATOM      1  C   UNL     1     -34.495   9.500 110.138  1.00  0.00     0.063 C 
ATOM      2  C   UNL     1     -35.914   9.817 110.472  1.00  0.00     0.038 C 
ATOM      3  O   UNL     1     -36.298   9.806 111.670  1.00  0.00    -0.550 OA
ATOM      4  O   UNL     1     -36.801  10.176 109.466  1.00  0.00    -0.550 OA
ENDROOT
TORSDOF 0
ENDMDL
MODEL 5
REMARK VINA RESULT:    -2.048     18.190     18.797
REMARK INTER + INTRA:          -2.048
REMARK INTER:                  -2.048
REMARK INTRA:                   0.000
REMARK UNBOUND:                 0.000
REMARK SMILES CC(=O)[O-]
REMARK SMILES IDX 1 1 2 2 3 3 4 4
REMARK H PARENT
REMARK Flexibility Score: inf
ROOT
ATOM      1  C   UNL     1     -49.049   3.149 115.189  1.00  0.00     0.063 C 
ATOM      2  C   UNL     1     -48.136   4.163 114.589  1.00  0.00     0.038 C 
ATOM      3  O   UNL     1     -46.939   3.865 114.339  1.00  0.00    -0.550 OA
ATOM      4  O   UNL     1     -48.617   5.421 114.254  1.00  0.00    -0.550 OA
ENDROOT
TORSDOF 0
ENDMDL
MODEL 6
REMARK VINA RESULT:    -2.013     18.084     18.380
REMARK INTER + INTRA:          -2.013
REMARK INTER:                  -2.013
REMARK INTRA:                   0.000
REMARK UNBOUND:                 0.000
REMARK SMILES CC(=O)[O-]
REMARK SMILES IDX 1 1 2 2 3 3 4 4
REMARK H PARENT
REMARK Flexibility Score: inf
ROOT
ATOM      1  C   UNL     1     -47.116   4.371 114.289  1.00  0.00     0.063 C 
ATOM      2  C   UNL     1     -48.218   3.456 114.699  1.00  0.00     0.038 C 
ATOM      3  O   UNL     1     -48.642   3.468 115.884  1.00  0.00    -0.550 OA
ATOM      4  O   UNL     1     -48.817   2.624 113.762  1.00  0.00    -0.550 OA
ENDROOT
TORSDOF 0
ENDMDL
MODEL 7
REMARK VINA RESULT:    -1.999     18.103     18.712
REMARK INTER + INTRA:          -1.999
REMARK INTER:                  -1.999
REMARK INTRA:                   0.000
REMARK UNBOUND:                 0.000
REMARK SMILES CC(=O)[O-]
REMARK SMILES IDX 1 1 2 2 3 3 4 4
REMARK H PARENT
REMARK Flexibility Score: inf
ROOT
ATOM      1  C   UNL     1     -46.460   4.762 115.223  1.00  0.00     0.063 C 
ATOM      2  C   UNL     1     -47.741   4.469 114.518  1.00  0.00     0.038 C 
ATOM      3  O   UNL     1     -48.038   3.284 114.217  1.00  0.00    -0.550 OA
ATOM      4  O   UNL     1     -48.633   5.496 114.241  1.00  0.00    -0.550 OA
ENDROOT
TORSDOF 0
ENDMDL
MODEL 8
REMARK VINA RESULT:    -1.996     15.226     15.590
REMARK INTER + INTRA:          -1.996
REMARK INTER:                  -1.996
REMARK INTRA:                   0.000
REMARK UNBOUND:                 0.000
REMARK SMILES CC(=O)[O-]
REMARK SMILES IDX 1 1 2 2 3 3 4 4
REMARK H PARENT
REMARK Flexibility Score: inf
ROOT
ATOM      1  C   UNL     1     -35.839   4.374 117.990  1.00  0.00     0.063 C 
ATOM      2  C   UNL     1     -35.935   4.234 119.471  1.00  0.00     0.038 C 
ATOM      3  O   UNL     1     -36.181   5.241 120.186  1.00  0.00    -0.550 OA
ATOM      4  O   UNL     1     -35.805   2.984 120.062  1.00  0.00    -0.550 OA
ENDROOT
TORSDOF 0
ENDMDL
MODEL 9
REMARK VINA RESULT:    -1.979     10.780     11.122
REMARK INTER + INTRA:          -1.979
REMARK INTER:                  -1.979
REMARK INTRA:                   0.000
REMARK UNBOUND:                 0.000
REMARK SMILES CC(=O)[O-]
REMARK SMILES IDX 1 1 2 2 3 3 4 4
REMARK H PARENT
REMARK Flexibility Score: inf
ROOT
ATOM      1  C   UNL     1     -37.449  -0.445 115.816  1.00  0.00     0.063 C 
ATOM      2  C   UNL     1     -38.547   0.563 115.782  1.00  0.00     0.038 C 
ATOM      3  O   UNL     1     -39.567   0.361 115.073  1.00  0.00    -0.550 OA
ATOM      4  O   UNL     1     -38.471   1.701 116.572  1.00  0.00    -0.550 OA
ENDROOT
TORSDOF 0
ENDMDL
