MODEL 1
REMARK VINA RESULT:    -4.373      0.000      0.000
REMARK INTER + INTRA:          -5.177
REMARK INTER:                  -5.013
REMARK INTRA:                  -0.164
REMARK UNBOUND:                -0.164
REMARK SMILES O=C([O-])C=Cc1ccc(O)cc1
REMARK SMILES IDX 6 1 7 2 12 3 8 4 11 5 9 6 5 7 4 8 2 9 1 10 3 11 10 12
REMARK H PARENT 10 13
REMARK Flexibility Score: inf
ROOT
ATOM      1  C   UNL     1      -3.523  28.902  28.487  1.00  0.00    -0.025 A 
ATOM      2  C   UNL     1      -4.478  28.732  27.469  1.00  0.00     0.012 A 
ATOM      3  C   UNL     1      -2.222  28.411  28.296  1.00  0.00     0.012 A 
ATOM      4  C   UNL     1      -4.121  28.128  26.260  1.00  0.00     0.047 A 
ATOM      5  C   UNL     1      -1.867  27.806  27.087  1.00  0.00     0.047 A 
ATOM      6  C   UNL     1      -2.812  27.665  26.065  1.00  0.00     0.115 A 
ENDROOT
BRANCH   1   7
ATOM      7  C   UNL     1      -3.890  29.489  29.792  1.00  0.00     0.010 C 
ATOM      8  C   UNL     1      -4.023  28.808  30.940  1.00  0.00     0.025 C 
BRANCH   8   9
ATOM      9  C   UNL     1      -4.016  27.339  31.070  1.00  0.00     0.064 C 
ATOM     10  O   UNL     1      -5.109  26.715  31.064  1.00  0.00    -0.545 OA
ATOM     11  O   UNL     1      -2.828  26.621  31.125  1.00  0.00    -0.545 OA
ENDBRANCH   8   9
ENDBRANCH   1   7
BRANCH   6  12
ATOM     12  O   UNL     1      -2.443  27.062  24.865  1.00  0.00    -0.508 OA
ATOM     13  H   UNL     1      -1.476  27.033  24.563  1.00  0.00     0.293 HD
ENDBRANCH   6  12
TORSDOF 3
ENDMDL
MODEL 2
REMARK VINA RESULT:    -4.210      1.736      2.596
REMARK INTER + INTRA:          -4.989
REMARK INTER:                  -4.736
REMARK INTRA:                  -0.253
REMARK UNBOUND:                -0.164
REMARK SMILES O=C([O-])C=Cc1ccc(O)cc1
REMARK SMILES IDX 6 1 7 2 12 3 8 4 11 5 9 6 5 7 4 8 2 9 1 10 3 11 10 12
REMARK H PARENT 10 13
REMARK Flexibility Score: inf
ROOT
ATOM      1  C   UNL     1      -3.371  26.872  29.020  1.00  0.00    -0.025 A 
ATOM      2  C   UNL     1      -1.977  26.742  28.894  1.00  0.00     0.012 A 
ATOM      3  C   UNL     1      -4.133  27.219  27.894  1.00  0.00     0.012 A 
ATOM      4  C   UNL     1      -1.364  26.905  27.648  1.00  0.00     0.047 A 
ATOM      5  C   UNL     1      -3.519  27.382  26.649  1.00  0.00     0.047 A 
ATOM      6  C   UNL     1      -2.135  27.223  26.521  1.00  0.00     0.115 A 
ENDROOT
BRANCH   1   7
ATOM      7  C   UNL     1      -4.035  26.757  30.335  1.00  0.00     0.010 C 
ATOM      8  C   UNL     1      -4.385  27.786  31.121  1.00  0.00     0.025 C 
BRANCH   8   9
ATOM      9  C   UNL     1      -4.003  29.194  30.908  1.00  0.00     0.064 C 
ATOM     10  O   UNL     1      -2.814  29.548  31.114  1.00  0.00    -0.545 OA
ATOM     11  O   UNL     1      -4.910  30.125  30.415  1.00  0.00    -0.545 OA
ENDBRANCH   8   9
ENDBRANCH   1   7
BRANCH   6  12
ATOM     12  O   UNL     1      -1.536  27.387  25.274  1.00  0.00    -0.508 OA
ATOM     13  H   UNL     1      -1.946  26.994  24.434  1.00  0.00     0.293 HD
ENDBRANCH   6  12
TORSDOF 3
ENDMDL
MODEL 3
REMARK VINA RESULT:    -4.193      1.781      2.585
REMARK INTER + INTRA:          -4.969
REMARK INTER:                  -5.057
REMARK INTRA:                   0.088
REMARK UNBOUND:                -0.164
REMARK SMILES O=C([O-])C=Cc1ccc(O)cc1
REMARK SMILES IDX 6 1 7 2 12 3 8 4 11 5 9 6 5 7 4 8 2 9 1 10 3 11 10 12
REMARK H PARENT 10 13
REMARK Flexibility Score: inf
ROOT
ATOM      1  C   UNL     1      -2.774  28.361  29.170  1.00  0.00    -0.025 A 
ATOM      2  C   UNL     1      -2.127  27.716  28.101  1.00  0.00     0.012 A 
ATOM      3  C   UNL     1      -4.006  28.994  28.946  1.00  0.00     0.012 A 
ATOM      4  C   UNL     1      -2.732  27.662  26.841  1.00  0.00     0.047 A 
ATOM      5  C   UNL     1      -4.608  28.940  27.686  1.00  0.00     0.047 A 
ATOM      6  C   UNL     1      -3.976  28.272  26.631  1.00  0.00     0.115 A 
ENDROOT
BRANCH   1   7
ATOM      7  C   UNL     1      -2.131  28.477  30.495  1.00  0.00     0.010 C 
ATOM      8  C   UNL     1      -1.466  27.497  31.125  1.00  0.00     0.025 C 
BRANCH   8   9
ATOM      9  C   UNL     1      -1.419  26.085  30.701  1.00  0.00     0.064 C 
ATOM     10  O   UNL     1      -0.339  25.608  30.266  1.00  0.00    -0.545 OA
ATOM     11  O   UNL     1      -2.521  25.250  30.838  1.00  0.00    -0.545 OA
ENDBRANCH   8   9
ENDBRANCH   1   7
BRANCH   6  12
ATOM     12  O   UNL     1      -4.589  28.224  25.381  1.00  0.00    -0.508 OA
ATOM     13  H   UNL     1      -4.059  28.355  24.527  1.00  0.00     0.293 HD
ENDBRANCH   6  12
TORSDOF 3
ENDMDL
MODEL 4
REMARK VINA RESULT:    -4.112      2.251      4.282
REMARK INTER + INTRA:          -4.877
REMARK INTER:                  -4.949
REMARK INTRA:                   0.072
REMARK UNBOUND:                -0.164
REMARK SMILES O=C([O-])C=Cc1ccc(O)cc1
REMARK SMILES IDX 6 1 7 2 12 3 8 4 11 5 9 6 5 7 4 8 2 9 1 10 3 11 10 12
REMARK H PARENT 10 13
REMARK Flexibility Score: inf
ROOT
ATOM      1  C   UNL     1      -3.152  27.879  30.046  1.00  0.00    -0.025 A 
ATOM      2  C   UNL     1      -2.016  28.308  30.755  1.00  0.00     0.012 A 
ATOM      3  C   UNL     1      -3.257  26.533  29.665  1.00  0.00     0.012 A 
ATOM      4  C   UNL     1      -1.028  27.390  31.122  1.00  0.00     0.047 A 
ATOM      5  C   UNL     1      -2.266  25.617  30.033  1.00  0.00     0.047 A 
ATOM      6  C   UNL     1      -1.152  26.041  30.764  1.00  0.00     0.115 A 
ENDROOT
BRANCH   1   7
ATOM      7  C   UNL     1      -4.184  28.839  29.600  1.00  0.00     0.010 C 
ATOM      8  C   UNL     1      -4.602  28.999  28.336  1.00  0.00     0.025 C 
BRANCH   8   9
ATOM      9  C   UNL     1      -3.979  28.391  27.145  1.00  0.00     0.064 C 
ATOM     10  O   UNL     1      -4.693  27.736  26.343  1.00  0.00    -0.545 OA
ATOM     11  O   UNL     1      -2.635  28.586  26.850  1.00  0.00    -0.545 OA
ENDBRANCH   8   9
ENDBRANCH   1   7
BRANCH   6  12
ATOM     12  O   UNL     1      -0.174  25.117  31.125  1.00  0.00    -0.508 OA
ATOM     13  H   UNL     1      -0.367  24.372  31.784  1.00  0.00     0.293 HD
ENDBRANCH   6  12
TORSDOF 3
ENDMDL
MODEL 5
REMARK VINA RESULT:    -2.508     22.723     23.694
REMARK INTER + INTRA:          -3.038
REMARK INTER:                  -2.818
REMARK INTRA:                  -0.220
REMARK UNBOUND:                -0.164
REMARK SMILES O=C([O-])C=Cc1ccc(O)cc1
REMARK SMILES IDX 6 1 7 2 12 3 8 4 11 5 9 6 5 7 4 8 2 9 1 10 3 11 10 12
REMARK H PARENT 10 13
REMARK Flexibility Score: inf
ROOT
ATOM      1  C   UNL     1      12.572  10.007  26.283  1.00  0.00    -0.025 A 
ATOM      2  C   UNL     1      11.257  10.018  26.782  1.00  0.00     0.012 A 
ATOM      3  C   UNL     1      12.781   9.909  24.899  1.00  0.00     0.012 A 
ATOM      4  C   UNL     1      10.171   9.985  25.904  1.00  0.00     0.047 A 
ATOM      5  C   UNL     1      11.692   9.875  24.022  1.00  0.00     0.047 A 
ATOM      6  C   UNL     1      10.385   9.916  24.520  1.00  0.00     0.115 A 
ENDROOT
BRANCH   1   7
ATOM      7  C   UNL     1      13.736   9.987  27.193  1.00  0.00     0.010 C 
ATOM      8  C   UNL     1      14.321  11.069  27.730  1.00  0.00     0.025 C 
BRANCH   8   9
ATOM      9  C   UNL     1      14.032  12.468  27.364  1.00  0.00     0.064 C 
ATOM     10  O   UNL     1      14.891  13.127  26.722  1.00  0.00    -0.545 OA
ATOM     11  O   UNL     1      12.804  13.054  27.648  1.00  0.00    -0.545 OA
ENDBRANCH   8   9
ENDBRANCH   1   7
BRANCH   6  12
ATOM     12  O   UNL     1       9.310   9.884  23.635  1.00  0.00    -0.508 OA
ATOM     13  H   UNL     1       8.934  10.732  23.228  1.00  0.00     0.293 HD
ENDBRANCH   6  12
TORSDOF 3
ENDMDL
MODEL 6
REMARK VINA RESULT:    -2.176      2.060      4.637
REMARK INTER + INTRA:          -2.658
REMARK INTER:                  -3.046
REMARK INTRA:                   0.388
REMARK UNBOUND:                -0.164
REMARK SMILES O=C([O-])C=Cc1ccc(O)cc1
REMARK SMILES IDX 6 1 7 2 12 3 8 4 11 5 9 6 5 7 4 8 2 9 1 10 3 11 10 12
REMARK H PARENT 10 13
REMARK Flexibility Score: inf
ROOT
ATOM      1  C   UNL     1      -2.789  27.860  27.577  1.00  0.00    -0.025 A 
ATOM      2  C   UNL     1      -3.585  26.701  27.613  1.00  0.00     0.012 A 
ATOM      3  C   UNL     1      -2.698  28.666  28.723  1.00  0.00     0.012 A 
ATOM      4  C   UNL     1      -4.234  26.328  28.793  1.00  0.00     0.047 A 
ATOM      5  C   UNL     1      -3.349  28.291  29.902  1.00  0.00     0.047 A 
ATOM      6  C   UNL     1      -4.115  27.121  29.943  1.00  0.00     0.115 A 
ENDROOT
BRANCH   1   7
ATOM      7  C   UNL     1      -2.137  28.304  26.328  1.00  0.00     0.010 C 
ATOM      8  C   UNL     1      -0.950  27.872  25.876  1.00  0.00     0.025 C 
BRANCH   8   9
ATOM      9  C   UNL     1      -0.002  27.031  26.629  1.00  0.00     0.064 C 
ATOM     10  O   UNL     1       1.188  26.934  26.231  1.00  0.00    -0.545 OA
ATOM     11  O   UNL     1      -0.373  26.399  27.811  1.00  0.00    -0.545 OA
ENDBRANCH   8   9
ENDBRANCH   1   7
BRANCH   6  12
ATOM     12  O   UNL     1      -4.756  26.759  31.125  1.00  0.00    -0.508 OA
ATOM     13  H   UNL     1      -5.753  26.896  31.250  1.00  0.00     0.293 HD
ENDBRANCH   6  12
TORSDOF 3
ENDMDL
MODEL 7
REMARK VINA RESULT:    -2.004     22.899     24.206
REMARK INTER + INTRA:          -2.461
REMARK INTER:                  -2.315
REMARK INTRA:                  -0.146
REMARK UNBOUND:                -0.164
REMARK SMILES O=C([O-])C=Cc1ccc(O)cc1
REMARK SMILES IDX 6 1 7 2 12 3 8 4 11 5 9 6 5 7 4 8 2 9 1 10 3 11 10 12
REMARK H PARENT 10 13
REMARK Flexibility Score: inf
ROOT
ATOM      1  C   UNL     1      13.255  10.187  26.038  1.00  0.00    -0.025 A 
ATOM      2  C   UNL     1      12.383   9.946  24.961  1.00  0.00     0.012 A 
ATOM      3  C   UNL     1      14.632  10.302  25.793  1.00  0.00     0.012 A 
ATOM      4  C   UNL     1      12.878   9.875  23.656  1.00  0.00     0.047 A 
ATOM      5  C   UNL     1      15.125  10.230  24.487  1.00  0.00     0.047 A 
ATOM      6  C   UNL     1      14.251  10.020  23.415  1.00  0.00     0.115 A 
ENDROOT
BRANCH   1   7
ATOM      7  C   UNL     1      12.764  10.213  27.431  1.00  0.00     0.010 C 
ATOM      8  C   UNL     1      12.443  11.317  28.121  1.00  0.00     0.025 C 
BRANCH   8   9
ATOM      9  C   UNL     1      12.703  12.703  27.687  1.00  0.00     0.064 C 
ATOM     10  O   UNL     1      11.742  13.509  27.590  1.00  0.00    -0.545 OA
ATOM     11  O   UNL     1      13.995  13.160  27.453  1.00  0.00    -0.545 OA
ENDBRANCH   8   9
ENDBRANCH   1   7
BRANCH   6  12
ATOM     12  O   UNL     1      14.756   9.952  22.119  1.00  0.00    -0.508 OA
ATOM     13  H   UNL     1      14.181   9.646  21.342  1.00  0.00     0.293 HD
ENDBRANCH   6  12
TORSDOF 3
ENDMDL
MODEL 8
REMARK VINA RESULT:    -1.803     22.893     23.947
REMARK INTER + INTRA:          -2.231
REMARK INTER:                  -2.355
REMARK INTRA:                   0.124
REMARK UNBOUND:                -0.164
REMARK SMILES O=C([O-])C=Cc1ccc(O)cc1
REMARK SMILES IDX 6 1 7 2 12 3 8 4 11 5 9 6 5 7 4 8 2 9 1 10 3 11 10 12
REMARK H PARENT 10 13
REMARK Flexibility Score: inf
ROOT
ATOM      1  C   UNL     1      13.513  10.668  28.148  1.00  0.00    -0.025 A 
ATOM      2  C   UNL     1      13.873  10.586  29.505  1.00  0.00     0.012 A 
ATOM      3  C   UNL     1      12.179  10.438  27.777  1.00  0.00     0.012 A 
ATOM      4  C   UNL     1      12.902  10.331  30.477  1.00  0.00     0.047 A 
ATOM      5  C   UNL     1      11.209  10.183  28.751  1.00  0.00     0.047 A 
ATOM      6  C   UNL     1      11.566  10.131  30.103  1.00  0.00     0.115 A 
ENDROOT
BRANCH   1   7
ATOM      7  C   UNL     1      14.529  10.884  27.097  1.00  0.00     0.010 C 
ATOM      8  C   UNL     1      14.966  12.079  26.672  1.00  0.00     0.025 C 
BRANCH   8   9
ATOM      9  C   UNL     1      14.380  13.383  27.036  1.00  0.00     0.064 C 
ATOM     10  O   UNL     1      15.118  14.401  27.073  1.00  0.00    -0.545 OA
ATOM     11  O   UNL     1      13.018  13.526  27.269  1.00  0.00    -0.545 OA
ENDBRANCH   8   9
ENDBRANCH   1   7
BRANCH   6  12
ATOM     12  O   UNL     1      10.590   9.877  31.063  1.00  0.00    -0.508 OA
ATOM     13  H   UNL     1       9.827   9.234  30.885  1.00  0.00     0.293 HD
ENDBRANCH   6  12
TORSDOF 3
ENDMDL
