MODEL 1
REMARK VINA RESULT:    -3.668      0.000      0.000
REMARK INTER + INTRA:          -5.138
REMARK INTER:                  -4.955
REMARK INTRA:                  -0.182
REMARK UNBOUND:                -0.182
REMARK SMILES CCCCCCCC(=O)[O-]
REMARK SMILES IDX 5 1 6 2 7 3 8 4 9 5 10 6 4 7 3 8 2 9 1 10
REMARK H PARENT
REMARK Flexibility Score: inf
ROOT
ATOM      1  C   UNL     1      -6.760  17.681 -10.134  1.00  0.00     0.000 C 
ENDROOT
BRANCH   1   2
ATOM      2  C   UNL     1      -8.133  18.083 -10.686  1.00  0.00     0.006 C 
BRANCH   2   3
ATOM      3  C   UNL     1      -9.115  16.910 -10.625  1.00  0.00     0.053 C 
BRANCH   3   4
ATOM      4  C   UNL     1     -10.372  17.239 -11.367  1.00  0.00     0.041 C 
ATOM      5  O   UNL     1     -10.892  16.391 -12.139  1.00  0.00    -0.550 OA
ATOM      6  O   UNL     1     -10.996  18.464 -11.168  1.00  0.00    -0.550 OA
ENDBRANCH   3   4
ENDBRANCH   2   3
ENDBRANCH   1   2
BRANCH   1   7
ATOM      7  C   UNL     1      -6.900  16.653  -9.005  1.00  0.00     0.000 C 
BRANCH   7   8
ATOM      8  C   UNL     1      -6.513  17.264  -7.653  1.00  0.00    -0.000 C 
BRANCH   8   9
ATOM      9  C   UNL     1      -5.440  16.419  -6.956  1.00  0.00    -0.003 C 
ATOM     10  C   UNL     1      -4.662  17.248  -5.937  1.00  0.00     0.004 C 
ENDBRANCH   8   9
ENDBRANCH   7   8
ENDBRANCH   1   7
TORSDOF 6
ENDMDL
MODEL 2
REMARK VINA RESULT:    -3.658      0.739      1.326
REMARK INTER + INTRA:          -5.124
REMARK INTER:                  -4.909
REMARK INTRA:                  -0.215
REMARK UNBOUND:                -0.182
REMARK SMILES CCCCCCCC(=O)[O-]
REMARK SMILES IDX 5 1 6 2 7 3 8 4 9 5 10 6 4 7 3 8 2 9 1 10
REMARK H PARENT
REMARK Flexibility Score: inf
ROOT
ATOM      1  C   UNL     1      -7.203  17.964 -10.276  1.00  0.00     0.000 C 
ENDROOT
BRANCH   1   2
ATOM      2  C   UNL     1      -8.400  18.307 -11.172  1.00  0.00     0.006 C 
BRANCH   2   3
ATOM      3  C   UNL     1      -9.528  17.287 -10.996  1.00  0.00     0.053 C 
BRANCH   3   4
ATOM      4  C   UNL     1     -10.840  17.882 -11.398  1.00  0.00     0.041 C 
ATOM      5  O   UNL     1     -11.113  19.075 -11.100  1.00  0.00    -0.550 OA
ATOM      6  O   UNL     1     -11.742  17.137 -12.147  1.00  0.00    -0.550 OA
ENDBRANCH   3   4
ENDBRANCH   2   3
ENDBRANCH   1   2
BRANCH   1   7
ATOM      7  C   UNL     1      -7.482  16.709  -9.440  1.00  0.00     0.000 C 
BRANCH   7   8
ATOM      8  C   UNL     1      -6.263  16.331  -8.591  1.00  0.00    -0.000 C 
BRANCH   8   9
ATOM      9  C   UNL     1      -6.323  17.003  -7.214  1.00  0.00    -0.003 C 
ATOM     10  C   UNL     1      -5.078  16.685  -6.391  1.00  0.00     0.004 C 
ENDBRANCH   8   9
ENDBRANCH   7   8
ENDBRANCH   1   7
TORSDOF 6
ENDMDL
MODEL 3
REMARK VINA RESULT:    -3.639      3.425      5.765
REMARK INTER + INTRA:          -5.098
REMARK INTER:                  -4.826
REMARK INTRA:                  -0.272
REMARK UNBOUND:                -0.182
REMARK SMILES CCCCCCCC(=O)[O-]
REMARK SMILES IDX 5 1 6 2 7 3 8 4 9 5 10 6 4 7 3 8 2 9 1 10
REMARK H PARENT
REMARK Flexibility Score: inf
ROOT
ATOM      1  C   UNL     1      -7.326  18.030 -10.282  1.00  0.00     0.000 C 
ENDROOT
BRANCH   1   2
ATOM      2  C   UNL     1      -7.193  16.751  -9.447  1.00  0.00     0.006 C 
BRANCH   2   3
ATOM      3  C   UNL     1      -6.837  17.078  -7.994  1.00  0.00     0.053 C 
BRANCH   3   4
ATOM      4  C   UNL     1      -5.481  16.543  -7.654  1.00  0.00     0.041 C 
ATOM      5  O   UNL     1      -5.177  16.304  -6.456  1.00  0.00    -0.550 OA
ATOM      6  O   UNL     1      -4.571  16.261  -8.665  1.00  0.00    -0.550 OA
ENDBRANCH   3   4
ENDBRANCH   2   3
ENDBRANCH   1   2
BRANCH   1   7
ATOM      7  C   UNL     1      -8.677  18.079 -11.004  1.00  0.00     0.000 C 
BRANCH   7   8
ATOM      8  C   UNL     1      -9.483  16.800 -10.752  1.00  0.00    -0.000 C 
BRANCH   8   9
ATOM      9  C   UNL     1     -10.583  16.626 -11.806  1.00  0.00    -0.003 C 
ATOM     10  C   UNL     1     -11.378  17.916 -11.992  1.00  0.00     0.004 C 
ENDBRANCH   8   9
ENDBRANCH   7   8
ENDBRANCH   1   7
TORSDOF 6
ENDMDL
MODEL 4
REMARK VINA RESULT:    -3.569      4.896      6.353
REMARK INTER + INTRA:          -5.004
REMARK INTER:                  -4.542
REMARK INTRA:                  -0.462
REMARK UNBOUND:                -0.182
REMARK SMILES CCCCCCCC(=O)[O-]
REMARK SMILES IDX 5 1 6 2 7 3 8 4 9 5 10 6 4 7 3 8 2 9 1 10
REMARK H PARENT
REMARK Flexibility Score: inf
ROOT
ATOM      1  C   UNL     1      -6.501  17.042  -7.391  1.00  0.00     0.000 C 
ENDROOT
BRANCH   1   2
ATOM      2  C   UNL     1      -5.260  16.515  -6.662  1.00  0.00     0.006 C 
BRANCH   2   3
ATOM      3  C   UNL     1      -4.244  17.635  -6.424  1.00  0.00     0.053 C 
BRANCH   3   4
ATOM      4  C   UNL     1      -4.066  17.880  -4.959  1.00  0.00     0.041 C 
ATOM      5  O   UNL     1      -4.037  16.912  -4.155  1.00  0.00    -0.550 OA
ATOM      6  O   UNL     1      -3.882  19.174  -4.488  1.00  0.00    -0.550 OA
ENDBRANCH   3   4
ENDBRANCH   2   3
ENDBRANCH   1   2
BRANCH   1   7
ATOM      7  C   UNL     1      -6.659  16.377  -8.763  1.00  0.00     0.000 C 
BRANCH   7   8
ATOM      8  C   UNL     1      -6.319  17.356  -9.893  1.00  0.00    -0.000 C 
BRANCH   8   9
ATOM      9  C   UNL     1      -4.860  17.198 -10.336  1.00  0.00    -0.003 C 
ATOM     10  C   UNL     1      -4.421  15.737 -10.275  1.00  0.00     0.004 C 
ENDBRANCH   8   9
ENDBRANCH   7   8
ENDBRANCH   1   7
TORSDOF 6
ENDMDL
MODEL 5
REMARK VINA RESULT:    -3.537      2.750      3.311
REMARK INTER + INTRA:          -4.959
REMARK INTER:                  -4.531
REMARK INTRA:                  -0.429
REMARK UNBOUND:                -0.182
REMARK SMILES CCCCCCCC(=O)[O-]
REMARK SMILES IDX 5 1 6 2 7 3 8 4 9 5 10 6 4 7 3 8 2 9 1 10
REMARK H PARENT
REMARK Flexibility Score: inf
ROOT
ATOM      1  C   UNL     1      -5.361  16.215  -9.426  1.00  0.00     0.000 C 
ENDROOT
BRANCH   1   2
ATOM      2  C   UNL     1      -6.799  16.572  -9.029  1.00  0.00     0.006 C 
BRANCH   2   3
ATOM      3  C   UNL     1      -7.382  17.631  -9.969  1.00  0.00     0.053 C 
BRANCH   3   4
ATOM      4  C   UNL     1      -6.964  19.001  -9.538  1.00  0.00     0.041 C 
ATOM      5  O   UNL     1      -6.911  19.291  -8.313  1.00  0.00    -0.550 OA
ATOM      6  O   UNL     1      -6.583  19.943 -10.485  1.00  0.00    -0.550 OA
ENDBRANCH   3   4
ENDBRANCH   2   3
ENDBRANCH   1   2
BRANCH   1   7
ATOM      7  C   UNL     1      -4.372  16.601  -8.320  1.00  0.00     0.000 C 
BRANCH   7   8
ATOM      8  C   UNL     1      -5.044  16.562  -6.943  1.00  0.00    -0.000 C 
BRANCH   8   9
ATOM      9  C   UNL     1      -4.522  17.689  -6.044  1.00  0.00    -0.003 C 
ATOM     10  C   UNL     1      -4.256  17.187  -4.628  1.00  0.00     0.004 C 
ENDBRANCH   8   9
ENDBRANCH   7   8
ENDBRANCH   1   7
TORSDOF 6
ENDMDL
MODEL 6
REMARK VINA RESULT:    -3.463      1.454      2.169
REMARK INTER + INTRA:          -4.861
REMARK INTER:                  -4.429
REMARK INTRA:                  -0.431
REMARK UNBOUND:                -0.182
REMARK SMILES CCCCCCCC(=O)[O-]
REMARK SMILES IDX 5 1 6 2 7 3 8 4 9 5 10 6 4 7 3 8 2 9 1 10
REMARK H PARENT
REMARK Flexibility Score: inf
ROOT
ATOM      1  C   UNL     1      -6.142  16.279  -8.934  1.00  0.00     0.000 C 
ENDROOT
BRANCH   1   2
ATOM      2  C   UNL     1      -6.051  17.339 -10.039  1.00  0.00     0.006 C 
BRANCH   2   3
ATOM      3  C   UNL     1      -7.188  18.358  -9.918  1.00  0.00     0.053 C 
BRANCH   3   4
ATOM      4  C   UNL     1      -8.275  18.049 -10.898  1.00  0.00     0.041 C 
ATOM      5  O   UNL     1      -9.067  17.094 -10.685  1.00  0.00    -0.550 OA
ATOM      6  O   UNL     1      -8.446  18.848 -12.021  1.00  0.00    -0.550 OA
ENDBRANCH   3   4
ENDBRANCH   2   3
ENDBRANCH   1   2
BRANCH   1   7
ATOM      7  C   UNL     1      -6.316  16.932  -7.558  1.00  0.00     0.000 C 
BRANCH   7   8
ATOM      8  C   UNL     1      -5.211  16.486  -6.593  1.00  0.00    -0.000 C 
BRANCH   8   9
ATOM      9  C   UNL     1      -4.448  17.694  -6.037  1.00  0.00    -0.003 C 
ATOM     10  C   UNL     1      -4.878  18.985  -6.728  1.00  0.00     0.004 C 
ENDBRANCH   8   9
ENDBRANCH   7   8
ENDBRANCH   1   7
TORSDOF 6
ENDMDL
MODEL 7
REMARK VINA RESULT:    -3.404      1.440      2.019
REMARK INTER + INTRA:          -4.781
REMARK INTER:                  -4.464
REMARK INTRA:                  -0.317
REMARK UNBOUND:                -0.182
REMARK SMILES CCCCCCCC(=O)[O-]
REMARK SMILES IDX 5 1 6 2 7 3 8 4 9 5 10 6 4 7 3 8 2 9 1 10
REMARK H PARENT
REMARK Flexibility Score: inf
ROOT
ATOM      1  C   UNL     1      -7.098  18.106 -10.127  1.00  0.00     0.000 C 
ENDROOT
BRANCH   1   2
ATOM      2  C   UNL     1      -8.350  18.278 -10.996  1.00  0.00     0.006 C 
BRANCH   2   3
ATOM      3  C   UNL     1      -9.287  17.075 -10.854  1.00  0.00     0.053 C 
BRANCH   3   4
ATOM      4  C   UNL     1     -10.600  17.353 -11.515  1.00  0.00     0.041 C 
ATOM      5  O   UNL     1     -11.186  16.448 -12.165  1.00  0.00    -0.550 OA
ATOM      6  O   UNL     1     -11.202  18.596 -11.369  1.00  0.00    -0.550 OA
ENDBRANCH   3   4
ENDBRANCH   2   3
ENDBRANCH   1   2
BRANCH   1   7
ATOM      7  C   UNL     1      -7.213  16.866  -9.234  1.00  0.00     0.000 C 
BRANCH   7   8
ATOM      8  C   UNL     1      -5.844  16.206  -9.028  1.00  0.00    -0.000 C 
BRANCH   8   9
ATOM      9  C   UNL     1      -4.888  16.556 -10.174  1.00  0.00    -0.003 C 
ATOM     10  C   UNL     1      -4.050  15.347 -10.581  1.00  0.00     0.004 C 
ENDBRANCH   8   9
ENDBRANCH   7   8
ENDBRANCH   1   7
TORSDOF 6
ENDMDL
MODEL 8
REMARK VINA RESULT:    -3.325      4.140      5.670
REMARK INTER + INTRA:          -4.674
REMARK INTER:                  -4.124
REMARK INTRA:                  -0.551
REMARK UNBOUND:                -0.182
REMARK SMILES CCCCCCCC(=O)[O-]
REMARK SMILES IDX 5 1 6 2 7 3 8 4 9 5 10 6 4 7 3 8 2 9 1 10
REMARK H PARENT
REMARK Flexibility Score: inf
ROOT
ATOM      1  C   UNL     1      -5.424  16.230  -9.396  1.00  0.00     0.000 C 
ENDROOT
BRANCH   1   2
ATOM      2  C   UNL     1      -4.533  16.514  -8.180  1.00  0.00     0.006 C 
BRANCH   2   3
ATOM      3  C   UNL     1      -5.350  16.495  -6.884  1.00  0.00     0.053 C 
BRANCH   3   4
ATOM      4  C   UNL     1      -4.738  17.404  -5.866  1.00  0.00     0.041 C 
ATOM      5  O   UNL     1      -4.343  16.944  -4.762  1.00  0.00    -0.550 OA
ATOM      6  O   UNL     1      -4.556  18.750  -6.156  1.00  0.00    -0.550 OA
ENDBRANCH   3   4
ENDBRANCH   2   3
ENDBRANCH   1   2
BRANCH   1   7
ATOM      7  C   UNL     1      -6.864  16.694  -9.145  1.00  0.00     0.000 C 
BRANCH   7   8
ATOM      8  C   UNL     1      -7.158  18.002  -9.887  1.00  0.00    -0.000 C 
BRANCH   8   9
ATOM      9  C   UNL     1      -6.885  19.216  -8.992  1.00  0.00    -0.003 C 
ATOM     10  C   UNL     1      -5.636  19.967  -9.447  1.00  0.00     0.004 C 
ENDBRANCH   8   9
ENDBRANCH   7   8
ENDBRANCH   1   7
TORSDOF 6
ENDMDL
MODEL 9
REMARK VINA RESULT:    -3.306      3.236      4.044
REMARK INTER + INTRA:          -4.648
REMARK INTER:                  -4.246
REMARK INTRA:                  -0.403
REMARK UNBOUND:                -0.182
REMARK SMILES CCCCCCCC(=O)[O-]
REMARK SMILES IDX 5 1 6 2 7 3 8 4 9 5 10 6 4 7 3 8 2 9 1 10
REMARK H PARENT
REMARK Flexibility Score: inf
ROOT
ATOM      1  C   UNL     1      -6.584  16.512  -9.152  1.00  0.00     0.000 C 
ENDROOT
BRANCH   1   2
ATOM      2  C   UNL     1      -5.164  16.117  -9.576  1.00  0.00     0.006 C 
BRANCH   2   3
ATOM      3  C   UNL     1      -4.725  16.893 -10.821  1.00  0.00     0.053 C 
BRANCH   3   4
ATOM      4  C   UNL     1      -4.812  18.366 -10.578  1.00  0.00     0.041 C 
ATOM      5  O   UNL     1      -5.565  19.082 -11.289  1.00  0.00    -0.550 OA
ATOM      6  O   UNL     1      -4.100  18.942  -9.533  1.00  0.00    -0.550 OA
ENDBRANCH   3   4
ENDBRANCH   2   3
ENDBRANCH   1   2
BRANCH   1   7
ATOM      7  C   UNL     1      -6.623  16.929  -7.677  1.00  0.00     0.000 C 
BRANCH   7   8
ATOM      8  C   UNL     1      -5.425  16.357  -6.911  1.00  0.00    -0.000 C 
BRANCH   8   9
ATOM      9  C   UNL     1      -4.663  17.465  -6.176  1.00  0.00    -0.003 C 
ATOM     10  C   UNL     1      -4.375  17.071  -4.730  1.00  0.00     0.004 C 
ENDBRANCH   8   9
ENDBRANCH   7   8
ENDBRANCH   1   7
TORSDOF 6
ENDMDL
