MODEL 1
REMARK VINA RESULT:    -4.282      0.000      0.000
REMARK INTER + INTRA:          -4.282
REMARK INTER:                  -4.282
REMARK INTRA:                   0.000
REMARK UNBOUND:                 0.000
REMARK SMILES O=c1ccc2ccccc2o1
REMARK SMILES IDX 7 1 8 2 9 3 10 4 5 5 6 6 4 7 3 8 2 9 1 10 11 11
REMARK H PARENT
REMARK Flexibility Score: inf
ROOT
ATOM      1  C   UNL     1      -2.876   1.223  19.367  1.00  0.00     0.001 A 
ATOM      2  C   UNL     1      -3.066   2.541  19.797  1.00  0.00     0.004 A 
ATOM      3  C   UNL     1      -3.961   3.379  19.122  1.00  0.00     0.048 A 
ATOM      4  C   UNL     1      -4.670   2.900  18.014  1.00  0.00     0.138 A 
ATOM      5  C   UNL     1      -4.478   1.570  17.581  1.00  0.00     0.018 A 
ATOM      6  C   UNL     1      -3.579   0.735  18.261  1.00  0.00     0.012 A 
ATOM      7  C   UNL     1      -5.199   1.120  16.471  1.00  0.00     0.019 A 
ATOM      8  C   UNL     1      -6.081   1.989  15.829  1.00  0.00     0.094 A 
ATOM      9  C   UNL     1      -6.220   3.295  16.315  1.00  0.00     0.336 A 
ATOM     10  O   UNL     1      -7.011   4.094  15.750  1.00  0.00    -0.246 OA
ATOM     11  O   UNL     1      -5.521   3.697  17.374  1.00  0.00    -0.423 OA
ENDROOT
TORSDOF 0
ENDMDL
MODEL 2
REMARK VINA RESULT:    -4.115      1.858      3.877
REMARK INTER + INTRA:          -4.115
REMARK INTER:                  -4.115
REMARK INTRA:                   0.000
REMARK UNBOUND:                 0.000
REMARK SMILES O=c1ccc2ccccc2o1
REMARK SMILES IDX 7 1 8 2 9 3 10 4 5 5 6 6 4 7 3 8 2 9 1 10 11 11
REMARK H PARENT
REMARK Flexibility Score: inf
ROOT
ATOM      1  C   UNL     1      -6.368   3.246  15.009  1.00  0.00     0.001 A 
ATOM      2  C   UNL     1      -6.310   4.107  16.111  1.00  0.00     0.004 A 
ATOM      3  C   UNL     1      -5.577   3.747  17.247  1.00  0.00     0.048 A 
ATOM      4  C   UNL     1      -4.897   2.524  17.284  1.00  0.00     0.138 A 
ATOM      5  C   UNL     1      -4.956   1.656  16.172  1.00  0.00     0.018 A 
ATOM      6  C   UNL     1      -5.693   2.022  15.036  1.00  0.00     0.012 A 
ATOM      7  C   UNL     1      -4.268   0.440  16.238  1.00  0.00     0.019 A 
ATOM      8  C   UNL     1      -3.548   0.123  17.390  1.00  0.00     0.094 A 
ATOM      9  C   UNL     1      -3.536   1.033  18.453  1.00  0.00     0.336 A 
ATOM     10  O   UNL     1      -2.893   0.764  19.501  1.00  0.00    -0.246 OA
ATOM     11  O   UNL     1      -4.199   2.183  18.364  1.00  0.00    -0.423 OA
ENDROOT
TORSDOF 0
ENDMDL
MODEL 3
REMARK VINA RESULT:    -4.006      1.117      2.160
REMARK INTER + INTRA:          -4.006
REMARK INTER:                  -4.006
REMARK INTRA:                   0.000
REMARK UNBOUND:                 0.000
REMARK SMILES O=c1ccc2ccccc2o1
REMARK SMILES IDX 7 1 8 2 9 3 10 4 5 5 6 6 4 7 3 8 2 9 1 10 11 11
REMARK H PARENT
REMARK Flexibility Score: inf
ROOT
ATOM      1  C   UNL     1      -2.913   1.139  19.133  1.00  0.00     0.001 A 
ATOM      2  C   UNL     1      -3.114   0.159  18.154  1.00  0.00     0.004 A 
ATOM      3  C   UNL     1      -3.934   0.424  17.052  1.00  0.00     0.048 A 
ATOM      4  C   UNL     1      -4.555   1.672  16.924  1.00  0.00     0.138 A 
ATOM      5  C   UNL     1      -4.351   2.660  17.912  1.00  0.00     0.018 A 
ATOM      6  C   UNL     1      -3.529   2.388  19.015  1.00  0.00     0.012 A 
ATOM      7  C   UNL     1      -4.986   3.897  17.758  1.00  0.00     0.019 A 
ATOM      8  C   UNL     1      -5.793   4.118  16.642  1.00  0.00     0.094 A 
ATOM      9  C   UNL     1      -5.949   3.091  15.704  1.00  0.00     0.336 A 
ATOM     10  O   UNL     1      -6.674   3.271  14.691  1.00  0.00    -0.246 OA
ATOM     11  O   UNL     1      -5.334   1.923  15.875  1.00  0.00    -0.423 OA
ENDROOT
TORSDOF 0
ENDMDL
MODEL 4
REMARK VINA RESULT:    -3.980      1.487      3.851
REMARK INTER + INTRA:          -3.980
REMARK INTER:                  -3.980
REMARK INTRA:                   0.000
REMARK UNBOUND:                 0.000
REMARK SMILES O=c1ccc2ccccc2o1
REMARK SMILES IDX 7 1 8 2 9 3 10 4 5 5 6 6 4 7 3 8 2 9 1 10 11 11
REMARK H PARENT
REMARK Flexibility Score: inf
ROOT
ATOM      1  C   UNL     1      -6.022   2.626  14.463  1.00  0.00     0.001 A 
ATOM      2  C   UNL     1      -6.504   3.773  15.104  1.00  0.00     0.004 A 
ATOM      3  C   UNL     1      -6.064   4.097  16.391  1.00  0.00     0.048 A 
ATOM      4  C   UNL     1      -5.137   3.275  17.043  1.00  0.00     0.138 A 
ATOM      5  C   UNL     1      -4.650   2.118  16.395  1.00  0.00     0.018 A 
ATOM      6  C   UNL     1      -5.096   1.798  15.104  1.00  0.00     0.012 A 
ATOM      7  C   UNL     1      -3.725   1.316  17.071  1.00  0.00     0.019 A 
ATOM      8  C   UNL     1      -3.313   1.678  18.353  1.00  0.00     0.094 A 
ATOM      9  C   UNL     1      -3.839   2.839  18.932  1.00  0.00     0.336 A 
ATOM     10  O   UNL     1      -3.479   3.182  20.088  1.00  0.00    -0.246 OA
ATOM     11  O   UNL     1      -4.718   3.584  18.267  1.00  0.00    -0.423 OA
ENDROOT
TORSDOF 0
ENDMDL
MODEL 5
REMARK VINA RESULT:    -3.644      1.998      4.263
REMARK INTER + INTRA:          -3.644
REMARK INTER:                  -3.644
REMARK INTRA:                   0.000
REMARK UNBOUND:                 0.000
REMARK SMILES O=c1ccc2ccccc2o1
REMARK SMILES IDX 7 1 8 2 9 3 10 4 5 5 6 6 4 7 3 8 2 9 1 10 11 11
REMARK H PARENT
REMARK Flexibility Score: inf
ROOT
ATOM      1  C   UNL     1      -5.640   2.540  14.634  1.00  0.00     0.001 A 
ATOM      2  C   UNL     1      -5.142   1.234  14.705  1.00  0.00     0.004 A 
ATOM      3  C   UNL     1      -4.476   0.796  15.855  1.00  0.00     0.048 A 
ATOM      4  C   UNL     1      -4.305   1.665  16.939  1.00  0.00     0.138 A 
ATOM      5  C   UNL     1      -4.808   2.983  16.867  1.00  0.00     0.018 A 
ATOM      6  C   UNL     1      -5.475   3.416  15.711  1.00  0.00     0.012 A 
ATOM      7  C   UNL     1      -4.622   3.828  17.966  1.00  0.00     0.019 A 
ATOM      8  C   UNL     1      -3.952   3.350  19.092  1.00  0.00     0.094 A 
ATOM      9  C   UNL     1      -3.482   2.031  19.091  1.00  0.00     0.336 A 
ATOM     10  O   UNL     1      -2.875   1.581  20.098  1.00  0.00    -0.246 OA
ATOM     11  O   UNL     1      -3.672   1.248  18.033  1.00  0.00    -0.423 OA
ENDROOT
TORSDOF 0
ENDMDL
MODEL 6
REMARK VINA RESULT:    -3.270      1.943      4.306
REMARK INTER + INTRA:          -3.270
REMARK INTER:                  -3.270
REMARK INTRA:                   0.000
REMARK UNBOUND:                 0.000
REMARK SMILES O=c1ccc2ccccc2o1
REMARK SMILES IDX 7 1 8 2 9 3 10 4 5 5 6 6 4 7 3 8 2 9 1 10 11 11
REMARK H PARENT
REMARK Flexibility Score: inf
ROOT
ATOM      1  C   UNL     1      -6.418   4.018  16.146  1.00  0.00     0.001 A 
ATOM      2  C   UNL     1      -6.576   2.806  15.463  1.00  0.00     0.004 A 
ATOM      3  C   UNL     1      -5.868   1.671  15.870  1.00  0.00     0.048 A 
ATOM      4  C   UNL     1      -4.997   1.743  16.964  1.00  0.00     0.138 A 
ATOM      5  C   UNL     1      -4.839   2.965  17.654  1.00  0.00     0.018 A 
ATOM      6  C   UNL     1      -5.552   4.100  17.241  1.00  0.00     0.012 A 
ATOM      7  C   UNL     1      -3.962   3.007  18.743  1.00  0.00     0.019 A 
ATOM      8  C   UNL     1      -3.277   1.850  19.114  1.00  0.00     0.094 A 
ATOM      9  C   UNL     1      -3.485   0.675  18.383  1.00  0.00     0.336 A 
ATOM     10  O   UNL     1      -2.875  -0.379  18.703  1.00  0.00    -0.246 OA
ATOM     11  O   UNL     1      -4.324   0.663  17.351  1.00  0.00    -0.423 OA
ENDROOT
TORSDOF 0
ENDMDL
MODEL 7
REMARK VINA RESULT:    -2.666      2.530      3.202
REMARK INTER + INTRA:          -2.666
REMARK INTER:                  -2.666
REMARK INTRA:                   0.000
REMARK UNBOUND:                 0.000
REMARK SMILES O=c1ccc2ccccc2o1
REMARK SMILES IDX 7 1 8 2 9 3 10 4 5 5 6 6 4 7 3 8 2 9 1 10 11 11
REMARK H PARENT
REMARK Flexibility Score: inf
ROOT
ATOM      1  C   UNL     1      -2.875   0.599  20.581  1.00  0.00     0.001 A 
ATOM      2  C   UNL     1      -2.878  -0.382  19.582  1.00  0.00     0.004 A 
ATOM      3  C   UNL     1      -2.887  -0.013  18.233  1.00  0.00     0.048 A 
ATOM      4  C   UNL     1      -2.892   1.341  17.877  1.00  0.00     0.138 A 
ATOM      5  C   UNL     1      -2.889   2.331  18.884  1.00  0.00     0.018 A 
ATOM      6  C   UNL     1      -2.880   1.954  20.236  1.00  0.00     0.012 A 
ATOM      7  C   UNL     1      -2.895   3.675  18.498  1.00  0.00     0.019 A 
ATOM      8  C   UNL     1      -2.902   3.997  17.141  1.00  0.00     0.094 A 
ATOM      9  C   UNL     1      -2.905   2.962  16.199  1.00  0.00     0.336 A 
ATOM     10  O   UNL     1      -2.912   3.233  14.970  1.00  0.00    -0.246 OA
ATOM     11  O   UNL     1      -2.899   1.692  16.593  1.00  0.00    -0.423 OA
ENDROOT
TORSDOF 0
ENDMDL
MODEL 8
REMARK VINA RESULT:    -2.378      2.706      4.174
REMARK INTER + INTRA:          -2.378
REMARK INTER:                  -2.378
REMARK INTRA:                   0.000
REMARK UNBOUND:                 0.000
REMARK SMILES O=c1ccc2ccccc2o1
REMARK SMILES IDX 7 1 8 2 9 3 10 4 5 5 6 6 4 7 3 8 2 9 1 10 11 11
REMARK H PARENT
REMARK Flexibility Score: inf
ROOT
ATOM      1  C   UNL     1      -3.797   3.196  16.488  1.00  0.00     0.001 A 
ATOM      2  C   UNL     1      -3.913   4.064  17.579  1.00  0.00     0.004 A 
ATOM      3  C   UNL     1      -3.743   3.585  18.882  1.00  0.00     0.048 A 
ATOM      4  C   UNL     1      -3.455   2.232  19.099  1.00  0.00     0.138 A 
ATOM      5  C   UNL     1      -3.337   1.356  17.998  1.00  0.00     0.018 A 
ATOM      6  C   UNL     1      -3.509   1.843  16.694  1.00  0.00     0.012 A 
ATOM      7  C   UNL     1      -3.048   0.010  18.245  1.00  0.00     0.019 A 
ATOM      8  C   UNL     1      -2.886  -0.425  19.561  1.00  0.00     0.094 A 
ATOM      9  C   UNL     1      -3.018   0.501  20.602  1.00  0.00     0.336 A 
ATOM     10  O   UNL     1      -2.875   0.128  21.795  1.00  0.00    -0.246 OA
ATOM     11  O   UNL     1      -3.293   1.776  20.338  1.00  0.00    -0.423 OA
ENDROOT
TORSDOF 0
ENDMDL
MODEL 9
REMARK VINA RESULT:    -1.937      2.992      4.305
REMARK INTER + INTRA:          -1.937
REMARK INTER:                  -1.937
REMARK INTRA:                   0.000
REMARK UNBOUND:                 0.000
REMARK SMILES O=c1ccc2ccccc2o1
REMARK SMILES IDX 7 1 8 2 9 3 10 4 5 5 6 6 4 7 3 8 2 9 1 10 11 11
REMARK H PARENT
REMARK Flexibility Score: inf
ROOT
ATOM      1  C   UNL     1      -2.878  -0.015  22.586  1.00  0.00     0.001 A 
ATOM      2  C   UNL     1      -2.885  -1.280  21.986  1.00  0.00     0.004 A 
ATOM      3  C   UNL     1      -2.890  -1.397  20.592  1.00  0.00     0.048 A 
ATOM      4  C   UNL     1      -2.887  -0.249  19.791  1.00  0.00     0.138 A 
ATOM      5  C   UNL     1      -2.880   1.027  20.397  1.00  0.00     0.018 A 
ATOM      6  C   UNL     1      -2.875   1.138  21.796  1.00  0.00     0.012 A 
ATOM      7  C   UNL     1      -2.877   2.156  19.572  1.00  0.00     0.019 A 
ATOM      8  C   UNL     1      -2.882   1.992  18.187  1.00  0.00     0.094 A 
ATOM      9  C   UNL     1      -2.889   0.696  17.658  1.00  0.00     0.336 A 
ATOM     10  O   UNL     1      -2.893   0.527  16.411  1.00  0.00    -0.246 OA
ATOM     11  O   UNL     1      -2.891  -0.361  18.466  1.00  0.00    -0.423 OA
ENDROOT
TORSDOF 0
ENDMDL
