MODEL 1
REMARK VINA RESULT:    -7.694      0.000      0.000
REMARK INTER + INTRA:          -9.267
REMARK INTER:                  -9.043
REMARK INTRA:                  -0.224
REMARK UNBOUND:                -0.224
REMARK SMILES O=c1c(O)c(-c2ccc(O)c(O)c2)oc2cc(O)ccc12
REMARK SMILES IDX 5 1 3 2 2 3 1 4 21 5 15 6 14 7 16 8 17 9 19 10 20 11 6 12
REMARK SMILES IDX 7 13 8 14 9 15 13 16 11 17 10 18 12 20 4 22 18 24
REMARK H PARENT 10 19 12 21 4 23 18 25
REMARK Flexibility Score: inf
ROOT
ATOM      1  C   UNL     1      12.426 -23.958  22.247  1.00  0.00     0.180 A 
ATOM      2  C   UNL     1      11.051 -24.184  22.029  1.00  0.00     0.208 A 
ATOM      3  C   UNL     1      10.164 -24.048  23.107  1.00  0.00     0.235 A 
ATOM      4  O   UNL     1       8.928 -24.234  22.935  1.00  0.00    -0.285 OA
ATOM      5  C   UNL     1      10.664 -23.711  24.375  1.00  0.00     0.069 A 
ATOM      6  C   UNL     1      12.055 -23.524  24.517  1.00  0.00     0.142 A 
ATOM      7  O   UNL     1      12.861 -23.654  23.469  1.00  0.00    -0.452 OA
ATOM      8  C   UNL     1      12.594 -23.197  25.766  1.00  0.00     0.094 A 
ATOM      9  C   UNL     1      11.759 -23.053  26.878  1.00  0.00     0.119 A 
ATOM     10  C   UNL     1      10.376 -23.237  26.741  1.00  0.00     0.047 A 
ATOM     11  C   UNL     1       9.829 -23.564  25.498  1.00  0.00     0.020 A 
ENDROOT
BRANCH   1  12
ATOM     12  C   UNL     1      13.423 -24.063  21.158  1.00  0.00     0.025 A 
ATOM     13  C   UNL     1      14.066 -22.925  20.642  1.00  0.00     0.016 A 
ATOM     14  C   UNL     1      15.022 -23.051  19.630  1.00  0.00     0.051 A 
ATOM     15  C   UNL     1      15.358 -24.315  19.128  1.00  0.00     0.157 A 
ATOM     16  C   UNL     1      13.779 -25.330  20.666  1.00  0.00     0.062 A 
ATOM     17  C   UNL     1      14.734 -25.460  19.653  1.00  0.00     0.158 A 
BRANCH  15  18
ATOM     18  O   UNL     1      16.309 -24.438  18.117  1.00  0.00    -0.504 OA
ATOM     19  H   UNL     1      16.197 -23.973  17.223  1.00  0.00     0.293 HD
ENDBRANCH  15  18
BRANCH  17  20
ATOM     20  O   UNL     1      15.051 -26.733  19.181  1.00  0.00    -0.504 OA
ATOM     21  H   UNL     1      14.423 -27.520  19.292  1.00  0.00     0.293 HD
ENDBRANCH  17  20
ENDBRANCH   1  12
BRANCH   2  22
ATOM     22  O   UNL     1      10.589 -24.565  20.767  1.00  0.00    -0.502 OA
ATOM     23  H   UNL     1       9.632 -24.856  20.606  1.00  0.00     0.293 HD
ENDBRANCH   2  22
BRANCH   9  24
ATOM     24  O   UNL     1      12.312 -22.727  28.115  1.00  0.00    -0.508 OA
ATOM     25  H   UNL     1      12.230 -23.348  28.912  1.00  0.00     0.293 HD
ENDBRANCH   9  24
TORSDOF 5
ENDMDL
MODEL 2
REMARK VINA RESULT:    -5.819      5.186      7.276
REMARK INTER + INTRA:          -7.064
REMARK INTER:                  -6.975
REMARK INTRA:                  -0.088
REMARK UNBOUND:                -0.224
REMARK SMILES O=c1c(O)c(-c2ccc(O)c(O)c2)oc2cc(O)ccc12
REMARK SMILES IDX 5 1 3 2 2 3 1 4 21 5 15 6 14 7 16 8 17 9 19 10 20 11 6 12
REMARK SMILES IDX 7 13 8 14 9 15 13 16 11 17 10 18 12 20 4 22 18 24
REMARK H PARENT 10 19 12 21 4 23 18 25
REMARK Flexibility Score: inf
ROOT
ATOM      1  C   UNL     1      16.717 -26.649  22.706  1.00  0.00     0.180 A 
ATOM      2  C   UNL     1      18.030 -26.387  23.151  1.00  0.00     0.208 A 
ATOM      3  C   UNL     1      18.713 -27.381  23.868  1.00  0.00     0.235 A 
ATOM      4  O   UNL     1      19.892 -27.174  24.266  1.00  0.00    -0.285 OA
ATOM      5  C   UNL     1      18.071 -28.599  24.140  1.00  0.00     0.069 A 
ATOM      6  C   UNL     1      16.748 -28.776  23.682  1.00  0.00     0.142 A 
ATOM      7  O   UNL     1      16.140 -27.813  22.999  1.00  0.00    -0.452 OA
ATOM      8  C   UNL     1      16.071 -29.972  23.943  1.00  0.00     0.094 A 
ATOM      9  C   UNL     1      16.699 -30.997  24.657  1.00  0.00     0.119 A 
ATOM     10  C   UNL     1      18.014 -30.826  25.113  1.00  0.00     0.047 A 
ATOM     11  C   UNL     1      18.698 -29.635  24.858  1.00  0.00     0.020 A 
ENDROOT
BRANCH   1  12
ATOM     12  C   UNL     1      15.937 -25.659  21.928  1.00  0.00     0.025 A 
ATOM     13  C   UNL     1      15.436 -25.963  20.651  1.00  0.00     0.016 A 
ATOM     14  C   UNL     1      14.682 -25.021  19.946  1.00  0.00     0.051 A 
ATOM     15  C   UNL     1      14.407 -23.769  20.510  1.00  0.00     0.157 A 
ATOM     16  C   UNL     1      15.642 -24.411  22.499  1.00  0.00     0.062 A 
ATOM     17  C   UNL     1      14.888 -23.465  21.796  1.00  0.00     0.158 A 
BRANCH  15  18
ATOM     18  O   UNL     1      13.658 -22.830  19.804  1.00  0.00    -0.504 OA
ATOM     19  H   UNL     1      13.704 -21.841  20.022  1.00  0.00     0.293 HD
ENDBRANCH  15  18
BRANCH  17  20
ATOM     20  O   UNL     1      14.626 -22.231  22.389  1.00  0.00    -0.504 OA
ATOM     21  H   UNL     1      14.950 -21.360  21.985  1.00  0.00     0.293 HD
ENDBRANCH  17  20
ENDBRANCH   1  12
BRANCH   2  22
ATOM     22  O   UNL     1      18.624 -25.147  22.906  1.00  0.00    -0.502 OA
ATOM     23  H   UNL     1      18.994 -24.567  23.650  1.00  0.00     0.293 HD
ENDBRANCH   2  22
BRANCH   9  24
ATOM     24  O   UNL     1      16.010 -32.182  24.907  1.00  0.00    -0.508 OA
ATOM     25  H   UNL     1      15.500 -32.662  24.174  1.00  0.00     0.293 HD
ENDBRANCH   9  24
TORSDOF 5
ENDMDL
MODEL 3
REMARK VINA RESULT:    -5.779     11.829     13.210
REMARK INTER + INTRA:          -7.016
REMARK INTER:                  -6.700
REMARK INTRA:                  -0.316
REMARK UNBOUND:                -0.224
REMARK SMILES O=c1c(O)c(-c2ccc(O)c(O)c2)oc2cc(O)ccc12
REMARK SMILES IDX 5 1 3 2 2 3 1 4 21 5 15 6 14 7 16 8 17 9 19 10 20 11 6 12
REMARK SMILES IDX 7 13 8 14 9 15 13 16 11 17 10 18 12 20 4 22 18 24
REMARK H PARENT 10 19 12 21 4 23 18 25
REMARK Flexibility Score: inf
ROOT
ATOM      1  C   UNL     1      21.483 -29.144  30.097  1.00  0.00     0.180 A 
ATOM      2  C   UNL     1      22.147 -29.866  31.111  1.00  0.00     0.208 A 
ATOM      3  C   UNL     1      21.481 -30.939  31.724  1.00  0.00     0.235 A 
ATOM      4  O   UNL     1      22.058 -31.607  32.625  1.00  0.00    -0.285 OA
ATOM      5  C   UNL     1      20.172 -31.254  31.330  1.00  0.00     0.069 A 
ATOM      6  C   UNL     1      19.567 -30.469  30.326  1.00  0.00     0.142 A 
ATOM      7  O   UNL     1      20.235 -29.467  29.764  1.00  0.00    -0.452 OA
ATOM      8  C   UNL     1      18.260 -30.745  29.913  1.00  0.00     0.094 A 
ATOM      9  C   UNL     1      17.545 -31.799  30.491  1.00  0.00     0.119 A 
ATOM     10  C   UNL     1      18.143 -32.582  31.488  1.00  0.00     0.047 A 
ATOM     11  C   UNL     1      19.448 -32.314  31.908  1.00  0.00     0.020 A 
ENDROOT
BRANCH   1  12
ATOM     12  C   UNL     1      22.123 -28.012  29.390  1.00  0.00     0.025 A 
ATOM     13  C   UNL     1      21.998 -26.692  29.856  1.00  0.00     0.016 A 
ATOM     14  C   UNL     1      22.631 -25.643  29.185  1.00  0.00     0.051 A 
ATOM     15  C   UNL     1      23.409 -25.897  28.048  1.00  0.00     0.157 A 
ATOM     16  C   UNL     1      22.921 -28.265  28.262  1.00  0.00     0.062 A 
ATOM     17  C   UNL     1      23.556 -27.216  27.587  1.00  0.00     0.158 A 
BRANCH  15  18
ATOM     18  O   UNL     1      24.037 -24.848  27.379  1.00  0.00    -0.504 OA
ATOM     19  H   UNL     1      23.672 -24.480  26.508  1.00  0.00     0.293 HD
ENDBRANCH  15  18
BRANCH  17  20
ATOM     20  O   UNL     1      24.329 -27.504  26.463  1.00  0.00    -0.504 OA
ATOM     21  H   UNL     1      24.318 -28.416  26.022  1.00  0.00     0.293 HD
ENDBRANCH  17  20
ENDBRANCH   1  12
BRANCH   2  22
ATOM     22  O   UNL     1      23.432 -29.498  31.515  1.00  0.00    -0.502 OA
ATOM     23  H   UNL     1      23.678 -29.373  32.490  1.00  0.00     0.293 HD
ENDBRANCH   2  22
BRANCH   9  24
ATOM     24  O   UNL     1      16.244 -32.060  30.067  1.00  0.00    -0.508 OA
ATOM     25  H   UNL     1      15.730 -32.867  30.403  1.00  0.00     0.293 HD
ENDBRANCH   9  24
TORSDOF 5
ENDMDL
MODEL 4
REMARK VINA RESULT:    -5.580      1.343      3.019
REMARK INTER + INTRA:          -6.783
REMARK INTER:                  -6.533
REMARK INTRA:                  -0.250
REMARK UNBOUND:                -0.224
REMARK SMILES O=c1c(O)c(-c2ccc(O)c(O)c2)oc2cc(O)ccc12
REMARK SMILES IDX 5 1 3 2 2 3 1 4 21 5 15 6 14 7 16 8 17 9 19 10 20 11 6 12
REMARK SMILES IDX 7 13 8 14 9 15 13 16 11 17 10 18 12 20 4 22 18 24
REMARK H PARENT 10 19 12 21 4 23 18 25
REMARK Flexibility Score: inf
ROOT
ATOM      1  C   UNL     1      13.139 -23.920  21.844  1.00  0.00     0.180 A 
ATOM      2  C   UNL     1      13.586 -23.492  23.112  1.00  0.00     0.208 A 
ATOM      3  C   UNL     1      12.651 -23.364  24.150  1.00  0.00     0.235 A 
ATOM      4  O   UNL     1      13.028 -22.993  25.296  1.00  0.00    -0.285 OA
ATOM      5  C   UNL     1      11.299 -23.644  23.901  1.00  0.00     0.069 A 
ATOM      6  C   UNL     1      10.927 -24.043  22.599  1.00  0.00     0.142 A 
ATOM      7  O   UNL     1      11.844 -24.161  21.645  1.00  0.00    -0.452 OA
ATOM      8  C   UNL     1       9.588 -24.321  22.308  1.00  0.00     0.094 A 
ATOM      9  C   UNL     1       8.611 -24.207  23.302  1.00  0.00     0.119 A 
ATOM     10  C   UNL     1       8.976 -23.811  24.597  1.00  0.00     0.047 A 
ATOM     11  C   UNL     1      10.311 -23.530  24.897  1.00  0.00     0.020 A 
ENDROOT
BRANCH   1  12
ATOM     12  C   UNL     1      14.065 -24.098  20.702  1.00  0.00     0.025 A 
ATOM     13  C   UNL     1      14.602 -22.995  20.017  1.00  0.00     0.016 A 
ATOM     14  C   UNL     1      15.493 -23.188  18.958  1.00  0.00     0.051 A 
ATOM     15  C   UNL     1      15.870 -24.482  18.576  1.00  0.00     0.157 A 
ATOM     16  C   UNL     1      14.462 -25.393  20.331  1.00  0.00     0.062 A 
ATOM     17  C   UNL     1      15.353 -25.590  19.270  1.00  0.00     0.158 A 
BRANCH  15  18
ATOM     18  O   UNL     1      16.756 -24.671  17.518  1.00  0.00    -0.504 OA
ATOM     19  H   UNL     1      17.287 -25.529  17.417  1.00  0.00     0.293 HD
ENDBRANCH  15  18
BRANCH  17  20
ATOM     20  O   UNL     1      15.713 -26.890  18.920  1.00  0.00    -0.504 OA
ATOM     21  H   UNL     1      16.593 -27.301  19.209  1.00  0.00     0.293 HD
ENDBRANCH  17  20
ENDBRANCH   1  12
BRANCH   2  22
ATOM     22  O   UNL     1      14.930 -23.174  23.317  1.00  0.00    -0.502 OA
ATOM     23  H   UNL     1      15.383 -22.402  22.840  1.00  0.00     0.293 HD
ENDBRANCH   2  22
BRANCH   9  24
ATOM     24  O   UNL     1       7.281 -24.488  22.994  1.00  0.00    -0.508 OA
ATOM     25  H   UNL     1       7.024 -25.313  22.464  1.00  0.00     0.293 HD
ENDBRANCH   9  24
TORSDOF 5
ENDMDL
MODEL 5
REMARK VINA RESULT:    -5.536     10.899     12.693
REMARK INTER + INTRA:          -6.731
REMARK INTER:                  -6.521
REMARK INTRA:                  -0.211
REMARK UNBOUND:                -0.224
REMARK SMILES O=c1c(O)c(-c2ccc(O)c(O)c2)oc2cc(O)ccc12
REMARK SMILES IDX 5 1 3 2 2 3 1 4 21 5 15 6 14 7 16 8 17 9 19 10 20 11 6 12
REMARK SMILES IDX 7 13 8 14 9 15 13 16 11 17 10 18 12 20 4 22 18 24
REMARK H PARENT 10 19 12 21 4 23 18 25
REMARK Flexibility Score: inf
ROOT
ATOM      1  C   UNL     1      20.415 -29.148  28.477  1.00  0.00     0.180 A 
ATOM      2  C   UNL     1      19.845 -29.136  27.188  1.00  0.00     0.208 A 
ATOM      3  C   UNL     1      20.325 -28.216  26.244  1.00  0.00     0.235 A 
ATOM      4  O   UNL     1      19.838 -28.194  25.080  1.00  0.00    -0.285 OA
ATOM      5  C   UNL     1      21.342 -27.320  26.608  1.00  0.00     0.069 A 
ATOM      6  C   UNL     1      21.844 -27.379  27.926  1.00  0.00     0.142 A 
ATOM      7  O   UNL     1      21.369 -28.272  28.787  1.00  0.00    -0.452 OA
ATOM      8  C   UNL     1      22.851 -26.496  28.330  1.00  0.00     0.094 A 
ATOM      9  C   UNL     1      23.366 -25.554  27.434  1.00  0.00     0.119 A 
ATOM     10  C   UNL     1      22.870 -25.494  26.125  1.00  0.00     0.047 A 
ATOM     11  C   UNL     1      21.864 -26.370  25.711  1.00  0.00     0.020 A 
ENDROOT
BRANCH   1  12
ATOM     12  C   UNL     1      19.977 -30.101  29.523  1.00  0.00     0.025 A 
ATOM     13  C   UNL     1      18.709 -30.000  30.120  1.00  0.00     0.016 A 
ATOM     14  C   UNL     1      18.308 -30.925  31.087  1.00  0.00     0.051 A 
ATOM     15  C   UNL     1      19.161 -31.970  31.463  1.00  0.00     0.157 A 
ATOM     16  C   UNL     1      20.821 -31.162  29.887  1.00  0.00     0.062 A 
ATOM     17  C   UNL     1      20.424 -32.090  30.857  1.00  0.00     0.158 A 
BRANCH  15  18
ATOM     18  O   UNL     1      18.761 -32.890  32.431  1.00  0.00    -0.504 OA
ATOM     19  H   UNL     1      19.216 -32.941  33.335  1.00  0.00     0.293 HD
ENDBRANCH  15  18
BRANCH  17  20
ATOM     20  O   UNL     1      21.294 -33.123  31.203  1.00  0.00    -0.504 OA
ATOM     21  H   UNL     1      21.914 -33.059  32.001  1.00  0.00     0.293 HD
ENDBRANCH  17  20
ENDBRANCH   1  12
BRANCH   2  22
ATOM     22  O   UNL     1      18.800 -30.007  26.869  1.00  0.00    -0.502 OA
ATOM     23  H   UNL     1      18.956 -30.889  26.394  1.00  0.00     0.293 HD
ENDBRANCH   2  22
BRANCH   9  24
ATOM     24  O   UNL     1      24.369 -24.683  27.855  1.00  0.00    -0.508 OA
ATOM     25  H   UNL     1      25.026 -24.276  27.199  1.00  0.00     0.293 HD
ENDBRANCH   9  24
TORSDOF 5
ENDMDL
MODEL 6
REMARK VINA RESULT:    -5.337      5.300      7.172
REMARK INTER + INTRA:          -6.497
REMARK INTER:                  -6.493
REMARK INTRA:                  -0.005
REMARK UNBOUND:                -0.224
REMARK SMILES O=c1c(O)c(-c2ccc(O)c(O)c2)oc2cc(O)ccc12
REMARK SMILES IDX 5 1 3 2 2 3 1 4 21 5 15 6 14 7 16 8 17 9 19 10 20 11 6 12
REMARK SMILES IDX 7 13 8 14 9 15 13 16 11 17 10 18 12 20 4 22 18 24
REMARK H PARENT 10 19 12 21 4 23 18 25
REMARK Flexibility Score: inf
ROOT
ATOM      1  C   UNL     1      16.740 -26.599  22.660  1.00  0.00     0.180 A 
ATOM      2  C   UNL     1      16.359 -27.927  22.942  1.00  0.00     0.208 A 
ATOM      3  C   UNL     1      17.232 -28.738  23.684  1.00  0.00     0.235 A 
ATOM      4  O   UNL     1      16.908 -29.927  23.958  1.00  0.00    -0.285 OA
ATOM      5  C   UNL     1      18.464 -28.219  24.109  1.00  0.00     0.069 A 
ATOM      6  C   UNL     1      18.783 -26.888  23.765  1.00  0.00     0.142 A 
ATOM      7  O   UNL     1      17.925 -26.149  23.069  1.00  0.00    -0.452 OA
ATOM      8  C   UNL     1      20.006 -26.336  24.162  1.00  0.00     0.094 A 
ATOM      9  C   UNL     1      20.918 -27.098  24.899  1.00  0.00     0.119 A 
ATOM     10  C   UNL     1      20.604 -28.421  25.242  1.00  0.00     0.047 A 
ATOM     11  C   UNL     1      19.386 -28.981  24.850  1.00  0.00     0.020 A 
ENDROOT
BRANCH   1  12
ATOM     12  C   UNL     1      15.868 -25.675  21.900  1.00  0.00     0.025 A 
ATOM     13  C   UNL     1      15.319 -26.040  20.660  1.00  0.00     0.016 A 
ATOM     14  C   UNL     1      14.479 -25.160  19.972  1.00  0.00     0.051 A 
ATOM     15  C   UNL     1      14.165 -23.910  20.519  1.00  0.00     0.157 A 
ATOM     16  C   UNL     1      15.533 -24.428  22.455  1.00  0.00     0.062 A 
ATOM     17  C   UNL     1      14.693 -23.544  21.769  1.00  0.00     0.158 A 
BRANCH  15  18
ATOM     18  O   UNL     1      13.329 -23.032  19.830  1.00  0.00    -0.504 OA
ATOM     19  H   UNL     1      12.422 -23.325  19.484  1.00  0.00     0.293 HD
ENDBRANCH  15  18
BRANCH  17  20
ATOM     20  O   UNL     1      14.394 -22.310  22.344  1.00  0.00    -0.504 OA
ATOM     21  H   UNL     1      14.866 -21.976  23.176  1.00  0.00     0.293 HD
ENDBRANCH  17  20
ENDBRANCH   1  12
BRANCH   2  22
ATOM     22  O   UNL     1      15.147 -28.431  22.465  1.00  0.00    -0.502 OA
ATOM     23  H   UNL     1      14.874 -29.399  22.596  1.00  0.00     0.293 HD
ENDBRANCH   2  22
BRANCH   9  24
ATOM     24  O   UNL     1      22.131 -26.533  25.285  1.00  0.00    -0.508 OA
ATOM     25  H   UNL     1      22.173 -25.789  25.972  1.00  0.00     0.293 HD
ENDBRANCH   9  24
TORSDOF 5
ENDMDL
MODEL 7
REMARK VINA RESULT:    -5.261      8.248      9.624
REMARK INTER + INTRA:          -6.408
REMARK INTER:                  -6.091
REMARK INTRA:                  -0.317
REMARK UNBOUND:                -0.224
REMARK SMILES O=c1c(O)c(-c2ccc(O)c(O)c2)oc2cc(O)ccc12
REMARK SMILES IDX 5 1 3 2 2 3 1 4 21 5 15 6 14 7 16 8 17 9 19 10 20 11 6 12
REMARK SMILES IDX 7 13 8 14 9 15 13 16 11 17 10 18 12 20 4 22 18 24
REMARK H PARENT 10 19 12 21 4 23 18 25
REMARK Flexibility Score: inf
ROOT
ATOM      1  C   UNL     1      19.887 -27.557  24.656  1.00  0.00     0.180 A 
ATOM      2  C   UNL     1      19.150 -26.699  23.813  1.00  0.00     0.208 A 
ATOM      3  C   UNL     1      17.890 -27.116  23.358  1.00  0.00     0.235 A 
ATOM      4  O   UNL     1      17.207 -26.362  22.612  1.00  0.00    -0.285 OA
ATOM      5  C   UNL     1      17.403 -28.377  23.734  1.00  0.00     0.069 A 
ATOM      6  C   UNL     1      18.211 -29.187  24.560  1.00  0.00     0.142 A 
ATOM      7  O   UNL     1      19.395 -28.752  24.977  1.00  0.00    -0.452 OA
ATOM      8  C   UNL     1      17.765 -30.455  24.949  1.00  0.00     0.094 A 
ATOM      9  C   UNL     1      16.519 -30.926  24.523  1.00  0.00     0.119 A 
ATOM     10  C   UNL     1      15.714 -30.124  23.703  1.00  0.00     0.047 A 
ATOM     11  C   UNL     1      16.150 -28.857  23.309  1.00  0.00     0.020 A 
ENDROOT
BRANCH   1  12
ATOM     12  C   UNL     1      21.215 -27.182  25.192  1.00  0.00     0.025 A 
ATOM     13  C   UNL     1      21.341 -26.390  26.346  1.00  0.00     0.016 A 
ATOM     14  C   UNL     1      22.605 -26.069  26.848  1.00  0.00     0.051 A 
ATOM     15  C   UNL     1      23.760 -26.544  26.213  1.00  0.00     0.157 A 
ATOM     16  C   UNL     1      22.375 -27.674  24.571  1.00  0.00     0.062 A 
ATOM     17  C   UNL     1      23.642 -27.353  25.070  1.00  0.00     0.158 A 
BRANCH  15  18
ATOM     18  O   UNL     1      25.020 -26.220  26.714  1.00  0.00    -0.504 OA
ATOM     19  H   UNL     1      25.143 -25.496  27.412  1.00  0.00     0.293 HD
ENDBRANCH  15  18
BRANCH  17  20
ATOM     20  O   UNL     1      24.771 -27.849  24.419  1.00  0.00    -0.504 OA
ATOM     21  H   UNL     1      24.789 -28.008  23.419  1.00  0.00     0.293 HD
ENDBRANCH  17  20
ENDBRANCH   1  12
BRANCH   2  22
ATOM     22  O   UNL     1      19.682 -25.470  23.416  1.00  0.00    -0.502 OA
ATOM     23  H   UNL     1      19.707 -24.666  24.033  1.00  0.00     0.293 HD
ENDBRANCH   2  22
BRANCH   9  24
ATOM     24  O   UNL     1      16.092 -32.192  24.920  1.00  0.00    -0.508 OA
ATOM     25  H   UNL     1      15.588 -32.802  24.287  1.00  0.00     0.293 HD
ENDBRANCH   9  24
TORSDOF 5
ENDMDL
MODEL 8
REMARK VINA RESULT:    -5.166     10.997     12.928
REMARK INTER + INTRA:          -6.296
REMARK INTER:                  -6.007
REMARK INTRA:                  -0.289
REMARK UNBOUND:                -0.224
REMARK SMILES O=c1c(O)c(-c2ccc(O)c(O)c2)oc2cc(O)ccc12
REMARK SMILES IDX 5 1 3 2 2 3 1 4 21 5 15 6 14 7 16 8 17 9 19 10 20 11 6 12
REMARK SMILES IDX 7 13 8 14 9 15 13 16 11 17 10 18 12 20 4 22 18 24
REMARK H PARENT 10 19 12 21 4 23 18 25
REMARK Flexibility Score: inf
ROOT
ATOM      1  C   UNL     1      22.123 -27.886  28.196  1.00  0.00     0.180 A 
ATOM      2  C   UNL     1      22.698 -26.840  27.445  1.00  0.00     0.208 A 
ATOM      3  C   UNL     1      22.019 -26.370  26.310  1.00  0.00     0.235 A 
ATOM      4  O   UNL     1      22.508 -25.427  25.629  1.00  0.00    -0.285 OA
ATOM      5  C   UNL     1      20.801 -26.960  25.940  1.00  0.00     0.069 A 
ATOM      6  C   UNL     1      20.304 -28.019  26.730  1.00  0.00     0.142 A 
ATOM      7  O   UNL     1      20.972 -28.429  27.802  1.00  0.00    -0.452 OA
ATOM      8  C   UNL     1      19.098 -28.640  26.388  1.00  0.00     0.094 A 
ATOM      9  C   UNL     1      18.380 -28.217  25.265  1.00  0.00     0.119 A 
ATOM     10  C   UNL     1      18.871 -27.166  24.479  1.00  0.00     0.047 A 
ATOM     11  C   UNL     1      20.074 -26.539  24.811  1.00  0.00     0.020 A 
ENDROOT
BRANCH   1  12
ATOM     12  C   UNL     1      22.767 -28.425  29.416  1.00  0.00     0.025 A 
ATOM     13  C   UNL     1      23.823 -29.348  29.339  1.00  0.00     0.016 A 
ATOM     14  C   UNL     1      24.431 -29.825  30.504  1.00  0.00     0.051 A 
ATOM     15  C   UNL     1      24.003 -29.376  31.760  1.00  0.00     0.157 A 
ATOM     16  C   UNL     1      22.354 -27.962  30.677  1.00  0.00     0.062 A 
ATOM     17  C   UNL     1      22.960 -28.437  31.845  1.00  0.00     0.158 A 
BRANCH  15  18
ATOM     18  O   UNL     1      24.609 -29.855  32.920  1.00  0.00    -0.504 OA
ATOM     19  H   UNL     1      24.946 -30.809  32.987  1.00  0.00     0.293 HD
ENDBRANCH  15  18
BRANCH  17  20
ATOM     20  O   UNL     1      22.515 -27.965  33.079  1.00  0.00    -0.504 OA
ATOM     21  H   UNL     1      21.590 -28.175  33.433  1.00  0.00     0.293 HD
ENDBRANCH  17  20
ENDBRANCH   1  12
BRANCH   2  22
ATOM     22  O   UNL     1      23.935 -26.304  27.811  1.00  0.00    -0.502 OA
ATOM     23  H   UNL     1      24.209 -26.186  28.780  1.00  0.00     0.293 HD
ENDBRANCH   2  22
BRANCH   9  24
ATOM     24  O   UNL     1      17.180 -28.848  24.940  1.00  0.00    -0.508 OA
ATOM     25  H   UNL     1      16.293 -28.512  25.296  1.00  0.00     0.293 HD
ENDBRANCH   9  24
TORSDOF 5
ENDMDL
MODEL 9
REMARK VINA RESULT:    -4.996      8.779     10.152
REMARK INTER + INTRA:          -6.096
REMARK INTER:                  -5.800
REMARK INTRA:                  -0.296
REMARK UNBOUND:                -0.224
REMARK SMILES O=c1c(O)c(-c2ccc(O)c(O)c2)oc2cc(O)ccc12
REMARK SMILES IDX 5 1 3 2 2 3 1 4 21 5 15 6 14 7 16 8 17 9 19 10 20 11 6 12
REMARK SMILES IDX 7 13 8 14 9 15 13 16 11 17 10 18 12 20 4 22 18 24
REMARK H PARENT 10 19 12 21 4 23 18 25
REMARK Flexibility Score: inf
ROOT
ATOM      1  C   UNL     1      19.773 -28.088  25.719  1.00  0.00     0.180 A 
ATOM      2  C   UNL     1      20.573 -27.115  25.086  1.00  0.00     0.208 A 
ATOM      3  C   UNL     1      21.577 -26.477  25.829  1.00  0.00     0.235 A 
ATOM      4  O   UNL     1      22.313 -25.610  25.281  1.00  0.00    -0.285 OA
ATOM      5  C   UNL     1      21.750 -26.806  27.182  1.00  0.00     0.069 A 
ATOM      6  C   UNL     1      20.893 -27.773  27.750  1.00  0.00     0.142 A 
ATOM      7  O   UNL     1      19.959 -28.361  27.009  1.00  0.00    -0.452 OA
ATOM      8  C   UNL     1      21.026 -28.121  29.098  1.00  0.00     0.094 A 
ATOM      9  C   UNL     1      22.007 -27.516  29.889  1.00  0.00     0.119 A 
ATOM     10  C   UNL     1      22.860 -26.555  29.329  1.00  0.00     0.047 A 
ATOM     11  C   UNL     1      22.734 -26.200  27.984  1.00  0.00     0.020 A 
ENDROOT
BRANCH   1  12
ATOM     12  C   UNL     1      18.705 -28.819  24.999  1.00  0.00     0.025 A 
ATOM     13  C   UNL     1      17.436 -28.250  24.797  1.00  0.00     0.016 A 
ATOM     14  C   UNL     1      16.452 -28.949  24.094  1.00  0.00     0.051 A 
ATOM     15  C   UNL     1      16.724 -30.220  23.571  1.00  0.00     0.157 A 
ATOM     16  C   UNL     1      18.981 -30.084  24.454  1.00  0.00     0.062 A 
ATOM     17  C   UNL     1      17.997 -30.788  23.750  1.00  0.00     0.158 A 
BRANCH  15  18
ATOM     18  O   UNL     1      15.740 -30.917  22.872  1.00  0.00    -0.504 OA
ATOM     19  H   UNL     1      15.835 -31.905  22.665  1.00  0.00     0.293 HD
ENDBRANCH  15  18
BRANCH  17  20
ATOM     20  O   UNL     1      18.303 -32.047  23.236  1.00  0.00    -0.504 OA
ATOM     21  H   UNL     1      17.594 -32.653  22.839  1.00  0.00     0.293 HD
ENDBRANCH  17  20
ENDBRANCH   1  12
BRANCH   2  22
ATOM     22  O   UNL     1      20.346 -26.773  23.750  1.00  0.00    -0.502 OA
ATOM     23  H   UNL     1      21.104 -26.616  23.095  1.00  0.00     0.293 HD
ENDBRANCH   2  22
BRANCH   9  24
ATOM     24  O   UNL     1      22.125 -27.875  31.231  1.00  0.00    -0.508 OA
ATOM     25  H   UNL     1      21.771 -28.761  31.574  1.00  0.00     0.293 HD
ENDBRANCH   9  24
TORSDOF 5
ENDMDL
