MODEL 1
REMARK VINA RESULT:    -3.170      0.000      0.000
REMARK INTER + INTRA:          -3.448
REMARK INTER:                  -3.448
REMARK INTRA:                   0.000
REMARK UNBOUND:                 0.000
REMARK SMILES [NH3+]CC(=O)[O-]
REMARK SMILES IDX 2 1 1 2 3 6 4 7 5 8
REMARK H PARENT 1 3 1 4 1 5
REMARK Flexibility Score: inf
ROOT
ATOM      1  C   UNL     1     -11.932   4.102  20.670  1.00  0.00     0.312 C 
ENDROOT
BRANCH   1   2
ATOM      2  N   UNL     1     -12.854   3.903  19.552  1.00  0.00    -0.353 N 
ATOM      3  H   UNL     1     -12.405   4.206  18.658  1.00  0.00     0.344 HD
ATOM      4  H   UNL     1     -13.732   4.448  19.709  1.00  0.00     0.344 HD
ATOM      5  H   UNL     1     -13.094   2.887  19.483  1.00  0.00     0.344 HD
ENDBRANCH   1   2
BRANCH   1   6
ATOM      6  C   UNL     1     -12.674   4.115  21.970  1.00  0.00     0.096 C 
ATOM      7  O   UNL     1     -13.607   3.294  22.175  1.00  0.00    -0.544 OA
ATOM      8  O   UNL     1     -12.303   4.999  22.974  1.00  0.00    -0.544 OA
ENDBRANCH   1   6
TORSDOF 2
ENDMDL
MODEL 2
REMARK VINA RESULT:    -3.100      1.495      1.666
REMARK INTER + INTRA:          -3.372
REMARK INTER:                  -3.372
REMARK INTRA:                   0.000
REMARK UNBOUND:                 0.000
REMARK SMILES [NH3+]CC(=O)[O-]
REMARK SMILES IDX 2 1 1 2 3 6 4 7 5 8
REMARK H PARENT 1 3 1 4 1 5
REMARK Flexibility Score: inf
ROOT
ATOM      1  C   UNL     1     -13.680   3.528  21.857  1.00  0.00     0.312 C 
ENDROOT
BRANCH   1   2
ATOM      2  N   UNL     1     -13.650   3.335  20.409  1.00  0.00    -0.353 N 
ATOM      3  H   UNL     1     -14.064   2.407  20.161  1.00  0.00     0.344 HD
ATOM      4  H   UNL     1     -12.665   3.386  20.060  1.00  0.00     0.344 HD
ATOM      5  H   UNL     1     -14.211   4.089  19.951  1.00  0.00     0.344 HD
ENDBRANCH   1   2
BRANCH   1   6
ATOM      6  C   UNL     1     -12.516   4.358  22.304  1.00  0.00     0.096 C 
ATOM      7  O   UNL     1     -11.784   4.931  21.454  1.00  0.00    -0.544 OA
ATOM      8  O   UNL     1     -12.270   4.539  23.659  1.00  0.00    -0.544 OA
ENDBRANCH   1   6
TORSDOF 2
ENDMDL
MODEL 3
REMARK VINA RESULT:    -3.097     18.285     18.758
REMARK INTER + INTRA:          -3.369
REMARK INTER:                  -3.369
REMARK INTRA:                   0.000
REMARK UNBOUND:                 0.000
REMARK SMILES [NH3+]CC(=O)[O-]
REMARK SMILES IDX 2 1 1 2 3 6 4 7 5 8
REMARK H PARENT 1 3 1 4 1 5
REMARK Flexibility Score: inf
ROOT
ATOM      1  C   UNL     1     -18.166 -12.695  13.958  1.00  0.00     0.312 C 
ENDROOT
BRANCH   1   2
ATOM      2  N   UNL     1     -18.513 -11.529  13.149  1.00  0.00    -0.353 N 
ATOM      3  H   UNL     1     -17.791 -10.782  13.268  1.00  0.00     0.344 HD
ATOM      4  H   UNL     1     -19.451 -11.162  13.430  1.00  0.00     0.344 HD
ATOM      5  H   UNL     1     -18.547 -11.809  12.142  1.00  0.00     0.344 HD
ENDBRANCH   1   2
BRANCH   1   6
ATOM      6  C   UNL     1     -16.694 -12.730  14.230  1.00  0.00     0.096 C 
ATOM      7  O   UNL     1     -15.923 -13.362  13.461  1.00  0.00    -0.544 OA
ATOM      8  O   UNL     1     -16.168 -12.024  15.304  1.00  0.00    -0.544 OA
ENDBRANCH   1   6
TORSDOF 2
ENDMDL
MODEL 4
REMARK VINA RESULT:    -3.096      2.689      2.850
REMARK INTER + INTRA:          -3.368
REMARK INTER:                  -3.368
REMARK INTRA:                   0.000
REMARK UNBOUND:                 0.000
REMARK SMILES [NH3+]CC(=O)[O-]
REMARK SMILES IDX 2 1 1 2 3 6 4 7 5 8
REMARK H PARENT 1 3 1 4 1 5
REMARK Flexibility Score: inf
ROOT
ATOM      1  C   UNL     1     -13.100   3.742  23.778  1.00  0.00     0.312 C 
ENDROOT
BRANCH   1   2
ATOM      2  N   UNL     1     -11.910   4.582  23.656  1.00  0.00    -0.353 N 
ATOM      3  H   UNL     1     -11.248   4.168  22.961  1.00  0.00     0.344 HD
ATOM      4  H   UNL     1     -11.437   4.672  24.585  1.00  0.00     0.344 HD
ATOM      5  H   UNL     1     -12.195   5.533  23.328  1.00  0.00     0.344 HD
ENDBRANCH   1   2
BRANCH   1   6
ATOM      6  C   UNL     1     -14.041   3.992  22.641  1.00  0.00     0.096 C 
ATOM      7  O   UNL     1     -13.821   3.479  21.512  1.00  0.00    -0.544 OA
ATOM      8  O   UNL     1     -15.188   4.750  22.841  1.00  0.00    -0.544 OA
ENDBRANCH   1   6
TORSDOF 2
ENDMDL
MODEL 5
REMARK VINA RESULT:    -3.076      1.984      2.084
REMARK INTER + INTRA:          -3.346
REMARK INTER:                  -3.346
REMARK INTRA:                   0.000
REMARK UNBOUND:                 0.000
REMARK SMILES [NH3+]CC(=O)[O-]
REMARK SMILES IDX 2 1 1 2 3 6 4 7 5 8
REMARK H PARENT 1 3 1 4 1 5
REMARK Flexibility Score: inf
ROOT
ATOM      1  C   UNL     1     -13.060   2.835  19.145  1.00  0.00     0.312 C 
ENDROOT
BRANCH   1   2
ATOM      2  N   UNL     1     -14.482   2.511  19.234  1.00  0.00    -0.353 N 
ATOM      3  H   UNL     1     -14.780   1.970  18.390  1.00  0.00     0.344 HD
ATOM      4  H   UNL     1     -15.047   3.388  19.309  1.00  0.00     0.344 HD
ATOM      5  H   UNL     1     -14.648   1.927  20.085  1.00  0.00     0.344 HD
ENDBRANCH   1   2
BRANCH   1   6
ATOM      6  C   UNL     1     -12.611   3.576  20.367  1.00  0.00     0.096 C 
ATOM      7  O   UNL     1     -13.323   3.577  21.405  1.00  0.00    -0.544 OA
ATOM      8  O   UNL     1     -11.382   4.224  20.375  1.00  0.00    -0.544 OA
ENDBRANCH   1   6
TORSDOF 2
ENDMDL
MODEL 6
REMARK VINA RESULT:    -3.052     19.914     20.159
REMARK INTER + INTRA:          -3.320
REMARK INTER:                  -3.320
REMARK INTRA:                   0.000
REMARK UNBOUND:                 0.000
REMARK SMILES [NH3+]CC(=O)[O-]
REMARK SMILES IDX 2 1 1 2 3 6 4 7 5 8
REMARK H PARENT 1 3 1 4 1 5
REMARK Flexibility Score: inf
ROOT
ATOM      1  C   UNL     1     -19.264 -12.675  12.110  1.00  0.00     0.312 C 
ENDROOT
BRANCH   1   2
ATOM      2  N   UNL     1     -18.650 -13.633  11.192  1.00  0.00    -0.353 N 
ATOM      3  H   UNL     1     -18.160 -13.126  10.420  1.00  0.00     0.344 HD
ATOM      4  H   UNL     1     -19.380 -14.266  10.792  1.00  0.00     0.344 HD
ATOM      5  H   UNL     1     -17.952 -14.209  11.715  1.00  0.00     0.344 HD
ENDBRANCH   1   2
BRANCH   1   6
ATOM      6  C   UNL     1     -18.914 -13.005  13.528  1.00  0.00     0.096 C 
ATOM      7  O   UNL     1     -19.804 -13.410  14.322  1.00  0.00    -0.544 OA
ATOM      8  O   UNL     1     -17.597 -12.912  13.959  1.00  0.00    -0.544 OA
ENDBRANCH   1   6
TORSDOF 2
ENDMDL
MODEL 7
REMARK VINA RESULT:    -3.047      2.276      2.506
REMARK INTER + INTRA:          -3.314
REMARK INTER:                  -3.314
REMARK INTRA:                   0.000
REMARK UNBOUND:                 0.000
REMARK SMILES [NH3+]CC(=O)[O-]
REMARK SMILES IDX 2 1 1 2 3 6 4 7 5 8
REMARK H PARENT 1 3 1 4 1 5
REMARK Flexibility Score: inf
ROOT
ATOM      1  C   UNL     1     -12.109   4.955  22.201  1.00  0.00     0.312 C 
ENDROOT
BRANCH   1   2
ATOM      2  N   UNL     1     -11.976   4.635  23.621  1.00  0.00    -0.353 N 
ATOM      3  H   UNL     1     -11.546   3.688  23.736  1.00  0.00     0.344 HD
ATOM      4  H   UNL     1     -12.913   4.656  24.084  1.00  0.00     0.344 HD
ATOM      5  H   UNL     1     -11.357   5.345  24.075  1.00  0.00     0.344 HD
ENDBRANCH   1   2
BRANCH   1   6
ATOM      6  C   UNL     1     -12.788   3.839  21.469  1.00  0.00     0.096 C 
ATOM      7  O   UNL     1     -13.758   3.233  21.998  1.00  0.00    -0.544 OA
ATOM      8  O   UNL     1     -12.383   3.501  20.185  1.00  0.00    -0.544 OA
ENDBRANCH   1   6
TORSDOF 2
ENDMDL
MODEL 8
REMARK VINA RESULT:    -3.021     18.645     19.193
REMARK INTER + INTRA:          -3.285
REMARK INTER:                  -3.285
REMARK INTRA:                   0.000
REMARK UNBOUND:                 0.000
REMARK SMILES [NH3+]CC(=O)[O-]
REMARK SMILES IDX 2 1 1 2 3 6 4 7 5 8
REMARK H PARENT 1 3 1 4 1 5
REMARK Flexibility Score: inf
ROOT
ATOM      1  C   UNL     1     -16.694 -12.753  14.259  1.00  0.00     0.312 C 
ENDROOT
BRANCH   1   2
ATOM      2  N   UNL     1     -16.920 -11.855  15.391  1.00  0.00    -0.353 N 
ATOM      3  H   UNL     1     -17.363 -10.967  15.062  1.00  0.00     0.344 HD
ATOM      4  H   UNL     1     -16.013 -11.643  15.868  1.00  0.00     0.344 HD
ATOM      5  H   UNL     1     -17.560 -12.321  16.074  1.00  0.00     0.344 HD
ENDBRANCH   1   2
BRANCH   1   6
ATOM      6  C   UNL     1     -17.863 -12.728  13.324  1.00  0.00     0.096 C 
ATOM      7  O   UNL     1     -18.655 -11.748  13.327  1.00  0.00    -0.544 OA
ATOM      8  O   UNL     1     -18.050 -13.762  12.416  1.00  0.00    -0.544 OA
ENDBRANCH   1   6
TORSDOF 2
ENDMDL
MODEL 9
REMARK VINA RESULT:    -2.951     18.071     18.444
REMARK INTER + INTRA:          -3.210
REMARK INTER:                  -3.210
REMARK INTRA:                   0.000
REMARK UNBOUND:                 0.000
REMARK SMILES [NH3+]CC(=O)[O-]
REMARK SMILES IDX 2 1 1 2 3 6 4 7 5 8
REMARK H PARENT 1 3 1 4 1 5
REMARK Flexibility Score: inf
ROOT
ATOM      1  C   UNL     1     -16.312 -11.874  15.375  1.00  0.00     0.312 C 
ENDROOT
BRANCH   1   2
ATOM      2  N   UNL     1     -17.324 -11.128  16.122  1.00  0.00    -0.353 N 
ATOM      3  H   UNL     1     -17.307 -11.409  17.128  1.00  0.00     0.344 HD
ATOM      4  H   UNL     1     -18.272 -11.307  15.720  1.00  0.00     0.344 HD
ATOM      5  H   UNL     1     -17.115 -10.106  16.052  1.00  0.00     0.344 HD
ENDBRANCH   1   2
BRANCH   1   6
ATOM      6  C   UNL     1     -16.941 -12.628  14.244  1.00  0.00     0.096 C 
ATOM      7  O   UNL     1     -18.182 -12.549  14.043  1.00  0.00    -0.544 OA
ATOM      8  O   UNL     1     -16.150 -13.378  13.383  1.00  0.00    -0.544 OA
ENDBRANCH   1   6
TORSDOF 2
ENDMDL
