MODEL 1
REMARK VINA RESULT:    -5.034      0.000      0.000
REMARK INTER + INTRA:          -6.914
REMARK INTER:                  -6.505
REMARK INTRA:                  -0.409
REMARK UNBOUND:                -0.409
REMARK SMILES CCO[C@@H]1O[C@@H](CO)[C@H](O)[C@@H](O)[C@@H]1O
REMARK SMILES IDX 4 1 13 2 11 3 9 4 6 5 5 6 3 7 2 8 1 9 14 10 12 12 7 14 8 15
REMARK SMILES IDX 10 17
REMARK H PARENT 14 11 12 13 8 16 10 18
REMARK Flexibility Score: inf
ROOT
ATOM      1  C   UNL     1      30.357 -38.530 -14.254  1.00  0.00     0.281 C 
ATOM      2  C   UNL     1      31.227 -38.524 -12.986  1.00  0.00     0.202 C 
ATOM      3  C   UNL     1      31.256 -37.113 -12.360  1.00  0.00     0.179 C 
ATOM      4  C   UNL     1      31.602 -36.050 -13.422  1.00  0.00     0.177 C 
ATOM      5  C   UNL     1      30.803 -36.255 -14.735  1.00  0.00     0.178 C 
ATOM      6  O   UNL     1      30.851 -37.597 -15.202  1.00  0.00    -0.341 OA
ENDROOT
BRANCH   1   7
ATOM      7  O   UNL     1      30.433 -39.817 -14.843  1.00  0.00    -0.350 OA
BRANCH   7   8
ATOM      8  C   UNL     1      29.880 -39.844 -16.147  1.00  0.00     0.160 C 
ATOM      9  C   UNL     1      28.506 -40.499 -16.119  1.00  0.00     0.035 C 
ENDBRANCH   7   8
ENDBRANCH   1   7
BRANCH   2  10
ATOM     10  O   UNL     1      32.529 -38.941 -13.314  1.00  0.00    -0.385 OA
ATOM     11  H   UNL     1      32.435 -39.693 -13.954  1.00  0.00     0.211 HD
ENDBRANCH   2  10
BRANCH   3  12
ATOM     12  O   UNL     1      30.022 -36.800 -11.763  1.00  0.00    -0.387 OA
ATOM     13  H   UNL     1      29.324 -36.853 -12.485  1.00  0.00     0.211 HD
ENDBRANCH   3  12
BRANCH   5  14
ATOM     14  C   UNL     1      29.365 -35.693 -14.695  1.00  0.00     0.191 C 
BRANCH  14  15
ATOM     15  O   UNL     1      29.309 -34.601 -13.821  1.00  0.00    -0.394 OA
ATOM     16  H   UNL     1      29.157 -33.799 -14.386  1.00  0.00     0.210 HD
ENDBRANCH  14  15
ENDBRANCH   5  14
BRANCH   4  17
ATOM     17  O   UNL     1      32.975 -36.112 -13.723  1.00  0.00    -0.387 OA
ATOM     18  H   UNL     1      33.206 -35.280 -14.217  1.00  0.00     0.211 HD
ENDBRANCH   4  17
TORSDOF 7
ENDMDL
MODEL 2
REMARK VINA RESULT:    -4.774      1.779      3.217
REMARK INTER + INTRA:          -6.578
REMARK INTER:                  -6.446
REMARK INTRA:                  -0.132
REMARK UNBOUND:                -0.409
REMARK SMILES CCO[C@@H]1O[C@@H](CO)[C@H](O)[C@@H](O)[C@@H]1O
REMARK SMILES IDX 4 1 13 2 11 3 9 4 6 5 5 6 3 7 2 8 1 9 14 10 12 12 7 14 8 15
REMARK SMILES IDX 10 17
REMARK H PARENT 14 11 12 13 8 16 10 18
REMARK Flexibility Score: inf
ROOT
ATOM      1  C   UNL     1      30.670 -38.748 -13.972  1.00  0.00     0.281 C 
ATOM      2  C   UNL     1      30.872 -37.326 -13.421  1.00  0.00     0.202 C 
ATOM      3  C   UNL     1      29.718 -36.405 -13.874  1.00  0.00     0.179 C 
ATOM      4  C   UNL     1      29.497 -36.515 -15.396  1.00  0.00     0.177 C 
ATOM      5  C   UNL     1      29.496 -37.987 -15.882  1.00  0.00     0.178 C 
ATOM      6  O   UNL     1      30.604 -38.728 -15.389  1.00  0.00    -0.341 OA
ENDROOT
BRANCH   1   7
ATOM      7  O   UNL     1      31.795 -39.532 -13.609  1.00  0.00    -0.350 OA
BRANCH   7   8
ATOM      8  C   UNL     1      31.819 -39.826 -12.224  1.00  0.00     0.160 C 
ATOM      9  C   UNL     1      32.146 -41.296 -12.007  1.00  0.00     0.035 C 
ENDBRANCH   7   8
ENDBRANCH   1   7
BRANCH   2  10
ATOM     10  O   UNL     1      32.105 -36.823 -13.870  1.00  0.00    -0.385 OA
ATOM     11  H   UNL     1      31.980 -35.850 -14.017  1.00  0.00     0.211 HD
ENDBRANCH   2  10
BRANCH   3  12
ATOM     12  O   UNL     1      28.526 -36.720 -13.199  1.00  0.00    -0.387 OA
ATOM     13  H   UNL     1      27.891 -37.095 -13.883  1.00  0.00     0.211 HD
ENDBRANCH   3  12
BRANCH   5  14
ATOM     14  C   UNL     1      28.153 -38.721 -15.671  1.00  0.00     0.191 C 
BRANCH  14  15
ATOM     15  O   UNL     1      28.010 -39.732 -16.629  1.00  0.00    -0.394 OA
ATOM     16  H   UNL     1      27.608 -39.304 -17.428  1.00  0.00     0.210 HD
ENDBRANCH  14  15
ENDBRANCH   5  14
BRANCH   4  17
ATOM     17  O   UNL     1      30.519 -35.824 -16.073  1.00  0.00    -0.387 OA
ATOM     18  H   UNL     1      31.378 -36.063 -15.632  1.00  0.00     0.211 HD
ENDBRANCH   4  17
TORSDOF 7
ENDMDL
MODEL 3
REMARK VINA RESULT:    -4.724      9.711     11.222
REMARK INTER + INTRA:          -6.514
REMARK INTER:                  -6.133
REMARK INTRA:                  -0.381
REMARK UNBOUND:                -0.409
REMARK SMILES CCO[C@@H]1O[C@@H](CO)[C@H](O)[C@@H](O)[C@@H]1O
REMARK SMILES IDX 4 1 13 2 11 3 9 4 6 5 5 6 3 7 2 8 1 9 14 10 12 12 7 14 8 15
REMARK SMILES IDX 10 17
REMARK H PARENT 14 11 12 13 8 16 10 18
REMARK Flexibility Score: inf
ROOT
ATOM      1  C   UNL     1      34.525 -38.705  -4.510  1.00  0.00     0.281 C 
ATOM      2  C   UNL     1      33.712 -40.004  -4.381  1.00  0.00     0.202 C 
ATOM      3  C   UNL     1      32.486 -39.783  -3.469  1.00  0.00     0.179 C 
ATOM      4  C   UNL     1      32.903 -39.111  -2.145  1.00  0.00     0.177 C 
ATOM      5  C   UNL     1      33.874 -37.924  -2.372  1.00  0.00     0.178 C 
ATOM      6  O   UNL     1      34.954 -38.256  -3.234  1.00  0.00    -0.341 OA
ENDROOT
BRANCH   1   7
ATOM      7  O   UNL     1      35.686 -38.977  -5.278  1.00  0.00    -0.350 OA
BRANCH   7   8
ATOM      8  C   UNL     1      35.386 -39.194  -6.645  1.00  0.00     0.160 C 
ATOM      9  C   UNL     1      36.574 -39.842  -7.344  1.00  0.00     0.035 C 
ENDBRANCH   7   8
ENDBRANCH   1   7
BRANCH   2  10
ATOM     10  O   UNL     1      34.534 -41.017  -3.858  1.00  0.00    -0.385 OA
ATOM     11  H   UNL     1      34.144 -41.278  -2.984  1.00  0.00     0.211 HD
ENDBRANCH   2  10
BRANCH   3  12
ATOM     12  O   UNL     1      31.514 -38.995  -4.112  1.00  0.00    -0.387 OA
ATOM     13  H   UNL     1      31.991 -38.452  -4.811  1.00  0.00     0.211 HD
ENDBRANCH   3  12
BRANCH   5  14
ATOM     14  C   UNL     1      33.176 -36.607  -2.777  1.00  0.00     0.191 C 
BRANCH  14  15
ATOM     15  O   UNL     1      31.855 -36.609  -2.315  1.00  0.00    -0.394 OA
ATOM     16  H   UNL     1      31.395 -35.864  -2.780  1.00  0.00     0.210 HD
ENDBRANCH  14  15
ENDBRANCH   5  14
BRANCH   4  17
ATOM     17  O   UNL     1      33.540 -40.055  -1.318  1.00  0.00    -0.387 OA
ATOM     18  H   UNL     1      32.943 -40.214  -0.539  1.00  0.00     0.211 HD
ENDBRANCH   4  17
TORSDOF 7
ENDMDL
MODEL 4
REMARK VINA RESULT:    -4.718     10.149     11.913
REMARK INTER + INTRA:          -6.506
REMARK INTER:                  -6.265
REMARK INTRA:                  -0.241
REMARK UNBOUND:                -0.409
REMARK SMILES CCO[C@@H]1O[C@@H](CO)[C@H](O)[C@@H](O)[C@@H]1O
REMARK SMILES IDX 4 1 13 2 11 3 9 4 6 5 5 6 3 7 2 8 1 9 14 10 12 12 7 14 8 15
REMARK SMILES IDX 10 17
REMARK H PARENT 14 11 12 13 8 16 10 18
REMARK Flexibility Score: inf
ROOT
ATOM      1  C   UNL     1      34.979 -40.609  -3.484  1.00  0.00     0.281 C 
ATOM      2  C   UNL     1      34.828 -39.469  -2.463  1.00  0.00     0.202 C 
ATOM      3  C   UNL     1      33.372 -38.957  -2.439  1.00  0.00     0.179 C 
ATOM      4  C   UNL     1      32.875 -38.655  -3.868  1.00  0.00     0.177 C 
ATOM      5  C   UNL     1      33.241 -39.785  -4.865  1.00  0.00     0.178 C 
ATOM      6  O   UNL     1      34.607 -40.169  -4.781  1.00  0.00    -0.341 OA
ENDROOT
BRANCH   1   7
ATOM      7  O   UNL     1      36.345 -40.985  -3.538  1.00  0.00    -0.350 OA
BRANCH   7   8
ATOM      8  C   UNL     1      36.798 -41.541  -2.317  1.00  0.00     0.160 C 
ATOM      9  C   UNL     1      37.410 -42.913  -2.562  1.00  0.00     0.035 C 
ENDBRANCH   7   8
ENDBRANCH   1   7
BRANCH   2  10
ATOM     10  O   UNL     1      35.709 -38.426  -2.798  1.00  0.00    -0.385 OA
ATOM     11  H   UNL     1      36.011 -38.022  -1.943  1.00  0.00     0.211 HD
ENDBRANCH   2  10
BRANCH   3  12
ATOM     12  O   UNL     1      32.518 -39.893  -1.830  1.00  0.00    -0.387 OA
ATOM     13  H   UNL     1      33.083 -40.453  -1.216  1.00  0.00     0.211 HD
ENDBRANCH   3  12
BRANCH   5  14
ATOM     14  C   UNL     1      32.282 -40.995  -4.827  1.00  0.00     0.191 C 
BRANCH  14  15
ATOM     15  O   UNL     1      31.131 -40.665  -4.100  1.00  0.00    -0.394 OA
ATOM     16  H   UNL     1      30.727 -39.883  -4.558  1.00  0.00     0.210 HD
ENDBRANCH  14  15
ENDBRANCH   5  14
BRANCH   4  17
ATOM     17  O   UNL     1      33.452 -37.456  -4.324  1.00  0.00    -0.387 OA
ATOM     18  H   UNL     1      32.839 -37.077  -5.011  1.00  0.00     0.211 HD
ENDBRANCH   4  17
TORSDOF 7
ENDMDL
MODEL 5
REMARK VINA RESULT:    -4.668      2.018      4.577
REMARK INTER + INTRA:          -6.441
REMARK INTER:                  -6.015
REMARK INTRA:                  -0.426
REMARK UNBOUND:                -0.409
REMARK SMILES CCO[C@@H]1O[C@@H](CO)[C@H](O)[C@@H](O)[C@@H]1O
REMARK SMILES IDX 4 1 13 2 11 3 9 4 6 5 5 6 3 7 2 8 1 9 14 10 12 12 7 14 8 15
REMARK SMILES IDX 10 17
REMARK H PARENT 14 11 12 13 8 16 10 18
REMARK Flexibility Score: inf
ROOT
ATOM      1  C   UNL     1      29.077 -37.675 -14.359  1.00  0.00     0.281 C 
ATOM      2  C   UNL     1      28.917 -36.529 -15.372  1.00  0.00     0.202 C 
ATOM      3  C   UNL     1      28.626 -37.091 -16.780  1.00  0.00     0.179 C 
ATOM      4  C   UNL     1      29.646 -38.187 -17.153  1.00  0.00     0.177 C 
ATOM      5  C   UNL     1      29.876 -39.190 -15.994  1.00  0.00     0.178 C 
ATOM      6  O   UNL     1      30.127 -38.546 -14.753  1.00  0.00    -0.341 OA
ENDROOT
BRANCH   1   7
ATOM      7  O   UNL     1      29.433 -37.119 -13.105  1.00  0.00    -0.350 OA
BRANCH   7   8
ATOM      8  C   UNL     1      30.492 -37.825 -12.486  1.00  0.00     0.160 C 
ATOM      9  C   UNL     1      30.726 -37.290 -11.080  1.00  0.00     0.035 C 
ENDBRANCH   7   8
ENDBRANCH   1   7
BRANCH   2  10
ATOM     10  O   UNL     1      30.091 -35.756 -15.387  1.00  0.00    -0.385 OA
ATOM     11  H   UNL     1      30.057 -35.169 -14.588  1.00  0.00     0.211 HD
ENDBRANCH   2  10
BRANCH   3  12
ATOM     12  O   UNL     1      27.323 -37.615 -16.855  1.00  0.00    -0.387 OA
ATOM     13  H   UNL     1      27.315 -38.463 -16.317  1.00  0.00     0.211 HD
ENDBRANCH   3  12
BRANCH   5  14
ATOM     14  C   UNL     1      28.794 -40.287 -15.884  1.00  0.00     0.191 C 
BRANCH  14  15
ATOM     15  O   UNL     1      28.197 -40.490 -17.134  1.00  0.00    -0.394 OA
ATOM     16  H   UNL     1      28.825 -40.120 -17.807  1.00  0.00     0.210 HD
ENDBRANCH  14  15
ENDBRANCH   5  14
BRANCH   4  17
ATOM     17  O   UNL     1      30.879 -37.592 -17.478  1.00  0.00    -0.387 OA
ATOM     18  H   UNL     1      31.103 -37.870 -18.407  1.00  0.00     0.211 HD
ENDBRANCH   4  17
TORSDOF 7
ENDMDL
MODEL 6
REMARK VINA RESULT:    -4.622     13.510     15.268
REMARK INTER + INTRA:          -6.381
REMARK INTER:                  -6.200
REMARK INTRA:                  -0.181
REMARK UNBOUND:                -0.409
REMARK SMILES CCO[C@@H]1O[C@@H](CO)[C@H](O)[C@@H](O)[C@@H]1O
REMARK SMILES IDX 4 1 13 2 11 3 9 4 6 5 5 6 3 7 2 8 1 9 14 10 12 12 7 14 8 15
REMARK SMILES IDX 10 17
REMARK H PARENT 14 11 12 13 8 16 10 18
REMARK Flexibility Score: inf
ROOT
ATOM      1  C   UNL     1      37.102 -41.109  -0.644  1.00  0.00     0.281 C 
ATOM      2  C   UNL     1      37.735 -42.415  -0.135  1.00  0.00     0.202 C 
ATOM      3  C   UNL     1      38.951 -42.799  -1.005  1.00  0.00     0.179 C 
ATOM      4  C   UNL     1      38.584 -42.765  -2.503  1.00  0.00     0.177 C 
ATOM      5  C   UNL     1      37.784 -41.492  -2.880  1.00  0.00     0.178 C 
ATOM      6  O   UNL     1      36.696 -41.247  -1.997  1.00  0.00    -0.341 OA
ENDROOT
BRANCH   1   7
ATOM      7  O   UNL     1      35.940 -40.845   0.124  1.00  0.00    -0.350 OA
BRANCH   7   8
ATOM      8  C   UNL     1      35.003 -40.048  -0.578  1.00  0.00     0.160 C 
ATOM      9  C   UNL     1      34.830 -38.707   0.121  1.00  0.00     0.035 C 
ENDBRANCH   7   8
ENDBRANCH   1   7
BRANCH   2  10
ATOM     10  O   UNL     1      36.773 -43.439  -0.160  1.00  0.00    -0.385 OA
ATOM     11  H   UNL     1      35.983 -43.101   0.338  1.00  0.00     0.211 HD
ENDBRANCH   2  10
BRANCH   3  12
ATOM     12  O   UNL     1      40.036 -41.937  -0.765  1.00  0.00    -0.387 OA
ATOM     13  H   UNL     1      40.873 -42.448  -0.987  1.00  0.00     0.211 HD
ENDBRANCH   3  12
BRANCH   5  14
ATOM     14  C   UNL     1      38.658 -40.239  -3.104  1.00  0.00     0.191 C 
BRANCH  14  15
ATOM     15  O   UNL     1      38.366 -39.674  -4.350  1.00  0.00    -0.394 OA
ATOM     16  H   UNL     1      37.382 -39.543  -4.374  1.00  0.00     0.210 HD
ENDBRANCH  14  15
ENDBRANCH   5  14
BRANCH   4  17
ATOM     17  O   UNL     1      37.804 -43.891  -2.824  1.00  0.00    -0.387 OA
ATOM     18  H   UNL     1      36.966 -43.830  -2.292  1.00  0.00     0.211 HD
ENDBRANCH   4  17
TORSDOF 7
ENDMDL
MODEL 7
REMARK VINA RESULT:    -4.610     10.485     12.263
REMARK INTER + INTRA:          -6.366
REMARK INTER:                  -5.900
REMARK INTRA:                  -0.466
REMARK UNBOUND:                -0.409
REMARK SMILES CCO[C@@H]1O[C@@H](CO)[C@H](O)[C@@H](O)[C@@H]1O
REMARK SMILES IDX 4 1 13 2 11 3 9 4 6 5 5 6 3 7 2 8 1 9 14 10 12 12 7 14 8 15
REMARK SMILES IDX 10 17
REMARK H PARENT 14 11 12 13 8 16 10 18
REMARK Flexibility Score: inf
ROOT
ATOM      1  C   UNL     1      33.686 -39.362  -3.762  1.00  0.00     0.281 C 
ATOM      2  C   UNL     1      33.370 -38.842  -2.350  1.00  0.00     0.202 C 
ATOM      3  C   UNL     1      34.670 -38.682  -1.532  1.00  0.00     0.179 C 
ATOM      4  C   UNL     1      35.524 -39.964  -1.605  1.00  0.00     0.177 C 
ATOM      5  C   UNL     1      35.629 -40.515  -3.051  1.00  0.00     0.178 C 
ATOM      6  O   UNL     1      34.365 -40.607  -3.695  1.00  0.00    -0.341 OA
ENDROOT
BRANCH   1   7
ATOM      7  O   UNL     1      32.462 -39.581  -4.443  1.00  0.00    -0.350 OA
BRANCH   7   8
ATOM      8  C   UNL     1      32.400 -40.866  -5.036  1.00  0.00     0.160 C 
ATOM      9  C   UNL     1      31.103 -41.560  -4.644  1.00  0.00     0.035 C 
ENDBRANCH   7   8
ENDBRANCH   1   7
BRANCH   2  10
ATOM     10  O   UNL     1      32.497 -39.739  -1.709  1.00  0.00    -0.385 OA
ATOM     11  H   UNL     1      32.930 -40.631  -1.740  1.00  0.00     0.211 HD
ENDBRANCH   2  10
BRANCH   3  12
ATOM     12  O   UNL     1      35.422 -37.586  -1.991  1.00  0.00    -0.387 OA
ATOM     13  H   UNL     1      35.665 -37.037  -1.185  1.00  0.00     0.211 HD
ENDBRANCH   3  12
BRANCH   5  14
ATOM     14  C   UNL     1      36.687 -39.804  -3.922  1.00  0.00     0.191 C 
BRANCH  14  15
ATOM     15  O   UNL     1      37.715 -39.309  -3.110  1.00  0.00    -0.394 OA
ATOM     16  H   UNL     1      38.357 -40.055  -2.988  1.00  0.00     0.210 HD
ENDBRANCH  14  15
ENDBRANCH   5  14
BRANCH   4  17
ATOM     17  O   UNL     1      34.953 -40.959  -0.791  1.00  0.00    -0.387 OA
ATOM     18  H   UNL     1      35.649 -41.654  -0.643  1.00  0.00     0.211 HD
ENDBRANCH   4  17
TORSDOF 7
ENDMDL
MODEL 8
REMARK VINA RESULT:    -4.560     10.537     12.390
REMARK INTER + INTRA:          -6.301
REMARK INTER:                  -6.137
REMARK INTRA:                  -0.164
REMARK UNBOUND:                -0.409
REMARK SMILES CCO[C@@H]1O[C@@H](CO)[C@H](O)[C@@H](O)[C@@H]1O
REMARK SMILES IDX 4 1 13 2 11 3 9 4 6 5 5 6 3 7 2 8 1 9 14 10 12 12 7 14 8 15
REMARK SMILES IDX 10 17
REMARK H PARENT 14 11 12 13 8 16 10 18
REMARK Flexibility Score: inf
ROOT
ATOM      1  C   UNL     1      34.510 -39.559  -2.925  1.00  0.00     0.281 C 
ATOM      2  C   UNL     1      35.351 -39.847  -1.670  1.00  0.00     0.202 C 
ATOM      3  C   UNL     1      36.820 -40.122  -2.057  1.00  0.00     0.179 C 
ATOM      4  C   UNL     1      36.901 -41.175  -3.181  1.00  0.00     0.177 C 
ATOM      5  C   UNL     1      35.881 -40.898  -4.316  1.00  0.00     0.178 C 
ATOM      6  O   UNL     1      34.569 -40.654  -3.826  1.00  0.00    -0.341 OA
ENDROOT
BRANCH   1   7
ATOM      7  O   UNL     1      33.157 -39.404  -2.532  1.00  0.00    -0.350 OA
BRANCH   7   8
ATOM      8  C   UNL     1      32.256 -39.678  -3.590  1.00  0.00     0.160 C 
ATOM      9  C   UNL     1      32.029 -38.424  -4.421  1.00  0.00     0.035 C 
ENDBRANCH   7   8
ENDBRANCH   1   7
BRANCH   2  10
ATOM     10  O   UNL     1      34.809 -40.952  -0.990  1.00  0.00    -0.385 OA
ATOM     11  H   UNL     1      34.968 -41.746  -1.565  1.00  0.00     0.211 HD
ENDBRANCH   2  10
BRANCH   3  12
ATOM     12  O   UNL     1      37.463 -38.941  -2.469  1.00  0.00    -0.387 OA
ATOM     13  H   UNL     1      36.823 -38.184  -2.303  1.00  0.00     0.211 HD
ENDBRANCH   3  12
BRANCH   5  14
ATOM     14  C   UNL     1      36.342 -39.831  -5.333  1.00  0.00     0.191 C 
BRANCH  14  15
ATOM     15  O   UNL     1      36.015 -40.242  -6.630  1.00  0.00    -0.394 OA
ATOM     16  H   UNL     1      36.653 -39.783  -7.237  1.00  0.00     0.210 HD
ENDBRANCH  14  15
ENDBRANCH   5  14
BRANCH   4  17
ATOM     17  O   UNL     1      36.641 -42.452  -2.651  1.00  0.00    -0.387 OA
ATOM     18  H   UNL     1      37.511 -42.932  -2.600  1.00  0.00     0.211 HD
ENDBRANCH   4  17
TORSDOF 7
ENDMDL
MODEL 9
REMARK VINA RESULT:    -4.554      2.874      4.433
REMARK INTER + INTRA:          -6.293
REMARK INTER:                  -6.107
REMARK INTRA:                  -0.186
REMARK UNBOUND:                -0.409
REMARK SMILES CCO[C@@H]1O[C@@H](CO)[C@H](O)[C@@H](O)[C@@H]1O
REMARK SMILES IDX 4 1 13 2 11 3 9 4 6 5 5 6 3 7 2 8 1 9 14 10 12 12 7 14 8 15
REMARK SMILES IDX 10 17
REMARK H PARENT 14 11 12 13 8 16 10 18
REMARK Flexibility Score: inf
ROOT
ATOM      1  C   UNL     1      28.874 -37.245 -15.120  1.00  0.00     0.281 C 
ATOM      2  C   UNL     1      30.322 -37.318 -15.633  1.00  0.00     0.202 C 
ATOM      3  C   UNL     1      30.382 -36.946 -17.130  1.00  0.00     0.179 C 
ATOM      4  C   UNL     1      29.339 -37.747 -17.935  1.00  0.00     0.177 C 
ATOM      5  C   UNL     1      27.954 -37.769 -17.238  1.00  0.00     0.178 C 
ATOM      6  O   UNL     1      28.038 -38.118 -15.862  1.00  0.00    -0.341 OA
ENDROOT
BRANCH   1   7
ATOM      7  O   UNL     1      28.854 -37.681 -13.771  1.00  0.00    -0.350 OA
BRANCH   7   8
ATOM      8  C   UNL     1      29.276 -36.670 -12.873  1.00  0.00     0.160 C 
ATOM      9  C   UNL     1      29.971 -37.295 -11.672  1.00  0.00     0.035 C 
ENDBRANCH   7   8
ENDBRANCH   1   7
BRANCH   2  10
ATOM     10  O   UNL     1      30.822 -38.616 -15.431  1.00  0.00    -0.385 OA
ATOM     11  H   UNL     1      31.531 -38.758 -16.110  1.00  0.00     0.211 HD
ENDBRANCH   2  10
BRANCH   3  12
ATOM     12  O   UNL     1      30.167 -35.569 -17.317  1.00  0.00    -0.387 OA
ATOM     13  H   UNL     1      30.723 -35.088 -16.631  1.00  0.00     0.211 HD
ENDBRANCH   3  12
BRANCH   5  14
ATOM     14  C   UNL     1      27.108 -36.499 -17.475  1.00  0.00     0.191 C 
BRANCH  14  15
ATOM     15  O   UNL     1      25.748 -36.832 -17.487  1.00  0.00    -0.394 OA
ATOM     16  H   UNL     1      25.653 -37.640 -16.920  1.00  0.00     0.210 HD
ENDBRANCH  14  15
ENDBRANCH   5  14
BRANCH   4  17
ATOM     17  O   UNL     1      29.779 -39.075 -18.089  1.00  0.00    -0.387 OA
ATOM     18  H   UNL     1      30.528 -39.212 -17.449  1.00  0.00     0.211 HD
ENDBRANCH   4  17
TORSDOF 7
ENDMDL
