MODEL 1
REMARK VINA RESULT:    -4.238      0.000      0.000
REMARK INTER + INTRA:          -4.238
REMARK INTER:                  -4.238
REMARK INTRA:                   0.000
REMARK UNBOUND:                 0.000
REMARK SMILES CC1(C)[C@H]2CC[C@]1(C)C(=O)C2
REMARK SMILES IDX 1 1 2 2 4 3 5 4 6 5 7 6 9 7 10 8 11 9 8 10 3 11
REMARK H PARENT
REMARK Flexibility Score: inf
ROOT
ATOM      1  C   UNL     1      27.834  44.147 144.438  1.00  0.00     0.012 C 
ATOM      2  C   UNL     1      27.513  43.489 143.063  1.00  0.00    -0.020 C 
ATOM      3  C   UNL     1      26.558  42.274 143.160  1.00  0.00     0.003 C 
ATOM      4  C   UNL     1      25.242  42.915 143.681  1.00  0.00     0.005 C 
ATOM      5  C   UNL     1      25.227  44.297 142.982  1.00  0.00     0.015 C 
ATOM      6  C   UNL     1      26.539  44.276 142.160  1.00  0.00     0.032 C 
ATOM      7  C   UNL     1      26.292  43.264 141.068  1.00  0.00     0.139 C 
ATOM      8  O   UNL     1      26.039  43.516 139.900  1.00  0.00    -0.299 OA
ATOM      9  C   UNL     1      26.301  41.894 141.674  1.00  0.00     0.080 C 
ATOM     10  C   UNL     1      27.015  45.649 141.674  1.00  0.00     0.020 C 
ATOM     11  C   UNL     1      28.886  43.153 142.403  1.00  0.00     0.012 C 
ENDROOT
TORSDOF 0
ENDMDL
MODEL 2
REMARK VINA RESULT:    -4.236     11.693     13.180
REMARK INTER + INTRA:          -4.236
REMARK INTER:                  -4.236
REMARK INTRA:                   0.000
REMARK UNBOUND:                 0.000
REMARK SMILES CC1(C)[C@H]2CC[C@]1(C)C(=O)C2
REMARK SMILES IDX 1 1 2 2 4 3 5 4 6 5 7 6 9 7 10 8 11 9 8 10 3 11
REMARK H PARENT
REMARK Flexibility Score: inf
ROOT
ATOM      1  C   UNL     1      26.905  33.228 137.972  1.00  0.00     0.012 C 
ATOM      2  C   UNL     1      27.422  32.000 138.778  1.00  0.00    -0.020 C 
ATOM      3  C   UNL     1      27.063  30.636 138.139  1.00  0.00     0.003 C 
ATOM      4  C   UNL     1      27.849  30.670 136.799  1.00  0.00     0.005 C 
ATOM      5  C   UNL     1      29.150  31.421 137.177  1.00  0.00     0.015 C 
ATOM      6  C   UNL     1      28.939  31.730 138.680  1.00  0.00     0.032 C 
ATOM      7  C   UNL     1      29.029  30.389 139.364  1.00  0.00     0.139 C 
ATOM      8  O   UNL     1      29.984  29.969 139.999  1.00  0.00    -0.299 OA
ATOM      9  C   UNL     1      27.791  29.606 139.047  1.00  0.00     0.080 C 
ATOM     10  C   UNL     1      29.864  32.811 139.249  1.00  0.00     0.020 C 
ATOM     11  C   UNL     1      26.883  32.168 140.233  1.00  0.00     0.012 C 
ENDROOT
TORSDOF 0
ENDMDL
MODEL 3
REMARK VINA RESULT:    -4.198      1.910      3.418
REMARK INTER + INTRA:          -4.198
REMARK INTER:                  -4.198
REMARK INTRA:                   0.000
REMARK UNBOUND:                 0.000
REMARK SMILES CC1(C)[C@H]2CC[C@]1(C)C(=O)C2
REMARK SMILES IDX 1 1 2 2 4 3 5 4 6 5 7 6 9 7 10 8 11 9 8 10 3 11
REMARK H PARENT
REMARK Flexibility Score: inf
ROOT
ATOM      1  C   UNL     1      23.865  44.521 140.283  1.00  0.00     0.012 C 
ATOM      2  C   UNL     1      24.390  44.310 141.734  1.00  0.00    -0.020 C 
ATOM      3  C   UNL     1      24.134  42.888 142.291  1.00  0.00     0.003 C 
ATOM      4  C   UNL     1      24.996  41.995 141.355  1.00  0.00     0.005 C 
ATOM      5  C   UNL     1      26.236  42.880 141.074  1.00  0.00     0.015 C 
ATOM      6  C   UNL     1      25.921  44.169 141.873  1.00  0.00     0.032 C 
ATOM      7  C   UNL     1      26.033  43.759 143.321  1.00  0.00     0.139 C 
ATOM      8  O   UNL     1      26.967  44.008 144.067  1.00  0.00    -0.299 OA
ATOM      9  C   UNL     1      24.855  42.902 143.668  1.00  0.00     0.080 C 
ATOM     10  C   UNL     1      26.759  45.390 141.479  1.00  0.00     0.020 C 
ATOM     11  C   UNL     1      23.759  45.442 142.602  1.00  0.00     0.012 C 
ENDROOT
TORSDOF 0
ENDMDL
MODEL 4
REMARK VINA RESULT:    -4.169     11.812     13.123
REMARK INTER + INTRA:          -4.169
REMARK INTER:                  -4.169
REMARK INTRA:                   0.000
REMARK UNBOUND:                 0.000
REMARK SMILES CC1(C)[C@H]2CC[C@]1(C)C(=O)C2
REMARK SMILES IDX 1 1 2 2 4 3 5 4 6 5 7 6 9 7 10 8 11 9 8 10 3 11
REMARK H PARENT
REMARK Flexibility Score: inf
ROOT
ATOM      1  C   UNL     1      29.748  31.893 139.276  1.00  0.00     0.012 C 
ATOM      2  C   UNL     1      28.200  31.880 139.104  1.00  0.00    -0.020 C 
ATOM      3  C   UNL     1      27.691  32.787 137.957  1.00  0.00     0.003 C 
ATOM      4  C   UNL     1      28.300  32.116 136.695  1.00  0.00     0.005 C 
ATOM      5  C   UNL     1      28.238  30.607 137.039  1.00  0.00     0.015 C 
ATOM      6  C   UNL     1      27.613  30.607 138.456  1.00  0.00     0.032 C 
ATOM      7  C   UNL     1      26.182  31.036 138.244  1.00  0.00     0.139 C 
ATOM      8  O   UNL     1      25.205  30.304 138.253  1.00  0.00    -0.299 OA
ATOM      9  C   UNL     1      26.164  32.497 137.914  1.00  0.00     0.080 C 
ATOM     10  C   UNL     1      27.789  29.300 139.236  1.00  0.00     0.020 C 
ATOM     11  C   UNL     1      27.596  32.238 140.497  1.00  0.00     0.012 C 
ENDROOT
TORSDOF 0
ENDMDL
MODEL 5
REMARK VINA RESULT:    -4.132      1.476      2.720
REMARK INTER + INTRA:          -4.132
REMARK INTER:                  -4.132
REMARK INTRA:                   0.000
REMARK UNBOUND:                 0.000
REMARK SMILES CC1(C)[C@H]2CC[C@]1(C)C(=O)C2
REMARK SMILES IDX 1 1 2 2 4 3 5 4 6 5 7 6 9 7 10 8 11 9 8 10 3 11
REMARK H PARENT
REMARK Flexibility Score: inf
ROOT
ATOM      1  C   UNL     1      24.641  44.038 143.464  1.00  0.00     0.012 C 
ATOM      2  C   UNL     1      25.746  43.124 142.856  1.00  0.00    -0.020 C 
ATOM      3  C   UNL     1      25.728  43.066 141.308  1.00  0.00     0.003 C 
ATOM      4  C   UNL     1      26.069  44.528 140.908  1.00  0.00     0.005 C 
ATOM      5  C   UNL     1      27.079  44.962 142.000  1.00  0.00     0.015 C 
ATOM      6  C   UNL     1      27.178  43.699 142.891  1.00  0.00     0.032 C 
ATOM      7  C   UNL     1      27.906  42.686 142.041  1.00  0.00     0.139 C 
ATOM      8  O   UNL     1      29.079  42.365 142.155  1.00  0.00    -0.299 OA
ATOM      9  C   UNL     1      26.981  42.214 140.962  1.00  0.00     0.080 C 
ATOM     10  C   UNL     1      27.785  43.937 144.278  1.00  0.00     0.020 C 
ATOM     11  C   UNL     1      25.587  41.728 143.534  1.00  0.00     0.012 C 
ENDROOT
TORSDOF 0
ENDMDL
MODEL 6
REMARK VINA RESULT:    -4.067      1.364      2.256
REMARK INTER + INTRA:          -4.067
REMARK INTER:                  -4.067
REMARK INTRA:                   0.000
REMARK UNBOUND:                 0.000
REMARK SMILES CC1(C)[C@H]2CC[C@]1(C)C(=O)C2
REMARK SMILES IDX 1 1 2 2 4 3 5 4 6 5 7 6 9 7 10 8 11 9 8 10 3 11
REMARK H PARENT
REMARK Flexibility Score: inf
ROOT
ATOM      1  C   UNL     1      26.107  41.121 143.239  1.00  0.00     0.012 C 
ATOM      2  C   UNL     1      26.431  42.318 142.298  1.00  0.00    -0.020 C 
ATOM      3  C   UNL     1      25.255  42.728 141.378  1.00  0.00     0.003 C 
ATOM      4  C   UNL     1      24.185  43.218 142.393  1.00  0.00     0.005 C 
ATOM      5  C   UNL     1      25.035  43.900 143.494  1.00  0.00     0.015 C 
ATOM      6  C   UNL     1      26.481  43.704 142.976  1.00  0.00     0.032 C 
ATOM      7  C   UNL     1      26.581  44.602 141.768  1.00  0.00     0.139 C 
ATOM      8  O   UNL     1      27.144  45.685 141.724  1.00  0.00    -0.299 OA
ATOM      9  C   UNL     1      25.784  43.997 140.654  1.00  0.00     0.080 C 
ATOM     10  C   UNL     1      27.575  43.910 144.030  1.00  0.00     0.020 C 
ATOM     11  C   UNL     1      27.725  41.928 141.517  1.00  0.00     0.012 C 
ENDROOT
TORSDOF 0
ENDMDL
MODEL 7
REMARK VINA RESULT:    -4.059      1.481      2.682
REMARK INTER + INTRA:          -4.059
REMARK INTER:                  -4.059
REMARK INTRA:                   0.000
REMARK UNBOUND:                 0.000
REMARK SMILES CC1(C)[C@H]2CC[C@]1(C)C(=O)C2
REMARK SMILES IDX 1 1 2 2 4 3 5 4 6 5 7 6 9 7 10 8 11 9 8 10 3 11
REMARK H PARENT
REMARK Flexibility Score: inf
ROOT
ATOM      1  C   UNL     1      27.483  42.019 141.488  1.00  0.00     0.012 C 
ATOM      2  C   UNL     1      26.150  42.684 141.940  1.00  0.00    -0.020 C 
ATOM      3  C   UNL     1      26.091  43.003 143.454  1.00  0.00     0.003 C 
ATOM      4  C   UNL     1      27.214  44.064 143.623  1.00  0.00     0.005 C 
ATOM      5  C   UNL     1      27.130  44.874 142.304  1.00  0.00     0.015 C 
ATOM      6  C   UNL     1      25.979  44.167 141.546  1.00  0.00     0.032 C 
ATOM      7  C   UNL     1      24.734  44.521 142.322  1.00  0.00     0.139 C 
ATOM      8  O   UNL     1      23.897  45.349 141.998  1.00  0.00    -0.299 OA
ATOM      9  C   UNL     1      24.745  43.763 143.614  1.00  0.00     0.080 C 
ATOM     10  C   UNL     1      25.915  44.473 140.046  1.00  0.00     0.020 C 
ATOM     11  C   UNL     1      25.001  41.745 141.456  1.00  0.00     0.012 C 
ENDROOT
TORSDOF 0
ENDMDL
MODEL 8
REMARK VINA RESULT:    -4.059     11.909     13.157
REMARK INTER + INTRA:          -4.059
REMARK INTER:                  -4.059
REMARK INTRA:                   0.000
REMARK UNBOUND:                 0.000
REMARK SMILES CC1(C)[C@H]2CC[C@]1(C)C(=O)C2
REMARK SMILES IDX 1 1 2 2 4 3 5 4 6 5 7 6 9 7 10 8 11 9 8 10 3 11
REMARK H PARENT
REMARK Flexibility Score: inf
ROOT
ATOM      1  C   UNL     1      29.357  32.526 137.532  1.00  0.00     0.012 C 
ATOM      2  C   UNL     1      28.411  31.345 137.898  1.00  0.00    -0.020 C 
ATOM      3  C   UNL     1      28.968  30.419 139.008  1.00  0.00     0.003 C 
ATOM      4  C   UNL     1      29.025  31.361 140.242  1.00  0.00     0.005 C 
ATOM      5  C   UNL     1      27.775  32.257 140.054  1.00  0.00     0.015 C 
ATOM      6  C   UNL     1      27.169  31.721 138.734  1.00  0.00     0.032 C 
ATOM      7  C   UNL     1      26.640  30.351 139.082  1.00  0.00     0.139 C 
ATOM      8  O   UNL     1      25.469  30.059 139.265  1.00  0.00    -0.299 OA
ATOM      9  C   UNL     1      27.802  29.424 139.270  1.00  0.00     0.080 C 
ATOM     10  C   UNL     1      26.154  32.656 138.066  1.00  0.00     0.020 C 
ATOM     11  C   UNL     1      28.098  30.599 136.564  1.00  0.00     0.012 C 
ENDROOT
TORSDOF 0
ENDMDL
MODEL 9
REMARK VINA RESULT:    -4.052     11.381     13.181
REMARK INTER + INTRA:          -4.052
REMARK INTER:                  -4.052
REMARK INTRA:                   0.000
REMARK UNBOUND:                 0.000
REMARK SMILES CC1(C)[C@H]2CC[C@]1(C)C(=O)C2
REMARK SMILES IDX 1 1 2 2 4 3 5 4 6 5 7 6 9 7 10 8 11 9 8 10 3 11
REMARK H PARENT
REMARK Flexibility Score: inf
ROOT
ATOM      1  C   UNL     1      28.063  30.689 136.586  1.00  0.00     0.012 C 
ATOM      2  C   UNL     1      28.059  31.335 138.003  1.00  0.00    -0.020 C 
ATOM      3  C   UNL     1      27.058  32.507 138.153  1.00  0.00     0.003 C 
ATOM      4  C   UNL     1      25.683  31.807 137.963  1.00  0.00     0.005 C 
ATOM      5  C   UNL     1      25.899  30.427 138.632  1.00  0.00     0.015 C 
ATOM      6  C   UNL     1      27.370  30.508 139.110  1.00  0.00     0.032 C 
ATOM      7  C   UNL     1      27.354  31.509 140.238  1.00  0.00     0.139 C 
ATOM      8  O   UNL     1      27.405  31.249 141.430  1.00  0.00    -0.299 OA
ATOM      9  C   UNL     1      27.156  32.877 139.660  1.00  0.00     0.080 C 
ATOM     10  C   UNL     1      28.010  29.157 139.452  1.00  0.00     0.020 C 
ATOM     11  C   UNL     1      29.536  31.733 138.311  1.00  0.00     0.012 C 
ENDROOT
TORSDOF 0
ENDMDL
