MODEL 1
REMARK VINA RESULT:    -5.188      0.000      0.000
REMARK INTER + INTRA:          -7.122
REMARK INTER:                  -6.704
REMARK INTRA:                  -0.418
REMARK UNBOUND:                -0.418
REMARK SMILES CCO[C@H]1O[C@H](CO)[C@H](O)[C@@H](O)[C@@H]1O
REMARK SMILES IDX 4 1 13 2 11 3 9 4 6 5 5 6 3 7 2 8 1 9 14 10 12 12 7 14 8 15
REMARK SMILES IDX 10 17
REMARK H PARENT 14 11 12 13 8 16 10 18
REMARK Flexibility Score: inf
ROOT
ATOM      1  C   UNL     1     148.401 153.170 127.553  1.00  0.00     0.281 C 
ATOM      2  C   UNL     1     147.902 154.377 126.731  1.00  0.00     0.202 C 
ATOM      3  C   UNL     1     148.288 155.726 127.395  1.00  0.00     0.179 C 
ATOM      4  C   UNL     1     148.778 155.539 128.852  1.00  0.00     0.177 C 
ATOM      5  C   UNL     1     147.990 154.414 129.585  1.00  0.00     0.178 C 
ATOM      6  O   UNL     1     147.896 153.173 128.883  1.00  0.00    -0.341 OA
ENDROOT
BRANCH   1   7
ATOM      7  O   UNL     1     149.818 153.128 127.549  1.00  0.00    -0.350 OA
BRANCH   7   8
ATOM      8  C   UNL     1     150.327 153.030 126.231  1.00  0.00     0.160 C 
ATOM      9  C   UNL     1     150.217 151.593 125.732  1.00  0.00     0.035 C 
ENDBRANCH   7   8
ENDBRANCH   1   7
BRANCH   2  10
ATOM     10  O   UNL     1     146.505 154.307 126.597  1.00  0.00    -0.385 OA
ATOM     11  H   UNL     1     146.122 154.332 127.513  1.00  0.00     0.211 HD
ENDBRANCH   2  10
BRANCH   3  12
ATOM     12  O   UNL     1     149.260 156.402 126.637  1.00  0.00    -0.387 OA
ATOM     13  H   UNL     1     150.011 155.773 126.478  1.00  0.00     0.211 HD
ENDBRANCH   3  12
BRANCH   5  14
ATOM     14  C   UNL     1     146.573 154.854 129.998  1.00  0.00     0.191 C 
BRANCH  14  15
ATOM     15  O   UNL     1     146.609 155.557 131.211  1.00  0.00    -0.394 OA
ATOM     16  H   UNL     1     146.947 156.467 131.002  1.00  0.00     0.210 HD
ENDBRANCH  14  15
ENDBRANCH   5  14
BRANCH   4  17
ATOM     17  O   UNL     1     148.766 156.748 129.574  1.00  0.00    -0.387 OA
ATOM     18  H   UNL     1     149.582 157.263 129.344  1.00  0.00     0.211 HD
ENDBRANCH   4  17
TORSDOF 7
ENDMDL
MODEL 2
REMARK VINA RESULT:    -4.977      2.156      3.920
REMARK INTER + INTRA:          -6.850
REMARK INTER:                  -6.432
REMARK INTRA:                  -0.418
REMARK UNBOUND:                -0.418
REMARK SMILES CCO[C@H]1O[C@H](CO)[C@H](O)[C@@H](O)[C@@H]1O
REMARK SMILES IDX 4 1 13 2 11 3 9 4 6 5 5 6 3 7 2 8 1 9 14 10 12 12 7 14 8 15
REMARK SMILES IDX 10 17
REMARK H PARENT 14 11 12 13 8 16 10 18
REMARK Flexibility Score: inf
ROOT
ATOM      1  C   UNL     1     147.673 155.590 129.099  1.00  0.00     0.281 C 
ATOM      2  C   UNL     1     147.610 155.003 130.526  1.00  0.00     0.202 C 
ATOM      3  C   UNL     1     147.092 153.540 130.525  1.00  0.00     0.179 C 
ATOM      4  C   UNL     1     146.468 153.144 129.165  1.00  0.00     0.177 C 
ATOM      5  C   UNL     1     145.693 154.329 128.519  1.00  0.00     0.178 C 
ATOM      6  O   UNL     1     146.410 155.563 128.445  1.00  0.00    -0.341 OA
ENDROOT
BRANCH   1   7
ATOM      7  O   UNL     1     148.654 154.910 128.334  1.00  0.00    -0.350 OA
BRANCH   7   8
ATOM      8  C   UNL     1     148.805 155.496 127.054  1.00  0.00     0.160 C 
ATOM      9  C   UNL     1     149.480 156.857 127.176  1.00  0.00     0.035 C 
ENDBRANCH   7   8
ENDBRANCH   1   7
BRANCH   2  10
ATOM     10  O   UNL     1     146.765 155.797 131.321  1.00  0.00    -0.385 OA
ATOM     11  H   UNL     1     146.972 155.585 132.268  1.00  0.00     0.211 HD
ENDBRANCH   2  10
BRANCH   3  12
ATOM     12  O   UNL     1     148.118 152.642 130.872  1.00  0.00    -0.387 OA
ATOM     13  H   UNL     1     148.141 152.577 131.862  1.00  0.00     0.211 HD
ENDBRANCH   3  12
BRANCH   5  14
ATOM     14  C   UNL     1     144.334 154.590 129.196  1.00  0.00     0.191 C 
BRANCH  14  15
ATOM     15  O   UNL     1     144.171 155.957 129.465  1.00  0.00    -0.394 OA
ATOM     16  H   UNL     1     143.355 156.041 130.024  1.00  0.00     0.210 HD
ENDBRANCH  14  15
ENDBRANCH   5  14
BRANCH   4  17
ATOM     17  O   UNL     1     145.671 151.986 129.266  1.00  0.00    -0.387 OA
ATOM     18  H   UNL     1     145.117 152.055 130.087  1.00  0.00     0.211 HD
ENDBRANCH   4  17
TORSDOF 7
ENDMDL
MODEL 3
REMARK VINA RESULT:    -4.952      1.350      4.211
REMARK INTER + INTRA:          -6.817
REMARK INTER:                  -6.332
REMARK INTRA:                  -0.485
REMARK UNBOUND:                -0.418
REMARK SMILES CCO[C@H]1O[C@H](CO)[C@H](O)[C@@H](O)[C@@H]1O
REMARK SMILES IDX 4 1 13 2 11 3 9 4 6 5 5 6 3 7 2 8 1 9 14 10 12 12 7 14 8 15
REMARK SMILES IDX 10 17
REMARK H PARENT 14 11 12 13 8 16 10 18
REMARK Flexibility Score: inf
ROOT
ATOM      1  C   UNL     1     148.291 153.478 129.224  1.00  0.00     0.281 C 
ATOM      2  C   UNL     1     149.392 154.528 129.487  1.00  0.00     0.202 C 
ATOM      3  C   UNL     1     149.394 155.645 128.410  1.00  0.00     0.179 C 
ATOM      4  C   UNL     1     148.531 155.269 127.180  1.00  0.00     0.177 C 
ATOM      5  C   UNL     1     148.633 153.752 126.846  1.00  0.00     0.178 C 
ATOM      6  O   UNL     1     148.420 152.866 127.946  1.00  0.00    -0.341 OA
ENDROOT
BRANCH   1   7
ATOM      7  O   UNL     1     147.010 154.065 129.377  1.00  0.00    -0.350 OA
BRANCH   7   8
ATOM      8  C   UNL     1     146.804 154.513 130.704  1.00  0.00     0.160 C 
ATOM      9  C   UNL     1     145.737 153.664 131.386  1.00  0.00     0.035 C 
ENDBRANCH   7   8
ENDBRANCH   1   7
BRANCH   2  10
ATOM     10  O   UNL     1     150.647 153.895 129.505  1.00  0.00    -0.385 OA
ATOM     11  H   UNL     1     151.295 154.520 129.087  1.00  0.00     0.211 HD
ENDBRANCH   2  10
BRANCH   3  12
ATOM     12  O   UNL     1     148.965 156.869 128.952  1.00  0.00    -0.387 OA
ATOM     13  H   UNL     1     149.080 157.565 128.253  1.00  0.00     0.211 HD
ENDBRANCH   3  12
BRANCH   5  14
ATOM     14  C   UNL     1     149.965 153.382 126.167  1.00  0.00     0.191 C 
BRANCH  14  15
ATOM     15  O   UNL     1     150.615 152.362 126.877  1.00  0.00    -0.394 OA
ATOM     16  H   UNL     1     149.909 151.857 127.357  1.00  0.00     0.210 HD
ENDBRANCH  14  15
ENDBRANCH   5  14
BRANCH   4  17
ATOM     17  O   UNL     1     148.823 156.076 126.063  1.00  0.00    -0.387 OA
ATOM     18  H   UNL     1     149.762 155.910 125.790  1.00  0.00     0.211 HD
ENDBRANCH   4  17
TORSDOF 7
ENDMDL
MODEL 4
REMARK VINA RESULT:    -4.920      1.992      4.290
REMARK INTER + INTRA:          -6.777
REMARK INTER:                  -6.328
REMARK INTRA:                  -0.449
REMARK UNBOUND:                -0.418
REMARK SMILES CCO[C@H]1O[C@H](CO)[C@H](O)[C@@H](O)[C@@H]1O
REMARK SMILES IDX 4 1 13 2 11 3 9 4 6 5 5 6 3 7 2 8 1 9 14 10 12 12 7 14 8 15
REMARK SMILES IDX 10 17
REMARK H PARENT 14 11 12 13 8 16 10 18
REMARK Flexibility Score: inf
ROOT
ATOM      1  C   UNL     1     146.671 153.206 128.972  1.00  0.00     0.281 C 
ATOM      2  C   UNL     1     146.867 153.527 130.469  1.00  0.00     0.202 C 
ATOM      3  C   UNL     1     147.460 154.945 130.683  1.00  0.00     0.179 C 
ATOM      4  C   UNL     1     148.007 155.552 129.367  1.00  0.00     0.177 C 
ATOM      5  C   UNL     1     148.670 154.469 128.466  1.00  0.00     0.178 C 
ATOM      6  O   UNL     1     147.884 153.298 128.235  1.00  0.00    -0.341 OA
ENDROOT
BRANCH   1   7
ATOM      7  O   UNL     1     145.676 154.050 128.417  1.00  0.00    -0.350 OA
BRANCH   7   8
ATOM      8  C   UNL     1     144.436 153.890 129.082  1.00  0.00     0.160 C 
ATOM      9  C   UNL     1     143.629 155.181 129.004  1.00  0.00     0.035 C 
ENDBRANCH   7   8
ENDBRANCH   1   7
BRANCH   2  10
ATOM     10  O   UNL     1     147.723 152.573 131.045  1.00  0.00    -0.385 OA
ATOM     11  H   UNL     1     148.651 152.834 130.810  1.00  0.00     0.211 HD
ENDBRANCH   2  10
BRANCH   3  12
ATOM     12  O   UNL     1     146.511 155.808 131.260  1.00  0.00    -0.387 OA
ATOM     13  H   UNL     1     145.671 155.293 131.383  1.00  0.00     0.211 HD
ENDBRANCH   3  12
BRANCH   5  14
ATOM     14  C   UNL     1     150.057 154.038 128.978  1.00  0.00     0.191 C 
BRANCH  14  15
ATOM     15  O   UNL     1     150.982 155.083 128.835  1.00  0.00    -0.394 OA
ATOM     16  H   UNL     1     150.693 155.805 129.451  1.00  0.00     0.210 HD
ENDBRANCH  14  15
ENDBRANCH   5  14
BRANCH   4  17
ATOM     17  O   UNL     1     148.870 156.640 129.605  1.00  0.00    -0.387 OA
ATOM     18  H   UNL     1     148.523 157.155 130.379  1.00  0.00     0.211 HD
ENDBRANCH   4  17
TORSDOF 7
ENDMDL
MODEL 5
REMARK VINA RESULT:    -4.840      1.849      2.577
REMARK INTER + INTRA:          -6.672
REMARK INTER:                  -6.569
REMARK INTRA:                  -0.103
REMARK UNBOUND:                -0.418
REMARK SMILES CCO[C@H]1O[C@H](CO)[C@H](O)[C@@H](O)[C@@H]1O
REMARK SMILES IDX 4 1 13 2 11 3 9 4 6 5 5 6 3 7 2 8 1 9 14 10 12 12 7 14 8 15
REMARK SMILES IDX 10 17
REMARK H PARENT 14 11 12 13 8 16 10 18
REMARK Flexibility Score: inf
ROOT
ATOM      1  C   UNL     1     147.879 153.141 128.480  1.00  0.00     0.281 C 
ATOM      2  C   UNL     1     147.876 154.597 127.970  1.00  0.00     0.202 C 
ATOM      3  C   UNL     1     147.708 155.615 129.129  1.00  0.00     0.179 C 
ATOM      4  C   UNL     1     147.265 154.931 130.445  1.00  0.00     0.177 C 
ATOM      5  C   UNL     1     146.275 153.759 130.181  1.00  0.00     0.178 C 
ATOM      6  O   UNL     1     146.693 152.814 129.194  1.00  0.00    -0.341 OA
ENDROOT
BRANCH   1   7
ATOM      7  O   UNL     1     149.029 152.904 129.275  1.00  0.00    -0.350 OA
BRANCH   7   8
ATOM      8  C   UNL     1     149.074 151.563 129.729  1.00  0.00     0.160 C 
ATOM      9  C   UNL     1     149.309 151.528 131.235  1.00  0.00     0.035 C 
ENDBRANCH   7   8
ENDBRANCH   1   7
BRANCH   2  10
ATOM     10  O   UNL     1     146.830 154.767 127.046  1.00  0.00    -0.385 OA
ATOM     11  H   UNL     1     146.344 153.902 126.994  1.00  0.00     0.211 HD
ENDBRANCH   2  10
BRANCH   3  12
ATOM     12  O   UNL     1     148.893 156.346 129.334  1.00  0.00    -0.387 OA
ATOM     13  H   UNL     1     149.330 155.989 130.151  1.00  0.00     0.211 HD
ENDBRANCH   3  12
BRANCH   5  14
ATOM     14  C   UNL     1     144.858 154.248 129.824  1.00  0.00     0.191 C 
BRANCH  14  15
ATOM     15  O   UNL     1     144.888 155.590 129.416  1.00  0.00    -0.394 OA
ATOM     16  H   UNL     1     145.744 155.720 128.931  1.00  0.00     0.210 HD
ENDBRANCH  14  15
ENDBRANCH   5  14
BRANCH   4  17
ATOM     17  O   UNL     1     146.751 155.856 131.375  1.00  0.00    -0.387 OA
ATOM     18  H   UNL     1     145.866 155.533 131.687  1.00  0.00     0.211 HD
ENDBRANCH   4  17
TORSDOF 7
ENDMDL
MODEL 6
REMARK VINA RESULT:    -4.786      1.888      4.321
REMARK INTER + INTRA:          -6.603
REMARK INTER:                  -6.048
REMARK INTRA:                  -0.555
REMARK UNBOUND:                -0.418
REMARK SMILES CCO[C@H]1O[C@H](CO)[C@H](O)[C@@H](O)[C@@H]1O
REMARK SMILES IDX 4 1 13 2 11 3 9 4 6 5 5 6 3 7 2 8 1 9 14 10 12 12 7 14 8 15
REMARK SMILES IDX 10 17
REMARK H PARENT 14 11 12 13 8 16 10 18
REMARK Flexibility Score: inf
ROOT
ATOM      1  C   UNL     1     147.730 153.817 130.526  1.00  0.00     0.281 C 
ATOM      2  C   UNL     1     147.312 155.265 130.198  1.00  0.00     0.202 C 
ATOM      3  C   UNL     1     146.884 155.421 128.714  1.00  0.00     0.179 C 
ATOM      4  C   UNL     1     147.284 154.192 127.861  1.00  0.00     0.177 C 
ATOM      5  C   UNL     1     148.657 153.607 128.303  1.00  0.00     0.178 C 
ATOM      6  O   UNL     1     148.797 153.361 129.704  1.00  0.00    -0.341 OA
ENDROOT
BRANCH   1   7
ATOM      7  O   UNL     1     146.611 152.951 130.430  1.00  0.00    -0.350 OA
BRANCH   7   8
ATOM      8  C   UNL     1     145.593 153.322 131.342  1.00  0.00     0.160 C 
ATOM      9  C   UNL     1     144.221 153.057 130.732  1.00  0.00     0.035 C 
ENDBRANCH   7   8
ENDBRANCH   1   7
BRANCH   2  10
ATOM     10  O   UNL     1     148.383 156.134 130.468  1.00  0.00    -0.385 OA
ATOM     11  H   UNL     1     149.118 155.893 129.845  1.00  0.00     0.211 HD
ENDBRANCH   2  10
BRANCH   3  12
ATOM     12  O   UNL     1     145.501 155.658 128.610  1.00  0.00    -0.387 OA
ATOM     13  H   UNL     1     145.287 156.445 129.176  1.00  0.00     0.211 HD
ENDBRANCH   3  12
BRANCH   5  14
ATOM     14  C   UNL     1     149.847 154.464 127.833  1.00  0.00     0.191 C 
BRANCH  14  15
ATOM     15  O   UNL     1     150.648 154.836 128.923  1.00  0.00    -0.394 OA
ATOM     16  H   UNL     1     150.976 153.995 129.335  1.00  0.00     0.210 HD
ENDBRANCH  14  15
ENDBRANCH   5  14
BRANCH   4  17
ATOM     17  O   UNL     1     147.250 154.473 126.481  1.00  0.00    -0.387 OA
ATOM     18  H   UNL     1     147.785 153.786 126.005  1.00  0.00     0.211 HD
ENDBRANCH   4  17
TORSDOF 7
ENDMDL
MODEL 7
REMARK VINA RESULT:    -4.735      2.080      3.960
REMARK INTER + INTRA:          -6.537
REMARK INTER:                  -6.075
REMARK INTRA:                  -0.462
REMARK UNBOUND:                -0.418
REMARK SMILES CCO[C@H]1O[C@H](CO)[C@H](O)[C@@H](O)[C@@H]1O
REMARK SMILES IDX 4 1 13 2 11 3 9 4 6 5 5 6 3 7 2 8 1 9 14 10 12 12 7 14 8 15
REMARK SMILES IDX 10 17
REMARK H PARENT 14 11 12 13 8 16 10 18
REMARK Flexibility Score: inf
ROOT
ATOM      1  C   UNL     1     147.998 153.600 130.722  1.00  0.00     0.281 C 
ATOM      2  C   UNL     1     146.628 154.302 130.835  1.00  0.00     0.202 C 
ATOM      3  C   UNL     1     145.895 154.359 129.468  1.00  0.00     0.179 C 
ATOM      4  C   UNL     1     146.832 154.003 128.288  1.00  0.00     0.177 C 
ATOM      5  C   UNL     1     148.273 154.547 128.514  1.00  0.00     0.178 C 
ATOM      6  O   UNL     1     148.856 154.234 129.781  1.00  0.00    -0.341 OA
ENDROOT
BRANCH   1   7
ATOM      7  O   UNL     1     147.821 152.230 130.403  1.00  0.00    -0.350 OA
BRANCH   7   8
ATOM      8  C   UNL     1     149.053 151.532 130.428  1.00  0.00     0.160 C 
ATOM      9  C   UNL     1     149.352 151.048 131.842  1.00  0.00     0.035 C 
ENDBRANCH   7   8
ENDBRANCH   1   7
BRANCH   2  10
ATOM     10  O   UNL     1     146.810 155.608 131.321  1.00  0.00    -0.385 OA
ATOM     11  H   UNL     1     147.778 155.815 131.247  1.00  0.00     0.211 HD
ENDBRANCH   2  10
BRANCH   3  12
ATOM     12  O   UNL     1     144.766 153.519 129.466  1.00  0.00    -0.387 OA
ATOM     13  H   UNL     1     145.063 152.617 129.176  1.00  0.00     0.211 HD
ENDBRANCH   3  12
BRANCH   5  14
ATOM     14  C   UNL     1     148.377 156.067 128.287  1.00  0.00     0.191 C 
BRANCH  14  15
ATOM     15  O   UNL     1     148.816 156.711 129.453  1.00  0.00    -0.394 OA
ATOM     16  H   UNL     1     149.806 156.632 129.466  1.00  0.00     0.210 HD
ENDBRANCH  14  15
ENDBRANCH   5  14
BRANCH   4  17
ATOM     17  O   UNL     1     146.302 154.413 127.049  1.00  0.00    -0.387 OA
ATOM     18  H   UNL     1     145.313 154.347 127.092  1.00  0.00     0.211 HD
ENDBRANCH   4  17
TORSDOF 7
ENDMDL
MODEL 8
REMARK VINA RESULT:    -4.719      1.853      2.361
REMARK INTER + INTRA:          -6.516
REMARK INTER:                  -6.305
REMARK INTRA:                  -0.211
REMARK UNBOUND:                -0.418
REMARK SMILES CCO[C@H]1O[C@H](CO)[C@H](O)[C@@H](O)[C@@H]1O
REMARK SMILES IDX 4 1 13 2 11 3 9 4 6 5 5 6 3 7 2 8 1 9 14 10 12 12 7 14 8 15
REMARK SMILES IDX 10 17
REMARK H PARENT 14 11 12 13 8 16 10 18
REMARK Flexibility Score: inf
ROOT
ATOM      1  C   UNL     1     147.697 152.727 127.999  1.00  0.00     0.281 C 
ATOM      2  C   UNL     1     148.110 153.566 126.771  1.00  0.00     0.202 C 
ATOM      3  C   UNL     1     149.455 154.304 127.002  1.00  0.00     0.179 C 
ATOM      4  C   UNL     1     149.882 154.285 128.490  1.00  0.00     0.177 C 
ATOM      5  C   UNL     1     148.657 154.412 129.443  1.00  0.00     0.178 C 
ATOM      6  O   UNL     1     147.578 153.513 129.179  1.00  0.00    -0.341 OA
ENDROOT
BRANCH   1   7
ATOM      7  O   UNL     1     148.611 151.660 128.192  1.00  0.00    -0.350 OA
BRANCH   7   8
ATOM      8  C   UNL     1     148.030 150.615 128.951  1.00  0.00     0.160 C 
ATOM      9  C   UNL     1     148.761 150.463 130.280  1.00  0.00     0.035 C 
ENDBRANCH   7   8
ENDBRANCH   1   7
BRANCH   2  10
ATOM     10  O   UNL     1     147.104 154.507 126.488  1.00  0.00    -0.385 OA
ATOM     11  H   UNL     1     146.952 154.485 125.508  1.00  0.00     0.211 HD
ENDBRANCH   2  10
BRANCH   3  12
ATOM     12  O   UNL     1     150.472 153.762 126.196  1.00  0.00    -0.387 OA
ATOM     13  H   UNL     1     151.344 154.058 126.569  1.00  0.00     0.211 HD
ENDBRANCH   3  12
BRANCH   5  14
ATOM     14  C   UNL     1     148.099 155.847 129.503  1.00  0.00     0.191 C 
BRANCH  14  15
ATOM     15  O   UNL     1     148.014 156.287 130.832  1.00  0.00    -0.394 OA
ATOM     16  H   UNL     1     148.003 157.279 130.802  1.00  0.00     0.210 HD
ENDBRANCH  14  15
ENDBRANCH   5  14
BRANCH   4  17
ATOM     17  O   UNL     1     150.870 155.249 128.770  1.00  0.00    -0.387 OA
ATOM     18  H   UNL     1     150.422 156.093 129.035  1.00  0.00     0.211 HD
ENDBRANCH   4  17
TORSDOF 7
ENDMDL
MODEL 9
REMARK VINA RESULT:    -4.689      1.599      2.954
REMARK INTER + INTRA:          -6.478
REMARK INTER:                  -6.007
REMARK INTRA:                  -0.471
REMARK UNBOUND:                -0.418
REMARK SMILES CCO[C@H]1O[C@H](CO)[C@H](O)[C@@H](O)[C@@H]1O
REMARK SMILES IDX 4 1 13 2 11 3 9 4 6 5 5 6 3 7 2 8 1 9 14 10 12 12 7 14 8 15
REMARK SMILES IDX 10 17
REMARK H PARENT 14 11 12 13 8 16 10 18
REMARK Flexibility Score: inf
ROOT
ATOM      1  C   UNL     1     149.544 154.655 127.842  1.00  0.00     0.281 C 
ATOM      2  C   UNL     1     149.844 153.453 128.762  1.00  0.00     0.202 C 
ATOM      3  C   UNL     1     148.543 152.795 129.293  1.00  0.00     0.179 C 
ATOM      4  C   UNL     1     147.298 153.681 129.045  1.00  0.00     0.177 C 
ATOM      5  C   UNL     1     147.626 155.194 129.212  1.00  0.00     0.178 C 
ATOM      6  O   UNL     1     148.771 155.657 128.492  1.00  0.00    -0.341 OA
ENDROOT
BRANCH   1   7
ATOM      7  O   UNL     1     148.907 154.215 126.654  1.00  0.00    -0.350 OA
BRANCH   7   8
ATOM      8  C   UNL     1     149.728 153.314 125.933  1.00  0.00     0.160 C 
ATOM      9  C   UNL     1     148.865 152.307 125.180  1.00  0.00     0.035 C 
ENDBRANCH   7   8
ENDBRANCH   1   7
BRANCH   2  10
ATOM     10  O   UNL     1     150.628 153.879 129.848  1.00  0.00    -0.385 OA
ATOM     11  H   UNL     1     150.454 153.252 130.597  1.00  0.00     0.211 HD
ENDBRANCH   2  10
BRANCH   3  12
ATOM     12  O   UNL     1     148.355 151.520 128.728  1.00  0.00    -0.387 OA
ATOM     13  H   UNL     1     148.108 151.647 127.775  1.00  0.00     0.211 HD
ENDBRANCH   3  12
BRANCH   5  14
ATOM     14  C   UNL     1     147.770 155.612 130.687  1.00  0.00     0.191 C 
BRANCH  14  15
ATOM     15  O   UNL     1     146.519 155.625 131.321  1.00  0.00    -0.394 OA
ATOM     16  H   UNL     1     145.929 155.023 130.797  1.00  0.00     0.210 HD
ENDBRANCH  14  15
ENDBRANCH   5  14
BRANCH   4  17
ATOM     17  O   UNL     1     146.203 153.288 129.839  1.00  0.00    -0.387 OA
ATOM     18  H   UNL     1     146.409 153.494 130.787  1.00  0.00     0.211 HD
ENDBRANCH   4  17
TORSDOF 7
ENDMDL
