MODEL 1
REMARK VINA RESULT:    -3.919      0.000      0.000
REMARK INTER + INTRA:          -6.152
REMARK INTER:                  -5.752
REMARK INTRA:                  -0.400
REMARK UNBOUND:                -0.400
REMARK SMILES O=C([O-])CCCCCCCC(=O)[O-]
REMARK SMILES IDX 7 1 6 2 5 3 4 4 2 5 1 6 3 7 8 8 9 9 10 10 11 11 12 12 13 13
REMARK H PARENT
REMARK Flexibility Score: inf
ROOT
ATOM      1  C   UNL     1     -30.982  23.560  30.233  1.00  0.00     0.000 C 
ENDROOT
BRANCH   1   2
ATOM      2  C   UNL     1     -31.860  22.591  29.427  1.00  0.00     0.000 C 
BRANCH   2   3
ATOM      3  C   UNL     1     -31.091  21.906  28.287  1.00  0.00     0.006 C 
BRANCH   3   4
ATOM      4  C   UNL     1     -29.671  22.466  28.170  1.00  0.00     0.053 C 
BRANCH   4   5
ATOM      5  C   UNL     1     -29.128  22.237  26.795  1.00  0.00     0.041 C 
ATOM      6  O   UNL     1     -28.319  23.059  26.288  1.00  0.00    -0.550 OA
ATOM      7  O   UNL     1     -29.552  21.143  26.053  1.00  0.00    -0.550 OA
ENDBRANCH   4   5
ENDBRANCH   3   4
ENDBRANCH   2   3
ENDBRANCH   1   2
BRANCH   1   8
ATOM      8  C   UNL     1     -31.670  24.914  30.481  1.00  0.00     0.000 C 
BRANCH   8   9
ATOM      9  C   UNL     1     -33.165  24.892  30.121  1.00  0.00     0.006 C 
BRANCH   9  10
ATOM     10  C   UNL     1     -34.003  25.795  31.034  1.00  0.00     0.053 C 
BRANCH  10  11
ATOM     11  C   UNL     1     -34.475  25.033  32.232  1.00  0.00     0.041 C 
ATOM     12  O   UNL     1     -35.305  24.095  32.100  1.00  0.00    -0.550 OA
ATOM     13  O   UNL     1     -33.960  25.325  33.488  1.00  0.00    -0.550 OA
ENDBRANCH  10  11
ENDBRANCH   9  10
ENDBRANCH   8   9
ENDBRANCH   1   8
TORSDOF 8
ENDMDL
MODEL 2
REMARK VINA RESULT:    -3.888      1.094      6.659
REMARK INTER + INTRA:          -6.106
REMARK INTER:                  -5.695
REMARK INTRA:                  -0.411
REMARK UNBOUND:                -0.400
REMARK SMILES O=C([O-])CCCCCCCC(=O)[O-]
REMARK SMILES IDX 7 1 6 2 5 3 4 4 2 5 1 6 3 7 8 8 9 9 10 10 11 11 12 12 13 13
REMARK H PARENT
REMARK Flexibility Score: inf
ROOT
ATOM      1  C   UNL     1     -31.251  24.301  29.558  1.00  0.00     0.000 C 
ENDROOT
BRANCH   1   2
ATOM      2  C   UNL     1     -31.956  25.132  30.640  1.00  0.00     0.000 C 
BRANCH   2   3
ATOM      3  C   UNL     1     -33.482  25.157  30.466  1.00  0.00     0.006 C 
BRANCH   3   4
ATOM      4  C   UNL     1     -34.188  25.198  31.825  1.00  0.00     0.053 C 
BRANCH   4   5
ATOM      5  C   UNL     1     -34.709  23.843  32.186  1.00  0.00     0.041 C 
ATOM      6  O   UNL     1     -35.931  23.685  32.450  1.00  0.00    -0.550 OA
ATOM      7  O   UNL     1     -33.839  22.766  32.281  1.00  0.00    -0.550 OA
ENDBRANCH   4   5
ENDBRANCH   3   4
ENDBRANCH   2   3
ENDBRANCH   1   2
BRANCH   1   8
ATOM      8  C   UNL     1     -31.908  22.926  29.346  1.00  0.00     0.000 C 
BRANCH   8   9
ATOM      9  C   UNL     1     -30.951  21.905  28.710  1.00  0.00     0.006 C 
BRANCH   9  10
ATOM     10  C   UNL     1     -29.494  22.386  28.708  1.00  0.00     0.053 C 
BRANCH  10  11
ATOM     11  C   UNL     1     -28.859  22.123  27.379  1.00  0.00     0.041 C 
ATOM     12  O   UNL     1     -28.261  21.035  27.167  1.00  0.00    -0.550 OA
ATOM     13  O   UNL     1     -28.971  23.057  26.358  1.00  0.00    -0.550 OA
ENDBRANCH  10  11
ENDBRANCH   9  10
ENDBRANCH   8   9
ENDBRANCH   1   8
TORSDOF 8
ENDMDL
MODEL 3
REMARK VINA RESULT:    -3.857      1.239      1.778
REMARK INTER + INTRA:          -6.061
REMARK INTER:                  -5.700
REMARK INTRA:                  -0.361
REMARK UNBOUND:                -0.400
REMARK SMILES O=C([O-])CCCCCCCC(=O)[O-]
REMARK SMILES IDX 7 1 6 2 5 3 4 4 2 5 1 6 3 7 8 8 9 9 10 10 11 11 12 12 13 13
REMARK H PARENT
REMARK Flexibility Score: inf
ROOT
ATOM      1  C   UNL     1     -31.817  22.550  29.848  1.00  0.00     0.000 C 
ENDROOT
BRANCH   1   2
ATOM      2  C   UNL     1     -30.391  22.163  29.427  1.00  0.00     0.000 C 
BRANCH   2   3
ATOM      3  C   UNL     1     -29.992  22.764  28.071  1.00  0.00     0.006 C 
BRANCH   3   4
ATOM      4  C   UNL     1     -29.702  21.661  27.048  1.00  0.00     0.053 C 
BRANCH   4   5
ATOM      5  C   UNL     1     -28.937  22.211  25.886  1.00  0.00     0.041 C 
ATOM      6  O   UNL     1     -29.179  21.806  24.719  1.00  0.00    -0.550 OA
ATOM      7  O   UNL     1     -27.921  23.134  26.097  1.00  0.00    -0.550 OA
ENDBRANCH   4   5
ENDBRANCH   3   4
ENDBRANCH   2   3
ENDBRANCH   1   2
BRANCH   1   8
ATOM      8  C   UNL     1     -32.160  24.010  29.504  1.00  0.00     0.000 C 
BRANCH   8   9
ATOM      9  C   UNL     1     -31.779  24.987  30.629  1.00  0.00     0.006 C 
BRANCH   9  10
ATOM     10  C   UNL     1     -32.698  24.866  31.850  1.00  0.00     0.053 C 
BRANCH  10  11
ATOM     11  C   UNL     1     -34.082  25.318  31.508  1.00  0.00     0.041 C 
ATOM     12  O   UNL     1     -34.259  26.371  30.839  1.00  0.00    -0.550 OA
ATOM     13  O   UNL     1     -35.178  24.551  31.885  1.00  0.00    -0.550 OA
ENDBRANCH  10  11
ENDBRANCH   9  10
ENDBRANCH   8   9
ENDBRANCH   1   8
TORSDOF 8
ENDMDL
MODEL 4
REMARK VINA RESULT:    -3.819      1.214      6.927
REMARK INTER + INTRA:          -6.005
REMARK INTER:                  -5.603
REMARK INTRA:                  -0.402
REMARK UNBOUND:                -0.400
REMARK SMILES O=C([O-])CCCCCCCC(=O)[O-]
REMARK SMILES IDX 7 1 6 2 5 3 4 4 2 5 1 6 3 7 8 8 9 9 10 10 11 11 12 12 13 13
REMARK H PARENT
REMARK Flexibility Score: inf
ROOT
ATOM      1  C   UNL     1     -31.580  22.721  29.440  1.00  0.00     0.000 C 
ENDROOT
BRANCH   1   2
ATOM      2  C   UNL     1     -31.344  24.235  29.341  1.00  0.00     0.000 C 
BRANCH   2   3
ATOM      3  C   UNL     1     -31.786  24.986  30.606  1.00  0.00     0.006 C 
BRANCH   3   4
ATOM      4  C   UNL     1     -32.917  24.240  31.319  1.00  0.00     0.053 C 
BRANCH   4   5
ATOM      5  C   UNL     1     -34.203  24.995  31.197  1.00  0.00     0.041 C 
ATOM      6  O   UNL     1     -34.225  26.121  30.634  1.00  0.00    -0.550 OA
ATOM      7  O   UNL     1     -35.367  24.478  31.750  1.00  0.00    -0.550 OA
ENDBRANCH   4   5
ENDBRANCH   3   4
ENDBRANCH   2   3
ENDBRANCH   1   2
BRANCH   1   8
ATOM      8  C   UNL     1     -30.920  21.943  28.287  1.00  0.00     0.000 C 
BRANCH   8   9
ATOM      9  C   UNL     1     -29.444  22.325  28.086  1.00  0.00     0.006 C 
BRANCH   9  10
ATOM     10  C   UNL     1     -29.125  22.696  26.632  1.00  0.00     0.053 C 
BRANCH  10  11
ATOM     11  C   UNL     1     -28.966  21.462  25.802  1.00  0.00     0.041 C 
ATOM     12  O   UNL     1     -28.011  20.669  26.019  1.00  0.00    -0.550 OA
ATOM     13  O   UNL     1     -29.901  21.159  24.819  1.00  0.00    -0.550 OA
ENDBRANCH  10  11
ENDBRANCH   9  10
ENDBRANCH   8   9
ENDBRANCH   1   8
TORSDOF 8
ENDMDL
MODEL 5
REMARK VINA RESULT:    -3.796      1.360      2.120
REMARK INTER + INTRA:          -5.971
REMARK INTER:                  -5.605
REMARK INTRA:                  -0.366
REMARK UNBOUND:                -0.400
REMARK SMILES O=C([O-])CCCCCCCC(=O)[O-]
REMARK SMILES IDX 7 1 6 2 5 3 4 4 2 5 1 6 3 7 8 8 9 9 10 10 11 11 12 12 13 13
REMARK H PARENT
REMARK Flexibility Score: inf
ROOT
ATOM      1  C   UNL     1     -31.142  22.033  28.702  1.00  0.00     0.000 C 
ENDROOT
BRANCH   1   2
ATOM      2  C   UNL     1     -29.675  22.457  28.542  1.00  0.00     0.000 C 
BRANCH   2   3
ATOM      3  C   UNL     1     -28.945  21.660  27.451  1.00  0.00     0.006 C 
BRANCH   3   4
ATOM      4  C   UNL     1     -28.913  22.437  26.132  1.00  0.00     0.053 C 
BRANCH   4   5
ATOM      5  C   UNL     1     -29.341  21.563  24.996  1.00  0.00     0.041 C 
ATOM      6  O   UNL     1     -28.872  21.749  23.843  1.00  0.00    -0.550 OA
ATOM      7  O   UNL     1     -30.295  20.575  25.201  1.00  0.00    -0.550 OA
ENDBRANCH   4   5
ENDBRANCH   3   4
ENDBRANCH   2   3
ENDBRANCH   1   2
BRANCH   1   8
ATOM      8  C   UNL     1     -31.895  22.888  29.737  1.00  0.00     0.000 C 
BRANCH   8   9
ATOM      9  C   UNL     1     -31.599  24.389  29.591  1.00  0.00     0.006 C 
BRANCH   9  10
ATOM     10  C   UNL     1     -31.977  25.189  30.845  1.00  0.00     0.053 C 
BRANCH  10  11
ATOM     11  C   UNL     1     -33.455  25.145  31.066  1.00  0.00     0.041 C 
ATOM     12  O   UNL     1     -34.231  25.775  30.299  1.00  0.00    -0.550 OA
ATOM     13  O   UNL     1     -33.983  24.368  32.089  1.00  0.00    -0.550 OA
ENDBRANCH  10  11
ENDBRANCH   9  10
ENDBRANCH   8   9
ENDBRANCH   1   8
TORSDOF 8
ENDMDL
MODEL 6
REMARK VINA RESULT:    -3.754      1.416      6.848
REMARK INTER + INTRA:          -5.910
REMARK INTER:                  -5.554
REMARK INTRA:                  -0.356
REMARK UNBOUND:                -0.400
REMARK SMILES O=C([O-])CCCCCCCC(=O)[O-]
REMARK SMILES IDX 7 1 6 2 5 3 4 4 2 5 1 6 3 7 8 8 9 9 10 10 11 11 12 12 13 13
REMARK H PARENT
REMARK Flexibility Score: inf
ROOT
ATOM      1  C   UNL     1     -31.129  22.107  28.559  1.00  0.00     0.000 C 
ENDROOT
BRANCH   1   2
ATOM      2  C   UNL     1     -31.781  22.857  29.730  1.00  0.00     0.000 C 
BRANCH   2   3
ATOM      3  C   UNL     1     -31.726  24.383  29.560  1.00  0.00     0.006 C 
BRANCH   3   4
ATOM      4  C   UNL     1     -32.103  25.094  30.863  1.00  0.00     0.053 C 
BRANCH   4   5
ATOM      5  C   UNL     1     -33.590  25.169  31.009  1.00  0.00     0.041 C 
ATOM      6  O   UNL     1     -34.236  26.089  30.442  1.00  0.00    -0.550 OA
ATOM      7  O   UNL     1     -34.256  24.253  31.812  1.00  0.00    -0.550 OA
ENDBRANCH   4   5
ENDBRANCH   3   4
ENDBRANCH   2   3
ENDBRANCH   1   2
BRANCH   1   8
ATOM      8  C   UNL     1     -29.652  22.493  28.359  1.00  0.00     0.000 C 
BRANCH   8   9
ATOM      9  C   UNL     1     -29.254  22.554  26.875  1.00  0.00     0.006 C 
BRANCH   9  10
ATOM     10  C   UNL     1     -28.975  21.166  26.284  1.00  0.00     0.053 C 
BRANCH  10  11
ATOM     11  C   UNL     1     -29.990  20.831  25.237  1.00  0.00     0.041 C 
ATOM     12  O   UNL     1     -29.823  21.210  24.048  1.00  0.00    -0.550 OA
ATOM     13  O   UNL     1     -31.096  20.057  25.564  1.00  0.00    -0.550 OA
ENDBRANCH  10  11
ENDBRANCH   9  10
ENDBRANCH   8   9
ENDBRANCH   1   8
TORSDOF 8
ENDMDL
MODEL 7
REMARK VINA RESULT:    -3.742      1.285      1.600
REMARK INTER + INTRA:          -5.892
REMARK INTER:                  -5.364
REMARK INTRA:                  -0.528
REMARK UNBOUND:                -0.400
REMARK SMILES O=C([O-])CCCCCCCC(=O)[O-]
REMARK SMILES IDX 7 1 6 2 5 3 4 4 2 5 1 6 3 7 8 8 9 9 10 10 11 11 12 12 13 13
REMARK H PARENT
REMARK Flexibility Score: inf
ROOT
ATOM      1  C   UNL     1     -31.585  22.325  30.398  1.00  0.00     0.000 C 
ENDROOT
BRANCH   1   2
ATOM      2  C   UNL     1     -30.512  21.427  29.763  1.00  0.00     0.000 C 
BRANCH   2   3
ATOM      3  C   UNL     1     -30.516  21.496  28.228  1.00  0.00     0.006 C 
BRANCH   3   4
ATOM      4  C   UNL     1     -29.770  22.738  27.733  1.00  0.00     0.053 C 
BRANCH   4   5
ATOM      5  C   UNL     1     -28.488  22.350  27.068  1.00  0.00     0.041 C 
ATOM      6  O   UNL     1     -28.022  23.051  26.132  1.00  0.00    -0.550 OA
ATOM      7  O   UNL     1     -27.832  21.186  27.449  1.00  0.00    -0.550 OA
ENDBRANCH   4   5
ENDBRANCH   3   4
ENDBRANCH   2   3
ENDBRANCH   1   2
BRANCH   1   8
ATOM      8  C   UNL     1     -30.982  23.527  31.147  1.00  0.00     0.000 C 
BRANCH   8   9
ATOM      9  C   UNL     1     -31.584  24.867  30.693  1.00  0.00     0.006 C 
BRANCH   9  10
ATOM     10  C   UNL     1     -32.953  24.701  30.022  1.00  0.00     0.053 C 
BRANCH  10  11
ATOM     11  C   UNL     1     -33.992  25.490  30.753  1.00  0.00     0.041 C 
ATOM     12  O   UNL     1     -34.859  26.143  30.115  1.00  0.00    -0.550 OA
ATOM     13  O   UNL     1     -34.034  25.465  32.142  1.00  0.00    -0.550 OA
ENDBRANCH  10  11
ENDBRANCH   9  10
ENDBRANCH   8   9
ENDBRANCH   1   8
TORSDOF 8
ENDMDL
MODEL 8
REMARK VINA RESULT:    -3.696      2.958      5.937
REMARK INTER + INTRA:          -5.824
REMARK INTER:                  -5.073
REMARK INTRA:                  -0.751
REMARK UNBOUND:                -0.400
REMARK SMILES O=C([O-])CCCCCCCC(=O)[O-]
REMARK SMILES IDX 7 1 6 2 5 3 4 4 2 5 1 6 3 7 8 8 9 9 10 10 11 11 12 12 13 13
REMARK H PARENT
REMARK Flexibility Score: inf
ROOT
ATOM      1  C   UNL     1     -31.570  24.290  29.580  1.00  0.00     0.000 C 
ENDROOT
BRANCH   1   2
ATOM      2  C   UNL     1     -32.085  25.111  30.771  1.00  0.00     0.000 C 
BRANCH   2   3
ATOM      3  C   UNL     1     -33.613  25.273  30.761  1.00  0.00     0.006 C 
BRANCH   3   4
ATOM      4  C   UNL     1     -34.168  25.319  32.188  1.00  0.00     0.053 C 
BRANCH   4   5
ATOM      5  C   UNL     1     -34.149  23.956  32.803  1.00  0.00     0.041 C 
ATOM      6  O   UNL     1     -34.839  23.027  32.306  1.00  0.00    -0.550 OA
ATOM      7  O   UNL     1     -33.409  23.724  33.955  1.00  0.00    -0.550 OA
ENDBRANCH   4   5
ENDBRANCH   3   4
ENDBRANCH   2   3
ENDBRANCH   1   2
BRANCH   1   8
ATOM      8  C   UNL     1     -31.901  22.792  29.706  1.00  0.00     0.000 C 
BRANCH   8   9
ATOM      9  C   UNL     1     -31.483  22.207  31.064  1.00  0.00     0.006 C 
BRANCH   9  10
ATOM     10  C   UNL     1     -29.984  21.886  31.130  1.00  0.00     0.053 C 
BRANCH  10  11
ATOM     11  C   UNL     1     -29.318  22.716  32.181  1.00  0.00     0.041 C 
ATOM     12  O   UNL     1     -30.006  23.296  33.062  1.00  0.00    -0.550 OA
ATOM     13  O   UNL     1     -27.933  22.811  32.218  1.00  0.00    -0.550 OA
ENDBRANCH  10  11
ENDBRANCH   9  10
ENDBRANCH   8   9
ENDBRANCH   1   8
TORSDOF 8
ENDMDL
MODEL 9
REMARK VINA RESULT:    -3.652      7.193      9.212
REMARK INTER + INTRA:          -5.759
REMARK INTER:                  -5.388
REMARK INTRA:                  -0.372
REMARK UNBOUND:                -0.400
REMARK SMILES O=C([O-])CCCCCCCC(=O)[O-]
REMARK SMILES IDX 7 1 6 2 5 3 4 4 2 5 1 6 3 7 8 8 9 9 10 10 11 11 12 12 13 13
REMARK H PARENT
REMARK Flexibility Score: inf
ROOT
ATOM      1  C   UNL     1     -31.183  19.383  24.061  1.00  0.00     0.000 C 
ENDROOT
BRANCH   1   2
ATOM      2  C   UNL     1     -32.588  19.956  24.303  1.00  0.00     0.000 C 
BRANCH   2   3
ATOM      3  C   UNL     1     -33.513  18.967  25.028  1.00  0.00     0.006 C 
BRANCH   3   4
ATOM      4  C   UNL     1     -33.490  17.595  24.347  1.00  0.00     0.053 C 
BRANCH   4   5
ATOM      5  C   UNL     1     -33.791  16.514  25.335  1.00  0.00     0.041 C 
ATOM      6  O   UNL     1     -34.636  16.709  26.249  1.00  0.00    -0.550 OA
ATOM      7  O   UNL     1     -33.104  15.309  25.279  1.00  0.00    -0.550 OA
ENDBRANCH   4   5
ENDBRANCH   3   4
ENDBRANCH   2   3
ENDBRANCH   1   2
BRANCH   1   8
ATOM      8  C   UNL     1     -30.404  20.161  22.986  1.00  0.00     0.000 C 
BRANCH   8   9
ATOM      9  C   UNL     1     -29.633  21.358  23.565  1.00  0.00     0.006 C 
BRANCH   9  10
ATOM     10  C   UNL     1     -28.187  21.429  23.055  1.00  0.00     0.053 C 
BRANCH  10  11
ATOM     11  C   UNL     1     -27.452  20.171  23.393  1.00  0.00     0.041 C 
ATOM     12  O   UNL     1     -26.932  19.476  22.481  1.00  0.00    -0.550 OA
ATOM     13  O   UNL     1     -27.298  19.790  24.720  1.00  0.00    -0.550 OA
ENDBRANCH  10  11
ENDBRANCH   9  10
ENDBRANCH   8   9
ENDBRANCH   1   8
TORSDOF 8
ENDMDL
