MODEL 1
REMARK VINA RESULT:    -6.305      0.000      0.000
REMARK INTER + INTRA:          -6.305
REMARK INTER:                  -6.305
REMARK INTRA:                   0.000
REMARK UNBOUND:                 0.000
REMARK SMILES O=c1ccc2ccccc2o1
REMARK SMILES IDX 7 1 8 2 9 3 10 4 5 5 6 6 4 7 3 8 2 9 1 10 11 11
REMARK H PARENT
REMARK Flexibility Score: inf
ROOT
ATOM      1  C   UNL     1       6.386   6.338  10.087  1.00  0.00     0.001 A 
ATOM      2  C   UNL     1       7.392   6.539  11.038  1.00  0.00     0.004 A 
ATOM      3  C   UNL     1       8.135   5.455  11.517  1.00  0.00     0.048 A 
ATOM      4  C   UNL     1       7.875   4.164  11.045  1.00  0.00     0.138 A 
ATOM      5  C   UNL     1       6.859   3.960  10.084  1.00  0.00     0.018 A 
ATOM      6  C   UNL     1       6.117   5.051   9.609  1.00  0.00     0.012 A 
ATOM      7  C   UNL     1       6.622   2.658   9.632  1.00  0.00     0.019 A 
ATOM      8  C   UNL     1       7.388   1.608  10.138  1.00  0.00     0.094 A 
ATOM      9  C   UNL     1       8.378   1.885  11.087  1.00  0.00     0.336 A 
ATOM     10  O   UNL     1       9.079   0.950  11.555  1.00  0.00    -0.246 OA
ATOM     11  O   UNL     1       8.583   3.133  11.502  1.00  0.00    -0.423 OA
ENDROOT
TORSDOF 0
ENDMDL
MODEL 2
REMARK VINA RESULT:    -6.272      2.000      4.391
REMARK INTER + INTRA:          -6.272
REMARK INTER:                  -6.272
REMARK INTRA:                   0.000
REMARK UNBOUND:                 0.000
REMARK SMILES O=c1ccc2ccccc2o1
REMARK SMILES IDX 7 1 8 2 9 3 10 4 5 5 6 6 4 7 3 8 2 9 1 10 11 11
REMARK H PARENT
REMARK Flexibility Score: inf
ROOT
ATOM      1  C   UNL     1       8.178   1.701  10.985  1.00  0.00     0.001 A 
ATOM      2  C   UNL     1       7.199   1.577   9.995  1.00  0.00     0.004 A 
ATOM      3  C   UNL     1       6.541   2.712   9.510  1.00  0.00     0.048 A 
ATOM      4  C   UNL     1       6.861   3.977  10.014  1.00  0.00     0.138 A 
ATOM      5  C   UNL     1       7.851   4.103  11.015  1.00  0.00     0.018 A 
ATOM      6  C   UNL     1       8.506   2.961  11.498  1.00  0.00     0.012 A 
ATOM      7  C   UNL     1       8.149   5.380  11.500  1.00  0.00     0.019 A 
ATOM      8  C   UNL     1       7.468   6.483  10.987  1.00  0.00     0.094 A 
ATOM      9  C   UNL     1       6.500   6.283   9.996  1.00  0.00     0.336 A 
ATOM     10  O   UNL     1       5.875   7.267   9.521  1.00  0.00    -0.246 OA
ATOM     11  O   UNL     1       6.235   5.057   9.552  1.00  0.00    -0.423 OA
ENDROOT
TORSDOF 0
ENDMDL
MODEL 3
REMARK VINA RESULT:    -6.039      1.618      3.837
REMARK INTER + INTRA:          -6.039
REMARK INTER:                  -6.039
REMARK INTRA:                   0.000
REMARK UNBOUND:                 0.000
REMARK SMILES O=c1ccc2ccccc2o1
REMARK SMILES IDX 7 1 8 2 9 3 10 4 5 5 6 6 4 7 3 8 2 9 1 10 11 11
REMARK H PARENT
REMARK Flexibility Score: inf
ROOT
ATOM      1  C   UNL     1       7.300   1.609  10.029  1.00  0.00     0.001 A 
ATOM      2  C   UNL     1       8.249   1.817  11.035  1.00  0.00     0.004 A 
ATOM      3  C   UNL     1       8.502   3.109  11.508  1.00  0.00     0.048 A 
ATOM      4  C   UNL     1       7.804   4.199  10.976  1.00  0.00     0.138 A 
ATOM      5  C   UNL     1       6.844   3.989   9.959  1.00  0.00     0.018 A 
ATOM      6  C   UNL     1       6.597   2.691   9.489  1.00  0.00     0.012 A 
ATOM      7  C   UNL     1       6.163   5.097   9.447  1.00  0.00     0.019 A 
ATOM      8  C   UNL     1       6.447   6.367   9.949  1.00  0.00     0.094 A 
ATOM      9  C   UNL     1       7.410   6.499  10.956  1.00  0.00     0.336 A 
ATOM     10  O   UNL     1       7.680   7.637  11.422  1.00  0.00    -0.246 OA
ATOM     11  O   UNL     1       8.045   5.428  11.426  1.00  0.00    -0.423 OA
ENDROOT
TORSDOF 0
ENDMDL
MODEL 4
REMARK VINA RESULT:    -5.831      1.459      2.292
REMARK INTER + INTRA:          -5.831
REMARK INTER:                  -5.831
REMARK INTRA:                   0.000
REMARK UNBOUND:                 0.000
REMARK SMILES O=c1ccc2ccccc2o1
REMARK SMILES IDX 7 1 8 2 9 3 10 4 5 5 6 6 4 7 3 8 2 9 1 10 11 11
REMARK H PARENT
REMARK Flexibility Score: inf
ROOT
ATOM      1  C   UNL     1       7.348   7.184  11.050  1.00  0.00     0.001 A 
ATOM      2  C   UNL     1       6.268   7.038  10.174  1.00  0.00     0.004 A 
ATOM      3  C   UNL     1       5.922   5.772   9.688  1.00  0.00     0.048 A 
ATOM      4  C   UNL     1       6.656   4.647  10.078  1.00  0.00     0.138 A 
ATOM      5  C   UNL     1       7.748   4.794  10.963  1.00  0.00     0.018 A 
ATOM      6  C   UNL     1       8.090   6.065  11.446  1.00  0.00     0.012 A 
ATOM      7  C   UNL     1       8.462   3.651  11.335  1.00  0.00     0.019 A 
ATOM      8  C   UNL     1       8.081   2.410  10.826  1.00  0.00     0.094 A 
ATOM      9  C   UNL     1       6.989   2.340   9.954  1.00  0.00     0.336 A 
ATOM     10  O   UNL     1       6.630   1.229   9.484  1.00  0.00    -0.246 OA
ATOM     11  O   UNL     1       6.326   3.443   9.615  1.00  0.00    -0.423 OA
ENDROOT
TORSDOF 0
ENDMDL
MODEL 5
REMARK VINA RESULT:    -5.509      1.020      1.453
REMARK INTER + INTRA:          -5.509
REMARK INTER:                  -5.509
REMARK INTRA:                   0.000
REMARK UNBOUND:                 0.000
REMARK SMILES O=c1ccc2ccccc2o1
REMARK SMILES IDX 7 1 8 2 9 3 10 4 5 5 6 6 4 7 3 8 2 9 1 10 11 11
REMARK H PARENT
REMARK Flexibility Score: inf
ROOT
ATOM      1  C   UNL     1       6.180   7.719   9.697  1.00  0.00     0.001 A 
ATOM      2  C   UNL     1       7.076   7.953  10.744  1.00  0.00     0.004 A 
ATOM      3  C   UNL     1       7.755   6.886  11.342  1.00  0.00     0.048 A 
ATOM      4  C   UNL     1       7.540   5.579  10.892  1.00  0.00     0.138 A 
ATOM      5  C   UNL     1       6.634   5.341   9.833  1.00  0.00     0.018 A 
ATOM      6  C   UNL     1       5.956   6.416   9.239  1.00  0.00     0.012 A 
ATOM      7  C   UNL     1       6.439   4.025   9.405  1.00  0.00     0.019 A 
ATOM      8  C   UNL     1       7.138   2.992  10.030  1.00  0.00     0.094 A 
ATOM      9  C   UNL     1       8.019   3.301  11.072  1.00  0.00     0.336 A 
ATOM     10  O   UNL     1       8.659   2.383  11.647  1.00  0.00    -0.246 OA
ATOM     11  O   UNL     1       8.186   4.563  11.460  1.00  0.00    -0.423 OA
ENDROOT
TORSDOF 0
ENDMDL
MODEL 6
REMARK VINA RESULT:    -4.739     11.047     13.248
REMARK INTER + INTRA:          -4.739
REMARK INTER:                  -4.739
REMARK INTRA:                   0.000
REMARK UNBOUND:                 0.000
REMARK SMILES O=c1ccc2ccccc2o1
REMARK SMILES IDX 7 1 8 2 9 3 10 4 5 5 6 6 4 7 3 8 2 9 1 10 11 11
REMARK H PARENT
REMARK Flexibility Score: inf
ROOT
ATOM      1  C   UNL     1      10.085  -7.526  20.083  1.00  0.00     0.001 A 
ATOM      2  C   UNL     1       8.845  -7.056  19.640  1.00  0.00     0.004 A 
ATOM      3  C   UNL     1       8.700  -5.725  19.235  1.00  0.00     0.048 A 
ATOM      4  C   UNL     1       9.798  -4.858  19.272  1.00  0.00     0.138 A 
ATOM      5  C   UNL     1      11.052  -5.333  19.719  1.00  0.00     0.018 A 
ATOM      6  C   UNL     1      11.190  -6.668  20.124  1.00  0.00     0.012 A 
ATOM      7  C   UNL     1      12.130  -4.443  19.744  1.00  0.00     0.019 A 
ATOM      8  C   UNL     1      11.939  -3.125  19.331  1.00  0.00     0.094 A 
ATOM      9  C   UNL     1      10.670  -2.725  18.900  1.00  0.00     0.336 A 
ATOM     10  O   UNL     1      10.479  -1.540  18.523  1.00  0.00    -0.246 OA
ATOM     11  O   UNL     1       9.660  -3.591  18.886  1.00  0.00    -0.423 OA
ENDROOT
TORSDOF 0
ENDMDL
MODEL 7
REMARK VINA RESULT:    -4.730     11.496     13.426
REMARK INTER + INTRA:          -4.730
REMARK INTER:                  -4.730
REMARK INTRA:                   0.000
REMARK UNBOUND:                 0.000
REMARK SMILES O=c1ccc2ccccc2o1
REMARK SMILES IDX 7 1 8 2 9 3 10 4 5 5 6 6 4 7 3 8 2 9 1 10 11 11
REMARK H PARENT
REMARK Flexibility Score: inf
ROOT
ATOM      1  C   UNL     1       8.763  -7.339  19.745  1.00  0.00     0.001 A 
ATOM      2  C   UNL     1      10.033  -7.784  20.124  1.00  0.00     0.004 A 
ATOM      3  C   UNL     1      11.118  -6.901  20.125  1.00  0.00     0.048 A 
ATOM      4  C   UNL     1      10.935  -5.566  19.746  1.00  0.00     0.138 A 
ATOM      5  C   UNL     1       9.651  -5.116  19.363  1.00  0.00     0.018 A 
ATOM      6  C   UNL     1       8.569  -6.007  19.364  1.00  0.00     0.012 A 
ATOM      7  C   UNL     1       9.500  -3.777  18.989  1.00  0.00     0.019 A 
ATOM      8  C   UNL     1      10.609  -2.932  19.005  1.00  0.00     0.094 A 
ATOM      9  C   UNL     1      11.850  -3.447  19.396  1.00  0.00     0.336 A 
ATOM     10  O   UNL     1      12.862  -2.700  19.417  1.00  0.00    -0.246 OA
ATOM     11  O   UNL     1      11.968  -4.726  19.747  1.00  0.00    -0.423 OA
ENDROOT
TORSDOF 0
ENDMDL
MODEL 8
REMARK VINA RESULT:    -4.652     10.596     12.920
REMARK INTER + INTRA:          -4.652
REMARK INTER:                  -4.652
REMARK INTRA:                   0.000
REMARK UNBOUND:                 0.000
REMARK SMILES O=c1ccc2ccccc2o1
REMARK SMILES IDX 7 1 8 2 9 3 10 4 5 5 6 6 4 7 3 8 2 9 1 10 11 11
REMARK H PARENT
REMARK Flexibility Score: inf
ROOT
ATOM      1  C   UNL     1      10.899  -6.995  20.125  1.00  0.00     0.001 A 
ATOM      2  C   UNL     1       9.595  -7.434  19.873  1.00  0.00     0.004 A 
ATOM      3  C   UNL     1       8.637  -6.546  19.375  1.00  0.00     0.048 A 
ATOM      4  C   UNL     1       8.980  -5.213  19.125  1.00  0.00     0.138 A 
ATOM      5  C   UNL     1      10.297  -4.768  19.379  1.00  0.00     0.018 A 
ATOM      6  C   UNL     1      11.253  -5.664  19.879  1.00  0.00     0.012 A 
ATOM      7  C   UNL     1      10.610  -3.430  19.120  1.00  0.00     0.019 A 
ATOM      8  C   UNL     1       9.623  -2.580  18.622  1.00  0.00     0.094 A 
ATOM      9  C   UNL     1       8.340  -3.090  18.395  1.00  0.00     0.336 A 
ATOM     10  O   UNL     1       7.436  -2.338  17.946  1.00  0.00    -0.246 OA
ATOM     11  O   UNL     1       8.067  -4.367  18.650  1.00  0.00    -0.423 OA
ENDROOT
TORSDOF 0
ENDMDL
