MODEL 1
REMARK VINA RESULT:    -3.902      0.000      0.000
REMARK INTER + INTRA:          -9.272
REMARK INTER:                  -7.095
REMARK INTRA:                  -2.177
REMARK UNBOUND:                -2.177
REMARK SMILES CCCCCCCCCCCCCC[C@@H](C)C(=O)[O-]
REMARK SMILES IDX 9 1 10 2 11 3 12 4 13 5 14 6 15 7 16 8 17 9 18 10 19 11 8 12
REMARK SMILES IDX 7 13 6 14 5 15 4 16 3 17 2 18 1 19
REMARK H PARENT
REMARK Flexibility Score: inf
ROOT
ATOM      1  C   UNL     1       0.799   8.263  -7.768  1.00  0.00     0.000 C 
ENDROOT
BRANCH   1   2
ATOM      2  C   UNL     1      -0.646   8.101  -8.269  1.00  0.00     0.000 C 
BRANCH   2   3
ATOM      3  C   UNL     1      -0.838   6.834  -9.118  1.00  0.00     0.000 C 
BRANCH   3   4
ATOM      4  C   UNL     1      -2.254   6.724  -9.703  1.00  0.00     0.000 C 
BRANCH   4   5
ATOM      5  C   UNL     1      -2.388   7.569 -10.978  1.00  0.00     0.001 C 
BRANCH   5   6
ATOM      6  C   UNL     1      -3.688   8.393 -11.022  1.00  0.00     0.009 C 
BRANCH   6   7
ATOM      7  C   UNL     1      -3.542   9.872 -10.592  1.00  0.00     0.032 C 
ATOM      8  C   UNL     1      -2.391  10.581 -11.318  1.00  0.00     0.014 C 
BRANCH   7   9
ATOM      9  C   UNL     1      -4.831  10.600 -10.857  1.00  0.00     0.044 C 
ATOM     10  O   UNL     1      -5.934  10.045 -10.613  1.00  0.00    -0.550 OA
ATOM     11  O   UNL     1      -4.815  11.886 -11.386  1.00  0.00    -0.550 OA
ENDBRANCH   7   9
ENDBRANCH   6   7
ENDBRANCH   5   6
ENDBRANCH   4   5
ENDBRANCH   3   4
ENDBRANCH   2   3
ENDBRANCH   1   2
BRANCH   1  12
ATOM     12  C   UNL     1       1.799   7.396  -8.551  1.00  0.00     0.000 C 
BRANCH  12  13
ATOM     13  C   UNL     1       2.564   8.200  -9.618  1.00  0.00    -0.000 C 
BRANCH  13  14
ATOM     14  C   UNL     1       2.075   7.900 -11.045  1.00  0.00    -0.000 C 
BRANCH  14  15
ATOM     15  C   UNL     1       1.018   8.903 -11.533  1.00  0.00    -0.000 C 
BRANCH  15  16
ATOM     16  C   UNL     1       1.645  10.281 -11.783  1.00  0.00    -0.000 C 
BRANCH  16  17
ATOM     17  C   UNL     1       1.306  11.302 -10.684  1.00  0.00    -0.000 C 
BRANCH  17  18
ATOM     18  C   UNL     1       2.542  11.842  -9.936  1.00  0.00    -0.003 C 
ATOM     19  C   UNL     1       2.382  11.769  -8.417  1.00  0.00     0.004 C 
ENDBRANCH  17  18
ENDBRANCH  16  17
ENDBRANCH  15  16
ENDBRANCH  14  15
ENDBRANCH  13  14
ENDBRANCH  12  13
ENDBRANCH   1  12
TORSDOF 14
ENDMDL
MODEL 2
REMARK VINA RESULT:    -3.826      0.831      1.497
REMARK INTER + INTRA:          -9.134
REMARK INTER:                  -6.860
REMARK INTRA:                  -2.275
REMARK UNBOUND:                -2.177
REMARK SMILES CCCCCCCCCCCCCC[C@@H](C)C(=O)[O-]
REMARK SMILES IDX 9 1 10 2 11 3 12 4 13 5 14 6 15 7 16 8 17 9 18 10 19 11 8 12
REMARK SMILES IDX 7 13 6 14 5 15 4 16 3 17 2 18 1 19
REMARK H PARENT
REMARK Flexibility Score: inf
ROOT
ATOM      1  C   UNL     1       1.658   7.356  -8.709  1.00  0.00     0.000 C 
ENDROOT
BRANCH   1   2
ATOM      2  C   UNL     1       0.759   8.343  -7.946  1.00  0.00     0.000 C 
BRANCH   2   3
ATOM      3  C   UNL     1      -0.736   8.122  -8.231  1.00  0.00     0.000 C 
BRANCH   3   4
ATOM      4  C   UNL     1      -0.989   6.931  -9.167  1.00  0.00     0.000 C 
BRANCH   4   5
ATOM      5  C   UNL     1      -1.848   7.351 -10.368  1.00  0.00     0.001 C 
BRANCH   5   6
ATOM      6  C   UNL     1      -2.278   8.829 -10.315  1.00  0.00     0.009 C 
BRANCH   6   7
ATOM      7  C   UNL     1      -3.421   9.213 -11.284  1.00  0.00     0.032 C 
ATOM      8  C   UNL     1      -4.085   7.987 -11.924  1.00  0.00     0.014 C 
BRANCH   7   9
ATOM      9  C   UNL     1      -4.454  10.019 -10.545  1.00  0.00     0.044 C 
ATOM     10  O   UNL     1      -5.632   9.588 -10.434  1.00  0.00    -0.550 OA
ATOM     11  O   UNL     1      -4.122  11.250  -9.993  1.00  0.00    -0.550 OA
ENDBRANCH   7   9
ENDBRANCH   6   7
ENDBRANCH   5   6
ENDBRANCH   4   5
ENDBRANCH   3   4
ENDBRANCH   2   3
ENDBRANCH   1   2
BRANCH   1  12
ATOM     12  C   UNL     1       2.431   8.024  -9.859  1.00  0.00     0.000 C 
BRANCH  12  13
ATOM     13  C   UNL     1       1.933   7.573 -11.243  1.00  0.00    -0.000 C 
BRANCH  13  14
ATOM     14  C   UNL     1       1.174   8.685 -11.987  1.00  0.00    -0.000 C 
BRANCH  14  15
ATOM     15  C   UNL     1       1.771  10.079 -11.740  1.00  0.00    -0.000 C 
BRANCH  15  16
ATOM     16  C   UNL     1       0.754  10.994 -11.044  1.00  0.00    -0.000 C 
BRANCH  16  17
ATOM     17  C   UNL     1       1.419  12.097 -10.202  1.00  0.00    -0.000 C 
BRANCH  17  18
ATOM     18  C   UNL     1       2.436  11.564  -9.173  1.00  0.00    -0.003 C 
ATOM     19  C   UNL     1       3.422  12.639  -8.716  1.00  0.00     0.004 C 
ENDBRANCH  17  18
ENDBRANCH  16  17
ENDBRANCH  15  16
ENDBRANCH  14  15
ENDBRANCH  13  14
ENDBRANCH  12  13
ENDBRANCH   1  12
TORSDOF 14
ENDMDL
MODEL 3
REMARK VINA RESULT:    -3.666      3.034      5.358
REMARK INTER + INTRA:          -8.844
REMARK INTER:                  -6.555
REMARK INTRA:                  -2.289
REMARK UNBOUND:                -2.177
REMARK SMILES CCCCCCCCCCCCCC[C@@H](C)C(=O)[O-]
REMARK SMILES IDX 9 1 10 2 11 3 12 4 13 5 14 6 15 7 16 8 17 9 18 10 19 11 8 12
REMARK SMILES IDX 7 13 6 14 5 15 4 16 3 17 2 18 1 19
REMARK H PARENT
REMARK Flexibility Score: inf
ROOT
ATOM      1  C   UNL     1       0.518   8.284  -7.872  1.00  0.00     0.000 C 
ENDROOT
BRANCH   1   2
ATOM      2  C   UNL     1       1.500   7.339  -8.585  1.00  0.00     0.000 C 
BRANCH   2   3
ATOM      3  C   UNL     1       2.328   8.054  -9.665  1.00  0.00     0.000 C 
BRANCH   3   4
ATOM      4  C   UNL     1       1.831   7.753 -11.086  1.00  0.00     0.000 C 
BRANCH   4   5
ATOM      5  C   UNL     1       1.402   9.043 -11.801  1.00  0.00     0.001 C 
BRANCH   5   6
ATOM      6  C   UNL     1       1.169  10.220 -10.835  1.00  0.00     0.009 C 
BRANCH   6   7
ATOM      7  C   UNL     1       1.969  11.503 -11.160  1.00  0.00     0.032 C 
ATOM      8  C   UNL     1       1.194  12.781 -10.815  1.00  0.00     0.014 C 
BRANCH   7   9
ATOM      9  C   UNL     1       3.272  11.484 -10.407  1.00  0.00     0.044 C 
ATOM     10  O   UNL     1       3.300  11.779  -9.184  1.00  0.00    -0.550 OA
ATOM     11  O   UNL     1       4.455  11.156 -11.060  1.00  0.00    -0.550 OA
ENDBRANCH   7   9
ENDBRANCH   6   7
ENDBRANCH   5   6
ENDBRANCH   4   5
ENDBRANCH   3   4
ENDBRANCH   2   3
ENDBRANCH   1   2
BRANCH   1  12
ATOM     12  C   UNL     1      -0.938   8.076  -8.321  1.00  0.00     0.000 C 
BRANCH  12  13
ATOM     13  C   UNL     1      -1.122   6.789  -9.143  1.00  0.00    -0.000 C 
BRANCH  13  14
ATOM     14  C   UNL     1      -2.040   6.993 -10.360  1.00  0.00    -0.000 C 
BRANCH  14  15
ATOM     15  C   UNL     1      -2.080   8.454 -10.835  1.00  0.00    -0.000 C 
BRANCH  15  16
ATOM     16  C   UNL     1      -3.516   8.881 -11.171  1.00  0.00    -0.000 C 
BRANCH  16  17
ATOM     17  C   UNL     1      -3.612  10.342 -11.641  1.00  0.00    -0.000 C 
BRANCH  17  18
ATOM     18  C   UNL     1      -2.257  11.080 -11.654  1.00  0.00    -0.003 C 
ATOM     19  C   UNL     1      -2.413  12.583 -11.883  1.00  0.00     0.004 C 
ENDBRANCH  17  18
ENDBRANCH  16  17
ENDBRANCH  15  16
ENDBRANCH  14  15
ENDBRANCH  13  14
ENDBRANCH  12  13
ENDBRANCH   1  12
TORSDOF 14
ENDMDL
MODEL 4
REMARK VINA RESULT:    -3.649      3.466      6.230
REMARK INTER + INTRA:          -8.812
REMARK INTER:                  -6.499
REMARK INTRA:                  -2.313
REMARK UNBOUND:                -2.177
REMARK SMILES CCCCCCCCCCCCCC[C@@H](C)C(=O)[O-]
REMARK SMILES IDX 9 1 10 2 11 3 12 4 13 5 14 6 15 7 16 8 17 9 18 10 19 11 8 12
REMARK SMILES IDX 7 13 6 14 5 15 4 16 3 17 2 18 1 19
REMARK H PARENT
REMARK Flexibility Score: inf
ROOT
ATOM      1  C   UNL     1       2.420   8.259  -9.736  1.00  0.00     0.000 C 
ENDROOT
BRANCH   1   2
ATOM      2  C   UNL     1       2.054   7.801 -11.158  1.00  0.00     0.000 C 
BRANCH   2   3
ATOM      3  C   UNL     1       1.535   8.954 -12.034  1.00  0.00     0.000 C 
BRANCH   3   4
ATOM      4  C   UNL     1       0.423   9.761 -11.349  1.00  0.00     0.000 C 
BRANCH   4   5
ATOM      5  C   UNL     1       0.787  11.252 -11.286  1.00  0.00     0.001 C 
BRANCH   5   6
ATOM      6  C   UNL     1       2.133  11.573 -11.964  1.00  0.00     0.009 C 
BRANCH   6   7
ATOM      7  C   UNL     1       3.204  12.188 -11.032  1.00  0.00     0.032 C 
ATOM      8  C   UNL     1       2.925  11.904  -9.551  1.00  0.00     0.014 C 
BRANCH   7   9
ATOM      9  C   UNL     1       4.558  11.648 -11.403  1.00  0.00     0.044 C 
ATOM     10  O   UNL     1       5.469  12.429 -11.784  1.00  0.00    -0.550 OA
ATOM     11  O   UNL     1       4.811  10.282 -11.341  1.00  0.00    -0.550 OA
ENDBRANCH   7   9
ENDBRANCH   6   7
ENDBRANCH   5   6
ENDBRANCH   4   5
ENDBRANCH   3   4
ENDBRANCH   2   3
ENDBRANCH   1   2
BRANCH   1  12
ATOM     12  C   UNL     1       1.739   7.413  -8.647  1.00  0.00     0.000 C 
BRANCH  12  13
ATOM     13  C   UNL     1       0.683   8.208  -7.859  1.00  0.00    -0.000 C 
BRANCH  13  14
ATOM     14  C   UNL     1      -0.742   7.980  -8.389  1.00  0.00    -0.000 C 
BRANCH  14  15
ATOM     15  C   UNL     1      -0.871   6.689  -9.213  1.00  0.00    -0.000 C 
BRANCH  15  16
ATOM     16  C   UNL     1      -1.690   6.932 -10.488  1.00  0.00    -0.000 C 
BRANCH  16  17
ATOM     17  C   UNL     1      -2.743   8.041 -10.321  1.00  0.00    -0.000 C 
BRANCH  17  18
ATOM     18  C   UNL     1      -3.803   8.064 -11.442  1.00  0.00    -0.003 C 
ATOM     19  C   UNL     1      -4.058   9.475 -11.975  1.00  0.00     0.004 C 
ENDBRANCH  17  18
ENDBRANCH  16  17
ENDBRANCH  15  16
ENDBRANCH  14  15
ENDBRANCH  13  14
ENDBRANCH  12  13
ENDBRANCH   1  12
TORSDOF 14
ENDMDL
MODEL 5
REMARK VINA RESULT:    -3.618     15.511     17.776
REMARK INTER + INTRA:          -8.755
REMARK INTER:                  -7.558
REMARK INTRA:                  -1.197
REMARK UNBOUND:                -2.177
REMARK SMILES CCCCCCCCCCCCCC[C@@H](C)C(=O)[O-]
REMARK SMILES IDX 9 1 10 2 11 3 12 4 13 5 14 6 15 7 16 8 17 9 18 10 19 11 8 12
REMARK SMILES IDX 7 13 6 14 5 15 4 16 3 17 2 18 1 19
REMARK H PARENT
REMARK Flexibility Score: inf
ROOT
ATOM      1  C   UNL     1       0.130  12.030   4.633  1.00  0.00     0.000 C 
ENDROOT
BRANCH   1   2
ATOM      2  C   UNL     1       1.282  12.441   5.566  1.00  0.00     0.000 C 
BRANCH   2   3
ATOM      3  C   UNL     1       2.232  13.461   4.917  1.00  0.00     0.000 C 
BRANCH   3   4
ATOM      4  C   UNL     1       3.611  13.496   5.592  1.00  0.00     0.000 C 
BRANCH   4   5
ATOM      5  C   UNL     1       3.743  12.369   6.628  1.00  0.00     0.001 C 
BRANCH   5   6
ATOM      6  C   UNL     1       5.192  12.153   7.103  1.00  0.00     0.009 C 
BRANCH   6   7
ATOM      7  C   UNL     1       5.628  10.674   7.224  1.00  0.00     0.032 C 
ATOM      8  C   UNL     1       4.540   9.792   7.850  1.00  0.00     0.014 C 
BRANCH   7   9
ATOM      9  C   UNL     1       5.985  10.145   5.861  1.00  0.00     0.044 C 
ATOM     10  O   UNL     1       6.975  10.612   5.240  1.00  0.00    -0.550 OA
ATOM     11  O   UNL     1       5.216   9.148   5.272  1.00  0.00    -0.550 OA
ENDBRANCH   7   9
ENDBRANCH   6   7
ENDBRANCH   5   6
ENDBRANCH   4   5
ENDBRANCH   3   4
ENDBRANCH   2   3
ENDBRANCH   1   2
BRANCH   1  12
ATOM     12  C   UNL     1      -0.545  13.235   3.956  1.00  0.00     0.000 C 
BRANCH  12  13
ATOM     13  C   UNL     1      -1.541  13.949   4.886  1.00  0.00    -0.000 C 
BRANCH  13  14
ATOM     14  C   UNL     1      -2.968  13.389   4.762  1.00  0.00    -0.000 C 
BRANCH  14  15
ATOM     15  C   UNL     1      -3.343  12.458   5.925  1.00  0.00    -0.000 C 
BRANCH  15  16
ATOM     16  C   UNL     1      -4.426  11.457   5.498  1.00  0.00    -0.000 C 
BRANCH  16  17
ATOM     17  C   UNL     1      -3.853  10.082   5.114  1.00  0.00    -0.000 C 
BRANCH  17  18
ATOM     18  C   UNL     1      -2.468   9.794   5.729  1.00  0.00    -0.003 C 
ATOM     19  C   UNL     1      -2.457   8.518   6.572  1.00  0.00     0.004 C 
ENDBRANCH  17  18
ENDBRANCH  16  17
ENDBRANCH  15  16
ENDBRANCH  14  15
ENDBRANCH  13  14
ENDBRANCH  12  13
ENDBRANCH   1  12
TORSDOF 14
ENDMDL
MODEL 6
REMARK VINA RESULT:    -3.560      2.899      5.551
REMARK INTER + INTRA:          -8.651
REMARK INTER:                  -6.702
REMARK INTRA:                  -1.949
REMARK UNBOUND:                -2.177
REMARK SMILES CCCCCCCCCCCCCC[C@@H](C)C(=O)[O-]
REMARK SMILES IDX 9 1 10 2 11 3 12 4 13 5 14 6 15 7 16 8 17 9 18 10 19 11 8 12
REMARK SMILES IDX 7 13 6 14 5 15 4 16 3 17 2 18 1 19
REMARK H PARENT
REMARK Flexibility Score: inf
ROOT
ATOM      1  C   UNL     1      -1.331   7.875  -8.381  1.00  0.00     0.000 C 
ENDROOT
BRANCH   1   2
ATOM      2  C   UNL     1       0.077   8.459  -8.175  1.00  0.00     0.000 C 
BRANCH   2   3
ATOM      3  C   UNL     1       1.138   7.372  -7.937  1.00  0.00     0.000 C 
BRANCH   3   4
ATOM      4  C   UNL     1       2.362   7.532  -8.851  1.00  0.00     0.000 C 
BRANCH   4   5
ATOM      5  C   UNL     1       1.933   7.765 -10.307  1.00  0.00     0.001 C 
BRANCH   5   6
ATOM      6  C   UNL     1       2.922   8.645 -11.095  1.00  0.00     0.009 C 
BRANCH   6   7
ATOM      7  C   UNL     1       2.475  10.112 -11.295  1.00  0.00     0.032 C 
ATOM      8  C   UNL     1       0.950  10.273 -11.247  1.00  0.00     0.014 C 
BRANCH   7   9
ATOM      9  C   UNL     1       3.107  10.977 -10.238  1.00  0.00     0.044 C 
ATOM     10  O   UNL     1       2.600  11.043  -9.088  1.00  0.00    -0.550 OA
ATOM     11  O   UNL     1       4.246  11.720 -10.527  1.00  0.00    -0.550 OA
ENDBRANCH   7   9
ENDBRANCH   6   7
ENDBRANCH   5   6
ENDBRANCH   4   5
ENDBRANCH   3   4
ENDBRANCH   2   3
ENDBRANCH   1   2
BRANCH   1  12
ATOM     12  C   UNL     1      -1.385   6.847  -9.523  1.00  0.00     0.000 C 
BRANCH  12  13
ATOM     13  C   UNL     1      -1.714   7.492 -10.881  1.00  0.00    -0.000 C 
BRANCH  13  14
ATOM     14  C   UNL     1      -3.015   6.947 -11.493  1.00  0.00    -0.000 C 
BRANCH  14  15
ATOM     15  C   UNL     1      -4.032   8.054 -11.808  1.00  0.00    -0.000 C 
BRANCH  15  16
ATOM     16  C   UNL     1      -4.126   9.057 -10.649  1.00  0.00    -0.000 C 
BRANCH  16  17
ATOM     17  C   UNL     1      -4.104  10.521 -11.121  1.00  0.00    -0.000 C 
BRANCH  17  18
ATOM     18  C   UNL     1      -2.690  11.046 -11.446  1.00  0.00    -0.003 C 
ATOM     19  C   UNL     1      -2.662  12.562 -11.641  1.00  0.00     0.004 C 
ENDBRANCH  17  18
ENDBRANCH  16  17
ENDBRANCH  15  16
ENDBRANCH  14  15
ENDBRANCH  13  14
ENDBRANCH  12  13
ENDBRANCH   1  12
TORSDOF 14
ENDMDL
MODEL 7
REMARK VINA RESULT:    -3.554      2.850      5.759
REMARK INTER + INTRA:          -8.640
REMARK INTER:                  -6.451
REMARK INTRA:                  -2.189
REMARK UNBOUND:                -2.177
REMARK SMILES CCCCCCCCCCCCCC[C@@H](C)C(=O)[O-]
REMARK SMILES IDX 9 1 10 2 11 3 12 4 13 5 14 6 15 7 16 8 17 9 18 10 19 11 8 12
REMARK SMILES IDX 7 13 6 14 5 15 4 16 3 17 2 18 1 19
REMARK H PARENT
REMARK Flexibility Score: inf
ROOT
ATOM      1  C   UNL     1      -3.517  10.151 -10.250  1.00  0.00     0.000 C 
ENDROOT
BRANCH   1   2
ATOM      2  C   UNL     1      -3.854  11.544 -10.810  1.00  0.00     0.000 C 
BRANCH   2   3
ATOM      3  C   UNL     1      -2.763  12.082 -11.750  1.00  0.00     0.000 C 
BRANCH   3   4
ATOM      4  C   UNL     1      -1.727  11.012 -12.125  1.00  0.00     0.000 C 
BRANCH   4   5
ATOM      5  C   UNL     1      -0.307  11.473 -11.762  1.00  0.00     0.001 C 
BRANCH   5   6
ATOM      6  C   UNL     1       0.344  10.614 -10.662  1.00  0.00     0.009 C 
BRANCH   6   7
ATOM      7  C   UNL     1       1.883  10.727 -10.569  1.00  0.00     0.032 C 
ATOM      8  C   UNL     1       2.363  11.040  -9.146  1.00  0.00     0.014 C 
BRANCH   7   9
ATOM      9  C   UNL     1       2.509   9.443 -11.041  1.00  0.00     0.044 C 
ATOM     10  O   UNL     1       3.666   9.125 -10.660  1.00  0.00    -0.550 OA
ATOM     11  O   UNL     1       1.822   8.605 -11.913  1.00  0.00    -0.550 OA
ENDBRANCH   7   9
ENDBRANCH   6   7
ENDBRANCH   5   6
ENDBRANCH   4   5
ENDBRANCH   3   4
ENDBRANCH   2   3
ENDBRANCH   1   2
BRANCH   1  12
ATOM     12  C   UNL     1      -4.415   9.045 -10.830  1.00  0.00     0.000 C 
BRANCH  12  13
ATOM     13  C   UNL     1      -3.638   8.068 -11.729  1.00  0.00    -0.000 C 
BRANCH  13  14
ATOM     14  C   UNL     1      -2.865   7.011 -10.922  1.00  0.00    -0.000 C 
BRANCH  14  15
ATOM     15  C   UNL     1      -1.343   7.137 -11.085  1.00  0.00    -0.000 C 
BRANCH  15  16
ATOM     16  C   UNL     1      -0.623   6.808  -9.769  1.00  0.00    -0.000 C 
BRANCH  16  17
ATOM     17  C   UNL     1      -0.792   7.904  -8.703  1.00  0.00    -0.000 C 
BRANCH  17  18
ATOM     18  C   UNL     1       0.445   8.090  -7.801  1.00  0.00    -0.003 C 
ATOM     19  C   UNL     1       1.668   7.338  -8.327  1.00  0.00     0.004 C 
ENDBRANCH  17  18
ENDBRANCH  16  17
ENDBRANCH  15  16
ENDBRANCH  14  15
ENDBRANCH  13  14
ENDBRANCH  12  13
ENDBRANCH   1  12
TORSDOF 14
ENDMDL
MODEL 8
REMARK VINA RESULT:    -3.416     15.131     16.748
REMARK INTER + INTRA:          -8.389
REMARK INTER:                  -6.958
REMARK INTRA:                  -1.430
REMARK UNBOUND:                -2.177
REMARK SMILES CCCCCCCCCCCCCC[C@@H](C)C(=O)[O-]
REMARK SMILES IDX 9 1 10 2 11 3 12 4 13 5 14 6 15 7 16 8 17 9 18 10 19 11 8 12
REMARK SMILES IDX 7 13 6 14 5 15 4 16 3 17 2 18 1 19
REMARK H PARENT
REMARK Flexibility Score: inf
ROOT
ATOM      1  C   UNL     1      -0.231  13.017   4.045  1.00  0.00     0.000 C 
ENDROOT
BRANCH   1   2
ATOM      2  C   UNL     1      -1.468  13.720   4.630  1.00  0.00     0.000 C 
BRANCH   2   3
ATOM      3  C   UNL     1      -1.706  13.365   6.107  1.00  0.00     0.000 C 
BRANCH   3   4
ATOM      4  C   UNL     1      -3.148  12.912   6.380  1.00  0.00     0.000 C 
BRANCH   4   5
ATOM      5  C   UNL     1      -3.817  12.408   5.093  1.00  0.00     0.001 C 
BRANCH   5   6
ATOM      6  C   UNL     1      -4.055  10.886   5.093  1.00  0.00     0.009 C 
BRANCH   6   7
ATOM      7  C   UNL     1      -3.381  10.118   6.255  1.00  0.00     0.032 C 
ATOM      8  C   UNL     1      -4.340   9.140   6.946  1.00  0.00     0.014 C 
BRANCH   7   9
ATOM      9  C   UNL     1      -2.186   9.369   5.732  1.00  0.00     0.044 C 
ATOM     10  O   UNL     1      -1.540   9.815   4.748  1.00  0.00    -0.550 OA
ATOM     11  O   UNL     1      -1.795   8.172   6.321  1.00  0.00    -0.550 OA
ENDBRANCH   7   9
ENDBRANCH   6   7
ENDBRANCH   5   6
ENDBRANCH   4   5
ENDBRANCH   3   4
ENDBRANCH   2   3
ENDBRANCH   1   2
BRANCH   1  12
ATOM     12  C   UNL     1       0.845  12.729   5.106  1.00  0.00     0.000 C 
BRANCH  12  13
ATOM     13  C   UNL     1       2.195  13.385   4.766  1.00  0.00    -0.000 C 
BRANCH  13  14
ATOM     14  C   UNL     1       3.242  13.186   5.875  1.00  0.00    -0.000 C 
BRANCH  14  15
ATOM     15  C   UNL     1       2.649  12.562   7.148  1.00  0.00    -0.000 C 
BRANCH  15  16
ATOM     16  C   UNL     1       3.401  11.280   7.532  1.00  0.00    -0.000 C 
BRANCH  16  17
ATOM     17  C   UNL     1       4.914  11.374   7.276  1.00  0.00    -0.000 C 
BRANCH  17  18
ATOM     18  C   UNL     1       5.515  10.107   6.634  1.00  0.00    -0.003 C 
ATOM     19  C   UNL     1       6.603  10.432   5.609  1.00  0.00     0.004 C 
ENDBRANCH  17  18
ENDBRANCH  16  17
ENDBRANCH  15  16
ENDBRANCH  14  15
ENDBRANCH  13  14
ENDBRANCH  12  13
ENDBRANCH   1  12
TORSDOF 14
ENDMDL
MODEL 9
REMARK VINA RESULT:    -3.402      2.433      5.503
REMARK INTER + INTRA:          -8.364
REMARK INTER:                  -6.256
REMARK INTRA:                  -2.108
REMARK UNBOUND:                -2.177
REMARK SMILES CCCCCCCCCCCCCC[C@@H](C)C(=O)[O-]
REMARK SMILES IDX 9 1 10 2 11 3 12 4 13 5 14 6 15 7 16 8 17 9 18 10 19 11 8 12
REMARK SMILES IDX 7 13 6 14 5 15 4 16 3 17 2 18 1 19
REMARK H PARENT
REMARK Flexibility Score: inf
ROOT
ATOM      1  C   UNL     1       1.904   7.804  -9.537  1.00  0.00     0.000 C 
ENDROOT
BRANCH   1   2
ATOM      2  C   UNL     1       1.450   7.775 -11.006  1.00  0.00     0.000 C 
BRANCH   2   3
ATOM      3  C   UNL     1       2.629   7.666 -11.986  1.00  0.00     0.000 C 
BRANCH   3   4
ATOM      4  C   UNL     1       3.700   8.740 -11.742  1.00  0.00     0.000 C 
BRANCH   4   5
ATOM      5  C   UNL     1       3.162  10.138 -12.081  1.00  0.00     0.001 C 
BRANCH   5   6
ATOM      6  C   UNL     1       3.437  11.174 -10.975  1.00  0.00     0.009 C 
BRANCH   6   7
ATOM      7  C   UNL     1       2.194  11.612 -10.165  1.00  0.00     0.032 C 
ATOM      8  C   UNL     1       2.402  11.470  -8.651  1.00  0.00     0.014 C 
BRANCH   7   9
ATOM      9  C   UNL     1       1.858  13.040 -10.496  1.00  0.00     0.044 C 
ATOM     10  O   UNL     1       2.777  13.871 -10.719  1.00  0.00    -0.550 OA
ATOM     11  O   UNL     1       0.532  13.457 -10.543  1.00  0.00    -0.550 OA
ENDBRANCH   7   9
ENDBRANCH   6   7
ENDBRANCH   5   6
ENDBRANCH   4   5
ENDBRANCH   3   4
ENDBRANCH   2   3
ENDBRANCH   1   2
BRANCH   1  12
ATOM     12  C   UNL     1       0.723   7.829  -8.551  1.00  0.00     0.000 C 
BRANCH  12  13
ATOM     13  C   UNL     1      -0.353   6.784  -8.896  1.00  0.00    -0.000 C 
BRANCH  13  14
ATOM     14  C   UNL     1      -1.734   7.416  -9.135  1.00  0.00    -0.000 C 
BRANCH  14  15
ATOM     15  C   UNL     1      -2.365   6.980 -10.466  1.00  0.00    -0.000 C 
BRANCH  15  16
ATOM     16  C   UNL     1      -3.458   7.966 -10.903  1.00  0.00    -0.000 C 
BRANCH  16  17
ATOM     17  C   UNL     1      -3.210   9.397 -10.398  1.00  0.00    -0.000 C 
BRANCH  17  18
ATOM     18  C   UNL     1      -2.602  10.334 -11.463  1.00  0.00    -0.003 C 
ATOM     19  C   UNL     1      -1.078  10.414 -11.368  1.00  0.00     0.004 C 
ENDBRANCH  17  18
ENDBRANCH  16  17
ENDBRANCH  15  16
ENDBRANCH  14  15
ENDBRANCH  13  14
ENDBRANCH  12  13
ENDBRANCH   1  12
TORSDOF 14
ENDMDL
