MODEL 1
REMARK VINA RESULT:    -5.081      0.000      0.000
REMARK INTER + INTRA:          -5.668
REMARK INTER:                  -5.378
REMARK INTRA:                  -0.290
REMARK UNBOUND:                -0.290
REMARK SMILES CC1=CC[C@H]2[C@H]3[C@@H]1[C@]2(C)CC[C@H]3C(C)C
REMARK SMILES IDX 1 1 2 2 3 3 4 4 5 5 6 6 7 7 8 8 10 9 11 10 12 11 9 12 13 13
REMARK SMILES IDX 14 14 15 15
REMARK H PARENT
REMARK Flexibility Score: inf
ROOT
ATOM      1  C   UNL     1      28.831  11.253  32.169  1.00  0.00     0.039 C 
ATOM      2  C   UNL     1      30.089  10.585  32.637  1.00  0.00    -0.073 C 
ATOM      3  C   UNL     1      31.312  11.125  32.396  1.00  0.00    -0.027 C 
ATOM      4  C   UNL     1      32.560  10.378  32.882  1.00  0.00     0.031 C 
ATOM      5  C   UNL     1      32.154   9.071  33.638  1.00  0.00     0.003 C 
ATOM      6  C   UNL     1      31.011   9.438  34.617  1.00  0.00     0.004 C 
ATOM      7  C   UNL     1      30.054   9.267  33.416  1.00  0.00     0.024 C 
ATOM      8  C   UNL     1      31.090   8.276  32.844  1.00  0.00    -0.022 C 
ATOM      9  C   UNL     1      30.877   6.873  33.482  1.00  0.00     0.008 C 
ATOM     10  C   UNL     1      30.875   6.894  35.039  1.00  0.00     0.005 C 
ATOM     11  C   UNL     1      30.728   8.322  35.658  1.00  0.00    -0.005 C 
ATOM     12  C   UNL     1      31.247   8.160  31.309  1.00  0.00     0.012 C 
ENDROOT
BRANCH  11  13
ATOM     13  C   UNL     1      31.505   8.535  36.992  1.00  0.00    -0.014 C 
ATOM     14  C   UNL     1      30.732   8.110  38.248  1.00  0.00     0.007 C 
ATOM     15  C   UNL     1      31.989   9.985  37.127  1.00  0.00     0.007 C 
ENDBRANCH  11  13
TORSDOF 1
ENDMDL
MODEL 2
REMARK VINA RESULT:    -4.796      1.526      4.089
REMARK INTER + INTRA:          -5.367
REMARK INTER:                  -4.954
REMARK INTRA:                  -0.412
REMARK UNBOUND:                -0.290
REMARK SMILES CC1=CC[C@H]2[C@H]3[C@@H]1[C@]2(C)CC[C@H]3C(C)C
REMARK SMILES IDX 1 1 2 2 3 3 4 4 5 5 6 6 7 7 8 8 10 9 11 10 12 11 9 12 13 13
REMARK SMILES IDX 14 14 15 15
REMARK H PARENT
REMARK Flexibility Score: inf
ROOT
ATOM      1  C   UNL     1      27.101   6.998  34.754  1.00  0.00     0.039 C 
ATOM      2  C   UNL     1      28.569   7.106  34.470  1.00  0.00    -0.073 C 
ATOM      3  C   UNL     1      29.188   6.264  33.602  1.00  0.00    -0.027 C 
ATOM      4  C   UNL     1      30.697   6.414  33.374  1.00  0.00     0.031 C 
ATOM      5  C   UNL     1      31.261   7.607  34.214  1.00  0.00     0.003 C 
ATOM      6  C   UNL     1      30.300   8.805  34.018  1.00  0.00     0.004 C 
ATOM      7  C   UNL     1      29.438   8.176  35.136  1.00  0.00     0.024 C 
ATOM      8  C   UNL     1      30.745   7.553  35.672  1.00  0.00    -0.022 C 
ATOM      9  C   UNL     1      31.498   8.593  36.550  1.00  0.00     0.008 C 
ATOM     10  C   UNL     1      31.743   9.951  35.828  1.00  0.00     0.005 C 
ATOM     11  C   UNL     1      30.897  10.145  34.527  1.00  0.00    -0.005 C 
ATOM     12  C   UNL     1      30.682   6.181  36.384  1.00  0.00     0.012 C 
ENDROOT
BRANCH  11  13
ATOM     13  C   UNL     1      31.613  10.949  33.401  1.00  0.00    -0.014 C 
ATOM     14  C   UNL     1      31.028  10.732  31.998  1.00  0.00     0.007 C 
ATOM     15  C   UNL     1      33.124  10.674  33.398  1.00  0.00     0.007 C 
ENDBRANCH  11  13
TORSDOF 1
ENDMDL
MODEL 3
REMARK VINA RESULT:    -4.737      1.316      4.520
REMARK INTER + INTRA:          -5.304
REMARK INTER:                  -5.071
REMARK INTRA:                  -0.233
REMARK UNBOUND:                -0.290
REMARK SMILES CC1=CC[C@H]2[C@H]3[C@@H]1[C@]2(C)CC[C@H]3C(C)C
REMARK SMILES IDX 1 1 2 2 3 3 4 4 5 5 6 6 7 7 8 8 10 9 11 10 12 11 9 12 13 13
REMARK SMILES IDX 14 14 15 15
REMARK H PARENT
REMARK Flexibility Score: inf
ROOT
ATOM      1  C   UNL     1      32.001  10.000  37.207  1.00  0.00     0.039 C 
ATOM      2  C   UNL     1      31.062   9.405  36.201  1.00  0.00    -0.073 C 
ATOM      3  C   UNL     1      29.738   9.256  36.466  1.00  0.00    -0.027 C 
ATOM      4  C   UNL     1      28.837   8.620  35.401  1.00  0.00     0.031 C 
ATOM      5  C   UNL     1      29.665   8.273  34.121  1.00  0.00     0.003 C 
ATOM      6  C   UNL     1      30.544   9.505  33.791  1.00  0.00     0.004 C 
ATOM      7  C   UNL     1      31.549   8.947  34.824  1.00  0.00     0.024 C 
ATOM      8  C   UNL     1      30.983   7.550  34.489  1.00  0.00    -0.022 C 
ATOM      9  C   UNL     1      31.673   7.000  33.208  1.00  0.00     0.008 C 
ATOM     10  C   UNL     1      31.597   7.975  31.996  1.00  0.00     0.005 C 
ATOM     11  C   UNL     1      31.175   9.433  32.374  1.00  0.00    -0.005 C 
ATOM     12  C   UNL     1      30.949   6.471  35.598  1.00  0.00     0.012 C 
ENDROOT
BRANCH  11  13
ATOM     13  C   UNL     1      30.316  10.160  31.297  1.00  0.00    -0.014 C 
ATOM     14  C   UNL     1      30.125   9.365  29.998  1.00  0.00     0.007 C 
ATOM     15  C   UNL     1      30.875  11.557  30.992  1.00  0.00     0.007 C 
ENDBRANCH  11  13
TORSDOF 1
ENDMDL
MODEL 4
REMARK VINA RESULT:    -4.721      1.873      5.262
REMARK INTER + INTRA:          -5.287
REMARK INTER:                  -5.136
REMARK INTRA:                  -0.151
REMARK UNBOUND:                -0.290
REMARK SMILES CC1=CC[C@H]2[C@H]3[C@@H]1[C@]2(C)CC[C@H]3C(C)C
REMARK SMILES IDX 1 1 2 2 3 3 4 4 5 5 6 6 7 7 8 8 10 9 11 10 12 11 9 12 13 13
REMARK SMILES IDX 14 14 15 15
REMARK H PARENT
REMARK Flexibility Score: inf
ROOT
ATOM      1  C   UNL     1      29.383   9.529  35.451  1.00  0.00     0.039 C 
ATOM      2  C   UNL     1      30.198   9.356  34.205  1.00  0.00    -0.073 C 
ATOM      3  C   UNL     1      30.894   8.214  33.965  1.00  0.00    -0.027 C 
ATOM      4  C   UNL     1      31.726   8.110  32.681  1.00  0.00     0.031 C 
ATOM      5  C   UNL     1      31.575   9.410  31.826  1.00  0.00     0.003 C 
ATOM      6  C   UNL     1      30.067   9.758  31.774  1.00  0.00     0.004 C 
ATOM      7  C   UNL     1      30.276  10.452  33.139  1.00  0.00     0.024 C 
ATOM      8  C   UNL     1      31.740  10.675  32.702  1.00  0.00    -0.022 C 
ATOM      9  C   UNL     1      31.830  11.944  31.807  1.00  0.00     0.008 C 
ATOM     10  C   UNL     1      30.849  11.920  30.598  1.00  0.00     0.005 C 
ATOM     11  C   UNL     1      29.733  10.830  30.703  1.00  0.00    -0.005 C 
ATOM     12  C   UNL     1      32.850  10.688  33.781  1.00  0.00     0.012 C 
ENDROOT
BRANCH  11  13
ATOM     13  C   UNL     1      29.306  10.204  29.341  1.00  0.00    -0.014 C 
ATOM     14  C   UNL     1      29.875   8.803  29.082  1.00  0.00     0.007 C 
ATOM     15  C   UNL     1      29.640  11.141  28.171  1.00  0.00     0.007 C 
ENDBRANCH  11  13
TORSDOF 1
ENDMDL
MODEL 5
REMARK VINA RESULT:    -4.718      1.578      4.707
REMARK INTER + INTRA:          -5.284
REMARK INTER:                  -4.999
REMARK INTRA:                  -0.285
REMARK UNBOUND:                -0.290
REMARK SMILES CC1=CC[C@H]2[C@H]3[C@@H]1[C@]2(C)CC[C@H]3C(C)C
REMARK SMILES IDX 1 1 2 2 3 3 4 4 5 5 6 6 7 7 8 8 10 9 11 10 12 11 9 12 13 13
REMARK SMILES IDX 14 14 15 15
REMARK H PARENT
REMARK Flexibility Score: inf
ROOT
ATOM      1  C   UNL     1      26.988   7.519  35.998  1.00  0.00     0.039 C 
ATOM      2  C   UNL     1      28.468   7.286  35.950  1.00  0.00    -0.073 C 
ATOM      3  C   UNL     1      28.985   6.050  35.727  1.00  0.00    -0.027 C 
ATOM      4  C   UNL     1      30.508   5.876  35.713  1.00  0.00     0.031 C 
ATOM      5  C   UNL     1      31.217   7.252  35.938  1.00  0.00     0.003 C 
ATOM      6  C   UNL     1      30.522   8.287  35.019  1.00  0.00     0.004 C 
ATOM      7  C   UNL     1      29.466   8.431  36.138  1.00  0.00     0.024 C 
ATOM      8  C   UNL     1      30.581   8.018  37.123  1.00  0.00    -0.022 C 
ATOM      9  C   UNL     1      31.443   9.260  37.487  1.00  0.00     0.008 C 
ATOM     10  C   UNL     1      32.002  10.013  36.244  1.00  0.00     0.005 C 
ATOM     11  C   UNL     1      31.320   9.612  34.895  1.00  0.00    -0.005 C 
ATOM     12  C   UNL     1      30.199   7.226  38.396  1.00  0.00     0.012 C 
ENDROOT
BRANCH  11  13
ATOM     13  C   UNL     1      32.267   9.629  33.658  1.00  0.00    -0.014 C 
ATOM     14  C   UNL     1      32.771  11.025  33.267  1.00  0.00     0.007 C 
ATOM     15  C   UNL     1      31.616   8.938  32.451  1.00  0.00     0.007 C 
ENDBRANCH  11  13
TORSDOF 1
ENDMDL
MODEL 6
REMARK VINA RESULT:    -4.645     10.415     12.705
REMARK INTER + INTRA:          -5.206
REMARK INTER:                  -4.778
REMARK INTRA:                  -0.428
REMARK UNBOUND:                -0.290
REMARK SMILES CC1=CC[C@H]2[C@H]3[C@@H]1[C@]2(C)CC[C@H]3C(C)C
REMARK SMILES IDX 1 1 2 2 3 3 4 4 5 5 6 6 7 7 8 8 10 9 11 10 12 11 9 12 13 13
REMARK SMILES IDX 14 14 15 15
REMARK H PARENT
REMARK Flexibility Score: inf
ROOT
ATOM      1  C   UNL     1      20.369  10.327  25.910  1.00  0.00     0.039 C 
ATOM      2  C   UNL     1      20.120  10.873  27.284  1.00  0.00    -0.073 C 
ATOM      3  C   UNL     1      19.816  12.182  27.483  1.00  0.00    -0.027 C 
ATOM      4  C   UNL     1      19.595  12.682  28.915  1.00  0.00     0.031 C 
ATOM      5  C   UNL     1      19.740  11.503  29.933  1.00  0.00     0.003 C 
ATOM      6  C   UNL     1      18.934  10.306  29.372  1.00  0.00     0.004 C 
ATOM      7  C   UNL     1      20.186   9.981  28.526  1.00  0.00     0.024 C 
ATOM      8  C   UNL     1      21.007  10.666  29.639  1.00  0.00    -0.022 C 
ATOM      9  C   UNL     1      21.267   9.656  30.793  1.00  0.00     0.008 C 
ATOM     10  C   UNL     1      19.969   8.993  31.340  1.00  0.00     0.005 C 
ATOM     11  C   UNL     1      18.719   9.181  30.419  1.00  0.00    -0.005 C 
ATOM     12  C   UNL     1      22.311  11.407  29.258  1.00  0.00     0.012 C 
ENDROOT
BRANCH  11  13
ATOM     13  C   UNL     1      17.367   9.319  31.180  1.00  0.00    -0.014 C 
ATOM     14  C   UNL     1      16.297  10.124  30.429  1.00  0.00     0.007 C 
ATOM     15  C   UNL     1      17.579   9.895  32.588  1.00  0.00     0.007 C 
ENDBRANCH  11  13
TORSDOF 1
ENDMDL
MODEL 7
REMARK VINA RESULT:    -4.613      6.875      9.266
REMARK INTER + INTRA:          -5.173
REMARK INTER:                  -4.745
REMARK INTRA:                  -0.428
REMARK UNBOUND:                -0.290
REMARK SMILES CC1=CC[C@H]2[C@H]3[C@@H]1[C@]2(C)CC[C@H]3C(C)C
REMARK SMILES IDX 1 1 2 2 3 3 4 4 5 5 6 6 7 7 8 8 10 9 11 10 12 11 9 12 13 13
REMARK SMILES IDX 14 14 15 15
REMARK H PARENT
REMARK Flexibility Score: inf
ROOT
ATOM      1  C   UNL     1      31.832  11.541  23.582  1.00  0.00     0.039 C 
ATOM      2  C   UNL     1      30.606  10.859  24.109  1.00  0.00    -0.073 C 
ATOM      3  C   UNL     1      29.461  10.794  23.380  1.00  0.00    -0.027 C 
ATOM      4  C   UNL     1      28.235  10.102  23.988  1.00  0.00     0.031 C 
ATOM      5  C   UNL     1      28.574   9.538  25.407  1.00  0.00     0.003 C 
ATOM      6  C   UNL     1      29.934   8.806  25.301  1.00  0.00     0.004 C 
ATOM      7  C   UNL     1      30.589  10.193  25.487  1.00  0.00     0.024 C 
ATOM      8  C   UNL     1      29.315  10.592  26.263  1.00  0.00    -0.022 C 
ATOM      9  C   UNL     1      29.427  10.109  27.737  1.00  0.00     0.008 C 
ATOM     10  C   UNL     1      29.748   8.591  27.868  1.00  0.00     0.005 C 
ATOM     11  C   UNL     1      30.242   7.925  26.542  1.00  0.00    -0.005 C 
ATOM     12  C   UNL     1      28.834  12.062  26.205  1.00  0.00     0.012 C 
ENDROOT
BRANCH  11  13
ATOM     13  C   UNL     1      29.796   6.445  26.353  1.00  0.00    -0.014 C 
ATOM     14  C   UNL     1      29.711   5.991  24.889  1.00  0.00     0.007 C 
ATOM     15  C   UNL     1      28.469   6.168  27.076  1.00  0.00     0.007 C 
ENDBRANCH  11  13
TORSDOF 1
ENDMDL
MODEL 8
REMARK VINA RESULT:    -4.604      6.773      9.363
REMARK INTER + INTRA:          -5.163
REMARK INTER:                  -4.936
REMARK INTRA:                  -0.227
REMARK UNBOUND:                -0.290
REMARK SMILES CC1=CC[C@H]2[C@H]3[C@@H]1[C@]2(C)CC[C@H]3C(C)C
REMARK SMILES IDX 1 1 2 2 3 3 4 4 5 5 6 6 7 7 8 8 10 9 11 10 12 11 9 12 13 13
REMARK SMILES IDX 14 14 15 15
REMARK H PARENT
REMARK Flexibility Score: inf
ROOT
ATOM      1  C   UNL     1      31.995  11.717  23.363  1.00  0.00     0.039 C 
ATOM      2  C   UNL     1      31.254  10.430  23.563  1.00  0.00    -0.073 C 
ATOM      3  C   UNL     1      31.221   9.473  22.599  1.00  0.00    -0.027 C 
ATOM      4  C   UNL     1      30.425   8.188  22.858  1.00  0.00     0.031 C 
ATOM      5  C   UNL     1      29.793   8.216  24.288  1.00  0.00     0.003 C 
ATOM      6  C   UNL     1      30.893   8.687  25.271  1.00  0.00     0.004 C 
ATOM      7  C   UNL     1      30.509  10.127  24.865  1.00  0.00     0.024 C 
ATOM      8  C   UNL     1      29.100   9.572  24.563  1.00  0.00    -0.022 C 
ATOM      9  C   UNL     1      28.275   9.499  25.880  1.00  0.00     0.008 C 
ATOM     10  C   UNL     1      28.990   8.711  27.016  1.00  0.00     0.005 C 
ATOM     11  C   UNL     1      30.511   8.456  26.758  1.00  0.00    -0.005 C 
ATOM     12  C   UNL     1      28.267  10.220  23.432  1.00  0.00     0.012 C 
ENDROOT
BRANCH  11  13
ATOM     13  C   UNL     1      31.046   7.102  27.312  1.00  0.00    -0.014 C 
ATOM     14  C   UNL     1      30.230   5.875  26.881  1.00  0.00     0.007 C 
ATOM     15  C   UNL     1      31.182   7.143  28.841  1.00  0.00     0.007 C 
ENDBRANCH  11  13
TORSDOF 1
ENDMDL
MODEL 9
REMARK VINA RESULT:    -4.587      1.454      4.827
REMARK INTER + INTRA:          -5.145
REMARK INTER:                  -4.893
REMARK INTRA:                  -0.252
REMARK UNBOUND:                -0.290
REMARK SMILES CC1=CC[C@H]2[C@H]3[C@@H]1[C@]2(C)CC[C@H]3C(C)C
REMARK SMILES IDX 1 1 2 2 3 3 4 4 5 5 6 6 7 7 8 8 10 9 11 10 12 11 9 12 13 13
REMARK SMILES IDX 14 14 15 15
REMARK H PARENT
REMARK Flexibility Score: inf
ROOT
ATOM      1  C   UNL     1      27.831   8.016  35.981  1.00  0.00     0.039 C 
ATOM      2  C   UNL     1      29.176   7.810  35.352  1.00  0.00    -0.073 C 
ATOM      3  C   UNL     1      29.950   6.739  35.665  1.00  0.00    -0.027 C 
ATOM      4  C   UNL     1      31.326   6.600  35.001  1.00  0.00     0.031 C 
ATOM      5  C   UNL     1      31.572   7.778  34.003  1.00  0.00     0.003 C 
ATOM      6  C   UNL     1      30.288   7.940  33.153  1.00  0.00     0.004 C 
ATOM      7  C   UNL     1      29.736   8.791  34.319  1.00  0.00     0.024 C 
ATOM      8  C   UNL     1      31.205   9.138  34.645  1.00  0.00    -0.022 C 
ATOM      9  C   UNL     1      31.679  10.309  33.737  1.00  0.00     0.008 C 
ATOM     10  C   UNL     1      31.457  10.045  32.219  1.00  0.00     0.005 C 
ATOM     11  C   UNL     1      30.498   8.849  31.912  1.00  0.00    -0.005 C 
ATOM     12  C   UNL     1      31.604   9.392  36.118  1.00  0.00     0.012 C 
ENDROOT
BRANCH  11  13
ATOM     13  C   UNL     1      30.858   8.040  30.630  1.00  0.00    -0.014 C 
ATOM     14  C   UNL     1      30.107   8.486  29.368  1.00  0.00     0.007 C 
ATOM     15  C   UNL     1      30.676   6.532  30.855  1.00  0.00     0.007 C 
ENDBRANCH  11  13
TORSDOF 1
ENDMDL
