MODEL 1
REMARK VINA RESULT:    48.521      0.000      0.000
REMARK INTER + INTRA:          52.339
REMARK INTER:                  52.776
REMARK INTRA:                  -0.437
REMARK UNBOUND:                -0.437
REMARK SMILES C=C(C)[C@H]1CC[C@]2(C)CC[C@@]3(C)[C@H](CC[C@H]4[C@]5(C)CC[C@@H](O)C(C)(C)[C@H]5CC[C@]43C)[C@H]12
REMARK SMILES IDX 4 1 5 2 6 3 7 4 31 5 13 6 14 7 15 8 16 9 17 10 19 11 20 12
REMARK SMILES IDX 21 13 23 14 26 15 27 16 28 17 29 18 11 19 10 20 9 21 12 22
REMARK SMILES IDX 30 23 24 24 25 25 18 26 8 27 2 28 3 29 1 30 22 31
REMARK H PARENT 22 32
REMARK Flexibility Score: inf
ROOT
ATOM      1  C   UNL     1      13.869  -4.949  14.039  1.00  0.00     0.018 C 
ATOM      2  C   UNL     1      13.848  -3.993  12.848  1.00  0.00     0.009 C 
ATOM      3  C   UNL     1      14.922  -4.515  11.903  1.00  0.00     0.008 C 
ATOM      4  C   UNL     1      16.052  -5.064  12.806  1.00  0.00    -0.029 C 
ATOM      5  C   UNL     1      15.314  -5.518  14.100  1.00  0.00     0.006 C 
ATOM      6  C   UNL     1      15.383  -7.068  14.369  1.00  0.00    -0.000 C 
ATOM      7  C   UNL     1      14.475  -7.918  13.428  1.00  0.00     0.005 C 
ATOM      8  C   UNL     1      15.126  -9.144  12.778  1.00  0.00     0.005 C 
ATOM      9  C   UNL     1      15.946 -10.022  13.755  1.00  0.00     0.002 C 
ATOM     10  C   UNL     1      16.619 -11.301  13.076  1.00  0.00    -0.026 C 
ATOM     11  C   UNL     1      15.548 -12.295  12.475  1.00  0.00     0.010 C 
ATOM     12  C   UNL     1      15.062 -13.354  13.469  1.00  0.00     0.033 C 
ATOM     13  C   UNL     1      16.203 -14.271  13.985  1.00  0.00     0.120 C 
ATOM     14  C   UNL     1      17.628 -13.588  14.033  1.00  0.00    -0.006 C 
ATOM     15  C   UNL     1      17.414 -12.033  14.214  1.00  0.00     0.003 C 
ATOM     16  C   UNL     1      18.630 -11.220  14.692  1.00  0.00     0.005 C 
ATOM     17  C   UNL     1      18.394  -9.691  14.759  1.00  0.00     0.008 C 
ATOM     18  C   UNL     1      16.897  -9.171  14.744  1.00  0.00    -0.024 C 
ATOM     19  C   UNL     1      16.868  -7.576  14.422  1.00  0.00    -0.024 C 
ATOM     20  C   UNL     1      17.586  -7.191  13.061  1.00  0.00     0.008 C 
ATOM     21  C   UNL     1      16.826  -6.216  12.109  1.00  0.00     0.007 C 
ATOM     22  C   UNL     1      17.613  -6.792  15.561  1.00  0.00     0.012 C 
ATOM     23  C   UNL     1      16.359  -9.409  16.201  1.00  0.00     0.012 C 
ATOM     24  C   UNL     1      18.485 -13.941  12.787  1.00  0.00     0.014 C 
ATOM     25  C   UNL     1      18.383 -14.169  15.261  1.00  0.00     0.014 C 
ATOM     26  C   UNL     1      17.541 -10.883  11.883  1.00  0.00     0.012 C 
ATOM     27  C   UNL     1      17.047  -3.908  13.094  1.00  0.00     0.011 C 
ENDROOT
BRANCH   1  28
ATOM     28  C   UNL     1      13.425  -4.297  15.347  1.00  0.00    -0.077 C 
ATOM     29  C   UNL     1      14.351  -4.193  16.538  1.00  0.00     0.039 C 
ATOM     30  C   UNL     1      12.158  -3.875  15.493  1.00  0.00     0.008 C 
ENDBRANCH   1  28
BRANCH  13  31
ATOM     31  O   UNL     1      16.215 -15.509  13.310  1.00  0.00    -0.393 OA
ATOM     32  H   UNL     1      16.945 -15.488  12.644  1.00  0.00     0.210 HD
ENDBRANCH  13  31
TORSDOF 2
ENDMDL
