MODEL 1
REMARK VINA RESULT:    -4.742      0.000      0.000
REMARK INTER + INTRA:          -5.396
REMARK INTER:                  -5.157
REMARK INTRA:                  -0.239
REMARK UNBOUND:                -0.239
REMARK SMILES O=C([O-])c1ccccc1O
REMARK SMILES IDX 4 1 9 2 5 3 8 4 6 5 7 6 2 7 1 8 3 9 10 10
REMARK H PARENT 10 11
REMARK Flexibility Score: inf
ROOT
ATOM      1  C   UNL     1      20.717   0.484 -20.299  1.00  0.00     0.039 A 
ATOM      2  C   UNL     1      21.196   0.793 -19.000  1.00  0.00     0.124 A 
ATOM      3  C   UNL     1      19.569  -0.319 -20.428  1.00  0.00     0.014 A 
ATOM      4  C   UNL     1      20.559   0.246 -17.879  1.00  0.00     0.047 A 
ATOM      5  C   UNL     1      18.933  -0.839 -19.298  1.00  0.00     0.001 A 
ATOM      6  C   UNL     1      19.434  -0.566 -18.026  1.00  0.00     0.004 A 
ENDROOT
BRANCH   1   7
ATOM      7  C   UNL     1      21.403   0.944 -21.527  1.00  0.00     0.075 C 
ATOM      8  O   UNL     1      21.608   2.173 -21.713  1.00  0.00    -0.545 OA
ATOM      9  O   UNL     1      21.767   0.042 -22.519  1.00  0.00    -0.545 OA
ENDBRANCH   1   7
BRANCH   2  10
ATOM     10  O   UNL     1      22.268   1.661 -18.780  1.00  0.00    -0.507 OA
ATOM     11  H   UNL     1      23.055   1.433 -18.188  1.00  0.00     0.293 HD
ENDBRANCH   2  10
TORSDOF 2
ENDMDL
MODEL 2
REMARK VINA RESULT:    -4.694      1.491      2.575
REMARK INTER + INTRA:          -5.344
REMARK INTER:                  -5.106
REMARK INTRA:                  -0.239
REMARK UNBOUND:                -0.239
REMARK SMILES O=C([O-])c1ccccc1O
REMARK SMILES IDX 4 1 9 2 5 3 8 4 6 5 7 6 2 7 1 8 3 9 10 10
REMARK H PARENT 10 11
REMARK Flexibility Score: inf
ROOT
ATOM      1  C   UNL     1      21.377   0.764 -20.975  1.00  0.00     0.039 A 
ATOM      2  C   UNL     1      20.751  -0.496 -21.157  1.00  0.00     0.124 A 
ATOM      3  C   UNL     1      21.500   1.280 -19.672  1.00  0.00     0.014 A 
ATOM      4  C   UNL     1      20.214  -1.168 -20.052  1.00  0.00     0.047 A 
ATOM      5  C   UNL     1      20.978   0.587 -18.578  1.00  0.00     0.001 A 
ATOM      6  C   UNL     1      20.326  -0.631 -18.769  1.00  0.00     0.004 A 
ENDROOT
BRANCH   1   7
ATOM      7  C   UNL     1      21.873   1.574 -22.110  1.00  0.00     0.075 C 
ATOM      8  O   UNL     1      22.359   1.007 -23.125  1.00  0.00    -0.545 OA
ATOM      9  O   UNL     1      21.874   2.961 -22.047  1.00  0.00    -0.545 OA
ENDBRANCH   1   7
BRANCH   2  10
ATOM     10  O   UNL     1      20.674  -1.126 -22.402  1.00  0.00    -0.507 OA
ATOM     11  H   UNL     1      19.822  -1.186 -22.942  1.00  0.00     0.293 HD
ENDBRANCH   2  10
TORSDOF 2
ENDMDL
MODEL 3
REMARK VINA RESULT:    -4.649      1.201      2.182
REMARK INTER + INTRA:          -5.295
REMARK INTER:                  -5.055
REMARK INTRA:                  -0.239
REMARK UNBOUND:                -0.239
REMARK SMILES O=C([O-])c1ccccc1O
REMARK SMILES IDX 4 1 9 2 5 3 8 4 6 5 7 6 2 7 1 8 3 9 10 10
REMARK H PARENT 10 11
REMARK Flexibility Score: inf
ROOT
ATOM      1  C   UNL     1      20.784   0.570 -19.971  1.00  0.00     0.039 A 
ATOM      2  C   UNL     1      19.555  -0.120 -19.815  1.00  0.00     0.124 A 
ATOM      3  C   UNL     1      21.497   0.959 -18.821  1.00  0.00     0.014 A 
ATOM      4  C   UNL     1      19.046  -0.346 -18.529  1.00  0.00     0.047 A 
ATOM      5  C   UNL     1      20.985   0.708 -17.546  1.00  0.00     0.001 A 
ATOM      6  C   UNL     1      19.756   0.066 -17.401  1.00  0.00     0.004 A 
ENDROOT
BRANCH   1   7
ATOM      7  C   UNL     1      21.327   0.932 -21.299  1.00  0.00     0.075 C 
ATOM      8  O   UNL     1      21.567   2.138 -21.575  1.00  0.00    -0.545 OA
ATOM      9  O   UNL     1      21.514  -0.034 -22.279  1.00  0.00    -0.545 OA
ENDBRANCH   1   7
BRANCH   2  10
ATOM     10  O   UNL     1      18.834  -0.627 -20.898  1.00  0.00    -0.507 OA
ATOM     11  H   UNL     1      18.927  -1.576 -21.232  1.00  0.00     0.293 HD
ENDBRANCH   2  10
TORSDOF 2
ENDMDL
MODEL 4
REMARK VINA RESULT:    -4.627      1.958      3.566
REMARK INTER + INTRA:          -5.272
REMARK INTER:                  -5.023
REMARK INTRA:                  -0.249
REMARK UNBOUND:                -0.239
REMARK SMILES O=C([O-])c1ccccc1O
REMARK SMILES IDX 4 1 9 2 5 3 8 4 6 5 7 6 2 7 1 8 3 9 10 10
REMARK H PARENT 10 11
REMARK Flexibility Score: inf
ROOT
ATOM      1  C   UNL     1      20.752   0.186 -20.580  1.00  0.00     0.039 A 
ATOM      2  C   UNL     1      21.420   1.388 -20.929  1.00  0.00     0.124 A 
ATOM      3  C   UNL     1      20.720  -0.870 -21.510  1.00  0.00     0.014 A 
ATOM      4  C   UNL     1      21.977   1.524 -22.207  1.00  0.00     0.047 A 
ATOM      5  C   UNL     1      21.299  -0.725 -22.773  1.00  0.00     0.001 A 
ATOM      6  C   UNL     1      21.917   0.474 -23.125  1.00  0.00     0.004 A 
ENDROOT
BRANCH   1   7
ATOM      7  C   UNL     1      20.054   0.014 -19.287  1.00  0.00     0.075 C 
ATOM      8  O   UNL     1      20.608   0.384 -18.217  1.00  0.00    -0.545 OA
ATOM      9  O   UNL     1      18.818  -0.616 -19.223  1.00  0.00    -0.545 OA
ENDBRANCH   1   7
BRANCH   2  10
ATOM     10  O   UNL     1      21.583   2.446 -20.033  1.00  0.00    -0.507 OA
ATOM     11  H   UNL     1      22.059   2.354 -19.146  1.00  0.00     0.293 HD
ENDBRANCH   2  10
TORSDOF 2
ENDMDL
MODEL 5
REMARK VINA RESULT:    -4.466      1.930      3.030
REMARK INTER + INTRA:          -5.096
REMARK INTER:                  -4.844
REMARK INTRA:                  -0.253
REMARK UNBOUND:                -0.239
REMARK SMILES O=C([O-])c1ccccc1O
REMARK SMILES IDX 4 1 9 2 5 3 8 4 6 5 7 6 2 7 1 8 3 9 10 10
REMARK H PARENT 10 11
REMARK Flexibility Score: inf
ROOT
ATOM      1  C   UNL     1      20.761   0.381 -19.219  1.00  0.00     0.039 A 
ATOM      2  C   UNL     1      21.517   1.433 -19.796  1.00  0.00     0.124 A 
ATOM      3  C   UNL     1      20.930   0.092 -17.852  1.00  0.00     0.014 A 
ATOM      4  C   UNL     1      22.456   2.119 -19.017  1.00  0.00     0.047 A 
ATOM      5  C   UNL     1      21.857   0.799 -17.084  1.00  0.00     0.001 A 
ATOM      6  C   UNL     1      22.627   1.804 -17.667  1.00  0.00     0.004 A 
ENDROOT
BRANCH   1   7
ATOM      7  C   UNL     1      19.827  -0.451 -20.010  1.00  0.00     0.075 C 
ATOM      8  O   UNL     1      18.764  -0.879 -19.486  1.00  0.00    -0.545 OA
ATOM      9  O   UNL     1      20.137  -0.829 -21.310  1.00  0.00    -0.545 OA
ENDBRANCH   1   7
BRANCH   2  10
ATOM     10  O   UNL     1      21.340   1.849 -21.118  1.00  0.00    -0.507 OA
ATOM     11  H   UNL     1      22.107   2.023 -21.752  1.00  0.00     0.293 HD
ENDBRANCH   2  10
TORSDOF 2
ENDMDL
MODEL 6
REMARK VINA RESULT:    -4.426      0.934      2.743
REMARK INTER + INTRA:          -5.053
REMARK INTER:                  -4.807
REMARK INTRA:                  -0.246
REMARK UNBOUND:                -0.239
REMARK SMILES O=C([O-])c1ccccc1O
REMARK SMILES IDX 4 1 9 2 5 3 8 4 6 5 7 6 2 7 1 8 3 9 10 10
REMARK H PARENT 10 11
REMARK Flexibility Score: inf
ROOT
ATOM      1  C   UNL     1      21.033   0.686 -18.908  1.00  0.00     0.039 A 
ATOM      2  C   UNL     1      20.633   0.321 -20.219  1.00  0.00     0.124 A 
ATOM      3  C   UNL     1      20.369   0.110 -17.809  1.00  0.00     0.014 A 
ATOM      4  C   UNL     1      19.552  -0.552 -20.396  1.00  0.00     0.047 A 
ATOM      5  C   UNL     1      19.305  -0.775 -18.003  1.00  0.00     0.001 A 
ATOM      6  C   UNL     1      18.891  -1.097 -19.294  1.00  0.00     0.004 A 
ENDROOT
BRANCH   1   7
ATOM      7  C   UNL     1      22.098   1.681 -18.652  1.00  0.00     0.075 C 
ATOM      8  O   UNL     1      22.252   2.657 -19.435  1.00  0.00    -0.545 OA
ATOM      9  O   UNL     1      22.982   1.521 -17.593  1.00  0.00    -0.545 OA
ENDBRANCH   1   7
BRANCH   2  10
ATOM     10  O   UNL     1      21.301   0.769 -21.361  1.00  0.00    -0.507 OA
ATOM     11  H   UNL     1      22.284   1.002 -21.374  1.00  0.00     0.293 HD
ENDBRANCH   2  10
TORSDOF 2
ENDMDL
MODEL 7
REMARK VINA RESULT:    -4.374      2.320      3.874
REMARK INTER + INTRA:          -4.996
REMARK INTER:                  -4.749
REMARK INTRA:                  -0.247
REMARK UNBOUND:                -0.239
REMARK SMILES O=C([O-])c1ccccc1O
REMARK SMILES IDX 4 1 9 2 5 3 8 4 6 5 7 6 2 7 1 8 3 9 10 10
REMARK H PARENT 10 11
REMARK Flexibility Score: inf
ROOT
ATOM      1  C   UNL     1      20.896   0.370 -19.252  1.00  0.00     0.039 A 
ATOM      2  C   UNL     1      20.407  -0.802 -19.883  1.00  0.00     0.124 A 
ATOM      3  C   UNL     1      21.493   1.370 -20.043  1.00  0.00     0.014 A 
ATOM      4  C   UNL     1      20.582  -0.971 -21.262  1.00  0.00     0.047 A 
ATOM      5  C   UNL     1      21.641   1.195 -21.421  1.00  0.00     0.001 A 
ATOM      6  C   UNL     1      21.195   0.022 -22.028  1.00  0.00     0.004 A 
ENDROOT
BRANCH   1   7
ATOM      7  C   UNL     1      20.837   0.566 -17.787  1.00  0.00     0.075 C 
ATOM      8  O   UNL     1      21.887   0.833 -17.143  1.00  0.00    -0.545 OA
ATOM      9  O   UNL     1      19.647   0.391 -17.092  1.00  0.00    -0.545 OA
ENDBRANCH   1   7
BRANCH   2  10
ATOM     10  O   UNL     1      19.715  -1.797 -19.188  1.00  0.00    -0.507 OA
ATOM     11  H   UNL     1      20.148  -2.396 -18.498  1.00  0.00     0.293 HD
ENDBRANCH   2  10
TORSDOF 2
ENDMDL
MODEL 8
REMARK VINA RESULT:    -4.337      1.652      3.411
REMARK INTER + INTRA:          -4.956
REMARK INTER:                  -4.719
REMARK INTRA:                  -0.237
REMARK UNBOUND:                -0.239
REMARK SMILES O=C([O-])c1ccccc1O
REMARK SMILES IDX 4 1 9 2 5 3 8 4 6 5 7 6 2 7 1 8 3 9 10 10
REMARK H PARENT 10 11
REMARK Flexibility Score: inf
ROOT
ATOM      1  C   UNL     1      20.894   0.286 -18.864  1.00  0.00     0.039 A 
ATOM      2  C   UNL     1      21.259   1.115 -19.955  1.00  0.00     0.124 A 
ATOM      3  C   UNL     1      20.447  -1.022 -19.123  1.00  0.00     0.014 A 
ATOM      4  C   UNL     1      21.109   0.642 -21.265  1.00  0.00     0.047 A 
ATOM      5  C   UNL     1      20.323  -1.486 -20.435  1.00  0.00     0.001 A 
ATOM      6  C   UNL     1      20.644  -0.652 -21.505  1.00  0.00     0.004 A 
ENDROOT
BRANCH   1   7
ATOM      7  C   UNL     1      20.930   0.759 -17.462  1.00  0.00     0.075 C 
ATOM      8  O   UNL     1      19.881   0.746 -16.765  1.00  0.00    -0.545 OA
ATOM      9  O   UNL     1      22.094   1.287 -16.918  1.00  0.00    -0.545 OA
ENDBRANCH   1   7
BRANCH   2  10
ATOM     10  O   UNL     1      21.804   2.390 -19.783  1.00  0.00    -0.507 OA
ATOM     11  H   UNL     1      21.253   3.203 -19.546  1.00  0.00     0.293 HD
ENDBRANCH   2  10
TORSDOF 2
ENDMDL
MODEL 9
REMARK VINA RESULT:    -4.315     17.262     18.862
REMARK INTER + INTRA:          -4.932
REMARK INTER:                  -4.697
REMARK INTRA:                  -0.235
REMARK UNBOUND:                -0.239
REMARK SMILES O=C([O-])c1ccccc1O
REMARK SMILES IDX 4 1 9 2 5 3 8 4 6 5 7 6 2 7 1 8 3 9 10 10
REMARK H PARENT 10 11
REMARK Flexibility Score: inf
ROOT
ATOM      1  C   UNL     1       8.993  -7.208  -7.272  1.00  0.00     0.039 A 
ATOM      2  C   UNL     1      10.102  -6.344  -7.463  1.00  0.00     0.124 A 
ATOM      3  C   UNL     1       8.894  -8.372  -8.055  1.00  0.00     0.014 A 
ATOM      4  C   UNL     1      11.038  -6.632  -8.465  1.00  0.00     0.047 A 
ATOM      5  C   UNL     1       9.847  -8.655  -9.036  1.00  0.00     0.001 A 
ATOM      6  C   UNL     1      10.913  -7.780  -9.248  1.00  0.00     0.004 A 
ENDROOT
BRANCH   1   7
ATOM      7  C   UNL     1       7.915  -6.910  -6.303  1.00  0.00     0.075 C 
ATOM      8  O   UNL     1       7.666  -5.716  -5.983  1.00  0.00    -0.545 OA
ATOM      9  O   UNL     1       7.212  -7.934  -5.683  1.00  0.00    -0.545 OA
ENDBRANCH   1   7
BRANCH   2  10
ATOM     10  O   UNL     1      10.330  -5.222  -6.664  1.00  0.00    -0.507 OA
ATOM     11  H   UNL     1       9.830  -5.043  -5.803  1.00  0.00     0.293 HD
ENDBRANCH   2  10
TORSDOF 2
ENDMDL
