MODEL 1
REMARK VINA RESULT:    -2.320      0.000      0.000
REMARK INTER + INTRA:          -2.544
REMARK INTER:                  -2.456
REMARK INTRA:                  -0.088
REMARK UNBOUND:                -0.088
REMARK SMILES C=C(C)[C@H]1CC=C(C)C(=O)C1
REMARK SMILES IDX 8 1 7 2 6 3 5 4 4 5 11 6 9 7 10 8 2 9 1 10 3 11
REMARK H PARENT
REMARK Flexibility Score: inf
ROOT
ATOM      1  C   UNL     1       7.798  17.315   2.123  1.00  0.00     0.048 C 
ATOM      2  C   UNL     1       8.869  16.317   1.779  1.00  0.00    -0.012 C 
ATOM      3  C   UNL     1      10.099  16.738   1.434  1.00  0.00    -0.019 C 
ATOM      4  C   UNL     1      11.180  15.781   1.005  1.00  0.00     0.036 C 
ATOM      5  C   UNL     1      11.017  14.412   1.692  1.00  0.00     0.025 C 
ATOM      6  C   UNL     1       9.606  13.851   1.437  1.00  0.00     0.089 C 
ATOM      7  C   UNL     1       8.557  14.866   1.798  1.00  0.00     0.158 C 
ATOM      8  O   UNL     1       7.391  14.475   2.074  1.00  0.00    -0.295 OA
ENDROOT
BRANCH   5   9
ATOM      9  C   UNL     1      12.099  13.432   1.256  1.00  0.00    -0.077 C 
ATOM     10  C   UNL     1      13.019  12.975   2.123  1.00  0.00     0.008 C 
ATOM     11  C   UNL     1      12.156  12.955  -0.171  1.00  0.00     0.039 C 
ENDBRANCH   5   9
TORSDOF 1
ENDMDL
MODEL 2
REMARK VINA RESULT:    -0.646      1.492      2.105
REMARK INTER + INTRA:          -0.772
REMARK INTER:                  -0.679
REMARK INTRA:                  -0.093
REMARK UNBOUND:                -0.088
REMARK SMILES C=C(C)[C@H]1CC=C(C)C(=O)C1
REMARK SMILES IDX 8 1 7 2 6 3 5 4 4 5 11 6 9 7 10 8 2 9 1 10 3 11
REMARK H PARENT
REMARK Flexibility Score: inf
ROOT
ATOM      1  C   UNL     1       7.827  17.311   2.122  1.00  0.00     0.048 C 
ATOM      2  C   UNL     1       8.919  16.291   1.957  1.00  0.00    -0.012 C 
ATOM      3  C   UNL     1       8.613  14.986   1.844  1.00  0.00    -0.019 C 
ATOM      4  C   UNL     1       9.675  13.921   1.757  1.00  0.00     0.036 C 
ATOM      5  C   UNL     1      10.949  14.459   1.078  1.00  0.00     0.025 C 
ATOM      6  C   UNL     1      11.448  15.723   1.802  1.00  0.00     0.089 C 
ATOM      7  C   UNL     1      10.338  16.727   1.944  1.00  0.00     0.158 C 
ATOM      8  O   UNL     1      10.625  17.944   2.099  1.00  0.00    -0.295 OA
ENDROOT
BRANCH   5   9
ATOM      9  C   UNL     1      12.034  13.393   0.994  1.00  0.00    -0.077 C 
ATOM     10  C   UNL     1      12.593  12.876   2.102  1.00  0.00     0.008 C 
ATOM     11  C   UNL     1      12.505  12.897  -0.348  1.00  0.00     0.039 C 
ENDBRANCH   5   9
TORSDOF 1
ENDMDL
