MODEL 1
REMARK VINA RESULT:    -4.824      0.000      0.000
REMARK INTER + INTRA:          -5.822
REMARK INTER:                  -5.529
REMARK INTRA:                  -0.293
REMARK UNBOUND:                -0.293
REMARK SMILES COc1ccc(C(C)=O)c(O)c1
REMARK SMILES IDX 6 1 10 2 12 3 3 4 4 5 5 6 7 7 8 8 9 9 11 10 2 12 1 13
REMARK H PARENT 11 11
REMARK Flexibility Score: inf
ROOT
ATOM      1  C   UNL     1      25.571  46.721  32.025  1.00  0.00     0.059 A 
ATOM      2  C   UNL     1      24.356  47.272  32.502  1.00  0.00     0.130 A 
ATOM      3  C   UNL     1      24.347  47.998  33.700  1.00  0.00     0.093 A 
ATOM      4  C   UNL     1      25.512  48.163  34.452  1.00  0.00     0.122 A 
ATOM      5  C   UNL     1      26.711  47.592  33.994  1.00  0.00     0.047 A 
ATOM      6  C   UNL     1      26.737  46.880  32.793  1.00  0.00     0.019 A 
ENDROOT
BRANCH   1   7
ATOM      7  C   UNL     1      25.654  46.016  30.724  1.00  0.00     0.163 C 
ATOM      8  C   UNL     1      26.867  45.220  30.352  1.00  0.00     0.093 C 
ATOM      9  O   UNL     1      24.732  46.150  29.875  1.00  0.00    -0.294 OA
ENDBRANCH   1   7
BRANCH   2  10
ATOM     10  O   UNL     1      23.141  47.095  31.839  1.00  0.00    -0.507 OA
ATOM     11  H   UNL     1      22.372  46.559  32.220  1.00  0.00     0.293 HD
ENDBRANCH   2  10
BRANCH   4  12
ATOM     12  O   UNL     1      25.437  48.895  35.647  1.00  0.00    -0.497 OA
ATOM     13  C   UNL     1      26.229  50.041  35.941  1.00  0.00     0.278 C 
ENDBRANCH   4  12
TORSDOF 3
ENDMDL
MODEL 2
REMARK VINA RESULT:    -4.468     12.037     13.530
REMARK INTER + INTRA:          -5.414
REMARK INTER:                  -5.112
REMARK INTRA:                  -0.302
REMARK UNBOUND:                -0.293
REMARK SMILES COc1ccc(C(C)=O)c(O)c1
REMARK SMILES IDX 6 1 10 2 12 3 3 4 4 5 5 6 7 7 8 8 9 9 11 10 2 12 1 13
REMARK H PARENT 11 11
REMARK Flexibility Score: inf
ROOT
ATOM      1  C   UNL     1      20.622  46.755  44.809  1.00  0.00     0.059 A 
ATOM      2  C   UNL     1      21.080  48.078  44.592  1.00  0.00     0.130 A 
ATOM      3  C   UNL     1      20.832  49.064  45.555  1.00  0.00     0.093 A 
ATOM      4  C   UNL     1      20.108  48.776  46.714  1.00  0.00     0.122 A 
ATOM      5  C   UNL     1      19.628  47.471  46.915  1.00  0.00     0.047 A 
ATOM      6  C   UNL     1      19.884  46.474  45.972  1.00  0.00     0.019 A 
ENDROOT
BRANCH   1   7
ATOM      7  C   UNL     1      20.929  45.654  43.866  1.00  0.00     0.163 C 
ATOM      8  C   UNL     1      21.920  44.587  44.218  1.00  0.00     0.093 C 
ATOM      9  O   UNL     1      20.417  45.650  42.714  1.00  0.00    -0.294 OA
ENDBRANCH   1   7
BRANCH   2  10
ATOM     10  O   UNL     1      21.754  48.457  43.429  1.00  0.00    -0.507 OA
ATOM     11  H   UNL     1      22.073  47.797  42.732  1.00  0.00     0.293 HD
ENDBRANCH   2  10
BRANCH   4  12
ATOM     12  O   UNL     1      19.886  49.809  47.637  1.00  0.00    -0.497 OA
ATOM     13  C   UNL     1      20.607  51.036  47.661  1.00  0.00     0.278 C 
ENDBRANCH   4  12
TORSDOF 3
ENDMDL
MODEL 3
REMARK VINA RESULT:    -4.460     12.209     13.452
REMARK INTER + INTRA:          -5.405
REMARK INTER:                  -5.106
REMARK INTRA:                  -0.299
REMARK UNBOUND:                -0.293
REMARK SMILES COc1ccc(C(C)=O)c(O)c1
REMARK SMILES IDX 6 1 10 2 12 3 3 4 4 5 5 6 7 7 8 8 9 9 11 10 2 12 1 13
REMARK H PARENT 11 11
REMARK Flexibility Score: inf
ROOT
ATOM      1  C   UNL     1      20.625  46.930  44.650  1.00  0.00     0.059 A 
ATOM      2  C   UNL     1      19.432  47.247  45.344  1.00  0.00     0.130 A 
ATOM      3  C   UNL     1      19.294  48.503  45.948  1.00  0.00     0.093 A 
ATOM      4  C   UNL     1      20.328  49.441  45.908  1.00  0.00     0.122 A 
ATOM      5  C   UNL     1      21.523  49.116  45.245  1.00  0.00     0.047 A 
ATOM      6  C   UNL     1      21.667  47.874  44.623  1.00  0.00     0.019 A 
ENDROOT
BRANCH   1   7
ATOM      7  C   UNL     1      20.793  45.651  43.921  1.00  0.00     0.163 C 
ATOM      8  C   UNL     1      21.930  44.727  44.229  1.00  0.00     0.093 C 
ATOM      9  O   UNL     1      20.019  45.363  42.968  1.00  0.00    -0.294 OA
ENDBRANCH   1   7
BRANCH   2  10
ATOM     10  O   UNL     1      18.381  46.339  45.481  1.00  0.00    -0.507 OA
ATOM     11  H   UNL     1      17.665  46.206  44.779  1.00  0.00     0.293 HD
ENDBRANCH   2  10
BRANCH   4  12
ATOM     12  O   UNL     1      20.131  50.679  46.539  1.00  0.00    -0.497 OA
ATOM     13  C   UNL     1      20.720  51.052  47.780  1.00  0.00     0.278 C 
ENDBRANCH   4  12
TORSDOF 3
ENDMDL
MODEL 4
REMARK VINA RESULT:    -4.443     11.563     12.600
REMARK INTER + INTRA:          -5.385
REMARK INTER:                  -5.214
REMARK INTRA:                  -0.171
REMARK UNBOUND:                -0.293
REMARK SMILES COc1ccc(C(C)=O)c(O)c1
REMARK SMILES IDX 6 1 10 2 12 3 3 4 4 5 5 6 7 7 8 8 9 9 11 10 2 12 1 13
REMARK H PARENT 11 11
REMARK Flexibility Score: inf
ROOT
ATOM      1  C   UNL     1      21.254  48.931  43.769  1.00  0.00     0.059 A 
ATOM      2  C   UNL     1      19.936  49.451  43.799  1.00  0.00     0.130 A 
ATOM      3  C   UNL     1      18.858  48.627  43.455  1.00  0.00     0.093 A 
ATOM      4  C   UNL     1      19.059  47.306  43.048  1.00  0.00     0.122 A 
ATOM      5  C   UNL     1      20.369  46.799  42.990  1.00  0.00     0.047 A 
ATOM      6  C   UNL     1      21.451  47.605  43.348  1.00  0.00     0.019 A 
ENDROOT
BRANCH   1   7
ATOM      7  C   UNL     1      22.423  49.731  44.204  1.00  0.00     0.163 C 
ATOM      8  C   UNL     1      22.836  49.779  45.643  1.00  0.00     0.093 C 
ATOM      9  O   UNL     1      23.037  50.452  43.372  1.00  0.00    -0.294 OA
ENDBRANCH   1   7
BRANCH   2  10
ATOM     10  O   UNL     1      19.662  50.779  44.133  1.00  0.00    -0.507 OA
ATOM     11  H   UNL     1      18.891  51.302  43.741  1.00  0.00     0.293 HD
ENDBRANCH   2  10
BRANCH   4  12
ATOM     12  O   UNL     1      17.939  46.534  42.709  1.00  0.00    -0.497 OA
ATOM     13  C   UNL     1      17.657  46.056  41.397  1.00  0.00     0.278 C 
ENDBRANCH   4  12
TORSDOF 3
ENDMDL
MODEL 5
REMARK VINA RESULT:    -4.302     12.887     14.036
REMARK INTER + INTRA:          -5.223
REMARK INTER:                  -4.890
REMARK INTRA:                  -0.334
REMARK UNBOUND:                -0.293
REMARK SMILES COc1ccc(C(C)=O)c(O)c1
REMARK SMILES IDX 6 1 10 2 12 3 3 4 4 5 5 6 7 7 8 8 9 9 11 10 2 12 1 13
REMARK H PARENT 11 11
REMARK Flexibility Score: inf
ROOT
ATOM      1  C   UNL     1      19.682  49.854  44.609  1.00  0.00     0.059 A 
ATOM      2  C   UNL     1      18.741  50.887  44.843  1.00  0.00     0.130 A 
ATOM      3  C   UNL     1      17.490  50.841  44.216  1.00  0.00     0.093 A 
ATOM      4  C   UNL     1      17.162  49.809  43.334  1.00  0.00     0.122 A 
ATOM      5  C   UNL     1      18.105  48.800  43.079  1.00  0.00     0.047 A 
ATOM      6  C   UNL     1      19.350  48.824  43.711  1.00  0.00     0.019 A 
ENDROOT
BRANCH   1   7
ATOM      7  C   UNL     1      20.986  49.807  45.310  1.00  0.00     0.163 C 
ATOM      8  C   UNL     1      22.253  49.510  44.569  1.00  0.00     0.093 C 
ATOM      9  O   UNL     1      21.032  49.935  46.563  1.00  0.00    -0.294 OA
ENDBRANCH   1   7
BRANCH   2  10
ATOM     10  O   UNL     1      19.021  51.984  45.660  1.00  0.00    -0.507 OA
ATOM     11  H   UNL     1      19.503  52.811  45.335  1.00  0.00     0.293 HD
ENDBRANCH   2  10
BRANCH   4  12
ATOM     12  O   UNL     1      15.895  49.824  42.731  1.00  0.00    -0.497 OA
ATOM     13  C   UNL     1      15.672  49.846  41.325  1.00  0.00     0.278 C 
ENDBRANCH   4  12
TORSDOF 3
ENDMDL
MODEL 6
REMARK VINA RESULT:    -4.284     12.129     14.356
REMARK INTER + INTRA:          -5.203
REMARK INTER:                  -4.880
REMARK INTRA:                  -0.323
REMARK UNBOUND:                -0.293
REMARK SMILES COc1ccc(C(C)=O)c(O)c1
REMARK SMILES IDX 6 1 10 2 12 3 3 4 4 5 5 6 7 7 8 8 9 9 11 10 2 12 1 13
REMARK H PARENT 11 11
REMARK Flexibility Score: inf
ROOT
ATOM      1  C   UNL     1      20.608  47.448  45.224  1.00  0.00     0.059 A 
ATOM      2  C   UNL     1      20.898  48.791  45.573  1.00  0.00     0.130 A 
ATOM      3  C   UNL     1      20.419  49.312  46.782  1.00  0.00     0.093 A 
ATOM      4  C   UNL     1      19.630  48.540  47.638  1.00  0.00     0.122 A 
ATOM      5  C   UNL     1      19.318  47.219  47.278  1.00  0.00     0.047 A 
ATOM      6  C   UNL     1      19.804  46.682  46.084  1.00  0.00     0.019 A 
ENDROOT
BRANCH   1   7
ATOM      7  C   UNL     1      21.159  46.820  44.000  1.00  0.00     0.163 C 
ATOM      8  C   UNL     1      21.576  45.382  43.989  1.00  0.00     0.093 C 
ATOM      9  O   UNL     1      21.360  47.518  42.970  1.00  0.00    -0.294 OA
ENDBRANCH   1   7
BRANCH   2  10
ATOM     10  O   UNL     1      21.626  49.641  44.739  1.00  0.00    -0.507 OA
ATOM     11  H   UNL     1      22.637  49.661  44.711  1.00  0.00     0.293 HD
ENDBRANCH   2  10
BRANCH   4  12
ATOM     12  O   UNL     1      19.175  49.122  48.831  1.00  0.00    -0.497 OA
ATOM     13  C   UNL     1      17.875  48.925  49.378  1.00  0.00     0.278 C 
ENDBRANCH   4  12
TORSDOF 3
ENDMDL
MODEL 7
REMARK VINA RESULT:    -4.263     12.187     14.143
REMARK INTER + INTRA:          -5.179
REMARK INTER:                  -4.876
REMARK INTRA:                  -0.303
REMARK UNBOUND:                -0.293
REMARK SMILES COc1ccc(C(C)=O)c(O)c1
REMARK SMILES IDX 6 1 10 2 12 3 3 4 4 5 5 6 7 7 8 8 9 9 11 10 2 12 1 13
REMARK H PARENT 11 11
REMARK Flexibility Score: inf
ROOT
ATOM      1  C   UNL     1      20.386  48.880  45.804  1.00  0.00     0.059 A 
ATOM      2  C   UNL     1      21.223  48.750  44.669  1.00  0.00     0.130 A 
ATOM      3  C   UNL     1      21.394  47.494  44.073  1.00  0.00     0.093 A 
ATOM      4  C   UNL     1      20.779  46.355  44.600  1.00  0.00     0.122 A 
ATOM      5  C   UNL     1      19.973  46.479  45.744  1.00  0.00     0.047 A 
ATOM      6  C   UNL     1      19.780  47.728  46.336  1.00  0.00     0.019 A 
ENDROOT
BRANCH   1   7
ATOM      7  C   UNL     1      20.102  50.196  46.423  1.00  0.00     0.163 C 
ATOM      8  C   UNL     1      20.365  50.441  47.877  1.00  0.00     0.093 C 
ATOM      9  O   UNL     1      19.554  51.105  45.744  1.00  0.00    -0.294 OA
ENDBRANCH   1   7
BRANCH   2  10
ATOM     10  O   UNL     1      21.921  49.829  44.125  1.00  0.00    -0.507 OA
ATOM     11  H   UNL     1      22.927  49.925  44.178  1.00  0.00     0.293 HD
ENDBRANCH   2  10
BRANCH   4  12
ATOM     12  O   UNL     1      20.996  45.125  43.962  1.00  0.00    -0.497 OA
ATOM     13  C   UNL     1      22.103  44.268  44.221  1.00  0.00     0.278 C 
ENDBRANCH   4  12
TORSDOF 3
ENDMDL
MODEL 8
REMARK VINA RESULT:    -4.246     12.077     12.946
REMARK INTER + INTRA:          -5.159
REMARK INTER:                  -4.836
REMARK INTRA:                  -0.323
REMARK UNBOUND:                -0.293
REMARK SMILES COc1ccc(C(C)=O)c(O)c1
REMARK SMILES IDX 6 1 10 2 12 3 3 4 4 5 5 6 7 7 8 8 9 9 11 10 2 12 1 13
REMARK H PARENT 11 11
REMARK Flexibility Score: inf
ROOT
ATOM      1  C   UNL     1      19.735  48.705  43.948  1.00  0.00     0.059 A 
ATOM      2  C   UNL     1      19.121  47.759  43.090  1.00  0.00     0.130 A 
ATOM      3  C   UNL     1      19.612  46.449  43.038  1.00  0.00     0.093 A 
ATOM      4  C   UNL     1      20.721  46.062  43.794  1.00  0.00     0.122 A 
ATOM      5  C   UNL     1      21.348  47.007  44.623  1.00  0.00     0.047 A 
ATOM      6  C   UNL     1      20.858  48.313  44.698  1.00  0.00     0.019 A 
ENDROOT
BRANCH   1   7
ATOM      7  C   UNL     1      19.206  50.080  44.107  1.00  0.00     0.163 C 
ATOM      8  C   UNL     1      19.269  50.785  45.427  1.00  0.00     0.093 C 
ATOM      9  O   UNL     1      18.617  50.642  43.145  1.00  0.00    -0.294 OA
ENDBRANCH   1   7
BRANCH   2  10
ATOM     10  O   UNL     1      18.050  48.088  42.257  1.00  0.00    -0.507 OA
ATOM     11  H   UNL     1      17.302  48.710  42.533  1.00  0.00     0.293 HD
ENDBRANCH   2  10
BRANCH   4  12
ATOM     12  O   UNL     1      21.170  44.737  43.692  1.00  0.00    -0.497 OA
ATOM     13  C   UNL     1      22.273  44.202  44.415  1.00  0.00     0.278 C 
ENDBRANCH   4  12
TORSDOF 3
ENDMDL
MODEL 9
REMARK VINA RESULT:    -4.127     12.286     13.022
REMARK INTER + INTRA:          -5.023
REMARK INTER:                  -4.680
REMARK INTRA:                  -0.343
REMARK UNBOUND:                -0.293
REMARK SMILES COc1ccc(C(C)=O)c(O)c1
REMARK SMILES IDX 6 1 10 2 12 3 3 4 4 5 5 6 7 7 8 8 9 9 11 10 2 12 1 13
REMARK H PARENT 11 11
REMARK Flexibility Score: inf
ROOT
ATOM      1  C   UNL     1      18.680  48.826  43.363  1.00  0.00     0.059 A 
ATOM      2  C   UNL     1      19.840  49.222  44.075  1.00  0.00     0.130 A 
ATOM      3  C   UNL     1      20.828  48.275  44.372  1.00  0.00     0.093 A 
ATOM      4  C   UNL     1      20.678  46.935  44.007  1.00  0.00     0.122 A 
ATOM      5  C   UNL     1      19.514  46.537  43.327  1.00  0.00     0.047 A 
ATOM      6  C   UNL     1      18.529  47.474  43.010  1.00  0.00     0.019 A 
ENDROOT
BRANCH   1   7
ATOM      7  C   UNL     1      17.643  49.800  42.949  1.00  0.00     0.163 C 
ATOM      8  C   UNL     1      16.188  49.452  43.005  1.00  0.00     0.093 C 
ATOM      9  O   UNL     1      17.983  50.912  42.462  1.00  0.00    -0.294 OA
ENDBRANCH   1   7
BRANCH   2  10
ATOM     10  O   UNL     1      20.031  50.528  44.528  1.00  0.00    -0.507 OA
ATOM     11  H   UNL     1      19.785  51.346  43.986  1.00  0.00     0.293 HD
ENDBRANCH   2  10
BRANCH   4  12
ATOM     12  O   UNL     1      21.700  46.034  44.340  1.00  0.00    -0.497 OA
ATOM     13  C   UNL     1      21.688  44.648  44.017  1.00  0.00     0.278 C 
ENDBRANCH   4  12
TORSDOF 3
ENDMDL
