MODEL 1
REMARK VINA RESULT:    33.159      0.000      0.000
REMARK INTER + INTRA:          52.224
REMARK INTER:                  49.637
REMARK INTRA:                   2.587
REMARK UNBOUND:                 2.587
REMARK SMILES C=C(CC[C@H](C(=O)[O-])[C@H]1[C@H](O)C[C@@]2(C)C3=C(CC[C@]12C)[C@]1(C)CC[C@H](OC(C)=O)C(C)(C)[C@@H]1CC3)C(C)C
REMARK SMILES IDX 4 1 5 2 6 3 7 4 8 5 9 6 10 7 19 8 12 9 13 10 18 11 20 12
REMARK SMILES IDX 14 13 15 14 17 15 16 16 35 17 21 18 34 19 33 20 23 21 22 22
REMARK SMILES IDX 30 23 24 24 25 25 31 26 32 27 11 28 26 30 27 31 29 32 28 33
REMARK SMILES IDX 3 34 2 35 1 36 36 37 37 38 38 39
REMARK H PARENT 11 29
REMARK Flexibility Score: inf
ROOT
ATOM      1  C   UNL     1      62.575  23.203  21.641  1.00  0.00     0.014 C 
ENDROOT
BRANCH   1   2
ATOM      2  C   UNL     1      63.029  23.045  23.115  1.00  0.00     0.042 C 
BRANCH   2   3
ATOM      3  C   UNL     1      63.767  21.730  23.252  1.00  0.00     0.045 C 
ATOM      4  O   UNL     1      64.125  21.317  24.387  1.00  0.00    -0.550 OA
ATOM      5  O   UNL     1      64.119  20.995  22.124  1.00  0.00    -0.550 OA
ENDBRANCH   2   3
BRANCH   2   6
ATOM      6  C   UNL     1      61.853  23.247  24.145  1.00  0.00     0.033 C 
ATOM      7  C   UNL     1      61.698  24.657  24.798  1.00  0.00     0.119 C 
ATOM      8  C   UNL     1      60.423  22.927  23.634  1.00  0.00    -0.017 C 
ATOM      9  C   UNL     1      60.178  24.883  24.999  1.00  0.00     0.043 C 
ATOM     10  C   UNL     1      59.523  23.508  24.761  1.00  0.00    -0.003 C 
ATOM     11  C   UNL     1      60.082  21.437  23.487  1.00  0.00     0.012 C 
ATOM     12  C   UNL     1      60.187  23.637  22.253  1.00  0.00     0.013 C 
ATOM     13  C   UNL     1      59.558  22.739  26.124  1.00  0.00     0.017 C 
ATOM     14  C   UNL     1      58.065  23.459  24.317  1.00  0.00    -0.064 C 
ATOM     15  C   UNL     1      58.575  21.258  23.166  1.00  0.00     0.032 C 
ATOM     16  C   UNL     1      57.587  22.335  23.692  1.00  0.00    -0.064 C 
ATOM     17  C   UNL     1      57.116  24.515  24.799  1.00  0.00     0.032 C 
ATOM     18  C   UNL     1      56.046  22.090  23.542  1.00  0.00    -0.008 C 
ATOM     19  C   UNL     1      56.013  24.694  23.777  1.00  0.00     0.009 C 
ATOM     20  C   UNL     1      55.148  23.417  23.701  1.00  0.00     0.009 C 
ATOM     21  C   UNL     1      55.745  21.391  22.179  1.00  0.00     0.015 C 
ATOM     22  C   UNL     1      55.666  21.102  24.671  1.00  0.00     0.016 C 
ATOM     23  C   UNL     1      53.951  23.573  22.662  1.00  0.00     0.005 C 
ATOM     24  C   UNL     1      55.670  22.410  21.056  1.00  0.00     0.047 C 
ATOM     25  C   UNL     1      54.419  23.300  21.172  1.00  0.00     0.182 C 
ATOM     26  C   UNL     1      52.795  22.600  23.049  1.00  0.00     0.015 C 
ATOM     27  C   UNL     1      53.289  24.982  22.769  1.00  0.00     0.015 C 
BRANCH   7  28
ATOM     28  O   UNL     1      62.353  24.706  26.037  1.00  0.00    -0.393 OA
ATOM     29  H   UNL     1      63.088  24.043  25.996  1.00  0.00     0.210 HD
ENDBRANCH   7  28
BRANCH  25  30
ATOM     30  O   UNL     1      54.712  24.516  20.471  1.00  0.00    -0.462 OA
BRANCH  30  31
ATOM     31  C   UNL     1      55.615  24.616  19.406  1.00  0.00     0.302 C 
ATOM     32  O   UNL     1      56.798  24.191  19.513  1.00  0.00    -0.253 OA
ATOM     33  C   UNL     1      55.181  25.266  18.137  1.00  0.00     0.139 C 
ENDBRANCH  30  31
ENDBRANCH  25  30
ENDBRANCH   2   6
ENDBRANCH   1   2
BRANCH   1  34
ATOM     34  C   UNL     1      63.708  23.625  20.684  1.00  0.00     0.031 C 
BRANCH  34  35
ATOM     35  C   UNL     1      63.479  23.068  19.293  1.00  0.00    -0.075 C 
ATOM     36  C   UNL     1      63.812  23.814  18.222  1.00  0.00     0.008 C 
BRANCH  35  37
ATOM     37  C   UNL     1      62.881  21.678  19.124  1.00  0.00     0.008 C 
ATOM     38  C   UNL     1      61.816  21.398  20.193  1.00  0.00     0.012 C 
ATOM     39  C   UNL     1      62.315  21.479  17.712  1.00  0.00     0.012 C 
ENDBRANCH  35  37
ENDBRANCH  34  35
ENDBRANCH   1  34
TORSDOF 9
ENDMDL
