MODEL 1
REMARK VINA RESULT:    -6.160      0.000      0.000
REMARK INTER + INTRA:          -6.619
REMARK INTER:                  -6.520
REMARK INTRA:                  -0.098
REMARK UNBOUND:                -0.098
REMARK SMILES C=C(C)[C@@H]1CC=C(C)C(=O)C1
REMARK SMILES IDX 8 1 7 2 6 3 5 4 4 5 11 6 9 7 10 8 2 9 1 10 3 11
REMARK H PARENT
REMARK Flexibility Score: inf
ROOT
ATOM      1  C   UNL     1      13.340  26.028  23.846  1.00  0.00     0.048 C 
ATOM      2  C   UNL     1      12.108  25.178  23.711  1.00  0.00    -0.012 C 
ATOM      3  C   UNL     1      10.944  25.739  23.342  1.00  0.00    -0.019 C 
ATOM      4  C   UNL     1       9.684  24.931  23.175  1.00  0.00     0.036 C 
ATOM      5  C   UNL     1       9.648  23.752  24.163  1.00  0.00     0.025 C 
ATOM      6  C   UNL     1      10.916  22.890  24.016  1.00  0.00     0.089 C 
ATOM      7  C   UNL     1      12.149  23.748  24.107  1.00  0.00     0.158 C 
ATOM      8  O   UNL     1      13.232  23.227  24.488  1.00  0.00    -0.295 OA
ENDROOT
BRANCH   5   9
ATOM      9  C   UNL     1       8.386  22.916  23.988  1.00  0.00    -0.077 C 
ATOM     10  C   UNL     1       7.454  23.284  23.095  1.00  0.00     0.008 C 
ATOM     11  C   UNL     1       8.151  21.669  24.803  1.00  0.00     0.039 C 
ENDBRANCH   5   9
TORSDOF 1
ENDMDL
MODEL 2
REMARK VINA RESULT:    -5.709      1.939      4.713
REMARK INTER + INTRA:          -6.141
REMARK INTER:                  -6.043
REMARK INTRA:                  -0.098
REMARK UNBOUND:                -0.098
REMARK SMILES C=C(C)[C@@H]1CC=C(C)C(=O)C1
REMARK SMILES IDX 8 1 7 2 6 3 5 4 4 5 11 6 9 7 10 8 2 9 1 10 3 11
REMARK H PARENT
REMARK Flexibility Score: inf
ROOT
ATOM      1  C   UNL     1       7.723  22.003  24.113  1.00  0.00     0.048 C 
ATOM      2  C   UNL     1       8.958  22.824  23.866  1.00  0.00    -0.012 C 
ATOM      3  C   UNL     1      10.129  22.213  23.617  1.00  0.00    -0.019 C 
ATOM      4  C   UNL     1      11.392  22.987  23.345  1.00  0.00     0.036 C 
ATOM      5  C   UNL     1      11.408  24.313  24.126  1.00  0.00     0.025 C 
ATOM      6  C   UNL     1      10.144  25.134  23.814  1.00  0.00     0.089 C 
ATOM      7  C   UNL     1       8.909  24.300  24.019  1.00  0.00     0.158 C 
ATOM      8  O   UNL     1       7.819  24.873  24.288  1.00  0.00    -0.295 OA
ENDROOT
BRANCH   5   9
ATOM      9  C   UNL     1      12.674  25.112  23.842  1.00  0.00    -0.077 C 
ATOM     10  C   UNL     1      13.662  24.572  23.112  1.00  0.00     0.008 C 
ATOM     11  C   UNL     1      12.850  26.516  24.366  1.00  0.00     0.039 C 
ENDBRANCH   5   9
TORSDOF 1
ENDMDL
MODEL 3
REMARK VINA RESULT:    -4.131      9.842     11.652
REMARK INTER + INTRA:          -4.470
REMARK INTER:                  -4.373
REMARK INTRA:                  -0.097
REMARK UNBOUND:                -0.098
REMARK SMILES C=C(C)[C@@H]1CC=C(C)C(=O)C1
REMARK SMILES IDX 8 1 7 2 6 3 5 4 4 5 11 6 9 7 10 8 2 9 1 10 3 11
REMARK H PARENT
REMARK Flexibility Score: inf
ROOT
ATOM      1  C   UNL     1       4.427  16.466  14.885  1.00  0.00     0.048 C 
ATOM      2  C   UNL     1       5.613  17.391  14.898  1.00  0.00    -0.012 C 
ATOM      3  C   UNL     1       6.804  16.958  14.451  1.00  0.00    -0.019 C 
ATOM      4  C   UNL     1       8.019  17.848  14.425  1.00  0.00     0.036 C 
ATOM      5  C   UNL     1       7.994  18.853  15.590  1.00  0.00     0.025 C 
ATOM      6  C   UNL     1       6.681  19.659  15.575  1.00  0.00     0.089 C 
ATOM      7  C   UNL     1       5.496  18.735  15.517  1.00  0.00     0.158 C 
ATOM      8  O   UNL     1       4.388  19.130  15.970  1.00  0.00    -0.295 OA
ENDROOT
BRANCH   5   9
ATOM      9  C   UNL     1       9.209  19.771  15.561  1.00  0.00    -0.077 C 
ATOM     10  C   UNL     1       9.212  20.907  16.276  1.00  0.00     0.008 C 
ATOM     11  C   UNL     1      10.428  19.434  14.739  1.00  0.00     0.039 C 
ENDBRANCH   5   9
TORSDOF 1
ENDMDL
MODEL 4
REMARK VINA RESULT:    -4.124     10.306     11.533
REMARK INTER + INTRA:          -4.463
REMARK INTER:                  -4.364
REMARK INTRA:                  -0.099
REMARK UNBOUND:                -0.098
REMARK SMILES C=C(C)[C@@H]1CC=C(C)C(=O)C1
REMARK SMILES IDX 8 1 7 2 6 3 5 4 4 5 11 6 9 7 10 8 2 9 1 10 3 11
REMARK H PARENT
REMARK Flexibility Score: inf
ROOT
ATOM      1  C   UNL     1       9.439  16.794  14.873  1.00  0.00     0.048 C 
ATOM      2  C   UNL     1       8.026  17.261  15.092  1.00  0.00    -0.012 C 
ATOM      3  C   UNL     1       6.998  16.503  14.676  1.00  0.00    -0.019 C 
ATOM      4  C   UNL     1       5.565  16.914  14.886  1.00  0.00     0.036 C 
ATOM      5  C   UNL     1       5.415  18.445  14.833  1.00  0.00     0.025 C 
ATOM      6  C   UNL     1       6.367  19.113  15.843  1.00  0.00     0.089 C 
ATOM      7  C   UNL     1       7.773  18.612  15.653  1.00  0.00     0.158 C 
ATOM      8  O   UNL     1       8.737  19.342  16.011  1.00  0.00    -0.295 OA
ENDROOT
BRANCH   5   9
ATOM      9  C   UNL     1       3.972  18.873  15.064  1.00  0.00    -0.077 C 
ATOM     10  C   UNL     1       3.672  19.725  16.057  1.00  0.00     0.008 C 
ATOM     11  C   UNL     1       2.851  18.357  14.195  1.00  0.00     0.039 C 
ENDBRANCH   5   9
TORSDOF 1
ENDMDL
MODEL 5
REMARK VINA RESULT:    -4.064     10.623     12.093
REMARK INTER + INTRA:          -4.400
REMARK INTER:                  -4.302
REMARK INTRA:                  -0.099
REMARK UNBOUND:                -0.098
REMARK SMILES C=C(C)[C@@H]1CC=C(C)C(=O)C1
REMARK SMILES IDX 8 1 7 2 6 3 5 4 4 5 11 6 9 7 10 8 2 9 1 10 3 11
REMARK H PARENT
REMARK Flexibility Score: inf
ROOT
ATOM      1  C   UNL     1       4.236  18.928  15.660  1.00  0.00     0.048 C 
ATOM      2  C   UNL     1       5.634  18.388  15.539  1.00  0.00    -0.012 C 
ATOM      3  C   UNL     1       6.683  19.175  15.837  1.00  0.00    -0.019 C 
ATOM      4  C   UNL     1       8.102  18.680  15.751  1.00  0.00     0.036 C 
ATOM      5  C   UNL     1       8.260  17.642  14.625  1.00  0.00     0.025 C 
ATOM      6  C   UNL     1       7.253  16.493  14.810  1.00  0.00     0.089 C 
ATOM      7  C   UNL     1       5.859  17.034  14.975  1.00  0.00     0.158 C 
ATOM      8  O   UNL     1       4.878  16.307  14.661  1.00  0.00    -0.295 OA
ENDROOT
BRANCH   5   9
ATOM      9  C   UNL     1       9.689  17.121  14.543  1.00  0.00    -0.077 C 
ATOM     10  C   UNL     1       9.932  15.804  14.633  1.00  0.00     0.008 C 
ATOM     11  C   UNL     1      10.858  18.058  14.360  1.00  0.00     0.039 C 
ENDBRANCH   5   9
TORSDOF 1
ENDMDL
MODEL 6
REMARK VINA RESULT:    -4.061     12.481     14.001
REMARK INTER + INTRA:          -4.397
REMARK INTER:                  -4.300
REMARK INTRA:                  -0.097
REMARK UNBOUND:                -0.098
REMARK SMILES C=C(C)[C@@H]1CC=C(C)C(=O)C1
REMARK SMILES IDX 8 1 7 2 6 3 5 4 4 5 11 6 9 7 10 8 2 9 1 10 3 11
REMARK H PARENT
REMARK Flexibility Score: inf
ROOT
ATOM      1  C   UNL     1       1.039  32.425  14.287  1.00  0.00     0.048 C 
ATOM      2  C   UNL     1       2.458  31.971  14.487  1.00  0.00    -0.012 C 
ATOM      3  C   UNL     1       2.708  30.720  14.910  1.00  0.00    -0.019 C 
ATOM      4  C   UNL     1       4.110  30.209  15.109  1.00  0.00     0.036 C 
ATOM      5  C   UNL     1       5.052  31.339  15.564  1.00  0.00     0.025 C 
ATOM      6  C   UNL     1       4.996  32.515  14.571  1.00  0.00     0.089 C 
ATOM      7  C   UNL     1       3.572  32.941  14.337  1.00  0.00     0.158 C 
ATOM      8  O   UNL     1       3.338  34.125  13.975  1.00  0.00    -0.295 OA
ENDROOT
BRANCH   5   9
ATOM      9  C   UNL     1       6.477  30.835  15.749  1.00  0.00    -0.077 C 
ATOM     10  C   UNL     1       6.704  29.544  16.040  1.00  0.00     0.008 C 
ATOM     11  C   UNL     1       7.661  31.761  15.614  1.00  0.00     0.039 C 
ENDBRANCH   5   9
TORSDOF 1
ENDMDL
MODEL 7
REMARK VINA RESULT:    -4.059     10.583     11.638
REMARK INTER + INTRA:          -4.395
REMARK INTER:                  -4.296
REMARK INTRA:                  -0.099
REMARK UNBOUND:                -0.098
REMARK SMILES C=C(C)[C@@H]1CC=C(C)C(=O)C1
REMARK SMILES IDX 8 1 7 2 6 3 5 4 4 5 11 6 9 7 10 8 2 9 1 10 3 11
REMARK H PARENT
REMARK Flexibility Score: inf
ROOT
ATOM      1  C   UNL     1      16.849  27.795  15.119  1.00  0.00     0.048 C 
ATOM      2  C   UNL     1      15.462  28.326  14.881  1.00  0.00    -0.012 C 
ATOM      3  C   UNL     1      14.394  27.580  15.211  1.00  0.00    -0.019 C 
ATOM      4  C   UNL     1      12.985  28.071  15.012  1.00  0.00     0.036 C 
ATOM      5  C   UNL     1      12.887  28.987  13.779  1.00  0.00     0.025 C 
ATOM      6  C   UNL     1      13.896  30.145  13.889  1.00  0.00     0.089 C 
ATOM      7  C   UNL     1      15.276  29.616  14.171  1.00  0.00     0.158 C 
ATOM      8  O   UNL     1      16.277  30.301  13.827  1.00  0.00    -0.295 OA
ENDROOT
BRANCH   5   9
ATOM      9  C   UNL     1      11.468  29.504  13.580  1.00  0.00    -0.077 C 
ATOM     10  C   UNL     1      11.245  30.820  13.431  1.00  0.00     0.008 C 
ATOM     11  C   UNL     1      10.287  28.566  13.545  1.00  0.00     0.039 C 
ENDBRANCH   5   9
TORSDOF 1
ENDMDL
MODEL 8
REMARK VINA RESULT:    -4.054      9.221     10.681
REMARK INTER + INTRA:          -4.389
REMARK INTER:                  -4.299
REMARK INTRA:                  -0.090
REMARK UNBOUND:                -0.098
REMARK SMILES C=C(C)[C@@H]1CC=C(C)C(=O)C1
REMARK SMILES IDX 8 1 7 2 6 3 5 4 4 5 11 6 9 7 10 8 2 9 1 10 3 11
REMARK H PARENT
REMARK Flexibility Score: inf
ROOT
ATOM      1  C   UNL     1       9.083  20.638  15.935  1.00  0.00     0.048 C 
ATOM      2  C   UNL     1       7.663  20.314  15.563  1.00  0.00    -0.012 C 
ATOM      3  C   UNL     1       6.833  21.296  15.170  1.00  0.00    -0.019 C 
ATOM      4  C   UNL     1       5.408  21.024  14.769  1.00  0.00     0.036 C 
ATOM      5  C   UNL     1       4.823  19.845  15.567  1.00  0.00     0.025 C 
ATOM      6  C   UNL     1       5.717  18.600  15.418  1.00  0.00     0.089 C 
ATOM      7  C   UNL     1       7.146  18.935  15.748  1.00  0.00     0.158 C 
ATOM      8  O   UNL     1       7.913  18.019  16.151  1.00  0.00    -0.295 OA
ENDROOT
BRANCH   5   9
ATOM      9  C   UNL     1       3.387  19.550  15.154  1.00  0.00    -0.077 C 
ATOM     10  C   UNL     1       2.387  20.333  15.587  1.00  0.00     0.008 C 
ATOM     11  C   UNL     1       3.051  18.382  14.260  1.00  0.00     0.039 C 
ENDBRANCH   5   9
TORSDOF 1
ENDMDL
MODEL 9
REMARK VINA RESULT:    -4.045      9.621     10.652
REMARK INTER + INTRA:          -4.380
REMARK INTER:                  -4.284
REMARK INTRA:                  -0.096
REMARK UNBOUND:                -0.098
REMARK SMILES C=C(C)[C@@H]1CC=C(C)C(=O)C1
REMARK SMILES IDX 8 1 7 2 6 3 5 4 4 5 11 6 9 7 10 8 2 9 1 10 3 11
REMARK H PARENT
REMARK Flexibility Score: inf
ROOT
ATOM      1  C   UNL     1      16.684  30.001  14.119  1.00  0.00     0.048 C 
ATOM      2  C   UNL     1      15.456  29.140  14.215  1.00  0.00    -0.012 C 
ATOM      3  C   UNL     1      14.248  29.663  13.942  1.00  0.00    -0.019 C 
ATOM      4  C   UNL     1      12.988  28.841  14.005  1.00  0.00     0.036 C 
ATOM      5  C   UNL     1      13.089  27.756  15.091  1.00  0.00     0.025 C 
ATOM      6  C   UNL     1      14.340  26.887  14.868  1.00  0.00     0.089 C 
ATOM      7  C   UNL     1      15.564  27.751  14.728  1.00  0.00     0.158 C 
ATOM      8  O   UNL     1      16.692  27.269  15.019  1.00  0.00    -0.295 OA
ENDROOT
BRANCH   5   9
ATOM      9  C   UNL     1      11.826  26.906  15.149  1.00  0.00    -0.077 C 
ATOM     10  C   UNL     1      11.756  25.859  15.987  1.00  0.00     0.008 C 
ATOM     11  C   UNL     1      10.633  27.211  14.277  1.00  0.00     0.039 C 
ENDBRANCH   5   9
TORSDOF 1
ENDMDL
