MODEL 1
REMARK VINA RESULT:    -4.818      0.000      0.000
REMARK INTER + INTRA:         -10.407
REMARK INTER:                  -9.043
REMARK INTRA:                  -1.365
REMARK UNBOUND:                -1.365
REMARK SMILES O=C([O-])CCCCCCCCCCCCCCC(=O)[O-]
REMARK SMILES IDX 10 1 9 2 8 3 7 4 6 5 5 6 4 7 2 8 1 9 3 10 11 11 12 12 13 13
REMARK SMILES IDX 14 14 15 15 16 16 17 17 18 18 19 19 20 20
REMARK H PARENT
REMARK Flexibility Score: inf
ROOT
ATOM      1  C   UNL     1      14.998  21.284 -11.975  1.00  0.00     0.000 C 
ENDROOT
BRANCH   1   2
ATOM      2  C   UNL     1      15.133  22.695 -12.570  1.00  0.00     0.000 C 
BRANCH   2   3
ATOM      3  C   UNL     1      13.842  23.172 -13.254  1.00  0.00     0.000 C 
BRANCH   3   4
ATOM      4  C   UNL     1      12.575  22.609 -12.589  1.00  0.00     0.000 C 
BRANCH   4   5
ATOM      5  C   UNL     1      11.659  23.709 -12.021  1.00  0.00     0.000 C 
BRANCH   5   6
ATOM      6  C   UNL     1      12.107  25.149 -12.334  1.00  0.00     0.006 C 
BRANCH   6   7
ATOM      7  C   UNL     1      12.134  26.049 -11.093  1.00  0.00     0.053 C 
BRANCH   7   8
ATOM      8  C   UNL     1      13.373  25.798 -10.293  1.00  0.00     0.041 C 
ATOM      9  O   UNL     1      14.490  25.701 -10.867  1.00  0.00    -0.550 OA
ATOM     10  O   UNL     1      13.302  25.719  -8.908  1.00  0.00    -0.550 OA
ENDBRANCH   7   8
ENDBRANCH   6   7
ENDBRANCH   5   6
ENDBRANCH   4   5
ENDBRANCH   3   4
ENDBRANCH   2   3
ENDBRANCH   1   2
BRANCH   1  11
ATOM     11  C   UNL     1      16.257  20.450 -12.251  1.00  0.00     0.000 C 
BRANCH  11  12
ATOM     12  C   UNL     1      17.347  21.247 -12.984  1.00  0.00     0.000 C 
BRANCH  12  13
ATOM     13  C   UNL     1      18.344  20.342 -13.729  1.00  0.00     0.000 C 
BRANCH  13  14
ATOM     14  C   UNL     1      17.720  18.987 -14.125  1.00  0.00     0.000 C 
BRANCH  14  15
ATOM     15  C   UNL     1      18.724  17.819 -14.125  1.00  0.00     0.000 C 
BRANCH  15  16
ATOM     16  C   UNL     1      19.835  17.926 -13.067  1.00  0.00     0.006 C 
BRANCH  16  17
ATOM     17  C   UNL     1      19.609  16.990 -11.871  1.00  0.00     0.053 C 
BRANCH  17  18
ATOM     18  C   UNL     1      19.636  17.766 -10.593  1.00  0.00     0.041 C 
ATOM     19  O   UNL     1      20.465  17.473  -9.691  1.00  0.00    -0.550 OA
ATOM     20  O   UNL     1      18.776  18.843 -10.415  1.00  0.00    -0.550 OA
ENDBRANCH  17  18
ENDBRANCH  16  17
ENDBRANCH  15  16
ENDBRANCH  14  15
ENDBRANCH  13  14
ENDBRANCH  12  13
ENDBRANCH  11  12
ENDBRANCH   1  11
TORSDOF 15
ENDMDL
MODEL 2
REMARK VINA RESULT:    -4.533      3.993      7.366
REMARK INTER + INTRA:          -9.872
REMARK INTER:                  -8.468
REMARK INTRA:                  -1.403
REMARK UNBOUND:                -1.365
REMARK SMILES O=C([O-])CCCCCCCCCCCCCCC(=O)[O-]
REMARK SMILES IDX 10 1 9 2 8 3 7 4 6 5 5 6 4 7 2 8 1 9 3 10 11 11 12 12 13 13
REMARK SMILES IDX 14 14 15 15 16 16 17 17 18 18 19 19 20 20
REMARK H PARENT
REMARK Flexibility Score: inf
ROOT
ATOM      1  C   UNL     1      20.653  17.948 -10.053  1.00  0.00     0.000 C 
ENDROOT
BRANCH   1   2
ATOM      2  C   UNL     1      19.350  18.013 -10.865  1.00  0.00     0.000 C 
BRANCH   2   3
ATOM      3  C   UNL     1      19.327  17.001 -12.022  1.00  0.00     0.000 C 
BRANCH   3   4
ATOM      4  C   UNL     1      19.115  17.670 -13.391  1.00  0.00     0.000 C 
BRANCH   4   5
ATOM      5  C   UNL     1      19.829  19.029 -13.508  1.00  0.00     0.000 C 
BRANCH   5   6
ATOM      6  C   UNL     1      18.913  20.211 -13.873  1.00  0.00     0.006 C 
BRANCH   6   7
ATOM      7  C   UNL     1      17.423  19.881 -13.723  1.00  0.00     0.053 C 
BRANCH   7   8
ATOM      8  C   UNL     1      16.815  20.700 -12.629  1.00  0.00     0.041 C 
ATOM      9  O   UNL     1      16.731  20.237 -11.461  1.00  0.00    -0.550 OA
ATOM     10  O   UNL     1      16.382  21.995 -12.888  1.00  0.00    -0.550 OA
ENDBRANCH   7   8
ENDBRANCH   6   7
ENDBRANCH   5   6
ENDBRANCH   4   5
ENDBRANCH   3   4
ENDBRANCH   2   3
ENDBRANCH   1   2
BRANCH   1  11
ATOM     11  C   UNL     1      21.544  16.795 -10.536  1.00  0.00     0.000 C 
BRANCH  11  12
ATOM     12  C   UNL     1      22.382  16.179  -9.404  1.00  0.00     0.000 C 
BRANCH  12  13
ATOM     13  C   UNL     1      21.733  14.921  -8.802  1.00  0.00     0.000 C 
BRANCH  13  14
ATOM     14  C   UNL     1      20.606  14.360  -9.696  1.00  0.00     0.000 C 
BRANCH  14  15
ATOM     15  C   UNL     1      19.781  13.244  -9.028  1.00  0.00     0.000 C 
BRANCH  15  16
ATOM     16  C   UNL     1      20.214  12.897  -7.593  1.00  0.00     0.006 C 
BRANCH  16  17
ATOM     17  C   UNL     1      19.133  12.135  -6.815  1.00  0.00     0.053 C 
BRANCH  17  18
ATOM     18  C   UNL     1      18.119  13.089  -6.266  1.00  0.00     0.041 C 
ATOM     19  O   UNL     1      18.442  13.910  -5.367  1.00  0.00    -0.550 OA
ATOM     20  O   UNL     1      16.828  13.102  -6.781  1.00  0.00    -0.550 OA
ENDBRANCH  17  18
ENDBRANCH  16  17
ENDBRANCH  15  16
ENDBRANCH  14  15
ENDBRANCH  13  14
ENDBRANCH  12  13
ENDBRANCH  11  12
ENDBRANCH   1  11
TORSDOF 15
ENDMDL
MODEL 3
REMARK VINA RESULT:    -4.511      1.511      8.090
REMARK INTER + INTRA:          -9.831
REMARK INTER:                  -8.527
REMARK INTRA:                  -1.304
REMARK UNBOUND:                -1.365
REMARK SMILES O=C([O-])CCCCCCCCCCCCCCC(=O)[O-]
REMARK SMILES IDX 10 1 9 2 8 3 7 4 6 5 5 6 4 7 2 8 1 9 3 10 11 11 12 12 13 13
REMARK SMILES IDX 14 14 15 15 16 16 17 17 18 18 19 19 20 20
REMARK H PARENT
REMARK Flexibility Score: inf
ROOT
ATOM      1  C   UNL     1      14.524  21.750 -12.022  1.00  0.00     0.000 C 
ENDROOT
BRANCH   1   2
ATOM      2  C   UNL     1      15.897  21.989 -12.669  1.00  0.00     0.000 C 
BRANCH   2   3
ATOM      3  C   UNL     1      16.887  20.845 -12.391  1.00  0.00     0.000 C 
BRANCH   3   4
ATOM      4  C   UNL     1      17.613  20.368 -13.660  1.00  0.00     0.000 C 
BRANCH   4   5
ATOM      5  C   UNL     1      18.184  18.945 -13.521  1.00  0.00     0.000 C 
BRANCH   5   6
ATOM      6  C   UNL     1      19.608  18.873 -12.940  1.00  0.00     0.006 C 
BRANCH   6   7
ATOM      7  C   UNL     1      19.865  17.587 -12.144  1.00  0.00     0.053 C 
BRANCH   7   8
ATOM      8  C   UNL     1      19.741  17.849 -10.676  1.00  0.00     0.041 C 
ATOM      9  O   UNL     1      20.482  17.244  -9.858  1.00  0.00    -0.550 OA
ATOM     10  O   UNL     1      18.836  18.798 -10.214  1.00  0.00    -0.550 OA
ENDBRANCH   7   8
ENDBRANCH   6   7
ENDBRANCH   5   6
ENDBRANCH   4   5
ENDBRANCH   3   4
ENDBRANCH   2   3
ENDBRANCH   1   2
BRANCH   1  11
ATOM     11  C   UNL     1      13.478  22.727 -12.578  1.00  0.00     0.000 C 
BRANCH  11  12
ATOM     12  C   UNL     1      13.874  23.302 -13.947  1.00  0.00     0.000 C 
BRANCH  12  13
ATOM     13  C   UNL     1      13.870  24.840 -13.968  1.00  0.00     0.000 C 
BRANCH  13  14
ATOM     14  C   UNL     1      15.290  25.426 -14.125  1.00  0.00     0.000 C 
BRANCH  14  15
ATOM     15  C   UNL     1      15.741  26.285 -12.929  1.00  0.00     0.000 C 
BRANCH  15  16
ATOM     16  C   UNL     1      15.781  25.542 -11.582  1.00  0.00     0.006 C 
BRANCH  16  17
ATOM     17  C   UNL     1      15.323  26.417 -10.408  1.00  0.00     0.053 C 
BRANCH  17  18
ATOM     18  C   UNL     1      14.117  25.819  -9.754  1.00  0.00     0.041 C 
ATOM     19  O   UNL     1      13.156  25.405 -10.455  1.00  0.00    -0.550 OA
ATOM     20  O   UNL     1      14.075  25.677  -8.373  1.00  0.00    -0.550 OA
ENDBRANCH  17  18
ENDBRANCH  16  17
ENDBRANCH  15  16
ENDBRANCH  14  15
ENDBRANCH  13  14
ENDBRANCH  12  13
ENDBRANCH  11  12
ENDBRANCH   1  11
TORSDOF 15
ENDMDL
MODEL 4
REMARK VINA RESULT:    -4.454      1.154      8.927
REMARK INTER + INTRA:          -9.724
REMARK INTER:                  -8.695
REMARK INTRA:                  -1.029
REMARK UNBOUND:                -1.365
REMARK SMILES O=C([O-])CCCCCCCCCCCCCCC(=O)[O-]
REMARK SMILES IDX 10 1 9 2 8 3 7 4 6 5 5 6 4 7 2 8 1 9 3 10 11 11 12 12 13 13
REMARK SMILES IDX 14 14 15 15 16 16 17 17 18 18 19 19 20 20
REMARK H PARENT
REMARK Flexibility Score: inf
ROOT
ATOM      1  C   UNL     1      17.004  21.227 -12.696  1.00  0.00     0.000 C 
ENDROOT
BRANCH   1   2
ATOM      2  C   UNL     1      17.549  19.929 -13.312  1.00  0.00     0.000 C 
BRANCH   2   3
ATOM      3  C   UNL     1      18.990  20.080 -13.825  1.00  0.00     0.000 C 
BRANCH   3   4
ATOM      4  C   UNL     1      19.856  18.842 -13.536  1.00  0.00     0.000 C 
BRANCH   4   5
ATOM      5  C   UNL     1      19.020  17.596 -13.190  1.00  0.00     0.000 C 
BRANCH   5   6
ATOM      6  C   UNL     1      19.366  16.939 -11.841  1.00  0.00     0.006 C 
BRANCH   6   7
ATOM      7  C   UNL     1      19.896  17.939 -10.807  1.00  0.00     0.053 C 
BRANCH   7   8
ATOM      8  C   UNL     1      21.178  17.447 -10.214  1.00  0.00     0.041 C 
ATOM      9  O   UNL     1      22.239  17.465 -10.892  1.00  0.00    -0.550 OA
ATOM     10  O   UNL     1      21.212  17.012  -8.895  1.00  0.00    -0.550 OA
ENDBRANCH   7   8
ENDBRANCH   6   7
ENDBRANCH   5   6
ENDBRANCH   4   5
ENDBRANCH   3   4
ENDBRANCH   2   3
ENDBRANCH   1   2
BRANCH   1  11
ATOM     11  C   UNL     1      15.572  21.030 -12.179  1.00  0.00     0.000 C 
BRANCH  11  12
ATOM     12  C   UNL     1      14.728  22.311 -12.267  1.00  0.00     0.000 C 
BRANCH  12  13
ATOM     13  C   UNL     1      13.216  22.028 -12.256  1.00  0.00     0.000 C 
BRANCH  13  14
ATOM     14  C   UNL     1      12.475  22.762 -13.394  1.00  0.00     0.000 C 
BRANCH  14  15
ATOM     15  C   UNL     1      11.050  23.210 -13.019  1.00  0.00     0.000 C 
BRANCH  15  16
ATOM     16  C   UNL     1      10.933  23.897 -11.647  1.00  0.00     0.006 C 
BRANCH  16  17
ATOM     17  C   UNL     1      11.465  25.336 -11.656  1.00  0.00     0.053 C 
BRANCH  17  18
ATOM     18  C   UNL     1      12.585  25.481 -10.675  1.00  0.00     0.041 C 
ATOM     19  O   UNL     1      13.782  25.439 -11.068  1.00  0.00    -0.550 OA
ATOM     20  O   UNL     1      12.308  25.709  -9.333  1.00  0.00    -0.550 OA
ENDBRANCH  17  18
ENDBRANCH  16  17
ENDBRANCH  15  16
ENDBRANCH  14  15
ENDBRANCH  13  14
ENDBRANCH  12  13
ENDBRANCH  11  12
ENDBRANCH   1  11
TORSDOF 15
ENDMDL
MODEL 5
REMARK VINA RESULT:    -4.423      2.246      9.318
REMARK INTER + INTRA:          -9.667
REMARK INTER:                  -8.390
REMARK INTRA:                  -1.277
REMARK UNBOUND:                -1.365
REMARK SMILES O=C([O-])CCCCCCCCCCCCCCC(=O)[O-]
REMARK SMILES IDX 10 1 9 2 8 3 7 4 6 5 5 6 4 7 2 8 1 9 3 10 11 11 12 12 13 13
REMARK SMILES IDX 14 14 15 15 16 16 17 17 18 18 19 19 20 20
REMARK H PARENT
REMARK Flexibility Score: inf
ROOT
ATOM      1  C   UNL     1      19.075  18.328 -12.033  1.00  0.00     0.000 C 
ENDROOT
BRANCH   1   2
ATOM      2  C   UNL     1      19.224  16.976 -12.749  1.00  0.00     0.000 C 
BRANCH   2   3
ATOM      3  C   UNL     1      20.329  16.995 -13.817  1.00  0.00     0.000 C 
BRANCH   3   4
ATOM      4  C   UNL     1      21.496  16.051 -13.481  1.00  0.00     0.000 C 
BRANCH   4   5
ATOM      5  C   UNL     1      22.730  16.796 -12.939  1.00  0.00     0.000 C 
BRANCH   5   6
ATOM      6  C   UNL     1      22.648  17.189 -11.453  1.00  0.00     0.006 C 
BRANCH   6   7
ATOM      7  C   UNL     1      22.700  15.980 -10.511  1.00  0.00     0.053 C 
BRANCH   7   8
ATOM      8  C   UNL     1      21.522  15.985  -9.590  1.00  0.00     0.041 C 
ATOM      9  O   UNL     1      21.541  16.678  -8.539  1.00  0.00    -0.550 OA
ATOM     10  O   UNL     1      20.381  15.261  -9.916  1.00  0.00    -0.550 OA
ENDBRANCH   7   8
ENDBRANCH   6   7
ENDBRANCH   5   6
ENDBRANCH   4   5
ENDBRANCH   3   4
ENDBRANCH   2   3
ENDBRANCH   1   2
BRANCH   1  11
ATOM     11  C   UNL     1      19.127  19.488 -13.036  1.00  0.00     0.000 C 
BRANCH  11  12
ATOM     12  C   UNL     1      17.738  20.074 -13.338  1.00  0.00     0.000 C 
BRANCH  12  13
ATOM     13  C   UNL     1      16.732  19.828 -12.201  1.00  0.00     0.000 C 
BRANCH  13  14
ATOM     14  C   UNL     1      15.667  20.944 -12.111  1.00  0.00     0.000 C 
BRANCH  14  15
ATOM     15  C   UNL     1      15.964  22.157 -13.013  1.00  0.00     0.000 C 
BRANCH  15  16
ATOM     16  C   UNL     1      15.214  23.443 -12.628  1.00  0.00     0.006 C 
BRANCH  16  17
ATOM     17  C   UNL     1      13.994  23.709 -13.521  1.00  0.00     0.053 C 
BRANCH  17  18
ATOM     18  C   UNL     1      12.785  23.027 -12.964  1.00  0.00     0.041 C 
ATOM     19  O   UNL     1      12.046  22.335 -13.714  1.00  0.00    -0.550 OA
ATOM     20  O   UNL     1      12.498  23.119 -11.608  1.00  0.00    -0.550 OA
ENDBRANCH  17  18
ENDBRANCH  16  17
ENDBRANCH  15  16
ENDBRANCH  14  15
ENDBRANCH  13  14
ENDBRANCH  12  13
ENDBRANCH  11  12
ENDBRANCH   1  11
TORSDOF 15
ENDMDL
MODEL 6
REMARK VINA RESULT:    -4.417      2.022      9.358
REMARK INTER + INTRA:          -9.655
REMARK INTER:                  -8.765
REMARK INTRA:                  -0.890
REMARK UNBOUND:                -1.365
REMARK SMILES O=C([O-])CCCCCCCCCCCCCCC(=O)[O-]
REMARK SMILES IDX 10 1 9 2 8 3 7 4 6 5 5 6 4 7 2 8 1 9 3 10 11 11 12 12 13 13
REMARK SMILES IDX 14 14 15 15 16 16 17 17 18 18 19 19 20 20
REMARK H PARENT
REMARK Flexibility Score: inf
ROOT
ATOM      1  C   UNL     1      18.034  20.383 -13.068  1.00  0.00     0.000 C 
ENDROOT
BRANCH   1   2
ATOM      2  C   UNL     1      17.749  19.048 -13.773  1.00  0.00     0.000 C 
BRANCH   2   3
ATOM      3  C   UNL     1      18.818  17.984 -13.473  1.00  0.00     0.000 C 
BRANCH   3   4
ATOM      4  C   UNL     1      18.877  17.605 -11.984  1.00  0.00     0.000 C 
BRANCH   4   5
ATOM      5  C   UNL     1      20.250  17.050 -11.562  1.00  0.00     0.000 C 
BRANCH   5   6
ATOM      6  C   UNL     1      20.837  17.679 -10.285  1.00  0.00     0.006 C 
BRANCH   6   7
ATOM      7  C   UNL     1      22.262  17.199  -9.983  1.00  0.00     0.053 C 
BRANCH   7   8
ATOM      8  C   UNL     1      22.229  15.963  -9.142  1.00  0.00     0.041 C 
ATOM      9  O   UNL     1      22.596  14.859  -9.622  1.00  0.00    -0.550 OA
ATOM     10  O   UNL     1      21.837  16.039  -7.811  1.00  0.00    -0.550 OA
ENDBRANCH   7   8
ENDBRANCH   6   7
ENDBRANCH   5   6
ENDBRANCH   4   5
ENDBRANCH   3   4
ENDBRANCH   2   3
ENDBRANCH   1   2
BRANCH   1  11
ATOM     11  C   UNL     1      16.793  21.287 -13.085  1.00  0.00     0.000 C 
BRANCH  11  12
ATOM     12  C   UNL     1      15.767  20.905 -12.007  1.00  0.00     0.000 C 
BRANCH  12  13
ATOM     13  C   UNL     1      14.497  21.771 -12.063  1.00  0.00     0.000 C 
BRANCH  13  14
ATOM     14  C   UNL     1      14.785  23.200 -12.574  1.00  0.00     0.000 C 
BRANCH  14  15
ATOM     15  C   UNL     1      14.000  23.574 -13.844  1.00  0.00     0.000 C 
BRANCH  15  16
ATOM     16  C   UNL     1      12.541  23.086 -13.865  1.00  0.00     0.006 C 
BRANCH  16  17
ATOM     17  C   UNL     1      11.554  24.142 -13.349  1.00  0.00     0.053 C 
BRANCH  17  18
ATOM     18  C   UNL     1      11.199  23.867 -11.923  1.00  0.00     0.041 C 
ATOM     19  O   UNL     1      11.843  24.418 -10.991  1.00  0.00    -0.550 OA
ATOM     20  O   UNL     1      10.125  23.038 -11.622  1.00  0.00    -0.550 OA
ENDBRANCH  17  18
ENDBRANCH  16  17
ENDBRANCH  15  16
ENDBRANCH  14  15
ENDBRANCH  13  14
ENDBRANCH  12  13
ENDBRANCH  11  12
ENDBRANCH   1  11
TORSDOF 15
ENDMDL
MODEL 7
REMARK VINA RESULT:    -4.390     10.333     11.088
REMARK INTER + INTRA:          -9.604
REMARK INTER:                  -8.426
REMARK INTRA:                  -1.178
REMARK UNBOUND:                -1.365
REMARK SMILES O=C([O-])CCCCCCCCCCCCCCC(=O)[O-]
REMARK SMILES IDX 10 1 9 2 8 3 7 4 6 5 5 6 4 7 2 8 1 9 3 10 11 11 12 12 13 13
REMARK SMILES IDX 14 14 15 15 16 16 17 17 18 18 19 19 20 20
REMARK H PARENT
REMARK Flexibility Score: inf
ROOT
ATOM      1  C   UNL     1       8.997  14.851  -9.907  1.00  0.00     0.000 C 
ENDROOT
BRANCH   1   2
ATOM      2  C   UNL     1       7.993  15.586  -9.004  1.00  0.00     0.000 C 
BRANCH   2   3
ATOM      3  C   UNL     1       6.558  15.060  -9.169  1.00  0.00     0.000 C 
BRANCH   3   4
ATOM      4  C   UNL     1       6.000  14.445  -7.874  1.00  0.00     0.000 C 
BRANCH   4   5
ATOM      5  C   UNL     1       4.786  15.214  -7.322  1.00  0.00     0.000 C 
BRANCH   5   6
ATOM      6  C   UNL     1       4.736  16.704  -7.704  1.00  0.00     0.006 C 
BRANCH   6   7
ATOM      7  C   UNL     1       4.642  17.631  -6.486  1.00  0.00     0.053 C 
BRANCH   7   8
ATOM      8  C   UNL     1       5.997  17.847  -5.889  1.00  0.00     0.041 C 
ATOM      9  O   UNL     1       7.023  17.815  -6.617  1.00  0.00    -0.550 OA
ATOM     10  O   UNL     1       6.122  18.131  -4.535  1.00  0.00    -0.550 OA
ENDBRANCH   7   8
ENDBRANCH   6   7
ENDBRANCH   5   6
ENDBRANCH   4   5
ENDBRANCH   3   4
ENDBRANCH   2   3
ENDBRANCH   1   2
BRANCH   1  11
ATOM     11  C   UNL     1       8.483  13.451 -10.270  1.00  0.00     0.000 C 
BRANCH  11  12
ATOM     12  C   UNL     1       9.620  12.439 -10.482  1.00  0.00     0.000 C 
BRANCH  12  13
ATOM     13  C   UNL     1      11.014  13.081 -10.370  1.00  0.00     0.000 C 
BRANCH  13  14
ATOM     14  C   UNL     1      11.926  12.329  -9.376  1.00  0.00     0.000 C 
BRANCH  14  15
ATOM     15  C   UNL     1      11.229  11.158  -8.659  1.00  0.00     0.000 C 
BRANCH  15  16
ATOM     16  C   UNL     1      11.221  11.257  -7.124  1.00  0.00     0.006 C 
BRANCH  16  17
ATOM     17  C   UNL     1      12.628  11.174  -6.517  1.00  0.00     0.053 C 
BRANCH  17  18
ATOM     18  C   UNL     1      12.941  12.425  -5.760  1.00  0.00     0.041 C 
ATOM     19  O   UNL     1      13.601  13.349  -6.307  1.00  0.00    -0.550 OA
ATOM     20  O   UNL     1      12.466  12.591  -4.465  1.00  0.00    -0.550 OA
ENDBRANCH  17  18
ENDBRANCH  16  17
ENDBRANCH  15  16
ENDBRANCH  14  15
ENDBRANCH  13  14
ENDBRANCH  12  13
ENDBRANCH  11  12
ENDBRANCH   1  11
TORSDOF 15
ENDMDL
MODEL 8
REMARK VINA RESULT:    -4.352      4.140      7.023
REMARK INTER + INTRA:          -9.534
REMARK INTER:                  -7.270
REMARK INTRA:                  -2.264
REMARK UNBOUND:                -1.365
REMARK SMILES O=C([O-])CCCCCCCCCCCCCCC(=O)[O-]
REMARK SMILES IDX 10 1 9 2 8 3 7 4 6 5 5 6 4 7 2 8 1 9 3 10 11 11 12 12 13 13
REMARK SMILES IDX 14 14 15 15 16 16 17 17 18 18 19 19 20 20
REMARK H PARENT
REMARK Flexibility Score: inf
ROOT
ATOM      1  C   UNL     1      21.138  17.398  -9.896  1.00  0.00     0.000 C 
ENDROOT
BRANCH   1   2
ATOM      2  C   UNL     1      20.079  18.111 -10.751  1.00  0.00     0.000 C 
BRANCH   2   3
ATOM      3  C   UNL     1      19.242  17.131 -11.590  1.00  0.00     0.000 C 
BRANCH   3   4
ATOM      4  C   UNL     1      19.275  17.460 -13.092  1.00  0.00     0.000 C 
BRANCH   4   5
ATOM      5  C   UNL     1      20.009  18.778 -13.400  1.00  0.00     0.000 C 
BRANCH   5   6
ATOM      6  C   UNL     1      19.103  19.926 -13.882  1.00  0.00     0.006 C 
BRANCH   6   7
ATOM      7  C   UNL     1      17.609  19.594 -13.775  1.00  0.00     0.053 C 
BRANCH   7   8
ATOM      8  C   UNL     1      16.992  20.333 -12.630  1.00  0.00     0.041 C 
ATOM      9  O   UNL     1      16.829  19.761 -11.520  1.00  0.00    -0.550 OA
ATOM     10  O   UNL     1      16.640  21.669 -12.774  1.00  0.00    -0.550 OA
ENDBRANCH   7   8
ENDBRANCH   6   7
ENDBRANCH   5   6
ENDBRANCH   4   5
ENDBRANCH   3   4
ENDBRANCH   2   3
ENDBRANCH   1   2
BRANCH   1  11
ATOM     11  C   UNL     1      22.524  17.490 -10.551  1.00  0.00     0.000 C 
BRANCH  11  12
ATOM     12  C   UNL     1      23.073  16.117 -10.969  1.00  0.00     0.000 C 
BRANCH  12  13
ATOM     13  C   UNL     1      22.759  15.773 -12.435  1.00  0.00     0.000 C 
BRANCH  13  14
ATOM     14  C   UNL     1      21.692  14.664 -12.560  1.00  0.00     0.000 C 
BRANCH  14  15
ATOM     15  C   UNL     1      21.970  13.435 -11.675  1.00  0.00     0.000 C 
BRANCH  15  16
ATOM     16  C   UNL     1      20.729  12.846 -10.982  1.00  0.00     0.006 C 
BRANCH  16  17
ATOM     17  C   UNL     1      20.072  13.831 -10.006  1.00  0.00     0.053 C 
BRANCH  17  18
ATOM     18  C   UNL     1      20.514  13.547  -8.605  1.00  0.00     0.041 C 
ATOM     19  O   UNL     1      20.348  12.401  -8.108  1.00  0.00    -0.550 OA
ATOM     20  O   UNL     1      21.152  14.534  -7.865  1.00  0.00    -0.550 OA
ENDBRANCH  17  18
ENDBRANCH  16  17
ENDBRANCH  15  16
ENDBRANCH  14  15
ENDBRANCH  13  14
ENDBRANCH  12  13
ENDBRANCH  11  12
ENDBRANCH   1  11
TORSDOF 15
ENDMDL
MODEL 9
REMARK VINA RESULT:    -4.349     10.363     13.615
REMARK INTER + INTRA:          -9.526
REMARK INTER:                  -8.213
REMARK INTRA:                  -1.313
REMARK UNBOUND:                -1.365
REMARK SMILES O=C([O-])CCCCCCCCCCCCCCC(=O)[O-]
REMARK SMILES IDX 10 1 9 2 8 3 7 4 6 5 5 6 4 7 2 8 1 9 3 10 11 11 12 12 13 13
REMARK SMILES IDX 14 14 15 15 16 16 17 17 18 18 19 19 20 20
REMARK H PARENT
REMARK Flexibility Score: inf
ROOT
ATOM      1  C   UNL     1       8.698  14.103  -9.937  1.00  0.00     0.000 C 
ENDROOT
BRANCH   1   2
ATOM      2  C   UNL     1       8.344  13.526  -8.557  1.00  0.00     0.000 C 
BRANCH   2   3
ATOM      3  C   UNL     1       9.047  12.187  -8.281  1.00  0.00     0.000 C 
BRANCH   3   4
ATOM      4  C   UNL     1       9.653  11.563  -9.549  1.00  0.00     0.000 C 
BRANCH   4   5
ATOM      5  C   UNL     1      11.175  11.353  -9.442  1.00  0.00     0.000 C 
BRANCH   5   6
ATOM      6  C   UNL     1      11.883  12.261  -8.420  1.00  0.00     0.006 C 
BRANCH   6   7
ATOM      7  C   UNL     1      13.411  12.137  -8.467  1.00  0.00     0.053 C 
BRANCH   7   8
ATOM      8  C   UNL     1      14.017  12.677  -7.211  1.00  0.00     0.041 C 
ATOM      9  O   UNL     1      13.281  13.119  -6.290  1.00  0.00    -0.550 OA
ATOM     10  O   UNL     1      15.396  12.647  -7.036  1.00  0.00    -0.550 OA
ENDBRANCH   7   8
ENDBRANCH   6   7
ENDBRANCH   5   6
ENDBRANCH   4   5
ENDBRANCH   3   4
ENDBRANCH   2   3
ENDBRANCH   1   2
BRANCH   1  11
ATOM     11  C   UNL     1       7.444  14.627 -10.650  1.00  0.00     0.000 C 
BRANCH  11  12
ATOM     12  C   UNL     1       6.420  15.236  -9.679  1.00  0.00     0.000 C 
BRANCH  12  13
ATOM     13  C   UNL     1       5.001  14.677  -9.885  1.00  0.00     0.000 C 
BRANCH  13  14
ATOM     14  C   UNL     1       4.296  14.365  -8.548  1.00  0.00     0.000 C 
BRANCH  14  15
ATOM     15  C   UNL     1       5.018  14.942  -7.316  1.00  0.00     0.000 C 
BRANCH  15  16
ATOM     16  C   UNL     1       4.303  16.129  -6.648  1.00  0.00     0.006 C 
BRANCH  16  17
ATOM     17  C   UNL     1       4.903  17.484  -7.047  1.00  0.00     0.053 C 
BRANCH  17  18
ATOM     18  C   UNL     1       6.202  17.705  -6.338  1.00  0.00     0.041 C 
ATOM     19  O   UNL     1       7.293  17.495  -6.933  1.00  0.00    -0.550 OA
ATOM     20  O   UNL     1       6.209  18.187  -5.035  1.00  0.00    -0.550 OA
ENDBRANCH  17  18
ENDBRANCH  16  17
ENDBRANCH  15  16
ENDBRANCH  14  15
ENDBRANCH  13  14
ENDBRANCH  12  13
ENDBRANCH  11  12
ENDBRANCH   1  11
TORSDOF 15
ENDMDL
