MODEL 1
REMARK VINA RESULT:    -4.433      0.000      0.000
REMARK INTER + INTRA:          -4.433
REMARK INTER:                  -4.433
REMARK INTRA:                   0.000
REMARK UNBOUND:                 0.000
REMARK SMILES CC1=CC(=O)[C@@H]2C[C@H]1C2(C)C
REMARK SMILES IDX 1 1 2 2 3 3 4 4 5 5 6 6 7 7 8 8 9 9 10 10 11 11
REMARK H PARENT
REMARK Flexibility Score: inf
ROOT
ATOM      1  C   UNL     1       2.578  11.009  -9.470  1.00  0.00     0.040 C 
ATOM      2  C   UNL     1       2.058   9.737 -10.059  1.00  0.00    -0.066 C 
ATOM      3  C   UNL     1       2.828   8.969 -10.879  1.00  0.00     0.047 C 
ATOM      4  C   UNL     1       2.203   7.701 -11.380  1.00  0.00     0.159 C 
ATOM      5  O   UNL     1       2.825   6.889 -12.112  1.00  0.00    -0.295 OA
ATOM      6  C   UNL     1       0.759   7.465 -10.939  1.00  0.00     0.067 C 
ATOM      7  C   UNL     1       0.066   8.827 -11.165  1.00  0.00     0.021 C 
ATOM      8  C   UNL     1       0.623   9.241  -9.783  1.00  0.00     0.022 C 
ATOM      9  C   UNL     1       0.659   7.730  -9.409  1.00  0.00    -0.019 C 
ATOM     10  C   UNL     1      -0.684   7.238  -8.811  1.00  0.00     0.012 C 
ATOM     11  C   UNL     1       1.812   7.227  -8.495  1.00  0.00     0.012 C 
ENDROOT
TORSDOF 0
ENDMDL
MODEL 2
REMARK VINA RESULT:    -4.295      0.878      3.118
REMARK INTER + INTRA:          -4.295
REMARK INTER:                  -4.295
REMARK INTRA:                   0.000
REMARK UNBOUND:                 0.000
REMARK SMILES CC1=CC(=O)[C@@H]2C[C@H]1C2(C)C
REMARK SMILES IDX 1 1 2 2 3 3 4 4 5 5 6 6 7 7 8 8 9 9 10 10 11 11
REMARK H PARENT
REMARK Flexibility Score: inf
ROOT
ATOM      1  C   UNL     1      -1.623   7.302  -9.585  1.00  0.00     0.040 C 
ATOM      2  C   UNL     1      -0.183   7.578  -9.878  1.00  0.00    -0.066 C 
ATOM      3  C   UNL     1       0.444   7.013 -10.948  1.00  0.00     0.047 C 
ATOM      4  C   UNL     1       1.880   7.393 -11.152  1.00  0.00     0.159 C 
ATOM      5  O   UNL     1       2.555   6.969 -12.125  1.00  0.00    -0.295 OA
ATOM      6  C   UNL     1       2.464   8.333 -10.098  1.00  0.00     0.067 C 
ATOM      7  C   UNL     1       1.992   7.735  -8.754  1.00  0.00     0.021 C 
ATOM      8  C   UNL     1       0.667   8.500  -8.978  1.00  0.00     0.022 C 
ATOM      9  C   UNL     1       1.463   9.501  -9.866  1.00  0.00    -0.019 C 
ATOM     10  C   UNL     1       2.085  10.657  -9.041  1.00  0.00     0.012 C 
ATOM     11  C   UNL     1       0.747  10.117 -11.102  1.00  0.00     0.012 C 
ENDROOT
TORSDOF 0
ENDMDL
MODEL 3
REMARK VINA RESULT:    -4.227      2.137      3.284
REMARK INTER + INTRA:          -4.227
REMARK INTER:                  -4.227
REMARK INTRA:                   0.000
REMARK UNBOUND:                 0.000
REMARK SMILES CC1=CC(=O)[C@@H]2C[C@H]1C2(C)C
REMARK SMILES IDX 1 1 2 2 3 3 4 4 5 5 6 6 7 7 8 8 9 9 10 10 11 11
REMARK H PARENT
REMARK Flexibility Score: inf
ROOT
ATOM      1  C   UNL     1       2.280   7.252 -12.065  1.00  0.00     0.040 C 
ATOM      2  C   UNL     1       1.348   7.538 -10.931  1.00  0.00    -0.066 C 
ATOM      3  C   UNL     1       1.782   8.146  -9.792  1.00  0.00     0.047 C 
ATOM      4  C   UNL     1       0.744   8.405  -8.741  1.00  0.00     0.159 C 
ATOM      5  O   UNL     1       1.012   8.994  -7.663  1.00  0.00    -0.295 OA
ATOM      6  C   UNL     1      -0.662   7.906  -9.073  1.00  0.00     0.067 C 
ATOM      7  C   UNL     1      -0.437   6.480  -9.622  1.00  0.00     0.021 C 
ATOM      8  C   UNL     1      -0.144   7.145 -10.987  1.00  0.00     0.022 C 
ATOM      9  C   UNL     1      -1.015   8.348 -10.522  1.00  0.00    -0.019 C 
ATOM     10  C   UNL     1      -2.518   8.150 -10.850  1.00  0.00     0.012 C 
ATOM     11  C   UNL     1      -0.602   9.776 -10.981  1.00  0.00     0.012 C 
ENDROOT
TORSDOF 0
ENDMDL
MODEL 4
REMARK VINA RESULT:    -4.185      1.950      3.085
REMARK INTER + INTRA:          -4.185
REMARK INTER:                  -4.185
REMARK INTRA:                   0.000
REMARK UNBOUND:                 0.000
REMARK SMILES CC1=CC(=O)[C@@H]2C[C@H]1C2(C)C
REMARK SMILES IDX 1 1 2 2 3 3 4 4 5 5 6 6 7 7 8 8 9 9 10 10 11 11
REMARK H PARENT
REMARK Flexibility Score: inf
ROOT
ATOM      1  C   UNL     1       1.762   7.182  -8.018  1.00  0.00     0.040 C 
ATOM      2  C   UNL     1       0.819   7.762  -9.023  1.00  0.00    -0.066 C 
ATOM      3  C   UNL     1       0.995   9.020  -9.516  1.00  0.00     0.047 C 
ATOM      4  C   UNL     1      -0.001   9.475 -10.541  1.00  0.00     0.159 C 
ATOM      5  O   UNL     1       0.076  10.600 -11.099  1.00  0.00    -0.295 OA
ATOM      6  C   UNL     1      -1.114   8.477 -10.861  1.00  0.00     0.067 C 
ATOM      7  C   UNL     1      -1.582   7.977  -9.476  1.00  0.00     0.021 C 
ATOM      8  C   UNL     1      -0.405   6.975  -9.537  1.00  0.00     0.022 C 
ATOM      9  C   UNL     1      -0.473   7.078 -11.088  1.00  0.00    -0.019 C 
ATOM     10  C   UNL     1      -1.473   6.064 -11.703  1.00  0.00     0.012 C 
ATOM     11  C   UNL     1       0.857   6.995 -11.890  1.00  0.00     0.012 C 
ENDROOT
TORSDOF 0
ENDMDL
MODEL 5
REMARK VINA RESULT:    -4.174      1.777      3.235
REMARK INTER + INTRA:          -4.174
REMARK INTER:                  -4.174
REMARK INTRA:                   0.000
REMARK UNBOUND:                 0.000
REMARK SMILES CC1=CC(=O)[C@@H]2C[C@H]1C2(C)C
REMARK SMILES IDX 1 1 2 2 3 3 4 4 5 5 6 6 7 7 8 8 9 9 10 10 11 11
REMARK H PARENT
REMARK Flexibility Score: inf
ROOT
ATOM      1  C   UNL     1       1.074   7.790  -7.653  1.00  0.00     0.040 C 
ATOM      2  C   UNL     1       0.839   7.617  -9.120  1.00  0.00    -0.066 C 
ATOM      3  C   UNL     1      -0.076   6.725  -9.591  1.00  0.00     0.047 C 
ATOM      4  C   UNL     1      -0.241   6.667 -11.080  1.00  0.00     0.159 C 
ATOM      5  O   UNL     1      -1.081   5.912 -11.634  1.00  0.00    -0.295 OA
ATOM      6  C   UNL     1       0.681   7.590 -11.877  1.00  0.00     0.067 C 
ATOM      7  C   UNL     1       2.069   7.388 -11.229  1.00  0.00     0.021 C 
ATOM      8  C   UNL     1       1.630   8.425 -10.170  1.00  0.00     0.022 C 
ATOM      9  C   UNL     1       0.647   9.004 -11.228  1.00  0.00    -0.019 C 
ATOM     10  C   UNL     1       1.311  10.081 -12.125  1.00  0.00     0.012 C 
ATOM     11  C   UNL     1      -0.721   9.557 -10.736  1.00  0.00     0.012 C 
ENDROOT
TORSDOF 0
ENDMDL
MODEL 6
REMARK VINA RESULT:    -4.132      1.821      3.357
REMARK INTER + INTRA:          -4.132
REMARK INTER:                  -4.132
REMARK INTRA:                   0.000
REMARK UNBOUND:                 0.000
REMARK SMILES CC1=CC(=O)[C@@H]2C[C@H]1C2(C)C
REMARK SMILES IDX 1 1 2 2 3 3 4 4 5 5 6 6 7 7 8 8 9 9 10 10 11 11
REMARK H PARENT
REMARK Flexibility Score: inf
ROOT
ATOM      1  C   UNL     1      -1.462  10.147 -11.332  1.00  0.00     0.040 C 
ATOM      2  C   UNL     1      -0.613   9.168 -10.587  1.00  0.00    -0.066 C 
ATOM      3  C   UNL     1      -1.143   8.034 -10.050  1.00  0.00     0.047 C 
ATOM      4  C   UNL     1      -0.182   7.117  -9.353  1.00  0.00     0.159 C 
ATOM      5  O   UNL     1      -0.543   6.022  -8.851  1.00  0.00    -0.295 OA
ATOM      6  C   UNL     1       1.265   7.606  -9.298  1.00  0.00     0.067 C 
ATOM      7  C   UNL     1       1.147   9.089  -8.880  1.00  0.00     0.021 C 
ATOM      8  C   UNL     1       0.898   9.400 -10.374  1.00  0.00     0.022 C 
ATOM      9  C   UNL     1       1.676   8.096 -10.716  1.00  0.00    -0.019 C 
ATOM     10  C   UNL     1       3.204   8.335 -10.837  1.00  0.00     0.012 C 
ATOM     11  C   UNL     1       1.215   7.265 -11.947  1.00  0.00     0.012 C 
ENDROOT
TORSDOF 0
ENDMDL
MODEL 7
REMARK VINA RESULT:    -4.008      2.181      3.758
REMARK INTER + INTRA:          -4.008
REMARK INTER:                  -4.008
REMARK INTRA:                   0.000
REMARK UNBOUND:                 0.000
REMARK SMILES CC1=CC(=O)[C@@H]2C[C@H]1C2(C)C
REMARK SMILES IDX 1 1 2 2 3 3 4 4 5 5 6 6 7 7 8 8 9 9 10 10 11 11
REMARK H PARENT
REMARK Flexibility Score: inf
ROOT
ATOM      1  C   UNL     1      -3.459   9.330  -9.882  1.00  0.00     0.040 C 
ATOM      2  C   UNL     1      -2.311   8.395 -10.090  1.00  0.00    -0.066 C 
ATOM      3  C   UNL     1      -2.325   7.465 -11.085  1.00  0.00     0.047 C 
ATOM      4  C   UNL     1      -1.101   6.608 -11.209  1.00  0.00     0.159 C 
ATOM      5  O   UNL     1      -0.978   5.740 -12.112  1.00  0.00    -0.295 OA
ATOM      6  C   UNL     1      -0.015   6.863 -10.165  1.00  0.00     0.067 C 
ATOM      7  C   UNL     1      -0.786   6.945  -8.829  1.00  0.00     0.021 C 
ATOM      8  C   UNL     1      -1.064   8.425  -9.180  1.00  0.00     0.022 C 
ATOM      9  C   UNL     1       0.220   8.397 -10.060  1.00  0.00    -0.019 C 
ATOM     10  C   UNL     1       1.497   8.744  -9.251  1.00  0.00     0.012 C 
ATOM     11  C   UNL     1       0.232   9.234 -11.370  1.00  0.00     0.012 C 
ENDROOT
TORSDOF 0
ENDMDL
MODEL 8
REMARK VINA RESULT:    -3.919      1.730      3.449
REMARK INTER + INTRA:          -3.919
REMARK INTER:                  -3.919
REMARK INTRA:                   0.000
REMARK UNBOUND:                 0.000
REMARK SMILES CC1=CC(=O)[C@@H]2C[C@H]1C2(C)C
REMARK SMILES IDX 1 1 2 2 3 3 4 4 5 5 6 6 7 7 8 8 9 9 10 10 11 11
REMARK H PARENT
REMARK Flexibility Score: inf
ROOT
ATOM      1  C   UNL     1       1.459   7.269  -7.694  1.00  0.00     0.040 C 
ATOM      2  C   UNL     1       1.215   7.915  -9.020  1.00  0.00    -0.066 C 
ATOM      3  C   UNL     1      -0.006   8.421  -9.347  1.00  0.00     0.047 C 
ATOM      4  C   UNL     1      -0.115   9.072 -10.694  1.00  0.00     0.159 C 
ATOM      5  O   UNL     1      -1.179   9.610 -11.096  1.00  0.00    -0.295 OA
ATOM      6  C   UNL     1       1.156   9.037 -11.542  1.00  0.00     0.067 C 
ATOM      7  C   UNL     1       1.660   7.583 -11.409  1.00  0.00     0.021 C 
ATOM      8  C   UNL     1       2.326   8.026 -10.086  1.00  0.00     0.022 C 
ATOM      9  C   UNL     1       2.356   9.475 -10.654  1.00  0.00    -0.019 C 
ATOM     10  C   UNL     1       3.634   9.756 -11.486  1.00  0.00     0.012 C 
ATOM     11  C   UNL     1       2.150  10.657  -9.665  1.00  0.00     0.012 C 
ENDROOT
TORSDOF 0
ENDMDL
MODEL 9
REMARK VINA RESULT:    -3.773      9.402     10.824
REMARK INTER + INTRA:          -3.773
REMARK INTER:                  -3.773
REMARK INTRA:                   0.000
REMARK UNBOUND:                 0.000
REMARK SMILES CC1=CC(=O)[C@@H]2C[C@H]1C2(C)C
REMARK SMILES IDX 1 1 2 2 3 3 4 4 5 5 6 6 7 7 8 8 9 9 10 10 11 11
REMARK H PARENT
REMARK Flexibility Score: inf
ROOT
ATOM      1  C   UNL     1      12.910  10.482  -8.143  1.00  0.00     0.040 C 
ATOM      2  C   UNL     1      11.886  10.092  -7.126  1.00  0.00    -0.066 C 
ATOM      3  C   UNL     1      12.015   8.952  -6.391  1.00  0.00     0.047 C 
ATOM      4  C   UNL     1      10.938   8.688  -5.382  1.00  0.00     0.159 C 
ATOM      5  O   UNL     1      10.965   7.690  -4.616  1.00  0.00    -0.295 OA
ATOM      6  C   UNL     1       9.807   9.716  -5.347  1.00  0.00     0.067 C 
ATOM      7  C   UNL     1       9.455   9.941  -6.834  1.00  0.00     0.021 C 
ATOM      8  C   UNL     1      10.627  10.948  -6.870  1.00  0.00     0.022 C 
ATOM      9  C   UNL     1      10.433  11.140  -5.337  1.00  0.00    -0.019 C 
ATOM     10  C   UNL     1       9.392  12.240  -5.008  1.00  0.00     0.012 C 
ATOM     11  C   UNL     1      11.695  11.387  -4.462  1.00  0.00     0.012 C 
ENDROOT
TORSDOF 0
ENDMDL
