MODEL 1
REMARK VINA RESULT:    -6.035      0.000      0.000
REMARK INTER + INTRA:         -11.346
REMARK INTER:                  -9.564
REMARK INTRA:                  -1.783
REMARK UNBOUND:                -1.783
REMARK SMILES C[C@@H]1O[C@@H](O[C@H]2[C@@H](Oc3cc(O)c4c(c3)O[C@@H](c3ccc(O)cc3)CC4=O)O[C@H](CO)[C@H](O)[C@@H]2O)[C@H](O)[C@H](O)[C@@H]1O
REMARK SMILES IDX 6 1 34 2 32 3 29 4 28 5 7 6 5 7 4 8 1 9 2 10 40 11 3 12
REMARK SMILES IDX 38 13 36 14 41 15 39 17 37 19 35 21 8 23 9 24 10 25 15 26
REMARK SMILES IDX 11 27 14 28 13 29 16 30 26 31 17 32 27 33 25 34 12 35 18 37
REMARK SMILES IDX 19 38 24 39 20 40 23 41 21 42 22 43 33 45 30 47 31 48
REMARK H PARENT 41 16 39 18 37 20 35 22 12 36 22 44 33 46 31 49
REMARK Flexibility Score: inf
ROOT
ATOM      1  C   UNL     1      20.934  -2.477  30.496  1.00  0.00     0.221 C 
ATOM      2  C   UNL     1      20.886  -2.417  32.035  1.00  0.00     0.181 C 
ATOM      3  C   UNL     1      22.303  -2.574  32.604  1.00  0.00     0.177 C 
ATOM      4  C   UNL     1      23.223  -1.520  31.939  1.00  0.00     0.179 C 
ATOM      5  O   UNL     1      23.272  -1.723  30.537  1.00  0.00    -0.332 OA
ATOM      6  C   UNL     1      22.001  -1.505  29.944  1.00  0.00     0.339 C 
ENDROOT
BRANCH   1   7
ATOM      7  O   UNL     1      19.671  -2.107  29.961  1.00  0.00    -0.337 OA
BRANCH   7   8
ATOM      8  C   UNL     1      19.437  -2.721  28.701  1.00  0.00     0.282 C 
ATOM      9  C   UNL     1      15.756  -2.805  28.762  1.00  0.00     0.041 C 
ATOM     10  C   UNL     1      17.179  -3.178  29.175  1.00  0.00     0.150 C 
ATOM     11  C   UNL     1      17.374  -4.708  29.190  1.00  0.00     0.174 C 
ATOM     12  O   UNL     1      18.086  -2.571  28.274  1.00  0.00    -0.344 OA
ATOM     13  C   UNL     1      18.822  -4.998  29.629  1.00  0.00     0.179 C 
ATOM     14  C   UNL     1      19.839  -4.212  28.772  1.00  0.00     0.202 C 
BRANCH  11  15
ATOM     15  O   UNL     1      17.133  -5.238  27.906  1.00  0.00    -0.388 OA
ATOM     16  H   UNL     1      17.693  -4.727  27.264  1.00  0.00     0.211 HD
ENDBRANCH  11  15
BRANCH  13  17
ATOM     17  O   UNL     1      19.114  -6.376  29.642  1.00  0.00    -0.387 OA
ATOM     18  H   UNL     1      20.011  -6.497  30.048  1.00  0.00     0.211 HD
ENDBRANCH  13  17
BRANCH  14  19
ATOM     19  O   UNL     1      19.900  -4.739  27.469  1.00  0.00    -0.385 OA
ATOM     20  H   UNL     1      20.228  -4.001  26.887  1.00  0.00     0.211 HD
ENDBRANCH  14  19
ENDBRANCH   7   8
ENDBRANCH   1   7
BRANCH   2  21
ATOM     21  O   UNL     1      20.065  -3.440  32.537  1.00  0.00    -0.387 OA
ATOM     22  H   UNL     1      19.934  -3.260  33.507  1.00  0.00     0.211 HD
ENDBRANCH   2  21
BRANCH   6  23
ATOM     23  O   UNL     1      21.597  -0.142  30.108  1.00  0.00    -0.462 OA
BRANCH  23  24
ATOM     24  C   UNL     1      22.364   0.908  29.595  1.00  0.00     0.130 A 
ATOM     25  C   UNL     1      22.690   1.988  30.422  1.00  0.00     0.093 A 
ATOM     26  C   UNL     1      22.803   0.889  28.270  1.00  0.00     0.094 A 
ATOM     27  C   UNL     1      23.499   3.031  29.952  1.00  0.00     0.133 A 
ATOM     28  C   UNL     1      23.619   1.917  27.789  1.00  0.00     0.138 A 
ATOM     29  C   UNL     1      24.029   2.966  28.637  1.00  0.00     0.102 A 
ATOM     30  O   UNL     1      24.036   1.889  26.457  1.00  0.00    -0.484 OA
ATOM     31  C   UNL     1      25.084   3.879  28.124  1.00  0.00     0.174 C 
ATOM     32  C   UNL     1      24.480   3.080  25.795  1.00  0.00     0.211 C 
ATOM     33  O   UNL     1      25.778   4.584  28.905  1.00  0.00    -0.294 OA
ATOM     34  C   UNL     1      25.521   3.782  26.688  1.00  0.00     0.131 C 
BRANCH  27  35
ATOM     35  O   UNL     1      23.739   4.103  30.815  1.00  0.00    -0.507 OA
ATOM     36  H   UNL     1      24.494   4.767  30.680  1.00  0.00     0.293 HD
ENDBRANCH  27  35
BRANCH  32  37
ATOM     37  C   UNL     1      23.276   3.908  25.353  1.00  0.00    -0.007 A 
ATOM     38  C   UNL     1      21.976   3.368  25.271  1.00  0.00     0.011 A 
ATOM     39  C   UNL     1      23.429   5.303  25.234  1.00  0.00     0.011 A 
ATOM     40  C   UNL     1      20.869   4.202  25.080  1.00  0.00     0.046 A 
ATOM     41  C   UNL     1      22.324   6.128  25.037  1.00  0.00     0.046 A 
ATOM     42  C   UNL     1      21.036   5.589  24.990  1.00  0.00     0.115 A 
BRANCH  42  43
ATOM     43  O   UNL     1      19.936   6.441  24.894  1.00  0.00    -0.508 OA
ATOM     44  H   UNL     1      20.037   7.451  24.875  1.00  0.00     0.293 HD
ENDBRANCH  42  43
ENDBRANCH  32  37
ENDBRANCH  23  24
ENDBRANCH   6  23
BRANCH   3  45
ATOM     45  O   UNL     1      22.782  -3.870  32.347  1.00  0.00    -0.387 OA
ATOM     46  H   UNL     1      22.625  -4.410  33.164  1.00  0.00     0.211 HD
ENDBRANCH   3  45
BRANCH   4  47
ATOM     47  C   UNL     1      24.649  -1.559  32.493  1.00  0.00     0.191 C 
BRANCH  47  48
ATOM     48  O   UNL     1      25.370  -2.629  31.928  1.00  0.00    -0.394 OA
ATOM     49  H   UNL     1      24.712  -3.323  31.682  1.00  0.00     0.210 HD
ENDBRANCH  47  48
ENDBRANCH   4  47
TORSDOF 14
ENDMDL
MODEL 2
REMARK VINA RESULT:    -5.372      5.602      8.457
REMARK INTER + INTRA:         -10.294
REMARK INTER:                  -8.392
REMARK INTRA:                  -1.903
REMARK UNBOUND:                -1.783
REMARK SMILES C[C@@H]1O[C@@H](O[C@H]2[C@@H](Oc3cc(O)c4c(c3)O[C@@H](c3ccc(O)cc3)CC4=O)O[C@H](CO)[C@H](O)[C@@H]2O)[C@H](O)[C@H](O)[C@@H]1O
REMARK SMILES IDX 6 1 34 2 32 3 29 4 28 5 7 6 5 7 4 8 1 9 2 10 40 11 3 12
REMARK SMILES IDX 38 13 36 14 41 15 39 17 37 19 35 21 8 23 9 24 10 25 15 26
REMARK SMILES IDX 11 27 14 28 13 29 16 30 26 31 17 32 27 33 25 34 12 35 18 37
REMARK SMILES IDX 19 38 24 39 20 40 23 41 21 42 22 43 33 45 30 47 31 48
REMARK H PARENT 41 16 39 18 37 20 35 22 12 36 22 44 33 46 31 49
REMARK Flexibility Score: inf
ROOT
ATOM      1  C   UNL     1      17.463  -5.669  28.125  1.00  0.00     0.221 C 
ATOM      2  C   UNL     1      18.539  -6.367  28.980  1.00  0.00     0.181 C 
ATOM      3  C   UNL     1      19.770  -5.459  29.105  1.00  0.00     0.177 C 
ATOM      4  C   UNL     1      19.314  -4.077  29.633  1.00  0.00     0.179 C 
ATOM      5  O   UNL     1      18.400  -3.480  28.729  1.00  0.00    -0.332 OA
ATOM      6  C   UNL     1      17.202  -4.236  28.639  1.00  0.00     0.339 C 
ENDROOT
BRANCH   1   7
ATOM      7  O   UNL     1      16.246  -6.400  28.196  1.00  0.00    -0.337 OA
BRANCH   7   8
ATOM      8  C   UNL     1      15.545  -6.366  26.961  1.00  0.00     0.282 C 
ATOM      9  C   UNL     1      12.685  -8.511  27.849  1.00  0.00     0.041 C 
ATOM     10  C   UNL     1      14.141  -8.162  27.537  1.00  0.00     0.150 C 
ATOM     11  C   UNL     1      14.726  -9.111  26.471  1.00  0.00     0.174 C 
ATOM     12  O   UNL     1      14.201  -6.820  27.094  1.00  0.00    -0.344 OA
ATOM     13  C   UNL     1      16.192  -8.704  26.228  1.00  0.00     0.179 C 
ATOM     14  C   UNL     1      16.314  -7.198  25.909  1.00  0.00     0.202 C 
BRANCH  11  15
ATOM     15  O   UNL     1      13.983  -9.012  25.278  1.00  0.00    -0.388 OA
ATOM     16  H   UNL     1      13.737  -9.935  25.002  1.00  0.00     0.211 HD
ENDBRANCH  11  15
BRANCH  13  17
ATOM     17  O   UNL     1      16.812  -9.493  25.238  1.00  0.00    -0.387 OA
ATOM     18  H   UNL     1      17.233 -10.272  25.685  1.00  0.00     0.211 HD
ENDBRANCH  13  17
BRANCH  14  19
ATOM     19  O   UNL     1      15.798  -6.919  24.630  1.00  0.00    -0.385 OA
ATOM     20  H   UNL     1      15.382  -7.764  24.308  1.00  0.00     0.211 HD
ENDBRANCH  14  19
ENDBRANCH   7   8
ENDBRANCH   1   7
BRANCH   2  21
ATOM     21  O   UNL     1      18.915  -7.585  28.391  1.00  0.00    -0.387 OA
ATOM     22  H   UNL     1      18.584  -8.312  28.985  1.00  0.00     0.211 HD
ENDBRANCH   2  21
BRANCH   6  23
ATOM     23  O   UNL     1      16.522  -4.250  29.897  1.00  0.00    -0.462 OA
BRANCH  23  24
ATOM     24  C   UNL     1      15.574  -3.274  30.220  1.00  0.00     0.130 A 
ATOM     25  C   UNL     1      14.281  -3.665  30.583  1.00  0.00     0.093 A 
ATOM     26  C   UNL     1      15.905  -1.918  30.183  1.00  0.00     0.094 A 
ATOM     27  C   UNL     1      13.325  -2.714  30.960  1.00  0.00     0.133 A 
ATOM     28  C   UNL     1      14.965  -0.957  30.565  1.00  0.00     0.138 A 
ATOM     29  C   UNL     1      13.687  -1.344  31.018  1.00  0.00     0.102 A 
ATOM     30  O   UNL     1      15.310   0.394  30.508  1.00  0.00    -0.484 OA
ATOM     31  C   UNL     1      12.839  -0.288  31.634  1.00  0.00     0.174 C 
ATOM     32  C   UNL     1      14.304   1.413  30.455  1.00  0.00     0.211 C 
ATOM     33  O   UNL     1      11.878  -0.581  32.394  1.00  0.00    -0.294 OA
ATOM     34  C   UNL     1      13.276   1.149  31.573  1.00  0.00     0.131 C 
BRANCH  27  35
ATOM     35  O   UNL     1      12.038  -3.172  31.256  1.00  0.00    -0.507 OA
ATOM     36  H   UNL     1      11.291  -3.213  30.572  1.00  0.00     0.293 HD
ENDBRANCH  27  35
BRANCH  32  37
ATOM     37  C   UNL     1      13.763   1.536  29.033  1.00  0.00    -0.007 A 
ATOM     38  C   UNL     1      12.424   1.886  28.761  1.00  0.00     0.011 A 
ATOM     39  C   UNL     1      14.677   1.511  27.963  1.00  0.00     0.011 A 
ATOM     40  C   UNL     1      12.021   2.204  27.459  1.00  0.00     0.046 A 
ATOM     41  C   UNL     1      14.270   1.822  26.667  1.00  0.00     0.046 A 
ATOM     42  C   UNL     1      12.949   2.200  26.411  1.00  0.00     0.115 A 
BRANCH  42  43
ATOM     43  O   UNL     1      12.586   2.605  25.127  1.00  0.00    -0.508 OA
ATOM     44  H   UNL     1      11.931   3.364  24.966  1.00  0.00     0.293 HD
ENDBRANCH  42  43
ENDBRANCH  32  37
ENDBRANCH  23  24
ENDBRANCH   6  23
BRANCH   3  45
ATOM     45  O   UNL     1      20.393  -5.321  27.853  1.00  0.00    -0.387 OA
ATOM     46  H   UNL     1      20.555  -4.353  27.710  1.00  0.00     0.211 HD
ENDBRANCH   3  45
BRANCH   4  47
ATOM     47  C   UNL     1      20.488  -3.119  29.851  1.00  0.00     0.191 C 
BRANCH  47  48
ATOM     48  O   UNL     1      21.152  -2.866  28.635  1.00  0.00    -0.394 OA
ATOM     49  H   UNL     1      20.779  -3.491  27.967  1.00  0.00     0.210 HD
ENDBRANCH  47  48
ENDBRANCH   4  47
TORSDOF 14
ENDMDL
MODEL 3
REMARK VINA RESULT:    -5.289      1.866      4.026
REMARK INTER + INTRA:         -10.163
REMARK INTER:                  -8.418
REMARK INTRA:                  -1.746
REMARK UNBOUND:                -1.783
REMARK SMILES C[C@@H]1O[C@@H](O[C@H]2[C@@H](Oc3cc(O)c4c(c3)O[C@@H](c3ccc(O)cc3)CC4=O)O[C@H](CO)[C@H](O)[C@@H]2O)[C@H](O)[C@H](O)[C@@H]1O
REMARK SMILES IDX 6 1 34 2 32 3 29 4 28 5 7 6 5 7 4 8 1 9 2 10 40 11 3 12
REMARK SMILES IDX 38 13 36 14 41 15 39 17 37 19 35 21 8 23 9 24 10 25 15 26
REMARK SMILES IDX 11 27 14 28 13 29 16 30 26 31 17 32 27 33 25 34 12 35 18 37
REMARK SMILES IDX 19 38 24 39 20 40 23 41 21 42 22 43 33 45 30 47 31 48
REMARK H PARENT 41 16 39 18 37 20 35 22 12 36 22 44 33 46 31 49
REMARK Flexibility Score: inf
ROOT
ATOM      1  C   UNL     1      21.542  -2.330  30.870  1.00  0.00     0.221 C 
ATOM      2  C   UNL     1      21.444  -2.286  32.407  1.00  0.00     0.181 C 
ATOM      3  C   UNL     1      22.838  -2.481  33.021  1.00  0.00     0.177 C 
ATOM      4  C   UNL     1      23.801  -1.440  32.399  1.00  0.00     0.179 C 
ATOM      5  O   UNL     1      23.892  -1.627  30.998  1.00  0.00    -0.332 OA
ATOM      6  C   UNL     1      22.646  -1.375  30.366  1.00  0.00     0.339 C 
ENDROOT
BRANCH   1   7
ATOM      7  O   UNL     1      20.305  -1.925  30.299  1.00  0.00    -0.337 OA
BRANCH   7   8
ATOM      8  C   UNL     1      20.079  -2.554  29.045  1.00  0.00     0.282 C 
ATOM      9  C   UNL     1      16.398  -2.443  28.986  1.00  0.00     0.041 C 
ATOM     10  C   UNL     1      17.786  -2.881  29.453  1.00  0.00     0.150 C 
ATOM     11  C   UNL     1      17.897  -4.419  29.507  1.00  0.00     0.174 C 
ATOM     12  O   UNL     1      18.752  -2.343  28.571  1.00  0.00    -0.344 OA
ATOM     13  C   UNL     1      19.313  -4.774  29.999  1.00  0.00     0.179 C 
ATOM     14  C   UNL     1      20.398  -4.063  29.161  1.00  0.00     0.202 C 
BRANCH  11  15
ATOM     15  O   UNL     1      17.669  -4.963  28.228  1.00  0.00    -0.388 OA
ATOM     16  H   UNL     1      18.448  -4.724  27.659  1.00  0.00     0.211 HD
ENDBRANCH  11  15
BRANCH  13  17
ATOM     17  O   UNL     1      19.531  -6.165  30.051  1.00  0.00    -0.387 OA
ATOM     18  H   UNL     1      20.439  -6.349  29.695  1.00  0.00     0.211 HD
ENDBRANCH  13  17
BRANCH  14  19
ATOM     19  O   UNL     1      20.472  -4.621  27.871  1.00  0.00    -0.385 OA
ATOM     20  H   UNL     1      19.591  -5.052  27.704  1.00  0.00     0.211 HD
ENDBRANCH  14  19
ENDBRANCH   7   8
ENDBRANCH   1   7
BRANCH   2  21
ATOM     21  O   UNL     1      20.585  -3.297  32.870  1.00  0.00    -0.387 OA
ATOM     22  H   UNL     1      20.797  -4.120  32.354  1.00  0.00     0.211 HD
ENDBRANCH   2  21
BRANCH   6  23
ATOM     23  O   UNL     1      22.267  -0.006  30.533  1.00  0.00    -0.462 OA
BRANCH  23  24
ATOM     24  C   UNL     1      22.920   1.017  29.840  1.00  0.00     0.130 A 
ATOM     25  C   UNL     1      23.374   0.784  28.537  1.00  0.00     0.093 A 
ATOM     26  C   UNL     1      23.124   2.264  30.434  1.00  0.00     0.094 A 
ATOM     27  C   UNL     1      23.987   1.805  27.800  1.00  0.00     0.133 A 
ATOM     28  C   UNL     1      23.725   3.296  29.708  1.00  0.00     0.138 A 
ATOM     29  C   UNL     1      24.106   3.101  28.364  1.00  0.00     0.102 A 
ATOM     30  O   UNL     1      23.934   4.531  30.324  1.00  0.00    -0.484 OA
ATOM     31  C   UNL     1      24.509   4.307  27.593  1.00  0.00     0.174 C 
ATOM     32  C   UNL     1      24.905   5.456  29.818  1.00  0.00     0.211 C 
ATOM     33  O   UNL     1      24.495   4.313  26.333  1.00  0.00    -0.294 OA
ATOM     34  C   UNL     1      24.686   5.621  28.302  1.00  0.00     0.131 C 
BRANCH  27  35
ATOM     35  O   UNL     1      24.464   1.486  26.526  1.00  0.00    -0.507 OA
ATOM     36  H   UNL     1      24.141   0.683  25.996  1.00  0.00     0.293 HD
ENDBRANCH  27  35
BRANCH  32  37
ATOM     37  C   UNL     1      26.302   5.042  30.274  1.00  0.00    -0.007 A 
ATOM     38  C   UNL     1      26.654   4.942  31.636  1.00  0.00     0.011 A 
ATOM     39  C   UNL     1      27.199   4.538  29.313  1.00  0.00     0.011 A 
ATOM     40  C   UNL     1      27.864   4.351  32.017  1.00  0.00     0.046 A 
ATOM     41  C   UNL     1      28.406   3.957  29.697  1.00  0.00     0.046 A 
ATOM     42  C   UNL     1      28.732   3.831  31.050  1.00  0.00     0.115 A 
BRANCH  42  43
ATOM     43  O   UNL     1      29.897   3.156  31.417  1.00  0.00    -0.508 OA
ATOM     44  H   UNL     1      29.934   2.144  31.484  1.00  0.00     0.293 HD
ENDBRANCH  42  43
ENDBRANCH  32  37
ENDBRANCH  23  24
ENDBRANCH   6  23
BRANCH   3  45
ATOM     45  O   UNL     1      23.296  -3.785  32.764  1.00  0.00    -0.387 OA
ATOM     46  H   UNL     1      22.511  -4.325  32.491  1.00  0.00     0.211 HD
ENDBRANCH   3  45
BRANCH   4  47
ATOM     47  C   UNL     1      25.208  -1.517  32.999  1.00  0.00     0.191 C 
BRANCH  47  48
ATOM     48  O   UNL     1      25.942  -2.562  32.406  1.00  0.00    -0.394 OA
ATOM     49  H   UNL     1      26.771  -2.163  32.045  1.00  0.00     0.210 HD
ENDBRANCH  47  48
ENDBRANCH   4  47
TORSDOF 14
ENDMDL
MODEL 4
REMARK VINA RESULT:    -5.239      1.648      2.993
REMARK INTER + INTRA:         -10.083
REMARK INTER:                  -8.339
REMARK INTRA:                  -1.744
REMARK UNBOUND:                -1.783
REMARK SMILES C[C@@H]1O[C@@H](O[C@H]2[C@@H](Oc3cc(O)c4c(c3)O[C@@H](c3ccc(O)cc3)CC4=O)O[C@H](CO)[C@H](O)[C@@H]2O)[C@H](O)[C@H](O)[C@@H]1O
REMARK SMILES IDX 6 1 34 2 32 3 29 4 28 5 7 6 5 7 4 8 1 9 2 10 40 11 3 12
REMARK SMILES IDX 38 13 36 14 41 15 39 17 37 19 35 21 8 23 9 24 10 25 15 26
REMARK SMILES IDX 11 27 14 28 13 29 16 30 26 31 17 32 27 33 25 34 12 35 18 37
REMARK SMILES IDX 19 38 24 39 20 40 23 41 21 42 22 43 33 45 30 47 31 48
REMARK H PARENT 41 16 39 18 37 20 35 22 12 36 22 44 33 46 31 49
REMARK Flexibility Score: inf
ROOT
ATOM      1  C   UNL     1      20.898  -2.880  30.903  1.00  0.00     0.221 C 
ATOM      2  C   UNL     1      20.825  -2.865  32.442  1.00  0.00     0.181 C 
ATOM      3  C   UNL     1      22.221  -3.116  33.029  1.00  0.00     0.177 C 
ATOM      4  C   UNL     1      23.208  -2.094  32.413  1.00  0.00     0.179 C 
ATOM      5  O   UNL     1      23.271  -2.256  31.006  1.00  0.00    -0.332 OA
ATOM      6  C   UNL     1      22.025  -1.951  30.400  1.00  0.00     0.339 C 
ENDROOT
BRANCH   1   7
ATOM      7  O   UNL     1      19.666  -2.425  30.360  1.00  0.00    -0.337 OA
BRANCH   7   8
ATOM      8  C   UNL     1      19.469  -2.906  29.037  1.00  0.00     0.282 C 
ATOM      9  C   UNL     1      15.794  -2.725  28.887  1.00  0.00     0.041 C 
ATOM     10  C   UNL     1      17.160  -3.236  29.341  1.00  0.00     0.150 C 
ATOM     11  C   UNL     1      17.249  -4.772  29.225  1.00  0.00     0.174 C 
ATOM     12  O   UNL     1      18.161  -2.620  28.552  1.00  0.00    -0.344 OA
ATOM     13  C   UNL     1      18.644  -5.205  29.714  1.00  0.00     0.179 C 
ATOM     14  C   UNL     1      19.763  -4.423  28.992  1.00  0.00     0.202 C 
BRANCH  11  15
ATOM     15  O   UNL     1      17.052  -5.166  27.887  1.00  0.00    -0.388 OA
ATOM     16  H   UNL     1      17.588  -5.990  27.737  1.00  0.00     0.211 HD
ENDBRANCH  11  15
BRANCH  13  17
ATOM     17  O   UNL     1      18.841  -6.596  29.616  1.00  0.00    -0.387 OA
ATOM     18  H   UNL     1      19.655  -6.830  30.132  1.00  0.00     0.211 HD
ENDBRANCH  13  17
BRANCH  14  19
ATOM     19  O   UNL     1      19.869  -4.835  27.651  1.00  0.00    -0.385 OA
ATOM     20  H   UNL     1      19.006  -5.278  27.428  1.00  0.00     0.211 HD
ENDBRANCH  14  19
ENDBRANCH   7   8
ENDBRANCH   1   7
BRANCH   2  21
ATOM     21  O   UNL     1      19.941  -3.857  32.898  1.00  0.00    -0.387 OA
ATOM     22  H   UNL     1      19.231  -3.396  33.421  1.00  0.00     0.211 HD
ENDBRANCH   2  21
BRANCH   6  23
ATOM     23  O   UNL     1      21.693  -0.574  30.600  1.00  0.00    -0.462 OA
BRANCH  23  24
ATOM     24  C   UNL     1      22.047   0.401  29.664  1.00  0.00     0.130 A 
ATOM     25  C   UNL     1      23.148   0.184  28.828  1.00  0.00     0.093 A 
ATOM     26  C   UNL     1      21.317   1.587  29.557  1.00  0.00     0.094 A 
ATOM     27  C   UNL     1      23.497   1.121  27.847  1.00  0.00     0.133 A 
ATOM     28  C   UNL     1      21.647   2.526  28.577  1.00  0.00     0.138 A 
ATOM     29  C   UNL     1      22.698   2.279  27.670  1.00  0.00     0.102 A 
ATOM     30  O   UNL     1      20.914   3.712  28.495  1.00  0.00    -0.484 OA
ATOM     31  C   UNL     1      22.826   3.205  26.513  1.00  0.00     0.174 C 
ATOM     32  C   UNL     1      21.450   4.870  27.842  1.00  0.00     0.211 C 
ATOM     33  O   UNL     1      23.454   2.871  25.474  1.00  0.00    -0.294 OA
ATOM     34  C   UNL     1      21.986   4.451  26.459  1.00  0.00     0.131 C 
BRANCH  27  35
ATOM     35  O   UNL     1      24.640   0.863  27.085  1.00  0.00    -0.507 OA
ATOM     36  H   UNL     1      25.582   0.936  27.454  1.00  0.00     0.293 HD
ENDBRANCH  27  35
BRANCH  32  37
ATOM     37  C   UNL     1      22.423   5.587  28.774  1.00  0.00    -0.007 A 
ATOM     38  C   UNL     1      22.307   5.531  30.178  1.00  0.00     0.011 A 
ATOM     39  C   UNL     1      23.595   6.141  28.222  1.00  0.00     0.011 A 
ATOM     40  C   UNL     1      23.334   6.010  30.998  1.00  0.00     0.046 A 
ATOM     41  C   UNL     1      24.612   6.624  29.042  1.00  0.00     0.046 A 
ATOM     42  C   UNL     1      24.504   6.533  30.433  1.00  0.00     0.115 A 
BRANCH  42  43
ATOM     43  O   UNL     1      25.575   6.929  31.234  1.00  0.00    -0.508 OA
ATOM     44  H   UNL     1      26.302   7.550  30.893  1.00  0.00     0.293 HD
ENDBRANCH  42  43
ENDBRANCH  32  37
ENDBRANCH  23  24
ENDBRANCH   6  23
BRANCH   3  45
ATOM     45  O   UNL     1      22.634  -4.428  32.738  1.00  0.00    -0.387 OA
ATOM     46  H   UNL     1      21.992  -4.799  32.080  1.00  0.00     0.211 HD
ENDBRANCH   3  45
BRANCH   4  47
ATOM     47  C   UNL     1      24.621  -2.228  32.988  1.00  0.00     0.191 C 
BRANCH  47  48
ATOM     48  O   UNL     1      25.430  -3.004  32.137  1.00  0.00    -0.394 OA
ATOM     49  H   UNL     1      25.987  -3.582  32.714  1.00  0.00     0.210 HD
ENDBRANCH  47  48
ENDBRANCH   4  47
TORSDOF 14
ENDMDL
MODEL 5
REMARK VINA RESULT:    -5.131      2.226      8.845
REMARK INTER + INTRA:          -9.913
REMARK INTER:                  -8.030
REMARK INTRA:                  -1.884
REMARK UNBOUND:                -1.783
REMARK SMILES C[C@@H]1O[C@@H](O[C@H]2[C@@H](Oc3cc(O)c4c(c3)O[C@@H](c3ccc(O)cc3)CC4=O)O[C@H](CO)[C@H](O)[C@@H]2O)[C@H](O)[C@H](O)[C@@H]1O
REMARK SMILES IDX 6 1 34 2 32 3 29 4 28 5 7 6 5 7 4 8 1 9 2 10 40 11 3 12
REMARK SMILES IDX 38 13 36 14 41 15 39 17 37 19 35 21 8 23 9 24 10 25 15 26
REMARK SMILES IDX 11 27 14 28 13 29 16 30 26 31 17 32 27 33 25 34 12 35 18 37
REMARK SMILES IDX 19 38 24 39 20 40 23 41 21 42 22 43 33 45 30 47 31 48
REMARK H PARENT 41 16 39 18 37 20 35 22 12 36 22 44 33 46 31 49
REMARK Flexibility Score: inf
ROOT
ATOM      1  C   UNL     1      22.667   5.098  27.487  1.00  0.00     0.221 C 
ATOM      2  C   UNL     1      21.985   5.482  26.159  1.00  0.00     0.181 C 
ATOM      3  C   UNL     1      22.998   5.385  25.010  1.00  0.00     0.177 C 
ATOM      4  C   UNL     1      23.637   3.975  25.031  1.00  0.00     0.179 C 
ATOM      5  O   UNL     1      24.318   3.760  26.255  1.00  0.00    -0.332 OA
ATOM      6  C   UNL     1      23.414   3.753  27.349  1.00  0.00     0.339 C 
ENDROOT
BRANCH   1   7
ATOM      7  O   UNL     1      21.688   4.965  28.509  1.00  0.00    -0.337 OA
BRANCH   7   8
ATOM      8  C   UNL     1      22.020   5.739  29.653  1.00  0.00     0.282 C 
ATOM      9  C   UNL     1      23.519   3.095  31.734  1.00  0.00     0.041 C 
ATOM     10  C   UNL     1      22.412   3.850  31.000  1.00  0.00     0.150 C 
ATOM     11  C   UNL     1      21.210   4.122  31.929  1.00  0.00     0.174 C 
ATOM     12  O   UNL     1      22.942   5.066  30.506  1.00  0.00    -0.344 OA
ATOM     13  C   UNL     1      20.139   4.869  31.112  1.00  0.00     0.179 C 
ATOM     14  C   UNL     1      20.727   6.114  30.414  1.00  0.00     0.202 C 
BRANCH  11  15
ATOM     15  O   UNL     1      21.619   4.899  33.031  1.00  0.00    -0.388 OA
ATOM     16  H   UNL     1      20.955   4.760  33.757  1.00  0.00     0.211 HD
ENDBRANCH  11  15
BRANCH  13  17
ATOM     17  O   UNL     1      19.006   5.197  31.884  1.00  0.00    -0.387 OA
ATOM     18  H   UNL     1      18.846   4.457  32.525  1.00  0.00     0.211 HD
ENDBRANCH  13  17
BRANCH  14  19
ATOM     19  O   UNL     1      21.018   7.119  31.355  1.00  0.00    -0.385 OA
ATOM     20  H   UNL     1      21.573   7.793  30.879  1.00  0.00     0.211 HD
ENDBRANCH  14  19
ENDBRANCH   7   8
ENDBRANCH   1   7
BRANCH   2  21
ATOM     21  O   UNL     1      21.482   6.791  26.230  1.00  0.00    -0.387 OA
ATOM     22  H   UNL     1      21.125   7.016  25.329  1.00  0.00     0.211 HD
ENDBRANCH   2  21
BRANCH   6  23
ATOM     23  O   UNL     1      22.499   2.659  27.237  1.00  0.00    -0.462 OA
BRANCH  23  24
ATOM     24  C   UNL     1      22.649   1.506  28.013  1.00  0.00     0.130 A 
ATOM     25  C   UNL     1      23.748   0.668  27.794  1.00  0.00     0.093 A 
ATOM     26  C   UNL     1      21.715   1.184  29.000  1.00  0.00     0.094 A 
ATOM     27  C   UNL     1      23.951  -0.467  28.589  1.00  0.00     0.133 A 
ATOM     28  C   UNL     1      21.909   0.060  29.807  1.00  0.00     0.138 A 
ATOM     29  C   UNL     1      23.058  -0.743  29.656  1.00  0.00     0.102 A 
ATOM     30  O   UNL     1      20.957  -0.254  30.779  1.00  0.00    -0.484 OA
ATOM     31  C   UNL     1      23.312  -1.766  30.706  1.00  0.00     0.174 C 
ATOM     32  C   UNL     1      20.859  -1.578  31.319  1.00  0.00     0.211 C 
ATOM     33  O   UNL     1      24.460  -2.255  30.879  1.00  0.00    -0.294 OA
ATOM     34  C   UNL     1      22.265  -2.040  31.749  1.00  0.00     0.131 C 
BRANCH  27  35
ATOM     35  O   UNL     1      25.039  -1.288  28.278  1.00  0.00    -0.507 OA
ATOM     36  H   UNL     1      25.636  -1.710  28.982  1.00  0.00     0.293 HD
ENDBRANCH  27  35
BRANCH  32  37
ATOM     37  C   UNL     1      20.102  -2.480  30.348  1.00  0.00    -0.007 A 
ATOM     38  C   UNL     1      19.775  -2.074  29.037  1.00  0.00     0.011 A 
ATOM     39  C   UNL     1      19.915  -3.832  30.695  1.00  0.00     0.011 A 
ATOM     40  C   UNL     1      19.282  -2.997  28.108  1.00  0.00     0.046 A 
ATOM     41  C   UNL     1      19.417  -4.745  29.768  1.00  0.00     0.046 A 
ATOM     42  C   UNL     1      19.127  -4.343  28.461  1.00  0.00     0.115 A 
BRANCH  42  43
ATOM     43  O   UNL     1      18.727  -5.292  27.521  1.00  0.00    -0.508 OA
ATOM     44  H   UNL     1      17.898  -5.166  26.949  1.00  0.00     0.293 HD
ENDBRANCH  42  43
ENDBRANCH  32  37
ENDBRANCH  23  24
ENDBRANCH   6  23
BRANCH   3  45
ATOM     45  O   UNL     1      23.988   6.372  25.160  1.00  0.00    -0.387 OA
ATOM     46  H   UNL     1      24.459   6.450  24.291  1.00  0.00     0.211 HD
ENDBRANCH   3  45
BRANCH   4  47
ATOM     47  C   UNL     1      24.620   3.764  23.876  1.00  0.00     0.191 C 
BRANCH  47  48
ATOM     48  O   UNL     1      25.732   3.014  24.305  1.00  0.00    -0.394 OA
ATOM     49  H   UNL     1      25.494   2.617  25.178  1.00  0.00     0.210 HD
ENDBRANCH  47  48
ENDBRANCH   4  47
TORSDOF 14
ENDMDL
MODEL 6
REMARK VINA RESULT:    -4.967      2.520      8.971
REMARK INTER + INTRA:          -9.653
REMARK INTER:                  -7.584
REMARK INTRA:                  -2.068
REMARK UNBOUND:                -1.783
REMARK SMILES C[C@@H]1O[C@@H](O[C@H]2[C@@H](Oc3cc(O)c4c(c3)O[C@@H](c3ccc(O)cc3)CC4=O)O[C@H](CO)[C@H](O)[C@@H]2O)[C@H](O)[C@H](O)[C@@H]1O
REMARK SMILES IDX 6 1 34 2 32 3 29 4 28 5 7 6 5 7 4 8 1 9 2 10 40 11 3 12
REMARK SMILES IDX 38 13 36 14 41 15 39 17 37 19 35 21 8 23 9 24 10 25 15 26
REMARK SMILES IDX 11 27 14 28 13 29 16 30 26 31 17 32 27 33 25 34 12 35 18 37
REMARK SMILES IDX 19 38 24 39 20 40 23 41 21 42 22 43 33 45 30 47 31 48
REMARK H PARENT 41 16 39 18 37 20 35 22 12 36 22 44 33 46 31 49
REMARK Flexibility Score: inf
ROOT
ATOM      1  C   UNL     1      21.712   4.352  28.781  1.00  0.00     0.221 C 
ATOM      2  C   UNL     1      21.680   5.690  29.546  1.00  0.00     0.181 C 
ATOM      3  C   UNL     1      20.226   6.081  29.846  1.00  0.00     0.177 C 
ATOM      4  C   UNL     1      19.536   4.899  30.571  1.00  0.00     0.179 C 
ATOM      5  O   UNL     1      19.536   3.747  29.746  1.00  0.00    -0.332 OA
ATOM      6  C   UNL     1      20.857   3.289  29.506  1.00  0.00     0.339 C 
ENDROOT
BRANCH   1   7
ATOM      7  O   UNL     1      23.048   3.876  28.703  1.00  0.00    -0.337 OA
BRANCH   7   8
ATOM      8  C   UNL     1      23.202   2.923  27.660  1.00  0.00     0.282 C 
ATOM      9  C   UNL     1      26.880   2.775  27.537  1.00  0.00     0.041 C 
ATOM     10  C   UNL     1      25.490   3.387  27.371  1.00  0.00     0.150 C 
ATOM     11  C   UNL     1      25.308   3.984  25.960  1.00  0.00     0.174 C 
ATOM     12  O   UNL     1      24.521   2.386  27.615  1.00  0.00    -0.344 OA
ATOM     13  C   UNL     1      23.894   4.591  25.881  1.00  0.00     0.179 C 
ATOM     14  C   UNL     1      22.817   3.571  26.310  1.00  0.00     0.202 C 
BRANCH  11  15
ATOM     15  O   UNL     1      25.467   2.978  24.986  1.00  0.00    -0.388 OA
ATOM     16  H   UNL     1      25.946   3.382  24.216  1.00  0.00     0.211 HD
ENDBRANCH  11  15
BRANCH  13  17
ATOM     17  O   UNL     1      23.612   5.136  24.613  1.00  0.00    -0.387 OA
ATOM     18  H   UNL     1      24.455   5.506  24.242  1.00  0.00     0.211 HD
ENDBRANCH  13  17
BRANCH  14  19
ATOM     19  O   UNL     1      22.673   2.565  25.337  1.00  0.00    -0.385 OA
ATOM     20  H   UNL     1      21.702   2.352  25.299  1.00  0.00     0.211 HD
ENDBRANCH  14  19
ENDBRANCH   7   8
ENDBRANCH   1   7
BRANCH   2  21
ATOM     21  O   UNL     1      22.288   6.701  28.784  1.00  0.00    -0.387 OA
ATOM     22  H   UNL     1      22.994   6.268  28.233  1.00  0.00     0.211 HD
ENDBRANCH   2  21
BRANCH   6  23
ATOM     23  O   UNL     1      21.473   2.869  30.727  1.00  0.00    -0.462 OA
BRANCH  23  24
ATOM     24  C   UNL     1      21.523   1.520  31.088  1.00  0.00     0.130 A 
ATOM     25  C   UNL     1      22.754   0.857  31.101  1.00  0.00     0.093 A 
ATOM     26  C   UNL     1      20.359   0.830  31.432  1.00  0.00     0.094 A 
ATOM     27  C   UNL     1      22.843  -0.481  31.506  1.00  0.00     0.133 A 
ATOM     28  C   UNL     1      20.431  -0.502  31.848  1.00  0.00     0.138 A 
ATOM     29  C   UNL     1      21.677  -1.155  31.952  1.00  0.00     0.102 A 
ATOM     30  O   UNL     1      19.255  -1.179  32.175  1.00  0.00    -0.484 OA
ATOM     31  C   UNL     1      21.693  -2.479  32.630  1.00  0.00     0.174 C 
ATOM     32  C   UNL     1      19.202  -2.611  32.177  1.00  0.00     0.211 C 
ATOM     33  O   UNL     1      22.756  -2.957  33.107  1.00  0.00    -0.294 OA
ATOM     34  C   UNL     1      20.396  -3.148  32.990  1.00  0.00     0.131 C 
BRANCH  27  35
ATOM     35  O   UNL     1      24.096  -1.095  31.442  1.00  0.00    -0.507 OA
ATOM     36  H   UNL     1      24.282  -2.021  31.814  1.00  0.00     0.293 HD
ENDBRANCH  27  35
BRANCH  32  37
ATOM     37  C   UNL     1      19.050  -3.127  30.748  1.00  0.00    -0.007 A 
ATOM     38  C   UNL     1      18.773  -2.273  29.661  1.00  0.00     0.011 A 
ATOM     39  C   UNL     1      19.411  -4.461  30.475  1.00  0.00     0.011 A 
ATOM     40  C   UNL     1      18.860  -2.742  28.346  1.00  0.00     0.046 A 
ATOM     41  C   UNL     1      19.490  -4.925  29.164  1.00  0.00     0.046 A 
ATOM     42  C   UNL     1      19.246  -4.063  28.091  1.00  0.00     0.115 A 
BRANCH  42  43
ATOM     43  O   UNL     1      19.429  -4.520  26.786  1.00  0.00    -0.508 OA
ATOM     44  H   UNL     1      19.656  -5.488  26.581  1.00  0.00     0.293 HD
ENDBRANCH  42  43
ENDBRANCH  32  37
ENDBRANCH  23  24
ENDBRANCH   6  23
BRANCH   3  45
ATOM     45  O   UNL     1      19.553   6.378  28.648  1.00  0.00    -0.387 OA
ATOM     46  H   UNL     1      18.640   6.678  28.891  1.00  0.00     0.211 HD
ENDBRANCH   3  45
BRANCH   4  47
ATOM     47  C   UNL     1      18.094   5.222  30.969  1.00  0.00     0.191 C 
BRANCH  47  48
ATOM     48  O   UNL     1      17.242   5.137  29.851  1.00  0.00    -0.394 OA
ATOM     49  H   UNL     1      16.806   4.250  29.887  1.00  0.00     0.210 HD
ENDBRANCH  47  48
ENDBRANCH   4  47
TORSDOF 14
ENDMDL
MODEL 7
REMARK VINA RESULT:    -4.910      4.439      7.677
REMARK INTER + INTRA:          -9.563
REMARK INTER:                  -7.569
REMARK INTRA:                  -1.994
REMARK UNBOUND:                -1.783
REMARK SMILES C[C@@H]1O[C@@H](O[C@H]2[C@@H](Oc3cc(O)c4c(c3)O[C@@H](c3ccc(O)cc3)CC4=O)O[C@H](CO)[C@H](O)[C@@H]2O)[C@H](O)[C@H](O)[C@@H]1O
REMARK SMILES IDX 6 1 34 2 32 3 29 4 28 5 7 6 5 7 4 8 1 9 2 10 40 11 3 12
REMARK SMILES IDX 38 13 36 14 41 15 39 17 37 19 35 21 8 23 9 24 10 25 15 26
REMARK SMILES IDX 11 27 14 28 13 29 16 30 26 31 17 32 27 33 25 34 12 35 18 37
REMARK SMILES IDX 19 38 24 39 20 40 23 41 21 42 22 43 33 45 30 47 31 48
REMARK H PARENT 41 16 39 18 37 20 35 22 12 36 22 44 33 46 31 49
REMARK Flexibility Score: inf
ROOT
ATOM      1  C   UNL     1      17.331  -5.956  28.095  1.00  0.00     0.221 C 
ATOM      2  C   UNL     1      18.198  -6.558  29.219  1.00  0.00     0.181 C 
ATOM      3  C   UNL     1      19.492  -5.746  29.366  1.00  0.00     0.177 C 
ATOM      4  C   UNL     1      19.122  -4.254  29.556  1.00  0.00     0.179 C 
ATOM      5  O   UNL     1      18.411  -3.775  28.427  1.00  0.00    -0.332 OA
ATOM      6  C   UNL     1      17.161  -4.434  28.293  1.00  0.00     0.339 C 
ENDROOT
BRANCH   1   7
ATOM      7  O   UNL     1      16.043  -6.557  28.109  1.00  0.00    -0.337 OA
BRANCH   7   8
ATOM      8  C   UNL     1      15.435  -6.515  26.825  1.00  0.00     0.282 C 
ATOM      9  C   UNL     1      12.557  -8.722  27.467  1.00  0.00     0.041 C 
ATOM     10  C   UNL     1      14.025  -8.344  27.270  1.00  0.00     0.150 C 
ATOM     11  C   UNL     1      14.705  -9.266  26.236  1.00  0.00     0.174 C 
ATOM     12  O   UNL     1      14.094  -6.994  26.852  1.00  0.00    -0.344 OA
ATOM     13  C   UNL     1      16.177  -8.831  26.108  1.00  0.00     0.179 C 
ATOM     14  C   UNL     1      16.295  -7.318  25.822  1.00  0.00     0.202 C 
BRANCH  11  15
ATOM     15  O   UNL     1      14.050  -9.161  24.993  1.00  0.00    -0.388 OA
ATOM     16  H   UNL     1      13.298  -8.523  25.105  1.00  0.00     0.211 HD
ENDBRANCH  11  15
BRANCH  13  17
ATOM     17  O   UNL     1      16.882  -9.593  25.157  1.00  0.00    -0.387 OA
ATOM     18  H   UNL     1      17.786  -9.781  25.521  1.00  0.00     0.211 HD
ENDBRANCH  13  17
BRANCH  14  19
ATOM     19  O   UNL     1      15.871  -7.027  24.512  1.00  0.00    -0.385 OA
ATOM     20  H   UNL     1      16.524  -6.371  24.148  1.00  0.00     0.211 HD
ENDBRANCH  14  19
ENDBRANCH   7   8
ENDBRANCH   1   7
BRANCH   2  21
ATOM     21  O   UNL     1      18.515  -7.895  28.927  1.00  0.00    -0.387 OA
ATOM     22  H   UNL     1      17.751  -8.451  29.238  1.00  0.00     0.211 HD
ENDBRANCH   2  21
BRANCH   6  23
ATOM     23  O   UNL     1      16.318  -4.145  29.412  1.00  0.00    -0.462 OA
BRANCH  23  24
ATOM     24  C   UNL     1      15.966  -2.831  29.735  1.00  0.00     0.130 A 
ATOM     25  C   UNL     1      15.322  -2.038  28.780  1.00  0.00     0.093 A 
ATOM     26  C   UNL     1      16.253  -2.306  30.996  1.00  0.00     0.094 A 
ATOM     27  C   UNL     1      14.912  -0.734  29.090  1.00  0.00     0.133 A 
ATOM     28  C   UNL     1      15.842  -1.011  31.325  1.00  0.00     0.138 A 
ATOM     29  C   UNL     1      15.113  -0.233  30.402  1.00  0.00     0.102 A 
ATOM     30  O   UNL     1      16.150  -0.497  32.586  1.00  0.00    -0.484 OA
ATOM     31  C   UNL     1      14.505   1.027  30.909  1.00  0.00     0.174 C 
ATOM     32  C   UNL     1      16.159   0.915  32.828  1.00  0.00     0.211 C 
ATOM     33  O   UNL     1      13.549   1.581  30.305  1.00  0.00    -0.294 OA
ATOM     34  C   UNL     1      14.845   1.516  32.289  1.00  0.00     0.131 C 
BRANCH  27  35
ATOM     35  O   UNL     1      14.324   0.019  28.071  1.00  0.00    -0.507 OA
ATOM     36  H   UNL     1      14.304   1.033  28.070  1.00  0.00     0.293 HD
ENDBRANCH  27  35
BRANCH  32  37
ATOM     37  C   UNL     1      17.460   1.523  32.311  1.00  0.00    -0.007 A 
ATOM     38  C   UNL     1      18.656   0.781  32.219  1.00  0.00     0.011 A 
ATOM     39  C   UNL     1      17.414   2.794  31.707  1.00  0.00     0.011 A 
ATOM     40  C   UNL     1      19.765   1.299  31.540  1.00  0.00     0.046 A 
ATOM     41  C   UNL     1      18.522   3.308  31.038  1.00  0.00     0.046 A 
ATOM     42  C   UNL     1      19.693   2.553  30.922  1.00  0.00     0.115 A 
BRANCH  42  43
ATOM     43  O   UNL     1      20.755   3.042  30.162  1.00  0.00    -0.508 OA
ATOM     44  H   UNL     1      21.696   2.671  30.248  1.00  0.00     0.293 HD
ENDBRANCH  42  43
ENDBRANCH  32  37
ENDBRANCH  23  24
ENDBRANCH   6  23
BRANCH   3  45
ATOM     45  O   UNL     1      20.292  -5.908  28.221  1.00  0.00    -0.387 OA
ATOM     46  H   UNL     1      19.781  -6.469  27.583  1.00  0.00     0.211 HD
ENDBRANCH   3  45
BRANCH   4  47
ATOM     47  C   UNL     1      20.353  -3.371  29.775  1.00  0.00     0.191 C 
BRANCH  47  48
ATOM     48  O   UNL     1      21.148  -3.335  28.613  1.00  0.00    -0.394 OA
ATOM     49  H   UNL     1      21.661  -4.179  28.586  1.00  0.00     0.210 HD
ENDBRANCH  47  48
ENDBRANCH   4  47
TORSDOF 14
ENDMDL
MODEL 8
REMARK VINA RESULT:    -4.859      5.916     12.048
REMARK INTER + INTRA:          -9.482
REMARK INTER:                  -6.466
REMARK INTRA:                  -3.017
REMARK UNBOUND:                -1.783
REMARK SMILES C[C@@H]1O[C@@H](O[C@H]2[C@@H](Oc3cc(O)c4c(c3)O[C@@H](c3ccc(O)cc3)CC4=O)O[C@H](CO)[C@H](O)[C@@H]2O)[C@H](O)[C@H](O)[C@@H]1O
REMARK SMILES IDX 6 1 34 2 32 3 29 4 28 5 7 6 5 7 4 8 1 9 2 10 40 11 3 12
REMARK SMILES IDX 38 13 36 14 41 15 39 17 37 19 35 21 8 23 9 24 10 25 15 26
REMARK SMILES IDX 11 27 14 28 13 29 16 30 26 31 17 32 27 33 25 34 12 35 18 37
REMARK SMILES IDX 19 38 24 39 20 40 23 41 21 42 22 43 33 45 30 47 31 48
REMARK H PARENT 41 16 39 18 37 20 35 22 12 36 22 44 33 46 31 49
REMARK Flexibility Score: inf
ROOT
ATOM      1  C   UNL     1      16.576  -4.903  30.096  1.00  0.00     0.221 C 
ATOM      2  C   UNL     1      16.469  -3.389  29.827  1.00  0.00     0.181 C 
ATOM      3  C   UNL     1      17.873  -2.795  29.647  1.00  0.00     0.177 C 
ATOM      4  C   UNL     1      18.615  -3.601  28.553  1.00  0.00     0.179 C 
ATOM      5  O   UNL     1      18.743  -4.958  28.941  1.00  0.00    -0.332 OA
ATOM      6  C   UNL     1      17.473  -5.584  29.039  1.00  0.00     0.339 C 
ENDROOT
BRANCH   1   7
ATOM      7  O   UNL     1      15.284  -5.493  30.035  1.00  0.00    -0.337 OA
BRANCH   7   8
ATOM      8  C   UNL     1      15.264  -6.769  30.661  1.00  0.00     0.282 C 
ATOM      9  C   UNL     1      13.503  -8.677  28.049  1.00  0.00     0.041 C 
ATOM     10  C   UNL     1      13.677  -7.644  29.163  1.00  0.00     0.150 C 
ATOM     11  C   UNL     1      12.576  -7.788  30.234  1.00  0.00     0.174 C 
ATOM     12  O   UNL     1      14.957  -7.812  29.741  1.00  0.00    -0.344 OA
ATOM     13  C   UNL     1      12.813  -6.707  31.305  1.00  0.00     0.179 C 
ATOM     14  C   UNL     1      14.262  -6.749  31.839  1.00  0.00     0.202 C 
BRANCH  11  15
ATOM     15  O   UNL     1      12.628  -9.072  30.810  1.00  0.00    -0.388 OA
ATOM     16  H   UNL     1      12.725  -8.954  31.792  1.00  0.00     0.211 HD
ENDBRANCH  11  15
BRANCH  13  17
ATOM     17  O   UNL     1      11.875  -6.773  32.354  1.00  0.00    -0.387 OA
ATOM     18  H   UNL     1      11.125  -7.352  32.060  1.00  0.00     0.211 HD
ENDBRANCH  13  17
BRANCH  14  19
ATOM     19  O   UNL     1      14.462  -7.891  32.637  1.00  0.00    -0.385 OA
ATOM     20  H   UNL     1      13.558  -8.187  32.929  1.00  0.00     0.211 HD
ENDBRANCH  14  19
ENDBRANCH   7   8
ENDBRANCH   1   7
BRANCH   2  21
ATOM     21  O   UNL     1      15.823  -2.748  30.897  1.00  0.00    -0.387 OA
ATOM     22  H   UNL     1      16.389  -1.972  31.156  1.00  0.00     0.211 HD
ENDBRANCH   2  21
BRANCH   6  23
ATOM     23  O   UNL     1      16.833  -5.623  27.760  1.00  0.00    -0.462 OA
BRANCH  23  24
ATOM     24  C   UNL     1      16.738  -6.813  27.033  1.00  0.00     0.130 A 
ATOM     25  C   UNL     1      16.103  -6.808  25.787  1.00  0.00     0.093 A 
ATOM     26  C   UNL     1      17.269  -8.002  27.538  1.00  0.00     0.094 A 
ATOM     27  C   UNL     1      16.037  -7.974  25.012  1.00  0.00     0.133 A 
ATOM     28  C   UNL     1      17.219  -9.171  26.773  1.00  0.00     0.138 A 
ATOM     29  C   UNL     1      16.662  -9.159  25.478  1.00  0.00     0.102 A 
ATOM     30  O   UNL     1      17.742 -10.353  27.300  1.00  0.00    -0.484 OA
ATOM     31  C   UNL     1      16.867 -10.371  24.641  1.00  0.00     0.174 C 
ATOM     32  C   UNL     1      17.345 -11.631  26.789  1.00  0.00     0.211 C 
ATOM     33  O   UNL     1      16.757 -10.327  23.387  1.00  0.00    -0.294 OA
ATOM     34  C   UNL     1      17.467 -11.607  25.253  1.00  0.00     0.131 C 
BRANCH  27  35
ATOM     35  O   UNL     1      15.340  -7.908  23.803  1.00  0.00    -0.507 OA
ATOM     36  H   UNL     1      15.683  -7.409  22.989  1.00  0.00     0.293 HD
ENDBRANCH  27  35
BRANCH  32  37
ATOM     37  C   UNL     1      15.989 -12.024  27.370  1.00  0.00    -0.007 A 
ATOM     38  C   UNL     1      15.678 -11.868  28.736  1.00  0.00     0.011 A 
ATOM     39  C   UNL     1      14.947 -12.347  26.479  1.00  0.00     0.011 A 
ATOM     40  C   UNL     1      14.363 -12.028  29.190  1.00  0.00     0.046 A 
ATOM     41  C   UNL     1      13.641 -12.512  26.937  1.00  0.00     0.046 A 
ATOM     42  C   UNL     1      13.335 -12.323  28.288  1.00  0.00     0.115 A 
BRANCH  42  43
ATOM     43  O   UNL     1      12.007 -12.393  28.709  1.00  0.00    -0.508 OA
ATOM     44  H   UNL     1      11.744 -12.810  29.596  1.00  0.00     0.293 HD
ENDBRANCH  42  43
ENDBRANCH  32  37
ENDBRANCH  23  24
ENDBRANCH   6  23
BRANCH   3  45
ATOM     45  O   UNL     1      18.578  -2.858  30.861  1.00  0.00    -0.387 OA
ATOM     46  H   UNL     1      19.388  -2.294  30.760  1.00  0.00     0.211 HD
ENDBRANCH   3  45
BRANCH   4  47
ATOM     47  C   UNL     1      20.008  -3.039  28.259  1.00  0.00     0.191 C 
BRANCH  47  48
ATOM     48  O   UNL     1      20.917  -3.417  29.267  1.00  0.00    -0.394 OA
ATOM     49  H   UNL     1      21.598  -3.992  28.840  1.00  0.00     0.210 HD
ENDBRANCH  47  48
ENDBRANCH   4  47
TORSDOF 14
ENDMDL
MODEL 9
REMARK VINA RESULT:    -4.844      4.290      8.503
REMARK INTER + INTRA:          -9.459
REMARK INTER:                  -7.246
REMARK INTRA:                  -2.213
REMARK UNBOUND:                -1.783
REMARK SMILES C[C@@H]1O[C@@H](O[C@H]2[C@@H](Oc3cc(O)c4c(c3)O[C@@H](c3ccc(O)cc3)CC4=O)O[C@H](CO)[C@H](O)[C@@H]2O)[C@H](O)[C@H](O)[C@@H]1O
REMARK SMILES IDX 6 1 34 2 32 3 29 4 28 5 7 6 5 7 4 8 1 9 2 10 40 11 3 12
REMARK SMILES IDX 38 13 36 14 41 15 39 17 37 19 35 21 8 23 9 24 10 25 15 26
REMARK SMILES IDX 11 27 14 28 13 29 16 30 26 31 17 32 27 33 25 34 12 35 18 37
REMARK SMILES IDX 19 38 24 39 20 40 23 41 21 42 22 43 33 45 30 47 31 48
REMARK H PARENT 41 16 39 18 37 20 35 22 12 36 22 44 33 46 31 49
REMARK Flexibility Score: inf
ROOT
ATOM      1  C   UNL     1      18.787  -4.515  29.417  1.00  0.00     0.221 C 
ATOM      2  C   UNL     1      19.105  -5.090  28.023  1.00  0.00     0.181 C 
ATOM      3  C   UNL     1      18.417  -6.452  27.856  1.00  0.00     0.177 C 
ATOM      4  C   UNL     1      16.909  -6.286  28.164  1.00  0.00     0.179 C 
ATOM      5  O   UNL     1      16.724  -5.844  29.498  1.00  0.00    -0.332 OA
ATOM      6  C   UNL     1      17.267  -4.547  29.688  1.00  0.00     0.339 C 
ENDROOT
BRANCH   1   7
ATOM      7  O   UNL     1      19.227  -3.165  29.491  1.00  0.00    -0.337 OA
BRANCH   7   8
ATOM      8  C   UNL     1      20.161  -2.978  30.546  1.00  0.00     0.282 C 
ATOM      9  C   UNL     1      18.722   0.049  32.073  1.00  0.00     0.041 C 
ATOM     10  C   UNL     1      19.425  -0.792  31.008  1.00  0.00     0.150 C 
ATOM     11  C   UNL     1      20.743  -0.130  30.555  1.00  0.00     0.174 C 
ATOM     12  O   UNL     1      19.674  -2.080  31.539  1.00  0.00    -0.344 OA
ATOM     13  C   UNL     1      21.378  -1.029  29.476  1.00  0.00     0.179 C 
ATOM     14  C   UNL     1      21.507  -2.489  29.962  1.00  0.00     0.202 C 
BRANCH  11  15
ATOM     15  O   UNL     1      21.614   0.012  31.653  1.00  0.00    -0.388 OA
ATOM     16  H   UNL     1      22.479   0.355  31.304  1.00  0.00     0.211 HD
ENDBRANCH  11  15
BRANCH  13  17
ATOM     17  O   UNL     1      22.612  -0.528  29.017  1.00  0.00    -0.387 OA
ATOM     18  H   UNL     1      22.653  -0.663  28.035  1.00  0.00     0.211 HD
ENDBRANCH  13  17
BRANCH  14  19
ATOM     19  O   UNL     1      22.506  -2.597  30.947  1.00  0.00    -0.385 OA
ATOM     20  H   UNL     1      22.837  -1.673  31.109  1.00  0.00     0.211 HD
ENDBRANCH  14  19
ENDBRANCH   7   8
ENDBRANCH   1   7
BRANCH   2  21
ATOM     21  O   UNL     1      20.492  -5.244  27.864  1.00  0.00    -0.387 OA
ATOM     22  H   UNL     1      20.929  -4.724  28.591  1.00  0.00     0.211 HD
ENDBRANCH   2  21
BRANCH   6  23
ATOM     23  O   UNL     1      16.574  -3.590  28.881  1.00  0.00    -0.462 OA
BRANCH  23  24
ATOM     24  C   UNL     1      15.721  -2.642  29.453  1.00  0.00     0.130 A 
ATOM     25  C   UNL     1      14.528  -3.061  30.051  1.00  0.00     0.093 A 
ATOM     26  C   UNL     1      16.047  -1.284  29.431  1.00  0.00     0.094 A 
ATOM     27  C   UNL     1      13.678  -2.140  30.676  1.00  0.00     0.133 A 
ATOM     28  C   UNL     1      15.214  -0.354  30.059  1.00  0.00     0.138 A 
ATOM     29  C   UNL     1      14.054  -0.774  30.742  1.00  0.00     0.102 A 
ATOM     30  O   UNL     1      15.549   1.001  30.014  1.00  0.00    -0.484 OA
ATOM     31  C   UNL     1      13.361   0.236  31.584  1.00  0.00     0.174 C 
ATOM     32  C   UNL     1      14.561   2.015  30.234  1.00  0.00     0.211 C 
ATOM     33  O   UNL     1      12.576  -0.108  32.507  1.00  0.00    -0.294 OA
ATOM     34  C   UNL     1      13.786   1.677  31.523  1.00  0.00     0.131 C 
BRANCH  27  35
ATOM     35  O   UNL     1      12.478  -2.623  31.204  1.00  0.00    -0.507 OA
ATOM     36  H   UNL     1      11.804  -3.154  30.661  1.00  0.00     0.293 HD
ENDBRANCH  27  35
BRANCH  32  37
ATOM     37  C   UNL     1      13.738   2.222  28.965  1.00  0.00    -0.007 A 
ATOM     38  C   UNL     1      12.495   2.889  28.971  1.00  0.00     0.011 A 
ATOM     39  C   UNL     1      14.335   1.932  27.724  1.00  0.00     0.011 A 
ATOM     40  C   UNL     1      11.878   3.255  27.769  1.00  0.00     0.046 A 
ATOM     41  C   UNL     1      13.713   2.291  26.530  1.00  0.00     0.046 A 
ATOM     42  C   UNL     1      12.498   2.982  26.544  1.00  0.00     0.115 A 
BRANCH  42  43
ATOM     43  O   UNL     1      11.942   3.422  25.343  1.00  0.00    -0.508 OA
ATOM     44  H   UNL     1      12.044   4.379  25.021  1.00  0.00     0.293 HD
ENDBRANCH  42  43
ENDBRANCH  32  37
ENDBRANCH  23  24
ENDBRANCH   6  23
BRANCH   3  45
ATOM     45  O   UNL     1      18.993  -7.390  28.731  1.00  0.00    -0.387 OA
ATOM     46  H   UNL     1      18.668  -8.286  28.457  1.00  0.00     0.211 HD
ENDBRANCH   3  45
BRANCH   4  47
ATOM     47  C   UNL     1      16.126  -7.586  27.962  1.00  0.00     0.191 C 
BRANCH  47  48
ATOM     48  O   UNL     1      16.748  -8.391  26.988  1.00  0.00    -0.394 OA
ATOM     49  H   UNL     1      17.326  -7.798  26.449  1.00  0.00     0.210 HD
ENDBRANCH  47  48
ENDBRANCH   4  47
TORSDOF 14
ENDMDL
