MODEL 1
REMARK VINA RESULT:    -4.261      0.000      0.000
REMARK INTER + INTRA:          -5.994
REMARK INTER:                  -5.631
REMARK INTRA:                  -0.364
REMARK UNBOUND:                -0.364
REMARK SMILES CCCCC=CC=CCO
REMARK SMILES IDX 5 1 6 2 4 3 3 4 2 5 1 6 7 7 8 8 9 9 10 10
REMARK H PARENT 10 11
REMARK Flexibility Score: inf
ROOT
ATOM      1  C   UNL     1       9.085   4.241   7.803  1.00  0.00    -0.027 C 
ATOM      2  C   UNL     1      10.158   5.036   7.848  1.00  0.00    -0.005 C 
ENDROOT
BRANCH   1   3
ATOM      3  C   UNL     1       9.206   2.769   7.536  1.00  0.00     0.027 C 
BRANCH   3   4
ATOM      4  C   UNL     1       9.587   2.498   6.075  1.00  0.00     0.004 C 
BRANCH   4   5
ATOM      5  C   UNL     1      11.050   2.054   5.963  1.00  0.00    -0.003 C 
ATOM      6  C   UNL     1      11.859   3.032   5.116  1.00  0.00     0.004 C 
ENDBRANCH   4   5
ENDBRANCH   3   4
ENDBRANCH   1   3
BRANCH   2   7
ATOM      7  C   UNL     1      10.020   6.480   8.124  1.00  0.00    -0.002 C 
ATOM      8  C   UNL     1      10.870   7.410   7.671  1.00  0.00     0.001 C 
BRANCH   8   9
ATOM      9  C   UNL     1      12.079   7.111   6.826  1.00  0.00     0.183 C 
BRANCH   9  10
ATOM     10  O   UNL     1      11.763   7.206   5.463  1.00  0.00    -0.392 OA
ATOM     11  H   UNL     1      11.313   6.356   5.216  1.00  0.00     0.210 HD
ENDBRANCH   9  10
ENDBRANCH   8   9
ENDBRANCH   2   7
TORSDOF 6
ENDMDL
MODEL 2
REMARK VINA RESULT:    -4.065      1.349      4.127
REMARK INTER + INTRA:          -5.736
REMARK INTER:                  -5.412
REMARK INTRA:                  -0.324
REMARK UNBOUND:                -0.364
REMARK SMILES CCCCC=CC=CCO
REMARK SMILES IDX 5 1 6 2 4 3 3 4 2 5 1 6 7 7 8 8 9 9 10 10
REMARK H PARENT 10 11
REMARK Flexibility Score: inf
ROOT
ATOM      1  C   UNL     1       9.367   3.533   6.761  1.00  0.00    -0.027 C 
ATOM      2  C   UNL     1      10.130   2.436   6.777  1.00  0.00    -0.005 C 
ENDROOT
BRANCH   1   3
ATOM      3  C   UNL     1       9.065   4.299   8.015  1.00  0.00     0.027 C 
BRANCH   3   4
ATOM      4  C   UNL     1       9.586   5.739   7.927  1.00  0.00     0.004 C 
BRANCH   4   5
ATOM      5  C   UNL     1      11.117   5.773   7.991  1.00  0.00    -0.003 C 
ATOM      6  C   UNL     1      11.631   7.204   8.125  1.00  0.00     0.004 C 
ENDBRANCH   4   5
ENDBRANCH   3   4
ENDBRANCH   1   3
BRANCH   2   7
ATOM      7  C   UNL     1      10.426   1.701   5.531  1.00  0.00    -0.002 C 
ATOM      8  C   UNL     1      11.517   1.912   4.784  1.00  0.00     0.001 C 
BRANCH   8   9
ATOM      9  C   UNL     1      12.583   2.923   5.109  1.00  0.00     0.183 C 
BRANCH   9  10
ATOM     10  O   UNL     1      12.271   4.167   4.541  1.00  0.00    -0.392 OA
ATOM     11  H   UNL     1      11.406   4.450   4.936  1.00  0.00     0.210 HD
ENDBRANCH   9  10
ENDBRANCH   8   9
ENDBRANCH   2   7
TORSDOF 6
ENDMDL
MODEL 3
REMARK VINA RESULT:    -4.031      2.457      4.743
REMARK INTER + INTRA:          -5.691
REMARK INTER:                  -5.403
REMARK INTRA:                  -0.288
REMARK UNBOUND:                -0.364
REMARK SMILES CCCCC=CC=CCO
REMARK SMILES IDX 5 1 6 2 4 3 3 4 2 5 1 6 7 7 8 8 9 9 10 10
REMARK H PARENT 10 11
REMARK Flexibility Score: inf
ROOT
ATOM      1  C   UNL     1       9.489   4.059   7.947  1.00  0.00    -0.027 C 
ATOM      2  C   UNL     1      10.626   3.373   7.801  1.00  0.00    -0.005 C 
ENDROOT
BRANCH   1   3
ATOM      3  C   UNL     1       9.448   5.553   7.802  1.00  0.00     0.027 C 
BRANCH   3   4
ATOM      4  C   UNL     1      10.809   6.181   8.125  1.00  0.00     0.004 C 
BRANCH   4   5
ATOM      5  C   UNL     1      11.052   7.432   7.273  1.00  0.00    -0.003 C 
ATOM      6  C   UNL     1      11.902   7.107   6.047  1.00  0.00     0.004 C 
ENDBRANCH   4   5
ENDBRANCH   3   4
ENDBRANCH   1   3
BRANCH   2   7
ATOM      7  C   UNL     1      10.644   1.903   7.936  1.00  0.00    -0.002 C 
ATOM      8  C   UNL     1      10.268   1.061   6.965  1.00  0.00     0.001 C 
BRANCH   8   9
ATOM      9  C   UNL     1       9.775   1.496   5.612  1.00  0.00     0.183 C 
BRANCH   9  10
ATOM     10  O   UNL     1       8.382   1.356   5.528  1.00  0.00    -0.392 OA
ATOM     11  H   UNL     1       8.047   1.285   6.460  1.00  0.00     0.210 HD
ENDBRANCH   9  10
ENDBRANCH   8   9
ENDBRANCH   2   7
TORSDOF 6
ENDMDL
MODEL 4
REMARK VINA RESULT:    -3.851      1.112      1.797
REMARK INTER + INTRA:          -5.453
REMARK INTER:                  -5.107
REMARK INTRA:                  -0.346
REMARK UNBOUND:                -0.364
REMARK SMILES CCCCC=CC=CCO
REMARK SMILES IDX 5 1 6 2 4 3 3 4 2 5 1 6 7 7 8 8 9 9 10 10
REMARK H PARENT 10 11
REMARK Flexibility Score: inf
ROOT
ATOM      1  C   UNL     1       9.377   3.048   6.474  1.00  0.00    -0.027 C 
ATOM      2  C   UNL     1       9.253   3.471   7.736  1.00  0.00    -0.005 C 
ENDROOT
BRANCH   1   3
ATOM      3  C   UNL     1       9.885   1.672   6.153  1.00  0.00     0.027 C 
BRANCH   3   4
ATOM      4  C   UNL     1      11.118   1.733   5.243  1.00  0.00     0.004 C 
BRANCH   4   5
ATOM      5  C   UNL     1      11.781   3.114   5.308  1.00  0.00    -0.003 C 
ATOM      6  C   UNL     1      12.614   3.385   4.059  1.00  0.00     0.004 C 
ENDBRANCH   4   5
ENDBRANCH   3   4
ENDBRANCH   1   3
BRANCH   2   7
ATOM      7  C   UNL     1       8.740   4.824   8.032  1.00  0.00    -0.002 C 
ATOM      8  C   UNL     1       9.514   5.914   8.107  1.00  0.00     0.001 C 
BRANCH   8   9
ATOM      9  C   UNL     1      11.005   5.909   7.904  1.00  0.00     0.183 C 
BRANCH   9  10
ATOM     10  O   UNL     1      11.328   6.364   6.618  1.00  0.00    -0.392 OA
ATOM     11  H   UNL     1      11.649   7.298   6.720  1.00  0.00     0.210 HD
ENDBRANCH   9  10
ENDBRANCH   8   9
ENDBRANCH   2   7
TORSDOF 6
ENDMDL
MODEL 5
REMARK VINA RESULT:    -3.747      1.323      2.094
REMARK INTER + INTRA:          -5.315
REMARK INTER:                  -4.963
REMARK INTRA:                  -0.352
REMARK UNBOUND:                -0.364
REMARK SMILES CCCCC=CC=CCO
REMARK SMILES IDX 5 1 6 2 4 3 3 4 2 5 1 6 7 7 8 8 9 9 10 10
REMARK H PARENT 10 11
REMARK Flexibility Score: inf
ROOT
ATOM      1  C   UNL     1       9.783   2.464   7.867  1.00  0.00    -0.027 C 
ATOM      2  C   UNL     1       9.352   3.560   7.235  1.00  0.00    -0.005 C 
ENDROOT
BRANCH   1   3
ATOM      3  C   UNL     1      10.332   1.287   7.115  1.00  0.00     0.027 C 
BRANCH   3   4
ATOM      4  C   UNL     1      11.405   1.721   6.109  1.00  0.00     0.004 C 
BRANCH   4   5
ATOM      5  C   UNL     1      11.148   1.101   4.731  1.00  0.00    -0.003 C 
ATOM      6  C   UNL     1      10.374  -0.210   4.852  1.00  0.00     0.004 C 
ENDBRANCH   4   5
ENDBRANCH   3   4
ENDBRANCH   1   3
BRANCH   2   7
ATOM      7  C   UNL     1       8.826   4.713   7.994  1.00  0.00    -0.002 C 
ATOM      8  C   UNL     1       9.476   5.876   8.125  1.00  0.00     0.001 C 
BRANCH   8   9
ATOM      9  C   UNL     1      10.824   6.165   7.524  1.00  0.00     0.183 C 
BRANCH   9  10
ATOM     10  O   UNL     1      10.717   7.134   6.516  1.00  0.00    -0.392 OA
ATOM     11  H   UNL     1      11.505   7.731   6.610  1.00  0.00     0.210 HD
ENDBRANCH   9  10
ENDBRANCH   8   9
ENDBRANCH   2   7
TORSDOF 6
ENDMDL
MODEL 6
REMARK VINA RESULT:    -3.642      2.141      3.387
REMARK INTER + INTRA:          -5.176
REMARK INTER:                  -4.852
REMARK INTRA:                  -0.325
REMARK UNBOUND:                -0.364
REMARK SMILES CCCCC=CC=CCO
REMARK SMILES IDX 5 1 6 2 4 3 3 4 2 5 1 6 7 7 8 8 9 9 10 10
REMARK H PARENT 10 11
REMARK Flexibility Score: inf
ROOT
ATOM      1  C   UNL     1      11.518   3.194   5.696  1.00  0.00    -0.027 C 
ATOM      2  C   UNL     1      11.288   3.402   6.996  1.00  0.00    -0.005 C 
ENDROOT
BRANCH   1   3
ATOM      3  C   UNL     1      11.659   1.809   5.135  1.00  0.00     0.027 C 
BRANCH   3   4
ATOM      4  C   UNL     1      12.458   1.818   3.826  1.00  0.00     0.004 C 
BRANCH   4   5
ATOM      5  C   UNL     1      12.933   3.234   3.483  1.00  0.00    -0.003 C 
ATOM      6  C   UNL     1      13.580   3.278   2.101  1.00  0.00     0.004 C 
ENDBRANCH   4   5
ENDBRANCH   3   4
ENDBRANCH   1   3
BRANCH   2   7
ATOM      7  C   UNL     1      11.140   4.772   7.528  1.00  0.00    -0.002 C 
ATOM      8  C   UNL     1       9.964   5.316   7.866  1.00  0.00     0.001 C 
BRANCH   8   9
ATOM      9  C   UNL     1       8.641   4.612   7.747  1.00  0.00     0.183 C 
BRANCH   9  10
ATOM     10  O   UNL     1       8.151   4.702   6.436  1.00  0.00    -0.392 OA
ATOM     11  H   UNL     1       7.244   5.102   6.499  1.00  0.00     0.210 HD
ENDBRANCH   9  10
ENDBRANCH   8   9
ENDBRANCH   2   7
TORSDOF 6
ENDMDL
MODEL 7
REMARK VINA RESULT:    -3.538      2.955      4.984
REMARK INTER + INTRA:          -5.039
REMARK INTER:                  -4.735
REMARK INTRA:                  -0.303
REMARK UNBOUND:                -0.364
REMARK SMILES CCCCC=CC=CCO
REMARK SMILES IDX 5 1 6 2 4 3 3 4 2 5 1 6 7 7 8 8 9 9 10 10
REMARK H PARENT 10 11
REMARK Flexibility Score: inf
ROOT
ATOM      1  C   UNL     1      10.488   2.816   5.710  1.00  0.00    -0.027 C 
ATOM      2  C   UNL     1      11.620   2.236   5.302  1.00  0.00    -0.005 C 
ENDROOT
BRANCH   1   3
ATOM      3  C   UNL     1       9.509   2.097   6.592  1.00  0.00     0.027 C 
BRANCH   3   4
ATOM      4  C   UNL     1       9.527   2.659   8.019  1.00  0.00     0.004 C 
BRANCH   4   5
ATOM      5  C   UNL     1       9.588   4.190   8.004  1.00  0.00    -0.003 C 
ATOM      6  C   UNL     1       8.193   4.798   8.121  1.00  0.00     0.004 C 
ENDBRANCH   4   5
ENDBRANCH   3   4
ENDBRANCH   1   3
BRANCH   2   7
ATOM      7  C   UNL     1      12.577   2.964   4.445  1.00  0.00    -0.002 C 
ATOM      8  C   UNL     1      12.927   2.566   3.215  1.00  0.00     0.001 C 
BRANCH   8   9
ATOM      9  C   UNL     1      12.400   1.327   2.544  1.00  0.00     0.183 C 
BRANCH   9  10
ATOM     10  O   UNL     1      12.115   1.581   1.195  1.00  0.00    -0.392 OA
ATOM     11  H   UNL     1      12.665   0.946   0.665  1.00  0.00     0.210 HD
ENDBRANCH   9  10
ENDBRANCH   8   9
ENDBRANCH   2   7
TORSDOF 6
ENDMDL
MODEL 8
REMARK VINA RESULT:    -3.533      2.154      3.125
REMARK INTER + INTRA:          -5.032
REMARK INTER:                  -4.749
REMARK INTRA:                  -0.283
REMARK UNBOUND:                -0.364
REMARK SMILES CCCCC=CC=CCO
REMARK SMILES IDX 5 1 6 2 4 3 3 4 2 5 1 6 7 7 8 8 9 9 10 10
REMARK H PARENT 10 11
REMARK Flexibility Score: inf
ROOT
ATOM      1  C   UNL     1      11.723   3.437   6.370  1.00  0.00    -0.027 C 
ATOM      2  C   UNL     1      11.313   3.741   7.605  1.00  0.00    -0.005 C 
ENDROOT
BRANCH   1   3
ATOM      3  C   UNL     1      12.067   2.028   5.980  1.00  0.00     0.027 C 
BRANCH   3   4
ATOM      4  C   UNL     1      11.802   1.784   4.490  1.00  0.00     0.004 C 
BRANCH   4   5
ATOM      5  C   UNL     1      11.382   0.331   4.238  1.00  0.00    -0.003 C 
ATOM      6  C   UNL     1      10.019   0.037   4.859  1.00  0.00     0.004 C 
ENDBRANCH   4   5
ENDBRANCH   3   4
ENDBRANCH   1   3
BRANCH   2   7
ATOM      7  C   UNL     1      10.968   5.130   7.967  1.00  0.00    -0.002 C 
ATOM      8  C   UNL     1       9.712   5.582   8.076  1.00  0.00     0.001 C 
BRANCH   8   9
ATOM      9  C   UNL     1       8.488   4.740   7.841  1.00  0.00     0.183 C 
BRANCH   9  10
ATOM     10  O   UNL     1       8.158   4.719   6.479  1.00  0.00    -0.392 OA
ATOM     11  H   UNL     1       8.529   3.875   6.110  1.00  0.00     0.210 HD
ENDBRANCH   9  10
ENDBRANCH   8   9
ENDBRANCH   2   7
TORSDOF 6
ENDMDL
MODEL 9
REMARK VINA RESULT:    -2.961      1.976      4.473
REMARK INTER + INTRA:          -4.276
REMARK INTER:                  -3.972
REMARK INTRA:                  -0.304
REMARK UNBOUND:                -0.364
REMARK SMILES CCCCC=CC=CCO
REMARK SMILES IDX 5 1 6 2 4 3 3 4 2 5 1 6 7 7 8 8 9 9 10 10
REMARK H PARENT 10 11
REMARK Flexibility Score: inf
ROOT
ATOM      1  C   UNL     1       8.940   4.392   7.321  1.00  0.00    -0.027 C 
ATOM      2  C   UNL     1       9.700   3.294   7.355  1.00  0.00    -0.005 C 
ENDROOT
BRANCH   1   3
ATOM      3  C   UNL     1       9.285   5.613   8.123  1.00  0.00     0.027 C 
BRANCH   3   4
ATOM      4  C   UNL     1      10.798   5.867   8.125  1.00  0.00     0.004 C 
BRANCH   4   5
ATOM      5  C   UNL     1      11.121   7.258   7.567  1.00  0.00    -0.003 C 
ATOM      6  C   UNL     1      11.837   7.159   6.222  1.00  0.00     0.004 C 
ENDBRANCH   4   5
ENDBRANCH   3   4
ENDBRANCH   1   3
BRANCH   2   7
ATOM      7  C   UNL     1       9.350   2.107   6.550  1.00  0.00    -0.002 C 
ATOM      8  C   UNL     1      10.191   1.514   5.692  1.00  0.00     0.001 C 
BRANCH   8   9
ATOM      9  C   UNL     1      11.598   1.978   5.430  1.00  0.00     0.183 C 
BRANCH   9  10
ATOM     10  O   UNL     1      12.009   1.601   4.143  1.00  0.00    -0.392 OA
ATOM     11  H   UNL     1      12.207   0.629   4.182  1.00  0.00     0.210 HD
ENDBRANCH   9  10
ENDBRANCH   8   9
ENDBRANCH   2   7
TORSDOF 6
ENDMDL
