MODEL 1
REMARK VINA RESULT:    -6.554      0.000      0.000
REMARK INTER + INTRA:          -8.648
REMARK INTER:                  -8.086
REMARK INTRA:                  -0.563
REMARK UNBOUND:                -0.563
REMARK SMILES CC(C)=CCC[C@@H](C)c1ccc(C)cc1
REMARK SMILES IDX 6 1 7 2 8 3 9 4 13 5 12 6 11 7 14 8 10 9 15 10 5 11 4 12
REMARK SMILES IDX 2 13 1 14 3 15
REMARK H PARENT
REMARK Flexibility Score: inf
ROOT
ATOM      1  C   UNL     1       8.937   6.348  -4.722  1.00  0.00     0.012 C 
ENDROOT
BRANCH   1   2
ATOM      2  C   UNL     1       9.269   7.084  -6.043  1.00  0.00     0.016 C 
ATOM      3  C   UNL     1      10.644   7.769  -6.008  1.00  0.00     0.013 C 
BRANCH   2   4
ATOM      4  C   UNL     1       9.188   6.122  -7.214  1.00  0.00    -0.045 A 
ATOM      5  C   UNL     1       8.948   3.363 -10.529  1.00  0.00     0.044 C 
ATOM      6  C   UNL     1       9.063   4.314  -9.376  1.00  0.00    -0.051 A 
ATOM      7  C   UNL     1       8.810   3.874  -8.069  1.00  0.00     0.004 A 
ATOM      8  C   UNL     1       9.356   5.667  -9.601  1.00  0.00     0.004 A 
ATOM      9  C   UNL     1       8.879   4.768  -6.996  1.00  0.00     0.004 A 
ATOM     10  C   UNL     1       9.426   6.562  -8.530  1.00  0.00     0.004 A 
ENDBRANCH   2   4
ENDBRANCH   1   2
BRANCH   1  11
ATOM     11  C   UNL     1       7.494   6.573  -4.228  1.00  0.00     0.028 C 
BRANCH  11  12
ATOM     12  C   UNL     1       7.329   6.239  -2.764  1.00  0.00    -0.028 C 
ATOM     13  C   UNL     1       6.839   5.068  -2.298  1.00  0.00    -0.080 C 
ATOM     14  C   UNL     1       6.355   3.975  -3.222  1.00  0.00     0.039 C 
ATOM     15  C   UNL     1       6.748   4.872  -0.807  1.00  0.00     0.039 C 
ENDBRANCH  11  12
ENDBRANCH   1  11
TORSDOF 4
ENDMDL
MODEL 2
REMARK VINA RESULT:    -6.513      0.133      1.258
REMARK INTER + INTRA:          -8.599
REMARK INTER:                  -8.025
REMARK INTRA:                  -0.574
REMARK UNBOUND:                -0.563
REMARK SMILES CC(C)=CCC[C@@H](C)c1ccc(C)cc1
REMARK SMILES IDX 6 1 7 2 8 3 9 4 13 5 12 6 11 7 14 8 10 9 15 10 5 11 4 12
REMARK SMILES IDX 2 13 1 14 3 15
REMARK H PARENT
REMARK Flexibility Score: inf
ROOT
ATOM      1  C   UNL     1       9.009   6.342  -4.762  1.00  0.00     0.012 C 
ENDROOT
BRANCH   1   2
ATOM      2  C   UNL     1       9.377   7.016  -6.106  1.00  0.00     0.016 C 
ATOM      3  C   UNL     1      10.788   7.622  -6.097  1.00  0.00     0.013 C 
BRANCH   2   4
ATOM      4  C   UNL     1       9.236   6.024  -7.246  1.00  0.00    -0.045 A 
ATOM      5  C   UNL     1       8.844   3.221 -10.510  1.00  0.00     0.044 C 
ATOM      6  C   UNL     1       8.949   4.201  -9.379  1.00  0.00    -0.051 A 
ATOM      7  C   UNL     1       9.306   5.533  -9.630  1.00  0.00     0.004 A 
ATOM      8  C   UNL     1       8.757   3.777  -8.056  1.00  0.00     0.004 A 
ATOM      9  C   UNL     1       9.441   6.439  -8.573  1.00  0.00     0.004 A 
ATOM     10  C   UNL     1       8.892   4.681  -6.999  1.00  0.00     0.004 A 
ENDBRANCH   2   4
ENDBRANCH   1   2
BRANCH   1  11
ATOM     11  C   UNL     1       7.559   6.605  -4.308  1.00  0.00     0.028 C 
BRANCH  11  12
ATOM     12  C   UNL     1       7.346   6.276  -2.849  1.00  0.00    -0.028 C 
ATOM     13  C   UNL     1       6.855   5.101  -2.393  1.00  0.00    -0.080 C 
ATOM     14  C   UNL     1       6.419   3.997  -3.328  1.00  0.00     0.039 C 
ATOM     15  C   UNL     1       6.713   4.913  -0.905  1.00  0.00     0.039 C 
ENDBRANCH  11  12
ENDBRANCH   1  11
TORSDOF 4
ENDMDL
MODEL 3
REMARK VINA RESULT:    -6.270      1.254      6.605
REMARK INTER + INTRA:          -8.299
REMARK INTER:                  -7.805
REMARK INTRA:                  -0.494
REMARK UNBOUND:                -0.563
REMARK SMILES CC(C)=CCC[C@@H](C)c1ccc(C)cc1
REMARK SMILES IDX 6 1 7 2 8 3 9 4 13 5 12 6 11 7 14 8 10 9 15 10 5 11 4 12
REMARK SMILES IDX 2 13 1 14 3 15
REMARK H PARENT
REMARK Flexibility Score: inf
ROOT
ATOM      1  C   UNL     1       7.891   6.723  -4.929  1.00  0.00     0.012 C 
ENDROOT
BRANCH   1   2
ATOM      2  C   UNL     1       7.708   7.397  -3.548  1.00  0.00     0.016 C 
ATOM      3  C   UNL     1       6.710   8.564  -3.588  1.00  0.00     0.013 C 
BRANCH   2   4
ATOM      4  C   UNL     1       7.279   6.371  -2.515  1.00  0.00    -0.045 A 
ATOM      5  C   UNL     1       6.063   3.427   0.404  1.00  0.00     0.044 C 
ATOM      6  C   UNL     1       6.454   4.454  -0.617  1.00  0.00    -0.051 A 
ATOM      7  C   UNL     1       6.755   4.066  -1.930  1.00  0.00     0.004 A 
ATOM      8  C   UNL     1       6.589   5.801  -0.249  1.00  0.00     0.004 A 
ATOM      9  C   UNL     1       7.157   5.017  -2.874  1.00  0.00     0.004 A 
ATOM     10  C   UNL     1       6.990   6.752  -1.191  1.00  0.00     0.004 A 
ENDBRANCH   2   4
ENDBRANCH   1   2
BRANCH   1  11
ATOM     11  C   UNL     1       9.359   6.645  -5.395  1.00  0.00     0.028 C 
BRANCH  11  12
ATOM     12  C   UNL     1       9.497   6.823  -6.889  1.00  0.00    -0.028 C 
ATOM     13  C   UNL     1       9.282   5.845  -7.799  1.00  0.00    -0.080 C 
ATOM     14  C   UNL     1       8.923   4.435  -7.392  1.00  0.00     0.039 C 
ATOM     15  C   UNL     1       9.444   6.177  -9.260  1.00  0.00     0.039 C 
ENDBRANCH  11  12
ENDBRANCH   1  11
TORSDOF 4
ENDMDL
MODEL 4
REMARK VINA RESULT:    -6.054      3.300      6.447
REMARK INTER + INTRA:          -8.032
REMARK INTER:                  -7.004
REMARK INTRA:                  -1.028
REMARK UNBOUND:                -0.563
REMARK SMILES CC(C)=CCC[C@@H](C)c1ccc(C)cc1
REMARK SMILES IDX 6 1 7 2 8 3 9 4 13 5 12 6 11 7 14 8 10 9 15 10 5 11 4 12
REMARK SMILES IDX 2 13 1 14 3 15
REMARK H PARENT
REMARK Flexibility Score: inf
ROOT
ATOM      1  C   UNL     1       8.062   8.321  -3.032  1.00  0.00     0.012 C 
ENDROOT
BRANCH   1   2
ATOM      2  C   UNL     1       7.294   7.101  -3.596  1.00  0.00     0.016 C 
ATOM      3  C   UNL     1       8.023   6.436  -4.773  1.00  0.00     0.013 C 
BRANCH   2   4
ATOM      4  C   UNL     1       7.036   6.088  -2.495  1.00  0.00    -0.045 A 
ATOM      5  C   UNL     1       6.298   3.229   0.658  1.00  0.00     0.044 C 
ATOM      6  C   UNL     1       6.586   4.218  -0.432  1.00  0.00    -0.051 A 
ATOM      7  C   UNL     1       6.653   5.589  -0.143  1.00  0.00     0.004 A 
ATOM      8  C   UNL     1       6.722   3.787  -1.759  1.00  0.00     0.004 A 
ATOM      9  C   UNL     1       6.883   6.516  -1.164  1.00  0.00     0.004 A 
ATOM     10  C   UNL     1       6.953   4.712  -2.781  1.00  0.00     0.004 A 
ENDBRANCH   2   4
ENDBRANCH   1   2
BRANCH   1  11
ATOM     11  C   UNL     1       7.286   9.650  -3.137  1.00  0.00     0.028 C 
BRANCH  11  12
ATOM     12  C   UNL     1       5.828   9.495  -2.772  1.00  0.00    -0.028 C 
ATOM     13  C   UNL     1       5.320   9.726  -1.540  1.00  0.00    -0.080 C 
ATOM     14  C   UNL     1       6.193  10.125  -0.373  1.00  0.00     0.039 C 
ATOM     15  C   UNL     1       3.839   9.544  -1.331  1.00  0.00     0.039 C 
ENDBRANCH  11  12
ENDBRANCH   1  11
TORSDOF 4
ENDMDL
MODEL 5
REMARK VINA RESULT:    -5.718      1.081      2.078
REMARK INTER + INTRA:          -7.618
REMARK INTER:                  -6.721
REMARK INTRA:                  -0.897
REMARK UNBOUND:                -0.563
REMARK SMILES CC(C)=CCC[C@@H](C)c1ccc(C)cc1
REMARK SMILES IDX 6 1 7 2 8 3 9 4 13 5 12 6 11 7 14 8 10 9 15 10 5 11 4 12
REMARK SMILES IDX 2 13 1 14 3 15
REMARK H PARENT
REMARK Flexibility Score: inf
ROOT
ATOM      1  C   UNL     1      10.400   7.128  -6.296  1.00  0.00     0.012 C 
ENDROOT
BRANCH   1   2
ATOM      2  C   UNL     1       9.206   7.153  -7.279  1.00  0.00     0.016 C 
ATOM      3  C   UNL     1       9.286   8.318  -8.277  1.00  0.00     0.013 C 
BRANCH   2   4
ATOM      4  C   UNL     1       9.108   5.831  -8.019  1.00  0.00    -0.045 A 
ATOM      5  C   UNL     1       8.821   2.055 -10.098  1.00  0.00     0.044 C 
ATOM      6  C   UNL     1       8.952   3.362  -9.374  1.00  0.00    -0.051 A 
ATOM      7  C   UNL     1       8.807   3.415  -7.981  1.00  0.00     0.004 A 
ATOM      8  C   UNL     1       9.153   4.550 -10.091  1.00  0.00     0.004 A 
ATOM      9  C   UNL     1       8.892   4.638  -7.307  1.00  0.00     0.004 A 
ATOM     10  C   UNL     1       9.238   5.773  -9.420  1.00  0.00     0.004 A 
ENDBRANCH   2   4
ENDBRANCH   1   2
BRANCH   1  11
ATOM     11  C   UNL     1      10.033   7.546  -4.858  1.00  0.00     0.028 C 
BRANCH  11  12
ATOM     12  C   UNL     1       9.151   6.530  -4.171  1.00  0.00    -0.028 C 
ATOM     13  C   UNL     1       7.904   6.785  -3.715  1.00  0.00    -0.080 C 
ATOM     14  C   UNL     1       7.279   8.158  -3.808  1.00  0.00     0.039 C 
ATOM     15  C   UNL     1       7.135   5.663  -3.064  1.00  0.00     0.039 C 
ENDBRANCH  11  12
ENDBRANCH   1  11
TORSDOF 4
ENDMDL
MODEL 6
REMARK VINA RESULT:    -5.421      2.469      5.052
REMARK INTER + INTRA:          -7.251
REMARK INTER:                  -6.782
REMARK INTRA:                  -0.468
REMARK UNBOUND:                -0.563
REMARK SMILES CC(C)=CCC[C@@H](C)c1ccc(C)cc1
REMARK SMILES IDX 6 1 7 2 8 3 9 4 13 5 12 6 11 7 14 8 10 9 15 10 5 11 4 12
REMARK SMILES IDX 2 13 1 14 3 15
REMARK H PARENT
REMARK Flexibility Score: inf
ROOT
ATOM      1  C   UNL     1       8.865   3.785  -7.954  1.00  0.00     0.012 C 
ENDROOT
BRANCH   1   2
ATOM      2  C   UNL     1       8.488   3.390  -9.401  1.00  0.00     0.016 C 
ATOM      3  C   UNL     1       8.899   4.453 -10.431  1.00  0.00     0.013 C 
BRANCH   2   4
ATOM      4  C   UNL     1       9.101   2.047  -9.755  1.00  0.00    -0.045 A 
ATOM      5  C   UNL     1      10.871  -1.761 -10.769  1.00  0.00     0.044 C 
ATOM      6  C   UNL     1      10.244  -0.437 -10.447  1.00  0.00    -0.051 A 
ATOM      7  C   UNL     1      10.971   0.750 -10.619  1.00  0.00     0.004 A 
ATOM      8  C   UNL     1       8.952  -0.380  -9.906  1.00  0.00     0.004 A 
ATOM      9  C   UNL     1      10.402   1.982 -10.284  1.00  0.00     0.004 A 
ATOM     10  C   UNL     1       8.381   0.851  -9.570  1.00  0.00     0.004 A 
ENDBRANCH   2   4
ENDBRANCH   1   2
BRANCH   1  11
ATOM     11  C   UNL     1       9.133   5.293  -7.768  1.00  0.00     0.028 C 
BRANCH  11  12
ATOM     12  C   UNL     1       8.818   5.764  -6.367  1.00  0.00    -0.028 C 
ATOM     13  C   UNL     1       9.603   6.596  -5.646  1.00  0.00    -0.080 C 
ATOM     14  C   UNL     1      10.925   7.107  -6.169  1.00  0.00     0.039 C 
ATOM     15  C   UNL     1       9.149   6.992  -4.265  1.00  0.00     0.039 C 
ENDBRANCH  11  12
ENDBRANCH   1  11
TORSDOF 4
ENDMDL
MODEL 7
REMARK VINA RESULT:    -5.391      1.588      2.667
REMARK INTER + INTRA:          -7.214
REMARK INTER:                  -6.726
REMARK INTRA:                  -0.488
REMARK UNBOUND:                -0.563
REMARK SMILES CC(C)=CCC[C@@H](C)c1ccc(C)cc1
REMARK SMILES IDX 6 1 7 2 8 3 9 4 13 5 12 6 11 7 14 8 10 9 15 10 5 11 4 12
REMARK SMILES IDX 2 13 1 14 3 15
REMARK H PARENT
REMARK Flexibility Score: inf
ROOT
ATOM      1  C   UNL     1       7.948   7.111  -2.697  1.00  0.00     0.012 C 
ENDROOT
BRANCH   1   2
ATOM      2  C   UNL     1       8.119   8.307  -3.664  1.00  0.00     0.016 C 
ATOM      3  C   UNL     1       9.148   9.331  -3.161  1.00  0.00     0.013 C 
BRANCH   2   4
ATOM      4  C   UNL     1       8.500   7.813  -5.048  1.00  0.00    -0.045 A 
ATOM      5  C   UNL     1       9.574   6.379  -8.979  1.00  0.00     0.044 C 
ATOM      6  C   UNL     1       9.232   6.875  -7.605  1.00  0.00    -0.051 A 
ATOM      7  C   UNL     1       8.828   5.974  -6.609  1.00  0.00     0.004 A 
ATOM      8  C   UNL     1       9.247   8.249  -7.325  1.00  0.00     0.004 A 
ATOM      9  C   UNL     1       8.472   6.438  -5.339  1.00  0.00     0.004 A 
ATOM     10  C   UNL     1       8.892   8.714  -6.056  1.00  0.00     0.004 A 
ENDBRANCH   2   4
ENDBRANCH   1   2
BRANCH   1  11
ATOM     11  C   UNL     1       6.588   7.086  -1.971  1.00  0.00     0.028 C 
BRANCH  11  12
ATOM     12  C   UNL     1       6.548   6.061  -0.862  1.00  0.00    -0.028 C 
ATOM     13  C   UNL     1       6.473   4.725  -1.058  1.00  0.00    -0.080 C 
ATOM     14  C   UNL     1       6.373   4.120  -2.439  1.00  0.00     0.039 C 
ATOM     15  C   UNL     1       6.458   3.823   0.150  1.00  0.00     0.039 C 
ENDBRANCH  11  12
ENDBRANCH   1  11
TORSDOF 4
ENDMDL
MODEL 8
REMARK VINA RESULT:    -5.068      1.951      2.894
REMARK INTER + INTRA:          -6.816
REMARK INTER:                  -6.190
REMARK INTRA:                  -0.626
REMARK UNBOUND:                -0.563
REMARK SMILES CC(C)=CCC[C@@H](C)c1ccc(C)cc1
REMARK SMILES IDX 6 1 7 2 8 3 9 4 13 5 12 6 11 7 14 8 10 9 15 10 5 11 4 12
REMARK SMILES IDX 2 13 1 14 3 15
REMARK H PARENT
REMARK Flexibility Score: inf
ROOT
ATOM      1  C   UNL     1       9.732   7.984  -5.928  1.00  0.00     0.012 C 
ENDROOT
BRANCH   1   2
ATOM      2  C   UNL     1       9.308   6.506  -5.756  1.00  0.00     0.016 C 
ATOM      3  C   UNL     1       7.991   6.355  -4.979  1.00  0.00     0.013 C 
BRANCH   2   4
ATOM      4  C   UNL     1       9.203   5.829  -7.111  1.00  0.00    -0.045 A 
ATOM      5  C   UNL     1       8.894   3.879 -10.953  1.00  0.00     0.044 C 
ATOM      6  C   UNL     1       9.033   4.550  -9.619  1.00  0.00    -0.051 A 
ATOM      7  C   UNL     1       8.833   3.822  -8.437  1.00  0.00     0.004 A 
ATOM      8  C   UNL     1       9.296   5.925  -9.543  1.00  0.00     0.004 A 
ATOM      9  C   UNL     1       8.924   4.454  -7.193  1.00  0.00     0.004 A 
ATOM     10  C   UNL     1       9.388   6.559  -8.301  1.00  0.00     0.004 A 
ENDBRANCH   2   4
ENDBRANCH   1   2
BRANCH   1  11
ATOM     11  C   UNL     1       8.723   8.995  -5.347  1.00  0.00     0.028 C 
BRANCH  11  12
ATOM     12  C   UNL     1       9.125   9.484  -3.975  1.00  0.00    -0.028 C 
ATOM     13  C   UNL     1       8.271   9.642  -2.939  1.00  0.00    -0.080 C 
ATOM     14  C   UNL     1       6.788   9.382  -3.073  1.00  0.00     0.039 C 
ATOM     15  C   UNL     1       8.823  10.125  -1.622  1.00  0.00     0.039 C 
ENDBRANCH  11  12
ENDBRANCH   1  11
TORSDOF 4
ENDMDL
MODEL 9
REMARK VINA RESULT:    -4.598      3.347      6.099
REMARK INTER + INTRA:          -6.236
REMARK INTER:                  -5.829
REMARK INTRA:                  -0.407
REMARK UNBOUND:                -0.563
REMARK SMILES CC(C)=CCC[C@@H](C)c1ccc(C)cc1
REMARK SMILES IDX 6 1 7 2 8 3 9 4 13 5 12 6 11 7 14 8 10 9 15 10 5 11 4 12
REMARK SMILES IDX 2 13 1 14 3 15
REMARK H PARENT
REMARK Flexibility Score: inf
ROOT
ATOM      1  C   UNL     1       8.854   2.776  -8.669  1.00  0.00     0.012 C 
ENDROOT
BRANCH   1   2
ATOM      2  C   UNL     1       8.532   2.271 -10.096  1.00  0.00     0.016 C 
ATOM      3  C   UNL     1       9.593   2.691 -11.125  1.00  0.00     0.013 C 
BRANCH   2   4
ATOM      4  C   UNL     1       8.369   0.761 -10.093  1.00  0.00    -0.045 A 
ATOM      5  C   UNL     1       7.881  -3.531 -10.107  1.00  0.00     0.044 C 
ATOM      6  C   UNL     1       8.030  -2.039 -10.077  1.00  0.00    -0.051 A 
ATOM      7  C   UNL     1       7.192  -1.229 -10.857  1.00  0.00     0.004 A 
ATOM      8  C   UNL     1       9.053  -1.446  -9.323  1.00  0.00     0.004 A 
ATOM      9  C   UNL     1       7.355   0.160 -10.859  1.00  0.00     0.004 A 
ATOM     10  C   UNL     1       9.217  -0.058  -9.324  1.00  0.00     0.004 A 
ENDBRANCH   2   4
ENDBRANCH   1   2
BRANCH   1  11
ATOM     11  C   UNL     1       8.908   4.312  -8.548  1.00  0.00     0.028 C 
BRANCH  11  12
ATOM     12  C   UNL     1       8.674   4.786  -7.133  1.00  0.00    -0.028 C 
ATOM     13  C   UNL     1       8.913   6.044  -6.698  1.00  0.00    -0.080 C 
ATOM     14  C   UNL     1       9.498   7.107  -7.599  1.00  0.00     0.039 C 
ATOM     15  C   UNL     1       8.615   6.374  -5.259  1.00  0.00     0.039 C 
ENDBRANCH  11  12
ENDBRANCH   1  11
TORSDOF 4
ENDMDL
