MODEL 1
REMARK VINA RESULT:    -3.066      0.000      0.000
REMARK INTER + INTRA:          -3.335
REMARK INTER:                  -3.335
REMARK INTRA:                   0.000
REMARK UNBOUND:                 0.000
REMARK SMILES Oc1cccc(O)c1O
REMARK SMILES IDX 4 1 5 2 6 3 8 4 2 5 3 6 7 7 1 9 9 11
REMARK H PARENT 7 8 1 10 9 12
REMARK Flexibility Score: inf
ROOT
ATOM      1  C   UNL     1      12.977 -20.478  85.756  1.00  0.00     0.008 A 
ATOM      2  C   UNL     1      12.049 -21.367  85.209  1.00  0.00     0.050 A 
ATOM      3  C   UNL     1      10.878 -20.883  84.609  1.00  0.00     0.161 A 
ATOM      4  C   UNL     1      10.637 -19.503  84.557  1.00  0.00     0.200 A 
ATOM      5  C   UNL     1      11.572 -18.607  85.109  1.00  0.00     0.161 A 
ATOM      6  C   UNL     1      12.740 -19.101  85.707  1.00  0.00     0.050 A 
ENDROOT
BRANCH   3   7
ATOM      7  O   UNL     1       9.951 -21.768  84.062  1.00  0.00    -0.504 OA
ATOM      8  H   UNL     1       9.565 -22.533  84.602  1.00  0.00     0.293 HD
ENDBRANCH   3   7
BRANCH   5   9
ATOM      9  O   UNL     1      11.337 -17.233  85.060  1.00  0.00    -0.504 OA
ATOM     10  H   UNL     1      11.934 -16.576  85.548  1.00  0.00     0.293 HD
ENDBRANCH   5   9
BRANCH   4  11
ATOM     11  O   UNL     1       9.467 -19.038  83.957  1.00  0.00    -0.502 OA
ATOM     12  H   UNL     1       8.793 -18.471  84.459  1.00  0.00     0.293 HD
ENDBRANCH   4  11
TORSDOF 3
ENDMDL
MODEL 2
REMARK VINA RESULT:    -3.049      0.118      2.801
REMARK INTER + INTRA:          -3.317
REMARK INTER:                  -3.317
REMARK INTRA:                   0.000
REMARK UNBOUND:                 0.000
REMARK SMILES Oc1cccc(O)c1O
REMARK SMILES IDX 4 1 5 2 6 3 8 4 2 5 3 6 7 7 1 9 9 11
REMARK H PARENT 7 8 1 10 9 12
REMARK Flexibility Score: inf
ROOT
ATOM      1  C   UNL     1      12.920 -20.352  85.752  1.00  0.00     0.008 A 
ATOM      2  C   UNL     1      12.644 -18.984  85.693  1.00  0.00     0.050 A 
ATOM      3  C   UNL     1      11.471 -18.527  85.076  1.00  0.00     0.161 A 
ATOM      4  C   UNL     1      10.571 -19.446  84.517  1.00  0.00     0.200 A 
ATOM      5  C   UNL     1      10.850 -20.824  84.576  1.00  0.00     0.161 A 
ATOM      6  C   UNL     1      12.026 -21.270  85.195  1.00  0.00     0.050 A 
ENDROOT
BRANCH   3   7
ATOM      7  O   UNL     1      11.193 -17.163  85.016  1.00  0.00    -0.504 OA
ATOM      8  H   UNL     1      10.348 -16.812  84.581  1.00  0.00     0.293 HD
ENDBRANCH   3   7
BRANCH   5   9
ATOM      9  O   UNL     1       9.958 -21.742  84.021  1.00  0.00    -0.504 OA
ATOM     10  H   UNL     1       9.048 -21.456  83.680  1.00  0.00     0.293 HD
ENDBRANCH   5   9
BRANCH   4  11
ATOM     11  O   UNL     1       9.408 -18.975  83.907  1.00  0.00    -0.502 OA
ATOM     12  H   UNL     1       9.194 -19.168  82.935  1.00  0.00     0.293 HD
ENDBRANCH   4  11
TORSDOF 3
ENDMDL
MODEL 3
REMARK VINA RESULT:    -3.007      1.014      1.888
REMARK INTER + INTRA:          -3.270
REMARK INTER:                  -3.270
REMARK INTRA:                   0.000
REMARK UNBOUND:                 0.000
REMARK SMILES Oc1cccc(O)c1O
REMARK SMILES IDX 4 1 5 2 6 3 8 4 2 5 3 6 7 7 1 9 9 11
REMARK H PARENT 7 8 1 10 9 12
REMARK Flexibility Score: inf
ROOT
ATOM      1  C   UNL     1      12.675 -19.422  85.516  1.00  0.00     0.008 A 
ATOM      2  C   UNL     1      12.707 -20.811  85.658  1.00  0.00     0.050 A 
ATOM      3  C   UNL     1      11.624 -21.589  85.227  1.00  0.00     0.161 A 
ATOM      4  C   UNL     1      10.504 -20.972  84.652  1.00  0.00     0.200 A 
ATOM      5  C   UNL     1      10.471 -19.573  84.509  1.00  0.00     0.161 A 
ATOM      6  C   UNL     1      11.560 -18.803  84.944  1.00  0.00     0.050 A 
ENDROOT
BRANCH   3   7
ATOM      7  O   UNL     1      11.654 -22.976  85.367  1.00  0.00    -0.504 OA
ATOM      8  H   UNL     1      11.595 -23.592  84.565  1.00  0.00     0.293 HD
ENDBRANCH   3   7
BRANCH   5   9
ATOM      9  O   UNL     1       9.360 -18.954  83.938  1.00  0.00    -0.504 OA
ATOM     10  H   UNL     1       9.327 -18.729  82.951  1.00  0.00     0.293 HD
ENDBRANCH   5   9
BRANCH   4  11
ATOM     11  O   UNL     1       9.434 -21.761  84.229  1.00  0.00    -0.502 OA
ATOM     12  H   UNL     1       9.152 -21.810  83.257  1.00  0.00     0.293 HD
ENDBRANCH   4  11
TORSDOF 3
ENDMDL
MODEL 4
REMARK VINA RESULT:    -2.979      1.064      2.864
REMARK INTER + INTRA:          -3.241
REMARK INTER:                  -3.241
REMARK INTRA:                   0.000
REMARK UNBOUND:                 0.000
REMARK SMILES Oc1cccc(O)c1O
REMARK SMILES IDX 4 1 5 2 6 3 8 4 2 5 3 6 7 7 1 9 9 11
REMARK H PARENT 7 8 1 10 9 12
REMARK Flexibility Score: inf
ROOT
ATOM      1  C   UNL     1      12.646 -19.476  85.468  1.00  0.00     0.008 A 
ATOM      2  C   UNL     1      11.515 -18.861  84.928  1.00  0.00     0.050 A 
ATOM      3  C   UNL     1      10.409 -19.631  84.543  1.00  0.00     0.161 A 
ATOM      4  C   UNL     1      10.438 -21.025  84.699  1.00  0.00     0.200 A 
ATOM      5  C   UNL     1      11.579 -21.645  85.242  1.00  0.00     0.161 A 
ATOM      6  C   UNL     1      12.680 -20.865  85.625  1.00  0.00     0.050 A 
ENDROOT
BRANCH   3   7
ATOM      7  O   UNL     1       9.279 -19.020  84.004  1.00  0.00    -0.504 OA
ATOM      8  H   UNL     1       9.116 -18.991  83.005  1.00  0.00     0.293 HD
ENDBRANCH   3   7
BRANCH   5   9
ATOM      9  O   UNL     1      11.614 -23.030  85.399  1.00  0.00    -0.504 OA
ATOM     10  H   UNL     1      12.081 -23.627  84.729  1.00  0.00     0.293 HD
ENDBRANCH   5   9
BRANCH   4  11
ATOM     11  O   UNL     1       9.330 -21.777  84.309  1.00  0.00    -0.502 OA
ATOM     12  H   UNL     1       8.406 -21.369  84.222  1.00  0.00     0.293 HD
ENDBRANCH   4  11
TORSDOF 3
ENDMDL
MODEL 5
REMARK VINA RESULT:    -2.670      2.005      2.927
REMARK INTER + INTRA:          -2.904
REMARK INTER:                  -2.904
REMARK INTRA:                   0.000
REMARK UNBOUND:                 0.000
REMARK SMILES Oc1cccc(O)c1O
REMARK SMILES IDX 4 1 5 2 6 3 8 4 2 5 3 6 7 7 1 9 9 11
REMARK H PARENT 7 8 1 10 9 12
REMARK Flexibility Score: inf
ROOT
ATOM      1  C   UNL     1      11.581 -20.467  84.116  1.00  0.00     0.008 A 
ATOM      2  C   UNL     1      12.674 -20.768  84.931  1.00  0.00     0.050 A 
ATOM      3  C   UNL     1      13.187 -19.802  85.809  1.00  0.00     0.161 A 
ATOM      4  C   UNL     1      12.601 -18.530  85.868  1.00  0.00     0.200 A 
ATOM      5  C   UNL     1      11.499 -18.227  85.046  1.00  0.00     0.161 A 
ATOM      6  C   UNL     1      10.994 -19.200  84.172  1.00  0.00     0.050 A 
ENDROOT
BRANCH   3   7
ATOM      7  O   UNL     1      14.278 -20.100  86.623  1.00  0.00    -0.504 OA
ATOM      8  H   UNL     1      14.945 -19.389  86.898  1.00  0.00     0.293 HD
ENDBRANCH   3   7
BRANCH   5   9
ATOM      9  O   UNL     1      10.913 -16.963  85.101  1.00  0.00    -0.504 OA
ATOM     10  H   UNL     1       9.907 -16.847  85.142  1.00  0.00     0.293 HD
ENDBRANCH   5   9
BRANCH   4  11
ATOM     11  O   UNL     1      13.123 -17.580  86.746  1.00  0.00    -0.502 OA
ATOM     12  H   UNL     1      14.104 -17.564  87.001  1.00  0.00     0.293 HD
ENDBRANCH   4  11
TORSDOF 3
ENDMDL
MODEL 6
REMARK VINA RESULT:    -2.664      2.011      3.358
REMARK INTER + INTRA:          -2.898
REMARK INTER:                  -2.898
REMARK INTRA:                   0.000
REMARK UNBOUND:                 0.000
REMARK SMILES Oc1cccc(O)c1O
REMARK SMILES IDX 4 1 5 2 6 3 8 4 2 5 3 6 7 7 1 9 9 11
REMARK H PARENT 7 8 1 10 9 12
REMARK Flexibility Score: inf
ROOT
ATOM      1  C   UNL     1      11.568 -20.449  84.104  1.00  0.00     0.008 A 
ATOM      2  C   UNL     1      10.975 -19.187  84.193  1.00  0.00     0.050 A 
ATOM      3  C   UNL     1      11.490 -18.227  85.076  1.00  0.00     0.161 A 
ATOM      4  C   UNL     1      12.603 -18.533  85.872  1.00  0.00     0.200 A 
ATOM      5  C   UNL     1      13.200 -19.805  85.782  1.00  0.00     0.161 A 
ATOM      6  C   UNL     1      12.677 -20.758  84.896  1.00  0.00     0.050 A 
ENDROOT
BRANCH   3   7
ATOM      7  O   UNL     1      10.900 -16.968  85.167  1.00  0.00    -0.504 OA
ATOM      8  H   UNL     1      11.290 -16.240  85.753  1.00  0.00     0.293 HD
ENDBRANCH   3   7
BRANCH   5   9
ATOM      9  O   UNL     1      14.307 -20.114  86.571  1.00  0.00    -0.504 OA
ATOM     10  H   UNL     1      14.842 -19.393  87.038  1.00  0.00     0.293 HD
ENDBRANCH   5   9
BRANCH   4  11
ATOM     11  O   UNL     1      13.102 -17.567  86.745  1.00  0.00    -0.502 OA
ATOM     12  H   UNL     1      13.890 -16.977  86.503  1.00  0.00     0.293 HD
ENDBRANCH   4  11
TORSDOF 3
ENDMDL
MODEL 7
REMARK VINA RESULT:    -2.636      2.213      3.012
REMARK INTER + INTRA:          -2.867
REMARK INTER:                  -2.867
REMARK INTRA:                   0.000
REMARK UNBOUND:                 0.000
REMARK SMILES Oc1cccc(O)c1O
REMARK SMILES IDX 4 1 5 2 6 3 8 4 2 5 3 6 7 7 1 9 9 11
REMARK H PARENT 7 8 1 10 9 12
REMARK Flexibility Score: inf
ROOT
ATOM      1  C   UNL     1      12.982 -20.154  85.043  1.00  0.00     0.008 A 
ATOM      2  C   UNL     1      11.879 -20.584  84.302  1.00  0.00     0.050 A 
ATOM      3  C   UNL     1      10.947 -21.463  84.872  1.00  0.00     0.161 A 
ATOM      4  C   UNL     1      11.122 -21.911  86.189  1.00  0.00     0.200 A 
ATOM      5  C   UNL     1      12.234 -21.477  86.935  1.00  0.00     0.161 A 
ATOM      6  C   UNL     1      13.161 -20.599  86.355  1.00  0.00     0.050 A 
ENDROOT
BRANCH   3   7
ATOM      7  O   UNL     1       9.845 -21.894  84.136  1.00  0.00    -0.504 OA
ATOM      8  H   UNL     1       9.832 -21.849  83.124  1.00  0.00     0.293 HD
ENDBRANCH   3   7
BRANCH   5   9
ATOM      9  O   UNL     1      12.414 -21.920  88.245  1.00  0.00    -0.504 OA
ATOM     10  H   UNL     1      13.276 -22.361  88.542  1.00  0.00     0.293 HD
ENDBRANCH   5   9
BRANCH   4  11
ATOM     11  O   UNL     1      10.186 -22.786  86.741  1.00  0.00    -0.502 OA
ATOM     12  H   UNL     1       9.289 -22.466  87.088  1.00  0.00     0.293 HD
ENDBRANCH   4  11
TORSDOF 3
ENDMDL
MODEL 8
REMARK VINA RESULT:    -2.617      1.820      3.397
REMARK INTER + INTRA:          -2.847
REMARK INTER:                  -2.847
REMARK INTRA:                   0.000
REMARK UNBOUND:                 0.000
REMARK SMILES Oc1cccc(O)c1O
REMARK SMILES IDX 4 1 5 2 6 3 8 4 2 5 3 6 7 7 1 9 9 11
REMARK H PARENT 7 8 1 10 9 12
REMARK Flexibility Score: inf
ROOT
ATOM      1  C   UNL     1      11.564 -18.468  84.959  1.00  0.00     0.008 A 
ATOM      2  C   UNL     1      12.490 -18.910  85.907  1.00  0.00     0.050 A 
ATOM      3  C   UNL     1      12.599 -20.276  86.202  1.00  0.00     0.161 A 
ATOM      4  C   UNL     1      11.775 -21.202  85.546  1.00  0.00     0.200 A 
ATOM      5  C   UNL     1      10.841 -20.756  84.592  1.00  0.00     0.161 A 
ATOM      6  C   UNL     1      10.741 -19.387  84.304  1.00  0.00     0.050 A 
ENDROOT
BRANCH   3   7
ATOM      7  O   UNL     1      13.522 -20.720  87.147  1.00  0.00    -0.504 OA
ATOM      8  H   UNL     1      13.962 -20.082  87.800  1.00  0.00     0.293 HD
ENDBRANCH   3   7
BRANCH   5   9
ATOM      9  O   UNL     1      10.020 -21.672  83.937  1.00  0.00    -0.504 OA
ATOM     10  H   UNL     1      10.042 -22.659  84.163  1.00  0.00     0.293 HD
ENDBRANCH   5   9
BRANCH   4  11
ATOM     11  O   UNL     1      11.895 -22.557  85.853  1.00  0.00    -0.502 OA
ATOM     12  H   UNL     1      11.247 -23.249  85.497  1.00  0.00     0.293 HD
ENDBRANCH   4  11
TORSDOF 3
ENDMDL
MODEL 9
REMARK VINA RESULT:    -2.518      1.934      2.930
REMARK INTER + INTRA:          -2.739
REMARK INTER:                  -2.739
REMARK INTRA:                   0.000
REMARK UNBOUND:                 0.000
REMARK SMILES Oc1cccc(O)c1O
REMARK SMILES IDX 4 1 5 2 6 3 8 4 2 5 3 6 7 7 1 9 9 11
REMARK H PARENT 7 8 1 10 9 12
REMARK Flexibility Score: inf
ROOT
ATOM      1  C   UNL     1      11.960 -16.929  85.823  1.00  0.00     0.008 A 
ATOM      2  C   UNL     1      11.033 -17.548  84.982  1.00  0.00     0.050 A 
ATOM      3  C   UNL     1      11.131 -18.921  84.714  1.00  0.00     0.161 A 
ATOM      4  C   UNL     1      12.164 -19.674  85.290  1.00  0.00     0.200 A 
ATOM      5  C   UNL     1      13.098 -19.050  86.137  1.00  0.00     0.161 A 
ATOM      6  C   UNL     1      12.991 -17.676  86.399  1.00  0.00     0.050 A 
ENDROOT
BRANCH   3   7
ATOM      7  O   UNL     1      10.207 -19.541  83.875  1.00  0.00    -0.504 OA
ATOM      8  H   UNL     1      10.389 -19.668  82.887  1.00  0.00     0.293 HD
ENDBRANCH   3   7
BRANCH   5   9
ATOM      9  O   UNL     1      14.127 -19.794  86.713  1.00  0.00    -0.504 OA
ATOM     10  H   UNL     1      13.940 -20.645  87.229  1.00  0.00     0.293 HD
ENDBRANCH   5   9
BRANCH   4  11
ATOM     11  O   UNL     1      12.248 -21.039  85.012  1.00  0.00    -0.502 OA
ATOM     12  H   UNL     1      12.113 -21.407  84.077  1.00  0.00     0.293 HD
ENDBRANCH   4  11
TORSDOF 3
ENDMDL
