MODEL 1
REMARK VINA RESULT:    -3.681      0.000      0.000
REMARK INTER + INTRA:          -5.448
REMARK INTER:                  -4.972
REMARK INTRA:                  -0.476
REMARK UNBOUND:                -0.476
REMARK SMILES O=C[C@@H](O)[C@H](O)[C@@H](O)CO
REMARK SMILES IDX 7 1 9 2 10 3 5 5 3 6 2 7 1 8 4 9 6 11 8 13
REMARK H PARENT 10 4 4 10 6 12 8 14
REMARK Flexibility Score: inf
ROOT
ATOM      1  C   UNL     1       8.658  -4.652   9.453  1.00  0.00     0.171 C 
ENDROOT
BRANCH   1   2
ATOM      2  C   UNL     1      10.106  -4.642   8.935  1.00  0.00     0.190 C 
BRANCH   2   3
ATOM      3  O   UNL     1      10.125  -4.411   7.551  1.00  0.00    -0.394 OA
ATOM      4  H   UNL     1       9.427  -4.997   7.156  1.00  0.00     0.210 HD
ENDBRANCH   2   3
ENDBRANCH   1   2
BRANCH   1   5
ATOM      5  C   UNL     1       8.042  -3.228   9.576  1.00  0.00     0.181 C 
BRANCH   5   6
ATOM      6  C   UNL     1       6.595  -3.099   9.033  1.00  0.00     0.209 C 
BRANCH   6   7
ATOM      7  C   UNL     1       5.788  -2.085   9.800  1.00  0.00     0.258 C 
ATOM      8  O   UNL     1       4.620  -2.304  10.076  1.00  0.00    -0.300 OA
ENDBRANCH   6   7
BRANCH   6   9
ATOM      9  O   UNL     1       6.613  -2.748   7.671  1.00  0.00    -0.383 OA
ATOM     10  H   UNL     1       6.008  -3.373   7.190  1.00  0.00     0.211 HD
ENDBRANCH   6   9
ENDBRANCH   5   6
BRANCH   5  11
ATOM     11  O   UNL     1       8.859  -2.304   8.899  1.00  0.00    -0.387 OA
ATOM     12  H   UNL     1       9.690  -2.204   9.434  1.00  0.00     0.211 HD
ENDBRANCH   5  11
ENDBRANCH   1   5
BRANCH   1  13
ATOM     13  O   UNL     1       7.874  -5.468   8.621  1.00  0.00    -0.388 OA
ATOM     14  H   UNL     1       7.149  -5.843   9.186  1.00  0.00     0.211 HD
ENDBRANCH   1  13
TORSDOF 8
ENDMDL
MODEL 2
REMARK VINA RESULT:    -3.642     17.118     17.918
REMARK INTER + INTRA:          -5.396
REMARK INTER:                  -4.574
REMARK INTRA:                  -0.822
REMARK UNBOUND:                -0.476
REMARK SMILES O=C[C@@H](O)[C@H](O)[C@@H](O)CO
REMARK SMILES IDX 7 1 9 2 10 3 5 5 3 6 2 7 1 8 4 9 6 11 8 13
REMARK H PARENT 10 4 4 10 6 12 8 14
REMARK Flexibility Score: inf
ROOT
ATOM      1  C   UNL     1       8.781   7.463  -6.253  1.00  0.00     0.171 C 
ENDROOT
BRANCH   1   2
ATOM      2  C   UNL     1      10.006   6.684  -6.763  1.00  0.00     0.190 C 
BRANCH   2   3
ATOM      3  O   UNL     1      10.045   5.408  -6.184  1.00  0.00    -0.394 OA
ATOM      4  H   UNL     1       9.943   4.756  -6.926  1.00  0.00     0.210 HD
ENDBRANCH   2   3
ENDBRANCH   1   2
BRANCH   1   5
ATOM      5  C   UNL     1       7.430   6.771  -6.598  1.00  0.00     0.181 C 
BRANCH   5   6
ATOM      6  C   UNL     1       6.629   6.265  -5.371  1.00  0.00     0.209 C 
BRANCH   6   7
ATOM      7  C   UNL     1       5.371   5.541  -5.770  1.00  0.00     0.258 C 
ATOM      8  O   UNL     1       5.311   4.323  -5.711  1.00  0.00    -0.300 OA
ENDBRANCH   6   7
BRANCH   6   9
ATOM      9  O   UNL     1       7.427   5.416  -4.583  1.00  0.00    -0.383 OA
ATOM     10  H   UNL     1       8.210   5.141  -5.130  1.00  0.00     0.211 HD
ENDBRANCH   6   9
ENDBRANCH   5   6
BRANCH   5  11
ATOM     11  O   UNL     1       7.666   5.684  -7.459  1.00  0.00    -0.387 OA
ATOM     12  H   UNL     1       7.021   4.971  -7.211  1.00  0.00     0.211 HD
ENDBRANCH   5  11
ENDBRANCH   1   5
BRANCH   1  13
ATOM     13  O   UNL     1       8.903   7.664  -4.869  1.00  0.00    -0.388 OA
ATOM     14  H   UNL     1       9.782   8.101  -4.718  1.00  0.00     0.211 HD
ENDBRANCH   1  13
TORSDOF 8
ENDMDL
MODEL 3
REMARK VINA RESULT:    -3.635      0.758      4.184
REMARK INTER + INTRA:          -5.386
REMARK INTER:                  -4.792
REMARK INTRA:                  -0.594
REMARK UNBOUND:                -0.476
REMARK SMILES O=C[C@@H](O)[C@H](O)[C@@H](O)CO
REMARK SMILES IDX 7 1 9 2 10 3 5 5 3 6 2 7 1 8 4 9 6 11 8 13
REMARK H PARENT 10 4 4 10 6 12 8 14
REMARK Flexibility Score: inf
ROOT
ATOM      1  C   UNL     1       7.152  -2.280   9.005  1.00  0.00     0.171 C 
ENDROOT
BRANCH   1   2
ATOM      2  C   UNL     1       5.939  -1.821   9.832  1.00  0.00     0.190 C 
BRANCH   2   3
ATOM      3  O   UNL     1       4.953  -2.819   9.843  1.00  0.00    -0.394 OA
ATOM      4  H   UNL     1       4.442  -2.705  10.687  1.00  0.00     0.210 HD
ENDBRANCH   2   3
ENDBRANCH   1   2
BRANCH   1   5
ATOM      5  C   UNL     1       7.869  -3.523   9.609  1.00  0.00     0.181 C 
BRANCH   5   6
ATOM      6  C   UNL     1       9.414  -3.509   9.472  1.00  0.00     0.209 C 
BRANCH   6   7
ATOM      7  C   UNL     1       9.936  -4.754   8.804  1.00  0.00     0.258 C 
ATOM      8  O   UNL     1      10.080  -4.794   7.593  1.00  0.00    -0.300 OA
ENDBRANCH   6   7
BRANCH   6   9
ATOM      9  O   UNL     1       9.830  -2.379   8.746  1.00  0.00    -0.383 OA
ATOM     10  H   UNL     1       9.194  -2.252   7.993  1.00  0.00     0.211 HD
ENDBRANCH   6   9
ENDBRANCH   5   6
BRANCH   5  11
ATOM     11  O   UNL     1       7.374  -4.691   9.003  1.00  0.00    -0.387 OA
ATOM     12  H   UNL     1       6.883  -4.410   8.187  1.00  0.00     0.211 HD
ENDBRANCH   5  11
ENDBRANCH   1   5
BRANCH   1  13
ATOM     13  O   UNL     1       6.745  -2.529   7.684  1.00  0.00    -0.388 OA
ATOM     14  H   UNL     1       6.454  -3.477   7.646  1.00  0.00     0.211 HD
ENDBRANCH   1  13
TORSDOF 8
ENDMDL
MODEL 4
REMARK VINA RESULT:    -3.364     15.717     17.136
REMARK INTER + INTRA:          -5.021
REMARK INTER:                  -4.103
REMARK INTRA:                  -0.918
REMARK UNBOUND:                -0.476
REMARK SMILES O=C[C@@H](O)[C@H](O)[C@@H](O)CO
REMARK SMILES IDX 7 1 9 2 10 3 5 5 3 6 2 7 1 8 4 9 6 11 8 13
REMARK H PARENT 10 4 4 10 6 12 8 14
REMARK Flexibility Score: inf
ROOT
ATOM      1  C   UNL     1      -6.587 -10.055   5.326  1.00  0.00     0.171 C 
ENDROOT
BRANCH   1   2
ATOM      2  C   UNL     1      -5.811 -10.128   6.653  1.00  0.00     0.190 C 
BRANCH   2   3
ATOM      3  O   UNL     1      -5.866  -8.894   7.316  1.00  0.00    -0.394 OA
ATOM      4  H   UNL     1      -5.283  -8.271   6.807  1.00  0.00     0.210 HD
ENDBRANCH   2   3
ENDBRANCH   1   2
BRANCH   1   5
ATOM      5  C   UNL     1      -8.126 -10.200   5.510  1.00  0.00     0.181 C 
BRANCH   5   6
ATOM      6  C   UNL     1      -8.946 -10.103   4.198  1.00  0.00     0.209 C 
BRANCH   6   7
ATOM      7  C   UNL     1      -9.645  -8.776   4.060  1.00  0.00     0.258 C 
ATOM      8  O   UNL     1      -9.022  -7.778   3.737  1.00  0.00    -0.300 OA
ENDBRANCH   6   7
BRANCH   6   9
ATOM      9  O   UNL     1      -8.114 -10.311   3.084  1.00  0.00    -0.383 OA
ATOM     10  H   UNL     1      -7.207  -9.974   3.316  1.00  0.00     0.211 HD
ENDBRANCH   6   9
ENDBRANCH   5   6
BRANCH   5  11
ATOM     11  O   UNL     1      -8.586  -9.214   6.401  1.00  0.00    -0.387 OA
ATOM     12  H   UNL     1      -9.476  -9.510   6.728  1.00  0.00     0.211 HD
ENDBRANCH   5  11
ENDBRANCH   1   5
BRANCH   1  13
ATOM     13  O   UNL     1      -6.269  -8.855   4.670  1.00  0.00    -0.388 OA
ATOM     14  H   UNL     1      -7.126  -8.377   4.514  1.00  0.00     0.211 HD
ENDBRANCH   1  13
TORSDOF 8
ENDMDL
MODEL 5
REMARK VINA RESULT:    -3.290     17.024     18.036
REMARK INTER + INTRA:          -4.920
REMARK INTER:                  -4.249
REMARK INTRA:                  -0.671
REMARK UNBOUND:                -0.476
REMARK SMILES O=C[C@@H](O)[C@H](O)[C@@H](O)CO
REMARK SMILES IDX 7 1 9 2 10 3 5 5 3 6 2 7 1 8 4 9 6 11 8 13
REMARK H PARENT 10 4 4 10 6 12 8 14
REMARK Flexibility Score: inf
ROOT
ATOM      1  C   UNL     1       5.324   5.279  -6.827  1.00  0.00     0.171 C 
ENDROOT
BRANCH   1   2
ATOM      2  C   UNL     1       4.208   4.604  -6.011  1.00  0.00     0.190 C 
BRANCH   2   3
ATOM      3  O   UNL     1       4.738   3.568  -5.228  1.00  0.00    -0.394 OA
ATOM      4  H   UNL     1       4.743   3.895  -4.290  1.00  0.00     0.210 HD
ENDBRANCH   2   3
ENDBRANCH   1   2
BRANCH   1   5
ATOM      5  C   UNL     1       6.284   6.139  -5.954  1.00  0.00     0.181 C 
BRANCH   5   6
ATOM      6  C   UNL     1       7.446   6.805  -6.735  1.00  0.00     0.209 C 
BRANCH   6   7
ATOM      7  C   UNL     1       8.145   7.864  -5.923  1.00  0.00     0.258 C 
ATOM      8  O   UNL     1       8.672   7.582  -4.859  1.00  0.00    -0.300 OA
ENDBRANCH   6   7
BRANCH   6   9
ATOM      9  O   UNL     1       8.381   5.836  -7.141  1.00  0.00    -0.383 OA
ATOM     10  H   UNL     1       7.889   5.130  -7.639  1.00  0.00     0.211 HD
ENDBRANCH   6   9
ENDBRANCH   5   6
BRANCH   5  11
ATOM     11  O   UNL     1       6.828   5.341  -4.932  1.00  0.00    -0.387 OA
ATOM     12  H   UNL     1       6.842   4.407  -5.268  1.00  0.00     0.211 HD
ENDBRANCH   5  11
ENDBRANCH   1   5
BRANCH   1  13
ATOM     13  O   UNL     1       6.034   4.300  -7.540  1.00  0.00    -0.388 OA
ATOM     14  H   UNL     1       6.978   4.604  -7.585  1.00  0.00     0.211 HD
ENDBRANCH   1  13
TORSDOF 8
ENDMDL
MODEL 6
REMARK VINA RESULT:    -3.274     16.981     17.833
REMARK INTER + INTRA:          -4.898
REMARK INTER:                  -4.201
REMARK INTRA:                  -0.697
REMARK UNBOUND:                -0.476
REMARK SMILES O=C[C@@H](O)[C@H](O)[C@@H](O)CO
REMARK SMILES IDX 7 1 9 2 10 3 5 5 3 6 2 7 1 8 4 9 6 11 8 13
REMARK H PARENT 10 4 4 10 6 12 8 14
REMARK Flexibility Score: inf
ROOT
ATOM      1  C   UNL     1       7.393   6.444  -5.234  1.00  0.00     0.171 C 
ENDROOT
BRANCH   1   2
ATOM      2  C   UNL     1       8.789   6.816  -5.762  1.00  0.00     0.190 C 
BRANCH   2   3
ATOM      3  O   UNL     1       9.531   5.656  -6.031  1.00  0.00    -0.394 OA
ATOM      4  H   UNL     1       9.537   5.545  -7.018  1.00  0.00     0.210 HD
ENDBRANCH   2   3
ENDBRANCH   1   2
BRANCH   1   5
ATOM      5  C   UNL     1       6.371   6.140  -6.368  1.00  0.00     0.181 C 
BRANCH   5   6
ATOM      6  C   UNL     1       5.073   5.434  -5.898  1.00  0.00     0.209 C 
BRANCH   6   7
ATOM      7  C   UNL     1       3.962   5.553  -6.908  1.00  0.00     0.258 C 
ATOM      8  O   UNL     1       4.107   5.127  -8.042  1.00  0.00    -0.300 OA
ENDBRANCH   6   7
BRANCH   6   9
ATOM      9  O   UNL     1       5.324   4.075  -5.637  1.00  0.00    -0.383 OA
ATOM     10  H   UNL     1       5.952   4.025  -4.868  1.00  0.00     0.211 HD
ENDBRANCH   6   9
ENDBRANCH   5   6
BRANCH   5  11
ATOM     11  O   UNL     1       6.985   5.344  -7.351  1.00  0.00    -0.387 OA
ATOM     12  H   UNL     1       7.896   5.126  -7.022  1.00  0.00     0.211 HD
ENDBRANCH   5  11
ENDBRANCH   1   5
BRANCH   1  13
ATOM     13  O   UNL     1       7.506   5.355  -4.354  1.00  0.00    -0.388 OA
ATOM     14  H   UNL     1       7.483   4.533  -4.910  1.00  0.00     0.211 HD
ENDBRANCH   1  13
TORSDOF 8
ENDMDL
MODEL 7
REMARK VINA RESULT:    -3.253      1.682      4.616
REMARK INTER + INTRA:          -4.870
REMARK INTER:                  -3.923
REMARK INTRA:                  -0.947
REMARK UNBOUND:                -0.476
REMARK SMILES O=C[C@@H](O)[C@H](O)[C@@H](O)CO
REMARK SMILES IDX 7 1 9 2 10 3 5 5 3 6 2 7 1 8 4 9 6 11 8 13
REMARK H PARENT 10 4 4 10 6 12 8 14
REMARK Flexibility Score: inf
ROOT
ATOM      1  C   UNL     1       4.863  -0.775   9.292  1.00  0.00     0.171 C 
ENDROOT
BRANCH   1   2
ATOM      2  C   UNL     1       3.486  -1.426   9.078  1.00  0.00     0.190 C 
BRANCH   2   3
ATOM      3  O   UNL     1       3.511  -2.254   7.945  1.00  0.00    -0.394 OA
ATOM      4  H   UNL     1       3.171  -3.141   8.234  1.00  0.00     0.210 HD
ENDBRANCH   2   3
ENDBRANCH   1   2
BRANCH   1   5
ATOM      5  C   UNL     1       5.951  -1.786   9.759  1.00  0.00     0.181 C 
BRANCH   5   6
ATOM      6  C   UNL     1       7.052  -2.084   8.709  1.00  0.00     0.209 C 
BRANCH   6   7
ATOM      7  C   UNL     1       8.124  -2.992   9.249  1.00  0.00     0.258 C 
ATOM      8  O   UNL     1       8.056  -4.199   9.085  1.00  0.00    -0.300 OA
ENDBRANCH   6   7
BRANCH   6   9
ATOM      9  O   UNL     1       6.486  -2.662   7.558  1.00  0.00    -0.383 OA
ATOM     10  H   UNL     1       5.621  -3.075   7.821  1.00  0.00     0.211 HD
ENDBRANCH   6   9
ENDBRANCH   5   6
BRANCH   5  11
ATOM     11  O   UNL     1       5.338  -2.999  10.123  1.00  0.00    -0.387 OA
ATOM     12  H   UNL     1       5.923  -3.428  10.801  1.00  0.00     0.211 HD
ENDBRANCH   5  11
ENDBRANCH   1   5
BRANCH   1  13
ATOM     13  O   UNL     1       5.256  -0.124   8.112  1.00  0.00    -0.388 OA
ATOM     14  H   UNL     1       6.097  -0.557   7.810  1.00  0.00     0.211 HD
ENDBRANCH   1  13
TORSDOF 8
ENDMDL
MODEL 8
REMARK VINA RESULT:    -3.215     16.991     17.935
REMARK INTER + INTRA:          -4.818
REMARK INTER:                  -3.835
REMARK INTRA:                  -0.983
REMARK UNBOUND:                -0.476
REMARK SMILES O=C[C@@H](O)[C@H](O)[C@@H](O)CO
REMARK SMILES IDX 7 1 9 2 10 3 5 5 3 6 2 7 1 8 4 9 6 11 8 13
REMARK H PARENT 10 4 4 10 6 12 8 14
REMARK Flexibility Score: inf
ROOT
ATOM      1  C   UNL     1       3.160   3.809  -7.226  1.00  0.00     0.171 C 
ENDROOT
BRANCH   1   2
ATOM      2  C   UNL     1       3.328   2.279  -7.240  1.00  0.00     0.190 C 
BRANCH   2   3
ATOM      3  O   UNL     1       4.620   1.937  -7.666  1.00  0.00    -0.394 OA
ATOM      4  H   UNL     1       4.531   1.108  -8.205  1.00  0.00     0.210 HD
ENDBRANCH   2   3
ENDBRANCH   1   2
BRANCH   1   5
ATOM      5  C   UNL     1       4.045   4.510  -6.155  1.00  0.00     0.181 C 
BRANCH   5   6
ATOM      6  C   UNL     1       5.241   5.314  -6.728  1.00  0.00     0.209 C 
BRANCH   6   7
ATOM      7  C   UNL     1       6.017   6.025  -5.652  1.00  0.00     0.258 C 
ATOM      8  O   UNL     1       6.717   5.398  -4.873  1.00  0.00    -0.300 OA
ENDBRANCH   6   7
BRANCH   6   9
ATOM      9  O   UNL     1       6.104   4.463  -7.442  1.00  0.00    -0.383 OA
ATOM     10  H   UNL     1       6.668   5.030  -8.032  1.00  0.00     0.211 HD
ENDBRANCH   6   9
ENDBRANCH   5   6
BRANCH   5  11
ATOM     11  O   UNL     1       4.540   3.551  -5.254  1.00  0.00    -0.387 OA
ATOM     12  H   UNL     1       5.523   3.680  -5.201  1.00  0.00     0.211 HD
ENDBRANCH   5  11
ENDBRANCH   1   5
BRANCH   1  13
ATOM     13  O   UNL     1       3.426   4.315  -8.508  1.00  0.00    -0.388 OA
ATOM     14  H   UNL     1       2.553   4.578  -8.901  1.00  0.00     0.211 HD
ENDBRANCH   1  13
TORSDOF 8
ENDMDL
MODEL 9
REMARK VINA RESULT:    -3.198     17.065     17.950
REMARK INTER + INTRA:          -4.795
REMARK INTER:                  -3.870
REMARK INTRA:                  -0.926
REMARK UNBOUND:                -0.476
REMARK SMILES O=C[C@@H](O)[C@H](O)[C@@H](O)CO
REMARK SMILES IDX 7 1 9 2 10 3 5 5 3 6 2 7 1 8 4 9 6 11 8 13
REMARK H PARENT 10 4 4 10 6 12 8 14
REMARK Flexibility Score: inf
ROOT
ATOM      1  C   UNL     1       4.915   6.091  -6.744  1.00  0.00     0.171 C 
ENDROOT
BRANCH   1   2
ATOM      2  C   UNL     1       6.324   6.248  -6.145  1.00  0.00     0.190 C 
BRANCH   2   3
ATOM      3  O   UNL     1       6.518   5.317  -5.114  1.00  0.00    -0.394 OA
ATOM      4  H   UNL     1       5.732   4.711  -5.126  1.00  0.00     0.210 HD
ENDBRANCH   2   3
ENDBRANCH   1   2
BRANCH   1   5
ATOM      5  C   UNL     1       4.677   4.694  -7.387  1.00  0.00     0.181 C 
BRANCH   5   6
ATOM      6  C   UNL     1       3.791   3.738  -6.547  1.00  0.00     0.209 C 
BRANCH   6   7
ATOM      7  C   UNL     1       3.514   2.442  -7.263  1.00  0.00     0.258 C 
ATOM      8  O   UNL     1       4.433   1.730  -7.634  1.00  0.00    -0.300 OA
ENDBRANCH   6   7
BRANCH   6   9
ATOM      9  O   UNL     1       4.400   3.467  -5.309  1.00  0.00    -0.383 OA
ATOM     10  H   UNL     1       4.120   4.177  -4.672  1.00  0.00     0.211 HD
ENDBRANCH   6   9
ENDBRANCH   5   6
BRANCH   5  11
ATOM     11  O   UNL     1       5.914   4.068  -7.622  1.00  0.00    -0.387 OA
ATOM     12  H   UNL     1       6.522   4.758  -7.999  1.00  0.00     0.211 HD
ENDBRANCH   5  11
ENDBRANCH   1   5
BRANCH   1  13
ATOM     13  O   UNL     1       3.958   6.358  -5.753  1.00  0.00    -0.388 OA
ATOM     14  H   UNL     1       4.141   5.736  -5.001  1.00  0.00     0.211 HD
ENDBRANCH   1  13
TORSDOF 8
ENDMDL
