MODEL 1
REMARK VINA RESULT:    -3.803      0.000      0.000
REMARK INTER + INTRA:          -4.025
REMARK INTER:                  -4.025
REMARK INTRA:                   0.000
REMARK UNBOUND:                 0.000
REMARK SMILES O=c1ccc2cc(O)c(O)cc2o1
REMARK SMILES IDX 4 1 3 2 2 3 1 4 13 5 12 6 11 7 9 8 7 9 6 10 5 11 8 12 10 14
REMARK H PARENT 8 13 10 15
REMARK Flexibility Score: inf
ROOT
ATOM      1  C   UNL     1      36.744 -35.638   4.254  1.00  0.00     0.019 A 
ATOM      2  C   UNL     1      37.091 -36.988   4.267  1.00  0.00     0.094 A 
ATOM      3  C   UNL     1      36.079 -37.950   4.187  1.00  0.00     0.336 A 
ATOM      4  O   UNL     1      36.373 -39.175   4.198  1.00  0.00    -0.246 OA
ATOM      5  O   UNL     1      34.804 -37.581   4.098  1.00  0.00    -0.423 OA
ATOM      6  C   UNL     1      34.429 -36.303   4.082  1.00  0.00     0.142 A 
ATOM      7  C   UNL     1      33.072 -35.974   3.987  1.00  0.00     0.098 A 
ATOM      8  C   UNL     1      32.672 -34.630   3.969  1.00  0.00     0.161 A 
ATOM      9  C   UNL     1      33.633 -33.610   4.046  1.00  0.00     0.158 A 
ATOM     10  C   UNL     1      34.994 -33.935   4.141  1.00  0.00     0.062 A 
ATOM     11  C   UNL     1      35.395 -35.278   4.160  1.00  0.00     0.022 A 
ENDROOT
BRANCH   9  12
ATOM     12  O   UNL     1      33.226 -32.278   4.028  1.00  0.00    -0.504 OA
ATOM     13  H   UNL     1      32.359 -31.994   3.588  1.00  0.00     0.293 HD
ENDBRANCH   9  12
BRANCH   8  14
ATOM     14  O   UNL     1      31.322 -34.299   3.875  1.00  0.00    -0.504 OA
ATOM     15  H   UNL     1      31.015 -33.444   3.423  1.00  0.00     0.293 HD
ENDBRANCH   8  14
TORSDOF 2
ENDMDL
MODEL 2
REMARK VINA RESULT:    -3.628      1.519      4.536
REMARK INTER + INTRA:          -3.840
REMARK INTER:                  -3.840
REMARK INTRA:                   0.000
REMARK UNBOUND:                 0.000
REMARK SMILES O=c1ccc2cc(O)c(O)cc2o1
REMARK SMILES IDX 4 1 3 2 2 3 1 4 13 5 12 6 11 7 9 8 7 9 6 10 5 11 8 12 10 14
REMARK H PARENT 8 13 10 15
REMARK Flexibility Score: inf
ROOT
ATOM      1  C   UNL     1      35.659 -34.239   4.211  1.00  0.00     0.019 A 
ATOM      2  C   UNL     1      34.849 -33.205   4.679  1.00  0.00     0.094 A 
ATOM      3  C   UNL     1      33.696 -33.522   5.405  1.00  0.00     0.336 A 
ATOM      4  O   UNL     1      32.951 -32.602   5.835  1.00  0.00    -0.246 OA
ATOM      5  O   UNL     1      33.378 -34.791   5.645  1.00  0.00    -0.423 OA
ATOM      6  C   UNL     1      34.124 -35.808   5.217  1.00  0.00     0.142 A 
ATOM      7  C   UNL     1      33.740 -37.123   5.500  1.00  0.00     0.098 A 
ATOM      8  C   UNL     1      34.522 -38.198   5.051  1.00  0.00     0.161 A 
ATOM      9  C   UNL     1      35.693 -37.956   4.317  1.00  0.00     0.158 A 
ATOM     10  C   UNL     1      36.082 -36.639   4.031  1.00  0.00     0.062 A 
ATOM     11  C   UNL     1      35.301 -35.564   4.478  1.00  0.00     0.022 A 
ENDROOT
BRANCH   9  12
ATOM     12  O   UNL     1      36.464 -39.030   3.875  1.00  0.00    -0.504 OA
ATOM     13  H   UNL     1      37.429 -39.143   4.161  1.00  0.00     0.293 HD
ENDBRANCH   9  12
BRANCH   8  14
ATOM     14  O   UNL     1      34.143 -39.510   5.331  1.00  0.00    -0.504 OA
ATOM     15  H   UNL     1      33.553 -40.038   4.698  1.00  0.00     0.293 HD
ENDBRANCH   8  14
TORSDOF 2
ENDMDL
MODEL 3
REMARK VINA RESULT:    -3.531      1.662      2.866
REMARK INTER + INTRA:          -3.738
REMARK INTER:                  -3.738
REMARK INTRA:                   0.000
REMARK UNBOUND:                 0.000
REMARK SMILES O=c1ccc2cc(O)c(O)cc2o1
REMARK SMILES IDX 4 1 3 2 2 3 1 4 13 5 12 6 11 7 9 8 7 9 6 10 5 11 8 12 10 14
REMARK H PARENT 8 13 10 15
REMARK Flexibility Score: inf
ROOT
ATOM      1  C   UNL     1      33.688 -35.883   3.875  1.00  0.00     0.019 A 
ATOM      2  C   UNL     1      34.849 -36.653   3.941  1.00  0.00     0.094 A 
ATOM      3  C   UNL     1      36.070 -36.017   4.190  1.00  0.00     0.336 A 
ATOM      4  O   UNL     1      37.130 -36.694   4.253  1.00  0.00    -0.246 OA
ATOM      5  O   UNL     1      36.121 -34.699   4.362  1.00  0.00    -0.423 OA
ATOM      6  C   UNL     1      35.037 -33.928   4.308  1.00  0.00     0.142 A 
ATOM      7  C   UNL     1      35.152 -32.546   4.496  1.00  0.00     0.098 A 
ATOM      8  C   UNL     1      34.012 -31.730   4.439  1.00  0.00     0.161 A 
ATOM      9  C   UNL     1      32.753 -32.298   4.194  1.00  0.00     0.158 A 
ATOM     10  C   UNL     1      32.633 -33.683   4.004  1.00  0.00     0.062 A 
ATOM     11  C   UNL     1      33.771 -34.499   4.060  1.00  0.00     0.022 A 
ENDROOT
BRANCH   9  12
ATOM     12  O   UNL     1      31.627 -31.479   4.139  1.00  0.00    -0.504 OA
ATOM     13  H   UNL     1      31.642 -30.531   4.497  1.00  0.00     0.293 HD
ENDBRANCH   9  12
BRANCH   8  14
ATOM     14  O   UNL     1      34.123 -30.353   4.627  1.00  0.00    -0.504 OA
ATOM     15  H   UNL     1      34.959 -29.847   4.360  1.00  0.00     0.293 HD
ENDBRANCH   8  14
TORSDOF 2
ENDMDL
MODEL 4
REMARK VINA RESULT:    -3.498      1.208      4.547
REMARK INTER + INTRA:          -3.703
REMARK INTER:                  -3.703
REMARK INTRA:                   0.000
REMARK UNBOUND:                 0.000
REMARK SMILES O=c1ccc2cc(O)c(O)cc2o1
REMARK SMILES IDX 4 1 3 2 2 3 1 4 13 5 12 6 11 7 9 8 7 9 6 10 5 11 8 12 10 14
REMARK H PARENT 8 13 10 15
REMARK Flexibility Score: inf
ROOT
ATOM      1  C   UNL     1      34.897 -33.416   3.913  1.00  0.00     0.019 A 
ATOM      2  C   UNL     1      33.769 -32.598   3.875  1.00  0.00     0.094 A 
ATOM      3  C   UNL     1      32.512 -33.164   4.108  1.00  0.00     0.336 A 
ATOM      4  O   UNL     1      31.481 -32.441   4.077  1.00  0.00    -0.246 OA
ATOM      5  O   UNL     1      32.395 -34.465   4.362  1.00  0.00    -0.423 OA
ATOM      6  C   UNL     1      33.446 -35.282   4.408  1.00  0.00     0.142 A 
ATOM      7  C   UNL     1      33.263 -36.641   4.681  1.00  0.00     0.098 A 
ATOM      8  C   UNL     1      34.367 -37.506   4.730  1.00  0.00     0.161 A 
ATOM      9  C   UNL     1      35.659 -37.008   4.507  1.00  0.00     0.158 A 
ATOM     10  C   UNL     1      35.847 -35.645   4.234  1.00  0.00     0.062 A 
ATOM     11  C   UNL     1      34.746 -34.780   4.183  1.00  0.00     0.022 A 
ENDROOT
BRANCH   9  12
ATOM     12  O   UNL     1      36.749 -37.874   4.558  1.00  0.00    -0.504 OA
ATOM     13  H   UNL     1      37.105 -38.328   3.726  1.00  0.00     0.293 HD
ENDBRANCH   9  12
BRANCH   8  14
ATOM     14  O   UNL     1      34.187 -38.861   5.001  1.00  0.00    -0.504 OA
ATOM     15  H   UNL     1      34.609 -39.578   4.421  1.00  0.00     0.293 HD
ENDBRANCH   8  14
TORSDOF 2
ENDMDL
MODEL 5
REMARK VINA RESULT:    -3.498     10.934     11.536
REMARK INTER + INTRA:          -3.702
REMARK INTER:                  -3.702
REMARK INTRA:                   0.000
REMARK UNBOUND:                 0.000
REMARK SMILES O=c1ccc2cc(O)c(O)cc2o1
REMARK SMILES IDX 4 1 3 2 2 3 1 4 13 5 12 6 11 7 9 8 7 9 6 10 5 11 8 12 10 14
REMARK H PARENT 8 13 10 15
REMARK Flexibility Score: inf
ROOT
ATOM      1  C   UNL     1      39.749 -31.648  14.442  1.00  0.00     0.019 A 
ATOM      2  C   UNL     1      39.886 -32.688  13.524  1.00  0.00     0.094 A 
ATOM      3  C   UNL     1      38.899 -32.867  12.549  1.00  0.00     0.336 A 
ATOM      4  O   UNL     1      39.004 -33.801  11.711  1.00  0.00    -0.246 OA
ATOM      5  O   UNL     1      37.845 -32.056  12.500  1.00  0.00    -0.423 OA
ATOM      6  C   UNL     1      37.676 -31.051  13.357  1.00  0.00     0.142 A 
ATOM      7  C   UNL     1      36.548 -30.230  13.257  1.00  0.00     0.098 A 
ATOM      8  C   UNL     1      36.365 -29.170  14.158  1.00  0.00     0.161 A 
ATOM      9  C   UNL     1      37.315 -28.930  15.162  1.00  0.00     0.158 A 
ATOM     10  C   UNL     1      38.448 -29.751  15.266  1.00  0.00     0.062 A 
ATOM     11  C   UNL     1      38.631 -30.810  14.367  1.00  0.00     0.022 A 
ENDROOT
BRANCH   9  12
ATOM     12  O   UNL     1      37.125 -27.875  16.052  1.00  0.00    -0.504 OA
ATOM     13  H   UNL     1      37.105 -28.023  17.054  1.00  0.00     0.293 HD
ENDBRANCH   9  12
BRANCH   8  14
ATOM     14  O   UNL     1      35.242 -28.350  14.062  1.00  0.00    -0.504 OA
ATOM     15  H   UNL     1      34.900 -28.023  13.165  1.00  0.00     0.293 HD
ENDBRANCH   8  14
TORSDOF 2
ENDMDL
MODEL 6
REMARK VINA RESULT:    -3.488      1.758      2.576
REMARK INTER + INTRA:          -3.692
REMARK INTER:                  -3.692
REMARK INTRA:                   0.000
REMARK UNBOUND:                 0.000
REMARK SMILES O=c1ccc2cc(O)c(O)cc2o1
REMARK SMILES IDX 4 1 3 2 2 3 1 4 13 5 12 6 11 7 9 8 7 9 6 10 5 11 8 12 10 14
REMARK H PARENT 8 13 10 15
REMARK Flexibility Score: inf
ROOT
ATOM      1  C   UNL     1      35.968 -34.664   4.239  1.00  0.00     0.019 A 
ATOM      2  C   UNL     1      35.590 -35.992   4.041  1.00  0.00     0.094 A 
ATOM      3  C   UNL     1      34.248 -36.347   4.212  1.00  0.00     0.336 A 
ATOM      4  O   UNL     1      33.886 -37.541   4.038  1.00  0.00    -0.246 OA
ATOM      5  O   UNL     1      33.347 -35.431   4.559  1.00  0.00    -0.423 OA
ATOM      6  C   UNL     1      33.666 -34.154   4.758  1.00  0.00     0.142 A 
ATOM      7  C   UNL     1      32.675 -33.235   5.122  1.00  0.00     0.098 A 
ATOM      8  C   UNL     1      33.006 -31.888   5.333  1.00  0.00     0.161 A 
ATOM      9  C   UNL     1      34.333 -31.458   5.178  1.00  0.00     0.158 A 
ATOM     10  C   UNL     1      35.329 -32.376   4.813  1.00  0.00     0.062 A 
ATOM     11  C   UNL     1      35.000 -33.722   4.603  1.00  0.00     0.022 A 
ENDROOT
BRANCH   9  12
ATOM     12  O   UNL     1      34.652 -30.119   5.389  1.00  0.00    -0.504 OA
ATOM     13  H   UNL     1      34.103 -29.534   6.008  1.00  0.00     0.293 HD
ENDBRANCH   9  12
BRANCH   8  14
ATOM     14  O   UNL     1      32.022 -30.970   5.695  1.00  0.00    -0.504 OA
ATOM     15  H   UNL     1      31.292 -31.209   6.356  1.00  0.00     0.293 HD
ENDBRANCH   8  14
TORSDOF 2
ENDMDL
MODEL 7
REMARK VINA RESULT:    -3.417     12.339     13.323
REMARK INTER + INTRA:          -3.617
REMARK INTER:                  -3.617
REMARK INTRA:                   0.000
REMARK UNBOUND:                 0.000
REMARK SMILES O=c1ccc2cc(O)c(O)cc2o1
REMARK SMILES IDX 4 1 3 2 2 3 1 4 13 5 12 6 11 7 9 8 7 9 6 10 5 11 8 12 10 14
REMARK H PARENT 8 13 10 15
REMARK Flexibility Score: inf
ROOT
ATOM      1  C   UNL     1      40.107 -30.666  16.627  1.00  0.00     0.019 A 
ATOM      2  C   UNL     1      39.644 -29.783  17.602  1.00  0.00     0.094 A 
ATOM      3  C   UNL     1      38.396 -29.175  17.428  1.00  0.00     0.336 A 
ATOM      4  O   UNL     1      37.960 -28.374  18.297  1.00  0.00    -0.246 OA
ATOM      5  O   UNL     1      37.663 -29.437  16.349  1.00  0.00    -0.423 OA
ATOM      6  C   UNL     1      38.068 -30.274  15.396  1.00  0.00     0.142 A 
ATOM      7  C   UNL     1      37.254 -30.511  14.283  1.00  0.00     0.098 A 
ATOM      8  C   UNL     1      37.676 -31.392  13.275  1.00  0.00     0.161 A 
ATOM      9  C   UNL     1      38.917 -32.038  13.382  1.00  0.00     0.158 A 
ATOM     10  C   UNL     1      39.736 -31.803  14.496  1.00  0.00     0.062 A 
ATOM     11  C   UNL     1      39.316 -30.923  15.503  1.00  0.00     0.022 A 
ENDROOT
BRANCH   9  12
ATOM     12  O   UNL     1      39.328 -32.911  12.377  1.00  0.00    -0.504 OA
ATOM     13  H   UNL     1      39.343 -32.630  11.403  1.00  0.00     0.293 HD
ENDBRANCH   9  12
BRANCH   8  14
ATOM     14  O   UNL     1      36.868 -31.631  12.165  1.00  0.00    -0.504 OA
ATOM     15  H   UNL     1      35.914 -31.958  12.264  1.00  0.00     0.293 HD
ENDBRANCH   8  14
TORSDOF 2
ENDMDL
MODEL 8
REMARK VINA RESULT:    -3.363      1.542      5.022
REMARK INTER + INTRA:          -3.560
REMARK INTER:                  -3.560
REMARK INTRA:                   0.000
REMARK UNBOUND:                 0.000
REMARK SMILES O=c1ccc2cc(O)c(O)cc2o1
REMARK SMILES IDX 4 1 3 2 2 3 1 4 13 5 12 6 11 7 9 8 7 9 6 10 5 11 8 12 10 14
REMARK H PARENT 8 13 10 15
REMARK Flexibility Score: inf
ROOT
ATOM      1  C   UNL     1      32.395 -34.132   4.257  1.00  0.00     0.019 A 
ATOM      2  C   UNL     1      32.523 -32.752   4.106  1.00  0.00     0.094 A 
ATOM      3  C   UNL     1      33.804 -32.196   4.011  1.00  0.00     0.336 A 
ATOM      4  O   UNL     1      33.941 -30.951   3.875  1.00  0.00    -0.246 OA
ATOM      5  O   UNL     1      34.882 -32.974   4.063  1.00  0.00    -0.423 OA
ATOM      6  C   UNL     1      34.804 -34.296   4.206  1.00  0.00     0.142 A 
ATOM      7  C   UNL     1      35.972 -35.063   4.254  1.00  0.00     0.098 A 
ATOM      8  C   UNL     1      35.895 -36.456   4.404  1.00  0.00     0.161 A 
ATOM      9  C   UNL     1      34.644 -37.083   4.506  1.00  0.00     0.158 A 
ATOM     10  C   UNL     1      33.470 -36.317   4.458  1.00  0.00     0.062 A 
ATOM     11  C   UNL     1      33.545 -34.926   4.308  1.00  0.00     0.022 A 
ENDROOT
BRANCH   9  12
ATOM     12  O   UNL     1      34.578 -38.467   4.655  1.00  0.00    -0.504 OA
ATOM     13  H   UNL     1      35.412 -39.028   4.780  1.00  0.00     0.293 HD
ENDBRANCH   9  12
BRANCH   8  14
ATOM     14  O   UNL     1      37.057 -37.224   4.453  1.00  0.00    -0.504 OA
ATOM     15  H   UNL     1      37.170 -38.052   3.879  1.00  0.00     0.293 HD
ENDBRANCH   8  14
TORSDOF 2
ENDMDL
