MODEL 1
REMARK VINA RESULT:    -7.834      0.000      0.000
REMARK INTER + INTRA:          -9.502
REMARK INTER:                  -9.208
REMARK INTRA:                  -0.294
REMARK UNBOUND:                -0.294
REMARK SMILES O=c1cc(-c2ccc(O)c(O)c2)oc2cc(O)cc(O)c12
REMARK SMILES IDX 4 1 3 2 2 3 1 4 21 5 19 6 18 7 16 8 15 9 14 10 13 11 5 12
REMARK SMILES IDX 6 13 7 14 8 15 12 16 10 17 9 18 11 20 20 22 17 24
REMARK H PARENT 9 19 11 21 20 23 17 25
REMARK Flexibility Score: inf
ROOT
ATOM      1  C   UNL     1      50.580 -39.288  -3.510  1.00  0.00     0.138 A 
ATOM      2  C   UNL     1      50.539 -38.132  -4.301  1.00  0.00     0.100 A 
ATOM      3  C   UNL     1      49.313 -37.660  -4.770  1.00  0.00     0.197 A 
ATOM      4  O   UNL     1      49.314 -36.656  -5.530  1.00  0.00    -0.289 OA
ATOM      5  C   UNL     1      48.119 -38.333  -4.418  1.00  0.00     0.107 A 
ATOM      6  C   UNL     1      46.808 -37.919  -4.805  1.00  0.00     0.134 A 
ATOM      7  C   UNL     1      45.708 -38.730  -4.494  1.00  0.00     0.093 A 
ATOM      8  C   UNL     1      45.867 -39.907  -3.760  1.00  0.00     0.123 A 
ATOM      9  C   UNL     1      47.136 -40.292  -3.332  1.00  0.00     0.094 A 
ATOM     10  C   UNL     1      48.255 -39.523  -3.656  1.00  0.00     0.146 A 
ATOM     11  O   UNL     1      49.450 -39.932  -3.240  1.00  0.00    -0.456 OA
ENDROOT
BRANCH   1  12
ATOM     12  C   UNL     1      51.857 -39.833  -2.985  1.00  0.00     0.021 A 
ATOM     13  C   UNL     1      51.901 -41.152  -2.508  1.00  0.00     0.016 A 
ATOM     14  C   UNL     1      53.087 -41.686  -2.002  1.00  0.00     0.051 A 
ATOM     15  C   UNL     1      54.252 -40.913  -1.951  1.00  0.00     0.157 A 
ATOM     16  C   UNL     1      53.025 -39.051  -2.920  1.00  0.00     0.062 A 
ATOM     17  C   UNL     1      54.220 -39.577  -2.412  1.00  0.00     0.158 A 
BRANCH  15  18
ATOM     18  O   UNL     1      55.408 -41.508  -1.440  1.00  0.00    -0.504 OA
ATOM     19  H   UNL     1      56.229 -40.994  -1.155  1.00  0.00     0.293 HD
ENDBRANCH  15  18
BRANCH  17  20
ATOM     20  O   UNL     1      55.338 -38.741  -2.379  1.00  0.00    -0.504 OA
ATOM     21  H   UNL     1      55.847 -38.446  -3.199  1.00  0.00     0.293 HD
ENDBRANCH  17  20
ENDBRANCH   1  12
BRANCH   6  22
ATOM     22  O   UNL     1      46.531 -36.719  -5.466  1.00  0.00    -0.507 OA
ATOM     23  H   UNL     1      46.433 -36.621  -6.466  1.00  0.00     0.293 HD
ENDBRANCH   6  22
BRANCH   8  24
ATOM     24  O   UNL     1      44.765 -40.700  -3.443  1.00  0.00    -0.508 OA
ATOM     25  H   UNL     1      44.647 -41.624  -3.840  1.00  0.00     0.293 HD
ENDBRANCH   8  24
TORSDOF 5
ENDMDL
MODEL 2
REMARK VINA RESULT:    -7.184      1.742      2.664
REMARK INTER + INTRA:          -8.739
REMARK INTER:                  -8.460
REMARK INTRA:                  -0.279
REMARK UNBOUND:                -0.294
REMARK SMILES O=c1cc(-c2ccc(O)c(O)c2)oc2cc(O)cc(O)c12
REMARK SMILES IDX 4 1 3 2 2 3 1 4 21 5 19 6 18 7 16 8 15 9 14 10 13 11 5 12
REMARK SMILES IDX 6 13 7 14 8 15 12 16 10 17 9 18 11 20 20 22 17 24
REMARK H PARENT 9 19 11 21 20 23 17 25
REMARK Flexibility Score: inf
ROOT
ATOM      1  C   UNL     1      49.272 -39.937  -3.031  1.00  0.00     0.138 A 
ATOM      2  C   UNL     1      48.728 -39.652  -4.292  1.00  0.00     0.100 A 
ATOM      3  C   UNL     1      47.344 -39.577  -4.445  1.00  0.00     0.197 A 
ATOM      4  O   UNL     1      46.884 -39.382  -5.600  1.00  0.00    -0.289 OA
ATOM      5  C   UNL     1      46.501 -39.757  -3.323  1.00  0.00     0.107 A 
ATOM      6  C   UNL     1      45.077 -39.661  -3.352  1.00  0.00     0.134 A 
ATOM      7  C   UNL     1      44.340 -39.974  -2.202  1.00  0.00     0.093 A 
ATOM      8  C   UNL     1      44.979 -40.320  -1.009  1.00  0.00     0.123 A 
ATOM      9  C   UNL     1      46.371 -40.363  -0.956  1.00  0.00     0.094 A 
ATOM     10  C   UNL     1      47.132 -40.091  -2.095  1.00  0.00     0.146 A 
ATOM     11  O   UNL     1      48.456 -40.156  -2.006  1.00  0.00    -0.456 OA
ENDROOT
BRANCH   1  12
ATOM     12  C   UNL     1      50.737 -40.028  -2.813  1.00  0.00     0.021 A 
ATOM     13  C   UNL     1      51.548 -38.920  -3.102  1.00  0.00     0.016 A 
ATOM     14  C   UNL     1      52.930 -38.982  -2.912  1.00  0.00     0.051 A 
ATOM     15  C   UNL     1      53.533 -40.153  -2.440  1.00  0.00     0.157 A 
ATOM     16  C   UNL     1      51.346 -41.211  -2.353  1.00  0.00     0.062 A 
ATOM     17  C   UNL     1      52.732 -41.283  -2.162  1.00  0.00     0.158 A 
BRANCH  15  18
ATOM     18  O   UNL     1      54.919 -40.148  -2.266  1.00  0.00    -0.504 OA
ATOM     19  H   UNL     1      55.381 -40.417  -1.409  1.00  0.00     0.293 HD
ENDBRANCH  15  18
BRANCH  17  20
ATOM     20  O   UNL     1      53.264 -42.490  -1.704  1.00  0.00    -0.504 OA
ATOM     21  H   UNL     1      54.169 -42.847  -1.973  1.00  0.00     0.293 HD
ENDBRANCH  17  20
ENDBRANCH   1  12
BRANCH   6  22
ATOM     22  O   UNL     1      44.344 -39.244  -4.468  1.00  0.00    -0.507 OA
ATOM     23  H   UNL     1      43.357 -39.400  -4.600  1.00  0.00     0.293 HD
ENDBRANCH   6  22
BRANCH   8  24
ATOM     24  O   UNL     1      44.239 -40.615   0.134  1.00  0.00    -0.508 OA
ATOM     25  H   UNL     1      44.627 -40.497   1.061  1.00  0.00     0.293 HD
ENDBRANCH   8  24
TORSDOF 5
ENDMDL
MODEL 3
REMARK VINA RESULT:    -7.141      1.421      3.106
REMARK INTER + INTRA:          -8.688
REMARK INTER:                  -8.392
REMARK INTRA:                  -0.296
REMARK UNBOUND:                -0.294
REMARK SMILES O=c1cc(-c2ccc(O)c(O)c2)oc2cc(O)cc(O)c12
REMARK SMILES IDX 4 1 3 2 2 3 1 4 21 5 19 6 18 7 16 8 15 9 14 10 13 11 5 12
REMARK SMILES IDX 6 13 7 14 8 15 12 16 10 17 9 18 11 20 20 22 17 24
REMARK H PARENT 9 19 11 21 20 23 17 25
REMARK Flexibility Score: inf
ROOT
ATOM      1  C   UNL     1      49.851 -39.349  -3.545  1.00  0.00     0.138 A 
ATOM      2  C   UNL     1      48.765 -40.228  -3.433  1.00  0.00     0.100 A 
ATOM      3  C   UNL     1      47.509 -39.835  -3.894  1.00  0.00     0.197 A 
ATOM      4  O   UNL     1      46.540 -40.621  -3.723  1.00  0.00    -0.289 OA
ATOM      5  C   UNL     1      47.347 -38.567  -4.500  1.00  0.00     0.107 A 
ATOM      6  C   UNL     1      46.122 -38.076  -5.044  1.00  0.00     0.134 A 
ATOM      7  C   UNL     1      46.054 -36.757  -5.514  1.00  0.00     0.093 A 
ATOM      8  C   UNL     1      47.182 -35.934  -5.514  1.00  0.00     0.123 A 
ATOM      9  C   UNL     1      48.396 -36.422  -5.036  1.00  0.00     0.094 A 
ATOM     10  C   UNL     1      48.487 -37.720  -4.528  1.00  0.00     0.146 A 
ATOM     11  O   UNL     1      49.660 -38.142  -4.067  1.00  0.00    -0.456 OA
ENDROOT
BRANCH   1  12
ATOM     12  C   UNL     1      51.209 -39.717  -3.070  1.00  0.00     0.021 A 
ATOM     13  C   UNL     1      52.220 -38.743  -3.049  1.00  0.00     0.016 A 
ATOM     14  C   UNL     1      53.507 -39.066  -2.615  1.00  0.00     0.051 A 
ATOM     15  C   UNL     1      53.816 -40.366  -2.202  1.00  0.00     0.157 A 
ATOM     16  C   UNL     1      51.524 -41.029  -2.670  1.00  0.00     0.062 A 
ATOM     17  C   UNL     1      52.813 -41.361  -2.234  1.00  0.00     0.158 A 
BRANCH  15  18
ATOM     18  O   UNL     1      55.120 -40.621  -1.772  1.00  0.00    -0.504 OA
ATOM     19  H   UNL     1      55.919 -40.059  -2.028  1.00  0.00     0.293 HD
ENDBRANCH  15  18
BRANCH  17  20
ATOM     20  O   UNL     1      53.051 -42.684  -1.853  1.00  0.00    -0.504 OA
ATOM     21  H   UNL     1      53.893 -42.996  -1.393  1.00  0.00     0.293 HD
ENDBRANCH  17  20
ENDBRANCH   1  12
BRANCH   6  22
ATOM     22  O   UNL     1      44.959 -38.843  -5.168  1.00  0.00    -0.507 OA
ATOM     23  H   UNL     1      44.020 -38.478  -5.121  1.00  0.00     0.293 HD
ENDBRANCH   6  22
BRANCH   8  24
ATOM     24  O   UNL     1      47.109 -34.629  -5.997  1.00  0.00    -0.508 OA
ATOM     25  H   UNL     1      47.894 -33.993  -5.925  1.00  0.00     0.293 HD
ENDBRANCH   8  24
TORSDOF 5
ENDMDL
MODEL 4
REMARK VINA RESULT:    -7.063      0.678      1.493
REMARK INTER + INTRA:          -8.596
REMARK INTER:                  -8.288
REMARK INTRA:                  -0.307
REMARK UNBOUND:                -0.294
REMARK SMILES O=c1cc(-c2ccc(O)c(O)c2)oc2cc(O)cc(O)c12
REMARK SMILES IDX 4 1 3 2 2 3 1 4 21 5 19 6 18 7 16 8 15 9 14 10 13 11 5 12
REMARK SMILES IDX 6 13 7 14 8 15 12 16 10 17 9 18 11 20 20 22 17 24
REMARK H PARENT 9 19 11 21 20 23 17 25
REMARK Flexibility Score: inf
ROOT
ATOM      1  C   UNL     1      50.547 -38.977  -3.626  1.00  0.00     0.138 A 
ATOM      2  C   UNL     1      50.525 -37.833  -4.435  1.00  0.00     0.100 A 
ATOM      3  C   UNL     1      49.309 -37.356  -4.924  1.00  0.00     0.197 A 
ATOM      4  O   UNL     1      49.327 -36.364  -5.699  1.00  0.00    -0.289 OA
ATOM      5  C   UNL     1      48.104 -38.011  -4.574  1.00  0.00     0.107 A 
ATOM      6  C   UNL     1      46.802 -37.590  -4.980  1.00  0.00     0.134 A 
ATOM      7  C   UNL     1      45.691 -38.385  -4.668  1.00  0.00     0.093 A 
ATOM      8  C   UNL     1      45.830 -39.553  -3.914  1.00  0.00     0.123 A 
ATOM      9  C   UNL     1      47.091 -39.943  -3.466  1.00  0.00     0.094 A 
ATOM     10  C   UNL     1      48.222 -39.191  -3.791  1.00  0.00     0.146 A 
ATOM     11  O   UNL     1      49.408 -39.605  -3.357  1.00  0.00    -0.456 OA
ENDROOT
BRANCH   1  12
ATOM     12  C   UNL     1      51.813 -39.525  -3.079  1.00  0.00     0.021 A 
ATOM     13  C   UNL     1      52.894 -38.662  -2.841  1.00  0.00     0.016 A 
ATOM     14  C   UNL     1      54.098 -39.154  -2.334  1.00  0.00     0.051 A 
ATOM     15  C   UNL     1      54.254 -40.517  -2.063  1.00  0.00     0.157 A 
ATOM     16  C   UNL     1      51.975 -40.899  -2.821  1.00  0.00     0.062 A 
ATOM     17  C   UNL     1      53.180 -41.402  -2.314  1.00  0.00     0.158 A 
BRANCH  15  18
ATOM     18  O   UNL     1      55.481 -40.945  -1.551  1.00  0.00    -0.504 OA
ATOM     19  H   UNL     1      55.639 -41.859  -1.153  1.00  0.00     0.293 HD
ENDBRANCH  15  18
BRANCH  17  20
ATOM     20  O   UNL     1      53.267 -42.777  -2.083  1.00  0.00    -0.504 OA
ATOM     21  H   UNL     1      53.044 -43.217  -1.203  1.00  0.00     0.293 HD
ENDBRANCH  17  20
ENDBRANCH   1  12
BRANCH   6  22
ATOM     22  O   UNL     1      46.544 -36.398  -5.663  1.00  0.00    -0.507 OA
ATOM     23  H   UNL     1      47.243 -35.831  -6.118  1.00  0.00     0.293 HD
ENDBRANCH   6  22
BRANCH   8  24
ATOM     24  O   UNL     1      44.718 -40.329  -3.596  1.00  0.00    -0.508 OA
ATOM     25  H   UNL     1      43.812 -39.911  -3.424  1.00  0.00     0.293 HD
ENDBRANCH   8  24
TORSDOF 5
ENDMDL
MODEL 5
REMARK VINA RESULT:    -7.024      1.469      7.364
REMARK INTER + INTRA:          -8.550
REMARK INTER:                  -8.256
REMARK INTRA:                  -0.294
REMARK UNBOUND:                -0.294
REMARK SMILES O=c1cc(-c2ccc(O)c(O)c2)oc2cc(O)cc(O)c12
REMARK SMILES IDX 4 1 3 2 2 3 1 4 21 5 19 6 18 7 16 8 15 9 14 10 13 11 5 12
REMARK SMILES IDX 6 13 7 14 8 15 12 16 10 17 9 18 11 20 20 22 17 24
REMARK H PARENT 9 19 11 21 20 23 17 25
REMARK Flexibility Score: inf
ROOT
ATOM      1  C   UNL     1      49.526 -39.355  -3.958  1.00  0.00     0.138 A 
ATOM      2  C   UNL     1      49.396 -40.741  -3.793  1.00  0.00     0.100 A 
ATOM      3  C   UNL     1      50.462 -41.476  -3.274  1.00  0.00     0.197 A 
ATOM      4  O   UNL     1      50.340 -42.726  -3.196  1.00  0.00    -0.289 OA
ATOM      5  C   UNL     1      51.652 -40.814  -2.889  1.00  0.00     0.107 A 
ATOM      6  C   UNL     1      52.789 -41.456  -2.311  1.00  0.00     0.134 A 
ATOM      7  C   UNL     1      53.955 -40.716  -2.078  1.00  0.00     0.093 A 
ATOM      8  C   UNL     1      54.005 -39.346  -2.346  1.00  0.00     0.123 A 
ATOM      9  C   UNL     1      52.883 -38.700  -2.860  1.00  0.00     0.094 A 
ATOM     10  C   UNL     1      51.717 -39.417  -3.137  1.00  0.00     0.146 A 
ATOM     11  O   UNL     1      50.673 -38.766  -3.640  1.00  0.00    -0.456 OA
ENDROOT
BRANCH   1  12
ATOM     12  C   UNL     1      48.423 -38.525  -4.505  1.00  0.00     0.021 A 
ATOM     13  C   UNL     1      48.703 -37.238  -4.989  1.00  0.00     0.016 A 
ATOM     14  C   UNL     1      47.682 -36.435  -5.502  1.00  0.00     0.051 A 
ATOM     15  C   UNL     1      46.361 -36.893  -5.533  1.00  0.00     0.157 A 
ATOM     16  C   UNL     1      47.091 -38.980  -4.522  1.00  0.00     0.062 A 
ATOM     17  C   UNL     1      46.061 -38.180  -5.032  1.00  0.00     0.158 A 
BRANCH  15  18
ATOM     18  O   UNL     1      45.388 -36.043  -6.064  1.00  0.00    -0.504 OA
ATOM     19  H   UNL     1      45.528 -35.057  -6.227  1.00  0.00     0.293 HD
ENDBRANCH  15  18
BRANCH  17  20
ATOM     20  O   UNL     1      44.764 -38.699  -5.015  1.00  0.00    -0.504 OA
ATOM     21  H   UNL     1      44.099 -38.580  -5.765  1.00  0.00     0.293 HD
ENDBRANCH  17  20
ENDBRANCH   1  12
BRANCH   6  22
ATOM     22  O   UNL     1      52.816 -42.800  -1.926  1.00  0.00    -0.507 OA
ATOM     23  H   UNL     1      53.627 -43.281  -1.568  1.00  0.00     0.293 HD
ENDBRANCH   6  22
BRANCH   8  24
ATOM     24  O   UNL     1      55.165 -38.615  -2.098  1.00  0.00    -0.508 OA
ATOM     25  H   UNL     1      55.773 -38.315  -2.850  1.00  0.00     0.293 HD
ENDBRANCH   8  24
TORSDOF 5
ENDMDL
MODEL 6
REMARK VINA RESULT:    -6.904      2.342      7.035
REMARK INTER + INTRA:          -8.410
REMARK INTER:                  -8.143
REMARK INTRA:                  -0.267
REMARK UNBOUND:                -0.294
REMARK SMILES O=c1cc(-c2ccc(O)c(O)c2)oc2cc(O)cc(O)c12
REMARK SMILES IDX 4 1 3 2 2 3 1 4 21 5 19 6 18 7 16 8 15 9 14 10 13 11 5 12
REMARK SMILES IDX 6 13 7 14 8 15 12 16 10 17 9 18 11 20 20 22 17 24
REMARK H PARENT 9 19 11 21 20 23 17 25
REMARK Flexibility Score: inf
ROOT
ATOM      1  C   UNL     1      50.208 -37.669  -4.824  1.00  0.00     0.138 A 
ATOM      2  C   UNL     1      49.484 -38.851  -5.030  1.00  0.00     0.100 A 
ATOM      3  C   UNL     1      49.938 -40.045  -4.470  1.00  0.00     0.197 A 
ATOM      4  O   UNL     1      49.302 -41.101  -4.725  1.00  0.00    -0.289 OA
ATOM      5  C   UNL     1      51.108 -40.049  -3.674  1.00  0.00     0.107 A 
ATOM      6  C   UNL     1      51.642 -41.199  -3.019  1.00  0.00     0.134 A 
ATOM      7  C   UNL     1      52.871 -41.106  -2.352  1.00  0.00     0.093 A 
ATOM      8  C   UNL     1      53.553 -39.890  -2.266  1.00  0.00     0.123 A 
ATOM      9  C   UNL     1      53.012 -38.749  -2.856  1.00  0.00     0.094 A 
ATOM     10  C   UNL     1      51.807 -38.818  -3.558  1.00  0.00     0.146 A 
ATOM     11  O   UNL     1      51.333 -37.709  -4.117  1.00  0.00    -0.456 OA
ENDROOT
BRANCH   1  12
ATOM     12  C   UNL     1      49.769 -36.371  -5.396  1.00  0.00     0.021 A 
ATOM     13  C   UNL     1      50.548 -35.755  -6.387  1.00  0.00     0.016 A 
ATOM     14  C   UNL     1      50.161 -34.531  -6.936  1.00  0.00     0.051 A 
ATOM     15  C   UNL     1      48.996 -33.891  -6.501  1.00  0.00     0.157 A 
ATOM     16  C   UNL     1      48.605 -35.720  -4.947  1.00  0.00     0.062 A 
ATOM     17  C   UNL     1      48.210 -34.491  -5.491  1.00  0.00     0.158 A 
BRANCH  15  18
ATOM     18  O   UNL     1      48.661 -32.672  -7.095  1.00  0.00    -0.504 OA
ATOM     19  H   UNL     1      47.865 -32.540  -7.702  1.00  0.00     0.293 HD
ENDBRANCH  15  18
BRANCH  17  20
ATOM     20  O   UNL     1      47.043 -33.904  -4.995  1.00  0.00    -0.504 OA
ATOM     21  H   UNL     1      46.303 -33.540  -5.577  1.00  0.00     0.293 HD
ENDBRANCH  17  20
ENDBRANCH   1  12
BRANCH   6  22
ATOM     22  O   UNL     1      51.000 -42.440  -2.972  1.00  0.00    -0.507 OA
ATOM     23  H   UNL     1      51.109 -43.172  -3.658  1.00  0.00     0.293 HD
ENDBRANCH   6  22
BRANCH   8  24
ATOM     24  O   UNL     1      54.767 -39.803  -1.588  1.00  0.00    -0.508 OA
ATOM     25  H   UNL     1      55.525 -39.226  -1.931  1.00  0.00     0.293 HD
ENDBRANCH   8  24
TORSDOF 5
ENDMDL
MODEL 7
REMARK VINA RESULT:    -6.589      1.883      3.491
REMARK INTER + INTRA:          -8.039
REMARK INTER:                  -7.725
REMARK INTRA:                  -0.313
REMARK UNBOUND:                -0.294
REMARK SMILES O=c1cc(-c2ccc(O)c(O)c2)oc2cc(O)cc(O)c12
REMARK SMILES IDX 4 1 3 2 2 3 1 4 21 5 19 6 18 7 16 8 15 9 14 10 13 11 5 12
REMARK SMILES IDX 6 13 7 14 8 15 12 16 10 17 9 18 11 20 20 22 17 24
REMARK H PARENT 9 19 11 21 20 23 17 25
REMARK Flexibility Score: inf
ROOT
ATOM      1  C   UNL     1      48.867 -39.121  -4.194  1.00  0.00     0.138 A 
ATOM      2  C   UNL     1      47.543 -39.579  -4.144  1.00  0.00     0.100 A 
ATOM      3  C   UNL     1      46.511 -38.760  -4.603  1.00  0.00     0.197 A 
ATOM      4  O   UNL     1      45.328 -39.173  -4.488  1.00  0.00    -0.289 OA
ATOM      5  C   UNL     1      46.812 -37.487  -5.144  1.00  0.00     0.107 A 
ATOM      6  C   UNL     1      45.846 -36.583  -5.680  1.00  0.00     0.134 A 
ATOM      7  C   UNL     1      46.248 -35.302  -6.082  1.00  0.00     0.093 A 
ATOM      8  C   UNL     1      47.589 -34.916  -6.022  1.00  0.00     0.123 A 
ATOM      9  C   UNL     1      48.547 -35.811  -5.551  1.00  0.00     0.094 A 
ATOM     10  C   UNL     1      48.173 -37.082  -5.111  1.00  0.00     0.146 A 
ATOM     11  O   UNL     1      49.116 -37.901  -4.655  1.00  0.00    -0.456 OA
ENDROOT
BRANCH   1  12
ATOM     12  C   UNL     1      50.001 -39.953  -3.719  1.00  0.00     0.021 A 
ATOM     13  C   UNL     1      49.829 -41.339  -3.577  1.00  0.00     0.016 A 
ATOM     14  C   UNL     1      50.878 -42.142  -3.125  1.00  0.00     0.051 A 
ATOM     15  C   UNL     1      52.116 -41.580  -2.796  1.00  0.00     0.157 A 
ATOM     16  C   UNL     1      51.242 -39.385  -3.373  1.00  0.00     0.062 A 
ATOM     17  C   UNL     1      52.299 -40.183  -2.918  1.00  0.00     0.158 A 
BRANCH  15  18
ATOM     18  O   UNL     1      53.127 -42.439  -2.357  1.00  0.00    -0.504 OA
ATOM     19  H   UNL     1      53.057 -43.446  -2.372  1.00  0.00     0.293 HD
ENDBRANCH  15  18
BRANCH  17  20
ATOM     20  O   UNL     1      53.501 -39.549  -2.593  1.00  0.00    -0.504 OA
ATOM     21  H   UNL     1      53.950 -39.618  -1.691  1.00  0.00     0.293 HD
ENDBRANCH  17  20
ENDBRANCH   1  12
BRANCH   6  22
ATOM     22  O   UNL     1      44.496 -36.899  -5.862  1.00  0.00    -0.507 OA
ATOM     23  H   UNL     1      43.955 -37.490  -5.249  1.00  0.00     0.293 HD
ENDBRANCH   6  22
BRANCH   8  24
ATOM     24  O   UNL     1      47.981 -33.645  -6.438  1.00  0.00    -0.508 OA
ATOM     25  H   UNL     1      47.454 -33.129  -7.131  1.00  0.00     0.293 HD
ENDBRANCH   8  24
TORSDOF 5
ENDMDL
MODEL 8
REMARK VINA RESULT:    -6.559      1.805      2.324
REMARK INTER + INTRA:          -8.004
REMARK INTER:                  -7.710
REMARK INTRA:                  -0.293
REMARK UNBOUND:                -0.294
REMARK SMILES O=c1cc(-c2ccc(O)c(O)c2)oc2cc(O)cc(O)c12
REMARK SMILES IDX 4 1 3 2 2 3 1 4 21 5 19 6 18 7 16 8 15 9 14 10 13 11 5 12
REMARK SMILES IDX 6 13 7 14 8 15 12 16 10 17 9 18 11 20 20 22 17 24
REMARK H PARENT 9 19 11 21 20 23 17 25
REMARK Flexibility Score: inf
ROOT
ATOM      1  C   UNL     1      50.014 -38.165  -4.369  1.00  0.00     0.138 A 
ATOM      2  C   UNL     1      50.545 -37.056  -5.042  1.00  0.00     0.100 A 
ATOM      3  C   UNL     1      49.685 -36.141  -5.650  1.00  0.00     0.197 A 
ATOM      4  O   UNL     1      50.192 -35.190  -6.300  1.00  0.00    -0.289 OA
ATOM      5  C   UNL     1      48.285 -36.322  -5.555  1.00  0.00     0.107 A 
ATOM      6  C   UNL     1      47.311 -35.431  -6.100  1.00  0.00     0.134 A 
ATOM      7  C   UNL     1      45.954 -35.775  -6.044  1.00  0.00     0.093 A 
ATOM      8  C   UNL     1      45.532 -36.946  -5.410  1.00  0.00     0.123 A 
ATOM      9  C   UNL     1      46.471 -37.795  -4.828  1.00  0.00     0.094 A 
ATOM     10  C   UNL     1      47.834 -37.498  -4.898  1.00  0.00     0.146 A 
ATOM     11  O   UNL     1      48.698 -38.341  -4.342  1.00  0.00    -0.456 OA
ENDROOT
BRANCH   1  12
ATOM     12  C   UNL     1      50.885 -39.168  -3.705  1.00  0.00     0.021 A 
ATOM     13  C   UNL     1      50.369 -40.440  -3.408  1.00  0.00     0.016 A 
ATOM     14  C   UNL     1      51.164 -41.398  -2.777  1.00  0.00     0.051 A 
ATOM     15  C   UNL     1      52.485 -41.108  -2.421  1.00  0.00     0.157 A 
ATOM     16  C   UNL     1      52.209 -38.870  -3.333  1.00  0.00     0.062 A 
ATOM     17  C   UNL     1      53.013 -39.826  -2.698  1.00  0.00     0.158 A 
BRANCH  15  18
ATOM     18  O   UNL     1      53.230 -42.112  -1.799  1.00  0.00    -0.504 OA
ATOM     19  H   UNL     1      52.848 -42.765  -1.130  1.00  0.00     0.293 HD
ENDBRANCH  15  18
BRANCH  17  20
ATOM     20  O   UNL     1      54.316 -39.457  -2.358  1.00  0.00    -0.504 OA
ATOM     21  H   UNL     1      55.141 -39.952  -2.663  1.00  0.00     0.293 HD
ENDBRANCH  17  20
ENDBRANCH   1  12
BRANCH   6  22
ATOM     22  O   UNL     1      47.619 -34.197  -6.679  1.00  0.00    -0.507 OA
ATOM     23  H   UNL     1      48.474 -33.684  -6.524  1.00  0.00     0.293 HD
ENDBRANCH   6  22
BRANCH   8  24
ATOM     24  O   UNL     1      44.179 -37.272  -5.347  1.00  0.00    -0.508 OA
ATOM     25  H   UNL     1      43.569 -36.866  -4.648  1.00  0.00     0.293 HD
ENDBRANCH   8  24
TORSDOF 5
ENDMDL
MODEL 9
REMARK VINA RESULT:    -6.359      3.365      6.343
REMARK INTER + INTRA:          -7.769
REMARK INTER:                  -7.499
REMARK INTRA:                  -0.270
REMARK UNBOUND:                -0.294
REMARK SMILES O=c1cc(-c2ccc(O)c(O)c2)oc2cc(O)cc(O)c12
REMARK SMILES IDX 4 1 3 2 2 3 1 4 21 5 19 6 18 7 16 8 15 9 14 10 13 11 5 12
REMARK SMILES IDX 6 13 7 14 8 15 12 16 10 17 9 18 11 20 20 22 17 24
REMARK H PARENT 9 19 11 21 20 23 17 25
REMARK Flexibility Score: inf
ROOT
ATOM      1  C   UNL     1      47.999 -38.205  -3.934  1.00  0.00     0.138 A 
ATOM      2  C   UNL     1      49.208 -38.803  -4.316  1.00  0.00     0.100 A 
ATOM      3  C   UNL     1      50.098 -38.100  -5.129  1.00  0.00     0.197 A 
ATOM      4  O   UNL     1      51.146 -38.686  -5.507  1.00  0.00    -0.289 OA
ATOM      5  C   UNL     1      49.788 -36.781  -5.536  1.00  0.00     0.107 A 
ATOM      6  C   UNL     1      50.638 -35.955  -6.332  1.00  0.00     0.134 A 
ATOM      7  C   UNL     1      50.174 -34.707  -6.770  1.00  0.00     0.093 A 
ATOM      8  C   UNL     1      48.916 -34.233  -6.390  1.00  0.00     0.123 A 
ATOM      9  C   UNL     1      48.101 -35.009  -5.569  1.00  0.00     0.094 A 
ATOM     10  C   UNL     1      48.521 -36.272  -5.145  1.00  0.00     0.146 A 
ATOM     11  O   UNL     1      47.707 -36.986  -4.374  1.00  0.00    -0.456 OA
ENDROOT
BRANCH   1  12
ATOM     12  C   UNL     1      47.017 -38.907  -3.069  1.00  0.00     0.021 A 
ATOM     13  C   UNL     1      45.705 -39.099  -3.530  1.00  0.00     0.016 A 
ATOM     14  C   UNL     1      44.761 -39.750  -2.733  1.00  0.00     0.051 A 
ATOM     15  C   UNL     1      45.102 -40.214  -1.458  1.00  0.00     0.157 A 
ATOM     16  C   UNL     1      47.356 -39.360  -1.780  1.00  0.00     0.062 A 
ATOM     17  C   UNL     1      46.414 -40.012  -0.973  1.00  0.00     0.158 A 
BRANCH  15  18
ATOM     18  O   UNL     1      44.113 -40.862  -0.714  1.00  0.00    -0.504 OA
ATOM     19  H   UNL     1      43.460 -41.527  -1.102  1.00  0.00     0.293 HD
ENDBRANCH  15  18
BRANCH  17  20
ATOM     20  O   UNL     1      46.823 -40.433   0.294  1.00  0.00    -0.504 OA
ATOM     21  H   UNL     1      47.717 -40.206   0.704  1.00  0.00     0.293 HD
ENDBRANCH  17  20
ENDBRANCH   1  12
BRANCH   6  22
ATOM     22  O   UNL     1      51.943 -36.298  -6.695  1.00  0.00    -0.507 OA
ATOM     23  H   UNL     1      52.596 -35.679  -7.151  1.00  0.00     0.293 HD
ENDBRANCH   6  22
BRANCH   8  24
ATOM     24  O   UNL     1      48.470 -32.984  -6.819  1.00  0.00    -0.508 OA
ATOM     25  H   UNL     1      49.097 -32.192  -6.887  1.00  0.00     0.293 HD
ENDBRANCH   8  24
TORSDOF 5
ENDMDL
