MODEL 1
REMARK VINA RESULT:    -3.867      0.000      0.000
REMARK INTER + INTRA:          -8.482
REMARK INTER:                  -7.032
REMARK INTRA:                  -1.450
REMARK UNBOUND:                -1.450
REMARK SMILES CCCCCCCCCCCCCC[C@H](C)C(=O)[O-]
REMARK SMILES IDX 9 1 10 2 11 3 12 4 13 5 14 6 15 7 16 8 17 9 18 10 19 11 8 12
REMARK SMILES IDX 7 13 6 14 5 15 4 16 3 17 2 18 1 19
REMARK H PARENT
REMARK Flexibility Score: inf
ROOT
ATOM      1  C   UNL     1       5.129  -5.267  70.670  1.00  0.00     0.000 C 
ENDROOT
BRANCH   1   2
ATOM      2  C   UNL     1       4.624  -3.821  70.812  1.00  0.00     0.000 C 
BRANCH   2   3
ATOM      3  C   UNL     1       3.943  -3.293  69.539  1.00  0.00     0.000 C 
BRANCH   3   4
ATOM      4  C   UNL     1       4.723  -3.715  68.285  1.00  0.00     0.000 C 
BRANCH   4   5
ATOM      5  C   UNL     1       3.963  -3.413  66.983  1.00  0.00     0.001 C 
BRANCH   5   6
ATOM      6  C   UNL     1       2.559  -2.833  67.237  1.00  0.00     0.009 C 
BRANCH   6   7
ATOM      7  C   UNL     1       2.340  -1.476  66.532  1.00  0.00     0.032 C 
ATOM      8  C   UNL     1       3.132  -1.363  65.221  1.00  0.00     0.014 C 
BRANCH   7   9
ATOM      9  C   UNL     1       2.725  -0.351  67.453  1.00  0.00     0.044 C 
ATOM     10  O   UNL     1       2.273  -0.303  68.628  1.00  0.00    -0.550 OA
ATOM     11  O   UNL     1       3.584   0.647  67.008  1.00  0.00    -0.550 OA
ENDBRANCH   7   9
ENDBRANCH   6   7
ENDBRANCH   5   6
ENDBRANCH   4   5
ENDBRANCH   3   4
ENDBRANCH   2   3
ENDBRANCH   1   2
BRANCH   1  12
ATOM     12  C   UNL     1       5.236  -6.058  71.987  1.00  0.00     0.000 C 
BRANCH  12  13
ATOM     13  C   UNL     1       4.989  -7.564  71.804  1.00  0.00    -0.000 C 
BRANCH  13  14
ATOM     14  C   UNL     1       5.552  -8.107  70.478  1.00  0.00    -0.000 C 
BRANCH  14  15
ATOM     15  C   UNL     1       6.557  -9.269  70.619  1.00  0.00    -0.000 C 
BRANCH  15  16
ATOM     16  C   UNL     1       8.022  -8.907  70.307  1.00  0.00    -0.000 C 
BRANCH  16  17
ATOM     17  C   UNL     1       8.859  -8.467  71.525  1.00  0.00    -0.000 C 
BRANCH  17  18
ATOM     18  C   UNL     1       8.890  -6.949  71.774  1.00  0.00    -0.003 C 
ATOM     19  C   UNL     1       8.597  -6.579  73.228  1.00  0.00     0.004 C 
ENDBRANCH  17  18
ENDBRANCH  16  17
ENDBRANCH  15  16
ENDBRANCH  14  15
ENDBRANCH  13  14
ENDBRANCH  12  13
ENDBRANCH   1  12
TORSDOF 14
ENDMDL
MODEL 2
REMARK VINA RESULT:    -3.842     10.747     12.319
REMARK INTER + INTRA:          -8.436
REMARK INTER:                  -6.021
REMARK INTRA:                  -2.415
REMARK UNBOUND:                -1.450
REMARK SMILES CCCCCCCCCCCCCC[C@H](C)C(=O)[O-]
REMARK SMILES IDX 9 1 10 2 11 3 12 4 13 5 14 6 15 7 16 8 17 9 18 10 19 11 8 12
REMARK SMILES IDX 7 13 6 14 5 15 4 16 3 17 2 18 1 19
REMARK H PARENT
REMARK Flexibility Score: inf
ROOT
ATOM      1  C   UNL     1      -3.678 -10.432  65.430  1.00  0.00     0.000 C 
ENDROOT
BRANCH   1   2
ATOM      2  C   UNL     1      -4.882 -10.371  64.474  1.00  0.00     0.000 C 
BRANCH   2   3
ATOM      3  C   UNL     1      -6.108  -9.683  65.094  1.00  0.00     0.000 C 
BRANCH   3   4
ATOM      4  C   UNL     1      -6.211  -8.222  64.631  1.00  0.00     0.000 C 
BRANCH   4   5
ATOM      5  C   UNL     1      -6.218  -7.226  65.802  1.00  0.00     0.001 C 
BRANCH   5   6
ATOM      6  C   UNL     1      -5.076  -6.198  65.712  1.00  0.00     0.009 C 
BRANCH   6   7
ATOM      7  C   UNL     1      -4.035  -6.558  64.630  1.00  0.00     0.032 C 
ATOM      8  C   UNL     1      -2.643  -6.827  65.223  1.00  0.00     0.014 C 
BRANCH   7   9
ATOM      9  C   UNL     1      -3.945  -5.452  63.614  1.00  0.00     0.044 C 
ATOM     10  O   UNL     1      -4.876  -5.268  62.785  1.00  0.00    -0.550 OA
ATOM     11  O   UNL     1      -2.828  -4.626  63.585  1.00  0.00    -0.550 OA
ENDBRANCH   7   9
ENDBRANCH   6   7
ENDBRANCH   5   6
ENDBRANCH   4   5
ENDBRANCH   3   4
ENDBRANCH   2   3
ENDBRANCH   1   2
BRANCH   1  12
ATOM     12  C   UNL     1      -3.997 -10.144  66.909  1.00  0.00     0.000 C 
BRANCH  12  13
ATOM     13  C   UNL     1      -4.107 -11.421  67.759  1.00  0.00    -0.000 C 
BRANCH  13  14
ATOM     14  C   UNL     1      -3.312 -12.601  67.172  1.00  0.00    -0.000 C 
BRANCH  14  15
ATOM     15  C   UNL     1      -4.149 -13.848  66.822  1.00  0.00    -0.000 C 
BRANCH  15  16
ATOM     16  C   UNL     1      -5.580 -13.557  66.328  1.00  0.00    -0.000 C 
BRANCH  16  17
ATOM     17  C   UNL     1      -5.860 -13.956  64.866  1.00  0.00    -0.000 C 
BRANCH  17  18
ATOM     18  C   UNL     1      -4.605 -14.136  63.993  1.00  0.00    -0.003 C 
ATOM     19  C   UNL     1      -4.907 -14.074  62.496  1.00  0.00     0.004 C 
ENDBRANCH  17  18
ENDBRANCH  16  17
ENDBRANCH  15  16
ENDBRANCH  14  15
ENDBRANCH  13  14
ENDBRANCH  12  13
ENDBRANCH   1  12
TORSDOF 14
ENDMDL
MODEL 3
REMARK VINA RESULT:    -3.779     10.188     11.883
REMARK INTER + INTRA:          -8.323
REMARK INTER:                  -6.061
REMARK INTRA:                  -2.262
REMARK UNBOUND:                -1.450
REMARK SMILES CCCCCCCCCCCCCC[C@H](C)C(=O)[O-]
REMARK SMILES IDX 9 1 10 2 11 3 12 4 13 5 14 6 15 7 16 8 17 9 18 10 19 11 8 12
REMARK SMILES IDX 7 13 6 14 5 15 4 16 3 17 2 18 1 19
REMARK H PARENT
REMARK Flexibility Score: inf
ROOT
ATOM      1  C   UNL     1      -5.961 -10.048  65.512  1.00  0.00     0.000 C 
ENDROOT
BRANCH   1   2
ATOM      2  C   UNL     1      -6.689  -8.692  65.486  1.00  0.00     0.000 C 
BRANCH   2   3
ATOM      3  C   UNL     1      -5.744  -7.506  65.236  1.00  0.00     0.000 C 
BRANCH   3   4
ATOM      4  C   UNL     1      -4.869  -7.232  66.468  1.00  0.00     0.000 C 
BRANCH   4   5
ATOM      5  C   UNL     1      -3.422  -6.865  66.100  1.00  0.00     0.001 C 
BRANCH   5   6
ATOM      6  C   UNL     1      -3.158  -6.943  64.585  1.00  0.00     0.009 C 
BRANCH   6   7
ATOM      7  C   UNL     1      -2.455  -5.681  64.038  1.00  0.00     0.032 C 
ATOM      8  C   UNL     1      -2.019  -4.722  65.156  1.00  0.00     0.014 C 
BRANCH   7   9
ATOM      9  C   UNL     1      -3.365  -4.960  63.082  1.00  0.00     0.044 C 
ATOM     10  O   UNL     1      -4.602  -5.200  63.071  1.00  0.00    -0.550 OA
ATOM     11  O   UNL     1      -2.842  -4.022  62.200  1.00  0.00    -0.550 OA
ENDBRANCH   7   9
ENDBRANCH   6   7
ENDBRANCH   5   6
ENDBRANCH   4   5
ENDBRANCH   3   4
ENDBRANCH   2   3
ENDBRANCH   1   2
BRANCH   1  12
ATOM     12  C   UNL     1      -4.914 -10.253  64.401  1.00  0.00     0.000 C 
BRANCH  12  13
ATOM     13  C   UNL     1      -3.543 -10.691  64.942  1.00  0.00    -0.000 C 
BRANCH  13  14
ATOM     14  C   UNL     1      -3.550 -10.937  66.462  1.00  0.00    -0.000 C 
BRANCH  14  15
ATOM     15  C   UNL     1      -3.353 -12.405  66.891  1.00  0.00    -0.000 C 
BRANCH  15  16
ATOM     16  C   UNL     1      -4.642 -13.248  66.950  1.00  0.00    -0.000 C 
BRANCH  16  17
ATOM     17  C   UNL     1      -4.733 -14.376  65.903  1.00  0.00    -0.000 C 
BRANCH  17  18
ATOM     18  C   UNL     1      -5.621 -14.060  64.687  1.00  0.00    -0.003 C 
ATOM     19  C   UNL     1      -4.816 -13.791  63.416  1.00  0.00     0.004 C 
ENDBRANCH  17  18
ENDBRANCH  16  17
ENDBRANCH  15  16
ENDBRANCH  14  15
ENDBRANCH  13  14
ENDBRANCH  12  13
ENDBRANCH   1  12
TORSDOF 14
ENDMDL
MODEL 4
REMARK VINA RESULT:    -3.745     11.305     13.707
REMARK INTER + INTRA:          -8.261
REMARK INTER:                  -5.786
REMARK INTRA:                  -2.475
REMARK UNBOUND:                -1.450
REMARK SMILES CCCCCCCCCCCCCC[C@H](C)C(=O)[O-]
REMARK SMILES IDX 9 1 10 2 11 3 12 4 13 5 14 6 15 7 16 8 17 9 18 10 19 11 8 12
REMARK SMILES IDX 7 13 6 14 5 15 4 16 3 17 2 18 1 19
REMARK H PARENT
REMARK Flexibility Score: inf
ROOT
ATOM      1  C   UNL     1      -6.290  -8.581  64.800  1.00  0.00     0.000 C 
ENDROOT
BRANCH   1   2
ATOM      2  C   UNL     1      -5.570  -9.899  64.464  1.00  0.00     0.000 C 
BRANCH   2   3
ATOM      3  C   UNL     1      -4.040  -9.785  64.535  1.00  0.00     0.000 C 
BRANCH   3   4
ATOM      4  C   UNL     1      -3.454 -10.838  65.486  1.00  0.00     0.000 C 
BRANCH   4   5
ATOM      5  C   UNL     1      -4.516 -11.472  66.399  1.00  0.00     0.001 C 
BRANCH   5   6
ATOM      6  C   UNL     1      -4.625 -12.996  66.212  1.00  0.00     0.009 C 
BRANCH   6   7
ATOM      7  C   UNL     1      -5.769 -13.397  65.255  1.00  0.00     0.032 C 
ATOM      8  C   UNL     1      -6.671 -14.491  65.846  1.00  0.00     0.014 C 
BRANCH   7   9
ATOM      9  C   UNL     1      -5.200 -13.866  63.943  1.00  0.00     0.044 C 
ATOM     10  O   UNL     1      -5.596 -13.364  62.857  1.00  0.00    -0.550 OA
ATOM     11  O   UNL     1      -4.232 -14.863  63.924  1.00  0.00    -0.550 OA
ENDBRANCH   7   9
ENDBRANCH   6   7
ENDBRANCH   5   6
ENDBRANCH   4   5
ENDBRANCH   3   4
ENDBRANCH   2   3
ENDBRANCH   1   2
BRANCH   1  12
ATOM     12  C   UNL     1      -6.958  -8.532  66.186  1.00  0.00     0.000 C 
BRANCH  12  13
ATOM     13  C   UNL     1      -6.271  -7.547  67.148  1.00  0.00    -0.000 C 
BRANCH  13  14
ATOM     14  C   UNL     1      -5.080  -8.174  67.896  1.00  0.00    -0.000 C 
BRANCH  14  15
ATOM     15  C   UNL     1      -3.695  -7.613  67.513  1.00  0.00    -0.000 C 
BRANCH  15  16
ATOM     16  C   UNL     1      -3.718  -6.451  66.500  1.00  0.00    -0.000 C 
BRANCH  16  17
ATOM     17  C   UNL     1      -2.489  -6.369  65.573  1.00  0.00    -0.000 C 
BRANCH  17  18
ATOM     18  C   UNL     1      -2.802  -6.479  64.071  1.00  0.00    -0.003 C 
ATOM     19  C   UNL     1      -4.089  -5.754  63.677  1.00  0.00     0.004 C 
ENDBRANCH  17  18
ENDBRANCH  16  17
ENDBRANCH  15  16
ENDBRANCH  14  15
ENDBRANCH  13  14
ENDBRANCH  12  13
ENDBRANCH   1  12
TORSDOF 14
ENDMDL
MODEL 5
REMARK VINA RESULT:    -3.698      3.309      8.233
REMARK INTER + INTRA:          -8.174
REMARK INTER:                  -6.331
REMARK INTRA:                  -1.843
REMARK UNBOUND:                -1.450
REMARK SMILES CCCCCCCCCCCCCC[C@H](C)C(=O)[O-]
REMARK SMILES IDX 9 1 10 2 11 3 12 4 13 5 14 6 15 7 16 8 17 9 18 10 19 11 8 12
REMARK SMILES IDX 7 13 6 14 5 15 4 16 3 17 2 18 1 19
REMARK H PARENT
REMARK Flexibility Score: inf
ROOT
ATOM      1  C   UNL     1       3.463  -3.240  66.515  1.00  0.00     0.000 C 
ENDROOT
BRANCH   1   2
ATOM      2  C   UNL     1       4.511  -3.524  67.605  1.00  0.00     0.000 C 
BRANCH   2   3
ATOM      3  C   UNL     1       4.268  -2.729  68.897  1.00  0.00     0.000 C 
BRANCH   3   4
ATOM      4  C   UNL     1       4.264  -3.657  70.121  1.00  0.00     0.000 C 
BRANCH   4   5
ATOM      5  C   UNL     1       5.150  -4.899  69.928  1.00  0.00     0.001 C 
BRANCH   5   6
ATOM      6  C   UNL     1       5.262  -5.750  71.206  1.00  0.00     0.009 C 
BRANCH   6   7
ATOM      7  C   UNL     1       5.761  -7.184  70.924  1.00  0.00     0.032 C 
ATOM      8  C   UNL     1       5.163  -8.214  71.894  1.00  0.00     0.014 C 
BRANCH   7   9
ATOM      9  C   UNL     1       7.263  -7.230  71.002  1.00  0.00     0.044 C 
ATOM     10  O   UNL     1       7.905  -8.153  70.434  1.00  0.00    -0.550 OA
ATOM     11  O   UNL     1       7.951  -6.250  71.707  1.00  0.00    -0.550 OA
ENDBRANCH   7   9
ENDBRANCH   6   7
ENDBRANCH   5   6
ENDBRANCH   4   5
ENDBRANCH   3   4
ENDBRANCH   2   3
ENDBRANCH   1   2
BRANCH   1  12
ATOM     12  C   UNL     1       2.048  -2.922  67.032  1.00  0.00     0.000 C 
BRANCH  12  13
ATOM     13  C   UNL     1       1.540  -1.542  66.581  1.00  0.00    -0.000 C 
BRANCH  13  14
ATOM     14  C   UNL     1       2.638  -0.686  65.924  1.00  0.00    -0.000 C 
BRANCH  14  15
ATOM     15  C   UNL     1       2.938   0.652  66.630  1.00  0.00    -0.000 C 
BRANCH  15  16
ATOM     16  C   UNL     1       4.018   0.585  67.728  1.00  0.00    -0.000 C 
BRANCH  16  17
ATOM     17  C   UNL     1       3.558   1.044  69.126  1.00  0.00    -0.000 C 
BRANCH  17  18
ATOM     18  C   UNL     1       2.045   0.930  69.378  1.00  0.00    -0.003 C 
ATOM     19  C   UNL     1       1.656  -0.366  70.089  1.00  0.00     0.004 C 
ENDBRANCH  17  18
ENDBRANCH  16  17
ENDBRANCH  15  16
ENDBRANCH  14  15
ENDBRANCH  13  14
ENDBRANCH  12  13
ENDBRANCH   1  12
TORSDOF 14
ENDMDL
MODEL 6
REMARK VINA RESULT:    -3.686     10.870     12.455
REMARK INTER + INTRA:          -8.153
REMARK INTER:                  -5.839
REMARK INTRA:                  -2.315
REMARK UNBOUND:                -1.450
REMARK SMILES CCCCCCCCCCCCCC[C@H](C)C(=O)[O-]
REMARK SMILES IDX 9 1 10 2 11 3 12 4 13 5 14 6 15 7 16 8 17 9 18 10 19 11 8 12
REMARK SMILES IDX 7 13 6 14 5 15 4 16 3 17 2 18 1 19
REMARK H PARENT
REMARK Flexibility Score: inf
ROOT
ATOM      1  C   UNL     1      -3.584 -10.933  65.221  1.00  0.00     0.000 C 
ENDROOT
BRANCH   1   2
ATOM      2  C   UNL     1      -4.821 -10.262  64.598  1.00  0.00     0.000 C 
BRANCH   2   3
ATOM      3  C   UNL     1      -6.005 -10.159  65.571  1.00  0.00     0.000 C 
BRANCH   3   4
ATOM      4  C   UNL     1      -6.578  -8.735  65.590  1.00  0.00     0.000 C 
BRANCH   4   5
ATOM      5  C   UNL     1      -5.750  -7.749  64.750  1.00  0.00     0.001 C 
BRANCH   5   6
ATOM      6  C   UNL     1      -5.326  -6.502  65.547  1.00  0.00     0.009 C 
BRANCH   6   7
ATOM      7  C   UNL     1      -3.793  -6.311  65.581  1.00  0.00     0.032 C 
ATOM      8  C   UNL     1      -3.076  -7.137  64.503  1.00  0.00     0.014 C 
BRANCH   7   9
ATOM      9  C   UNL     1      -3.260  -6.680  66.938  1.00  0.00     0.044 C 
ATOM     10  O   UNL     1      -2.564  -5.861  67.597  1.00  0.00    -0.550 OA
ATOM     11  O   UNL     1      -3.532  -7.933  67.473  1.00  0.00    -0.550 OA
ENDBRANCH   7   9
ENDBRANCH   6   7
ENDBRANCH   5   6
ENDBRANCH   4   5
ENDBRANCH   3   4
ENDBRANCH   2   3
ENDBRANCH   1   2
BRANCH   1  12
ATOM     12  C   UNL     1      -3.717 -11.301  66.710  1.00  0.00     0.000 C 
BRANCH  12  13
ATOM     13  C   UNL     1      -3.069 -12.652  67.054  1.00  0.00    -0.000 C 
BRANCH  13  14
ATOM     14  C   UNL     1      -4.026 -13.605  67.793  1.00  0.00    -0.000 C 
BRANCH  14  15
ATOM     15  C   UNL     1      -4.707 -14.669  66.908  1.00  0.00    -0.000 C 
BRANCH  15  16
ATOM     16  C   UNL     1      -6.042 -14.232  66.272  1.00  0.00    -0.000 C 
BRANCH  16  17
ATOM     17  C   UNL     1      -5.956 -13.826  64.788  1.00  0.00    -0.000 C 
BRANCH  17  18
ATOM     18  C   UNL     1      -4.691 -14.309  64.057  1.00  0.00    -0.003 C 
ATOM     19  C   UNL     1      -4.768 -14.119  62.543  1.00  0.00     0.004 C 
ENDBRANCH  17  18
ENDBRANCH  16  17
ENDBRANCH  15  16
ENDBRANCH  14  15
ENDBRANCH  13  14
ENDBRANCH  12  13
ENDBRANCH   1  12
TORSDOF 14
ENDMDL
MODEL 7
REMARK VINA RESULT:    -3.658      5.241      7.470
REMARK INTER + INTRA:          -8.102
REMARK INTER:                  -5.944
REMARK INTRA:                  -2.159
REMARK UNBOUND:                -1.450
REMARK SMILES CCCCCCCCCCCCCC[C@H](C)C(=O)[O-]
REMARK SMILES IDX 9 1 10 2 11 3 12 4 13 5 14 6 15 7 16 8 17 9 18 10 19 11 8 12
REMARK SMILES IDX 7 13 6 14 5 15 4 16 3 17 2 18 1 19
REMARK H PARENT
REMARK Flexibility Score: inf
ROOT
ATOM      1  C   UNL     1       1.967   0.203  67.056  1.00  0.00     0.000 C 
ENDROOT
BRANCH   1   2
ATOM      2  C   UNL     1       0.571  -0.033  67.660  1.00  0.00     0.000 C 
BRANCH   2   3
ATOM      3  C   UNL     1      -0.270  -1.039  66.859  1.00  0.00     0.000 C 
BRANCH   3   4
ATOM      4  C   UNL     1      -0.377  -2.380  67.601  1.00  0.00     0.000 C 
BRANCH   4   5
ATOM      5  C   UNL     1      -0.434  -3.584  66.647  1.00  0.00     0.001 C 
BRANCH   5   6
ATOM      6  C   UNL     1      -1.870  -3.920  66.204  1.00  0.00     0.009 C 
BRANCH   6   7
ATOM      7  C   UNL     1      -1.914  -4.994  65.094  1.00  0.00     0.032 C 
ATOM      8  C   UNL     1      -2.754  -4.554  63.886  1.00  0.00     0.014 C 
BRANCH   7   9
ATOM      9  C   UNL     1      -2.461  -6.282  65.647  1.00  0.00     0.044 C 
ATOM     10  O   UNL     1      -2.979  -7.138  64.881  1.00  0.00    -0.550 OA
ATOM     11  O   UNL     1      -2.399  -6.533  67.012  1.00  0.00    -0.550 OA
ENDBRANCH   7   9
ENDBRANCH   6   7
ENDBRANCH   5   6
ENDBRANCH   4   5
ENDBRANCH   3   4
ENDBRANCH   2   3
ENDBRANCH   1   2
BRANCH   1  12
ATOM     12  C   UNL     1       2.154  -0.308  65.615  1.00  0.00     0.000 C 
BRANCH  12  13
ATOM     13  C   UNL     1       3.326  -1.294  65.476  1.00  0.00    -0.000 C 
BRANCH  13  14
ATOM     14  C   UNL     1       3.042  -2.658  66.133  1.00  0.00    -0.000 C 
BRANCH  14  15
ATOM     15  C   UNL     1       4.239  -3.295  66.868  1.00  0.00    -0.000 C 
BRANCH  15  16
ATOM     16  C   UNL     1       4.241  -3.107  68.398  1.00  0.00    -0.000 C 
BRANCH  16  17
ATOM     17  C   UNL     1       2.855  -2.860  69.027  1.00  0.00    -0.000 C 
BRANCH  17  18
ATOM     18  C   UNL     1       2.827  -1.785  70.127  1.00  0.00    -0.003 C 
ATOM     19  C   UNL     1       1.484  -1.712  70.853  1.00  0.00     0.004 C 
ENDBRANCH  17  18
ENDBRANCH  16  17
ENDBRANCH  15  16
ENDBRANCH  14  15
ENDBRANCH  13  14
ENDBRANCH  12  13
ENDBRANCH   1  12
TORSDOF 14
ENDMDL
MODEL 8
REMARK VINA RESULT:    -3.616     11.590     12.939
REMARK INTER + INTRA:          -8.025
REMARK INTER:                  -5.550
REMARK INTRA:                  -2.475
REMARK UNBOUND:                -1.450
REMARK SMILES CCCCCCCCCCCCCC[C@H](C)C(=O)[O-]
REMARK SMILES IDX 9 1 10 2 11 3 12 4 13 5 14 6 15 7 16 8 17 9 18 10 19 11 8 12
REMARK SMILES IDX 7 13 6 14 5 15 4 16 3 17 2 18 1 19
REMARK H PARENT
REMARK Flexibility Score: inf
ROOT
ATOM      1  C   UNL     1      -5.223 -14.860  66.638  1.00  0.00     0.000 C 
ENDROOT
BRANCH   1   2
ATOM      2  C   UNL     1      -4.135 -14.472  65.621  1.00  0.00     0.000 C 
BRANCH   2   3
ATOM      3  C   UNL     1      -4.627 -14.511  64.167  1.00  0.00     0.000 C 
BRANCH   3   4
ATOM      4  C   UNL     1      -4.646 -13.102  63.555  1.00  0.00     0.000 C 
BRANCH   4   5
ATOM      5  C   UNL     1      -4.219 -12.014  64.555  1.00  0.00     0.001 C 
BRANCH   5   6
ATOM      6  C   UNL     1      -4.938 -10.674  64.314  1.00  0.00     0.009 C 
BRANCH   6   7
ATOM      7  C   UNL     1      -4.894  -9.745  65.547  1.00  0.00     0.032 C 
ATOM      8  C   UNL     1      -6.270  -9.151  65.883  1.00  0.00     0.014 C 
BRANCH   7   9
ATOM      9  C   UNL     1      -3.907  -8.633  65.317  1.00  0.00     0.044 C 
ATOM     10  O   UNL     1      -3.112  -8.674  64.340  1.00  0.00    -0.550 OA
ATOM     11  O   UNL     1      -3.866  -7.551  66.188  1.00  0.00    -0.550 OA
ENDBRANCH   7   9
ENDBRANCH   6   7
ENDBRANCH   5   6
ENDBRANCH   4   5
ENDBRANCH   3   4
ENDBRANCH   2   3
ENDBRANCH   1   2
BRANCH   1  12
ATOM     12  C   UNL     1      -6.663 -14.495  66.230  1.00  0.00     0.000 C 
BRANCH  12  13
ATOM     13  C   UNL     1      -7.092 -13.103  66.726  1.00  0.00    -0.000 C 
BRANCH  13  14
ATOM     14  C   UNL     1      -6.789 -12.881  68.220  1.00  0.00    -0.000 C 
BRANCH  14  15
ATOM     15  C   UNL     1      -5.779 -11.756  68.525  1.00  0.00    -0.000 C 
BRANCH  15  16
ATOM     16  C   UNL     1      -4.365 -12.234  68.908  1.00  0.00    -0.000 C 
BRANCH  16  17
ATOM     17  C   UNL     1      -3.210 -11.440  68.265  1.00  0.00    -0.000 C 
BRANCH  17  18
ATOM     18  C   UNL     1      -3.054  -9.997  68.776  1.00  0.00    -0.003 C 
ATOM     19  C   UNL     1      -2.098  -9.887  69.964  1.00  0.00     0.004 C 
ENDBRANCH  17  18
ENDBRANCH  16  17
ENDBRANCH  15  16
ENDBRANCH  14  15
ENDBRANCH  13  14
ENDBRANCH  12  13
ENDBRANCH   1  12
TORSDOF 14
ENDMDL
MODEL 9
REMARK VINA RESULT:    -3.607     11.138     12.574
REMARK INTER + INTRA:          -8.009
REMARK INTER:                  -5.748
REMARK INTRA:                  -2.261
REMARK UNBOUND:                -1.450
REMARK SMILES CCCCCCCCCCCCCC[C@H](C)C(=O)[O-]
REMARK SMILES IDX 9 1 10 2 11 3 12 4 13 5 14 6 15 7 16 8 17 9 18 10 19 11 8 12
REMARK SMILES IDX 7 13 6 14 5 15 4 16 3 17 2 18 1 19
REMARK H PARENT
REMARK Flexibility Score: inf
ROOT
ATOM      1  C   UNL     1      -4.668 -11.894  64.020  1.00  0.00     0.000 C 
ENDROOT
BRANCH   1   2
ATOM      2  C   UNL     1      -3.616 -10.830  64.380  1.00  0.00     0.000 C 
BRANCH   2   3
ATOM      3  C   UNL     1      -4.226  -9.563  64.998  1.00  0.00     0.000 C 
BRANCH   3   4
ATOM      4  C   UNL     1      -5.739  -9.501  64.740  1.00  0.00     0.000 C 
BRANCH   4   5
ATOM      5  C   UNL     1      -6.266  -8.061  64.630  1.00  0.00     0.001 C 
BRANCH   5   6
ATOM      6  C   UNL     1      -5.287  -7.026  65.214  1.00  0.00     0.009 C 
BRANCH   6   7
ATOM      7  C   UNL     1      -5.099  -5.800  64.294  1.00  0.00     0.032 C 
ATOM      8  C   UNL     1      -6.252  -5.638  63.291  1.00  0.00     0.014 C 
BRANCH   7   9
ATOM      9  C   UNL     1      -3.796  -5.909  63.551  1.00  0.00     0.044 C 
ATOM     10  O   UNL     1      -3.695  -5.485  62.369  1.00  0.00    -0.550 OA
ATOM     11  O   UNL     1      -2.691  -6.484  64.168  1.00  0.00    -0.550 OA
ENDBRANCH   7   9
ENDBRANCH   6   7
ENDBRANCH   5   6
ENDBRANCH   4   5
ENDBRANCH   3   4
ENDBRANCH   2   3
ENDBRANCH   1   2
BRANCH   1  12
ATOM     12  C   UNL     1      -4.126 -13.326  63.856  1.00  0.00     0.000 C 
BRANCH  12  13
ATOM     13  C   UNL     1      -4.588 -14.274  64.974  1.00  0.00    -0.000 C 
BRANCH  13  14
ATOM     14  C   UNL     1      -6.081 -14.114  65.317  1.00  0.00    -0.000 C 
BRANCH  14  15
ATOM     15  C   UNL     1      -6.382 -13.742  66.783  1.00  0.00    -0.000 C 
BRANCH  15  16
ATOM     16  C   UNL     1      -6.764 -12.267  67.018  1.00  0.00    -0.000 C 
BRANCH  16  17
ATOM     17  C   UNL     1      -5.786 -11.473  67.906  1.00  0.00    -0.000 C 
BRANCH  17  18
ATOM     18  C   UNL     1      -4.591 -12.284  68.437  1.00  0.00    -0.003 C 
ATOM     19  C   UNL     1      -3.263 -11.871  67.804  1.00  0.00     0.004 C 
ENDBRANCH  17  18
ENDBRANCH  16  17
ENDBRANCH  15  16
ENDBRANCH  14  15
ENDBRANCH  13  14
ENDBRANCH  12  13
ENDBRANCH   1  12
TORSDOF 14
ENDMDL
