MODEL 1
REMARK VINA RESULT:    -4.880      0.000      0.000
REMARK INTER + INTRA:          -7.480
REMARK INTER:                  -7.020
REMARK INTRA:                  -0.460
REMARK UNBOUND:                -0.460
REMARK SMILES CCCCCCCCCO
REMARK SMILES IDX 6 1 5 2 4 3 3 4 2 5 1 6 7 7 8 8 9 9 10 10
REMARK H PARENT 10 11
REMARK Flexibility Score: inf
ROOT
ATOM      1  C   UNL     1      34.298 -17.002 -28.344  1.00  0.00     0.000 C 
ENDROOT
BRANCH   1   2
ATOM      2  C   UNL     1      33.754 -18.410 -28.036  1.00  0.00     0.000 C 
BRANCH   2   3
ATOM      3  C   UNL     1      32.229 -18.564 -28.174  1.00  0.00    -0.000 C 
BRANCH   3   4
ATOM      4  C   UNL     1      31.773 -18.704 -29.634  1.00  0.00    -0.000 C 
BRANCH   4   5
ATOM      5  C   UNL     1      32.141 -20.082 -30.194  1.00  0.00    -0.003 C 
ATOM      6  C   UNL     1      33.324 -19.991 -31.153  1.00  0.00     0.004 C 
ENDBRANCH   4   5
ENDBRANCH   3   4
ENDBRANCH   2   3
ENDBRANCH   1   2
BRANCH   1   7
ATOM      7  C   UNL     1      35.658 -16.968 -29.068  1.00  0.00     0.002 C 
BRANCH   7   8
ATOM      8  C   UNL     1      36.184 -18.341 -29.524  1.00  0.00     0.028 C 
BRANCH   8   9
ATOM      9  C   UNL     1      37.399 -18.238 -30.450  1.00  0.00     0.156 C 
BRANCH   9  10
ATOM     10  O   UNL     1      38.207 -19.370 -30.285  1.00  0.00    -0.396 OA
ATOM     11  H   UNL     1      38.408 -19.425 -29.315  1.00  0.00     0.210 HD
ENDBRANCH   9  10
ENDBRANCH   8   9
ENDBRANCH   7   8
ENDBRANCH   1   7
TORSDOF 8
ENDMDL
MODEL 2
REMARK VINA RESULT:    -4.658      0.974      1.088
REMARK INTER + INTRA:          -7.161
REMARK INTER:                  -6.864
REMARK INTRA:                  -0.297
REMARK UNBOUND:                -0.460
REMARK SMILES CCCCCCCCCO
REMARK SMILES IDX 6 1 5 2 4 3 3 4 2 5 1 6 7 7 8 8 9 9 10 10
REMARK H PARENT 10 11
REMARK Flexibility Score: inf
ROOT
ATOM      1  C   UNL     1      34.673 -18.392 -27.990  1.00  0.00     0.000 C 
ENDROOT
BRANCH   1   2
ATOM      2  C   UNL     1      33.324 -17.706 -28.285  1.00  0.00     0.000 C 
BRANCH   2   3
ATOM      3  C   UNL     1      32.105 -18.645 -28.296  1.00  0.00    -0.000 C 
BRANCH   3   4
ATOM      4  C   UNL     1      31.542 -18.875 -29.707  1.00  0.00    -0.000 C 
BRANCH   4   5
ATOM      5  C   UNL     1      32.050 -20.196 -30.292  1.00  0.00    -0.003 C 
ATOM      6  C   UNL     1      33.221 -19.966 -31.242  1.00  0.00     0.004 C 
ENDBRANCH   4   5
ENDBRANCH   3   4
ENDBRANCH   2   3
ENDBRANCH   1   2
BRANCH   1   7
ATOM      7  C   UNL     1      35.515 -18.744 -29.232  1.00  0.00     0.002 C 
BRANCH   7   8
ATOM      8  C   UNL     1      36.530 -17.666 -29.654  1.00  0.00     0.028 C 
BRANCH   8   9
ATOM      9  C   UNL     1      37.612 -18.200 -30.596  1.00  0.00     0.156 C 
BRANCH   9  10
ATOM     10  O   UNL     1      37.079 -18.346 -31.882  1.00  0.00    -0.396 OA
ATOM     11  H   UNL     1      37.839 -18.229 -32.510  1.00  0.00     0.210 HD
ENDBRANCH   9  10
ENDBRANCH   8   9
ENDBRANCH   7   8
ENDBRANCH   1   7
TORSDOF 8
ENDMDL
MODEL 3
REMARK VINA RESULT:    -4.373      1.626      4.188
REMARK INTER + INTRA:          -6.749
REMARK INTER:                  -6.368
REMARK INTRA:                  -0.382
REMARK UNBOUND:                -0.460
REMARK SMILES CCCCCCCCCO
REMARK SMILES IDX 6 1 5 2 4 3 3 4 2 5 1 6 7 7 8 8 9 9 10 10
REMARK H PARENT 10 11
REMARK Flexibility Score: inf
ROOT
ATOM      1  C   UNL     1      33.702 -18.433 -28.028  1.00  0.00     0.000 C 
ENDROOT
BRANCH   1   2
ATOM      2  C   UNL     1      34.252 -17.011 -28.253  1.00  0.00     0.000 C 
BRANCH   2   3
ATOM      3  C   UNL     1      35.542 -16.937 -29.090  1.00  0.00    -0.000 C 
BRANCH   3   4
ATOM      4  C   UNL     1      36.172 -18.316 -29.338  1.00  0.00    -0.000 C 
BRANCH   4   5
ATOM      5  C   UNL     1      37.325 -18.220 -30.342  1.00  0.00    -0.003 C 
ATOM      6  C   UNL     1      36.808 -17.961 -31.754  1.00  0.00     0.004 C 
ENDBRANCH   4   5
ENDBRANCH   3   4
ENDBRANCH   2   3
ENDBRANCH   1   2
BRANCH   1   7
ATOM      7  C   UNL     1      32.184 -18.591 -28.249  1.00  0.00     0.002 C 
BRANCH   7   8
ATOM      8  C   UNL     1      31.760 -18.784 -29.716  1.00  0.00     0.028 C 
BRANCH   8   9
ATOM      9  C   UNL     1      32.232 -20.117 -30.304  1.00  0.00     0.156 C 
BRANCH   9  10
ATOM     10  O   UNL     1      33.381 -19.903 -31.077  1.00  0.00    -0.396 OA
ATOM     11  H   UNL     1      33.495 -18.919 -31.134  1.00  0.00     0.210 HD
ENDBRANCH   9  10
ENDBRANCH   8   9
ENDBRANCH   7   8
ENDBRANCH   1   7
TORSDOF 8
ENDMDL
MODEL 4
REMARK VINA RESULT:    -3.975      0.902      1.521
REMARK INTER + INTRA:          -6.178
REMARK INTER:                  -5.693
REMARK INTRA:                  -0.485
REMARK UNBOUND:                -0.460
REMARK SMILES CCCCCCCCCO
REMARK SMILES IDX 6 1 5 2 4 3 3 4 2 5 1 6 7 7 8 8 9 9 10 10
REMARK H PARENT 10 11
REMARK Flexibility Score: inf
ROOT
ATOM      1  C   UNL     1      35.242 -18.751 -29.082  1.00  0.00     0.000 C 
ENDROOT
BRANCH   1   2
ATOM      2  C   UNL     1      34.615 -17.571 -28.314  1.00  0.00     0.000 C 
BRANCH   2   3
ATOM      3  C   UNL     1      33.076 -17.539 -28.312  1.00  0.00    -0.000 C 
BRANCH   3   4
ATOM      4  C   UNL     1      32.451 -18.940 -28.246  1.00  0.00    -0.000 C 
BRANCH   4   5
ATOM      5  C   UNL     1      31.470 -19.158 -29.404  1.00  0.00    -0.003 C 
ATOM      6  C   UNL     1      32.030 -20.144 -30.424  1.00  0.00     0.004 C 
ENDBRANCH   4   5
ENDBRANCH   3   4
ENDBRANCH   2   3
ENDBRANCH   1   2
BRANCH   1   7
ATOM      7  C   UNL     1      35.237 -18.610 -30.617  1.00  0.00     0.002 C 
BRANCH   7   8
ATOM      8  C   UNL     1      36.617 -18.352 -31.248  1.00  0.00     0.028 C 
BRANCH   8   9
ATOM      9  C   UNL     1      37.754 -18.357 -30.223  1.00  0.00     0.156 C 
BRANCH   9  10
ATOM     10  O   UNL     1      38.464 -19.560 -30.322  1.00  0.00    -0.396 OA
ATOM     11  H   UNL     1      39.231 -19.479 -29.697  1.00  0.00     0.210 HD
ENDBRANCH   9  10
ENDBRANCH   8   9
ENDBRANCH   7   8
ENDBRANCH   1   7
TORSDOF 8
ENDMDL
MODEL 5
REMARK VINA RESULT:    -3.568      1.100      2.868
REMARK INTER + INTRA:          -5.592
REMARK INTER:                  -5.230
REMARK INTRA:                  -0.362
REMARK UNBOUND:                -0.460
REMARK SMILES CCCCCCCCCO
REMARK SMILES IDX 6 1 5 2 4 3 3 4 2 5 1 6 7 7 8 8 9 9 10 10
REMARK H PARENT 10 11
REMARK Flexibility Score: inf
ROOT
ATOM      1  C   UNL     1      33.401 -20.147 -30.761  1.00  0.00     0.000 C 
ENDROOT
BRANCH   1   2
ATOM      2  C   UNL     1      32.091 -19.551 -30.210  1.00  0.00     0.000 C 
BRANCH   2   3
ATOM      3  C   UNL     1      32.066 -19.334 -28.686  1.00  0.00    -0.000 C 
BRANCH   3   4
ATOM      4  C   UNL     1      32.343 -17.877 -28.286  1.00  0.00    -0.000 C 
BRANCH   4   5
ATOM      5  C   UNL     1      33.814 -17.684 -27.900  1.00  0.00    -0.003 C 
ATOM      6  C   UNL     1      34.278 -16.259 -28.185  1.00  0.00     0.004 C 
ENDBRANCH   4   5
ENDBRANCH   3   4
ENDBRANCH   2   3
ENDBRANCH   1   2
BRANCH   1   7
ATOM      7  C   UNL     1      34.500 -19.119 -31.094  1.00  0.00     0.002 C 
BRANCH   7   8
ATOM      8  C   UNL     1      35.693 -19.106 -30.122  1.00  0.00     0.028 C 
BRANCH   8   9
ATOM      9  C   UNL     1      36.769 -18.088 -30.509  1.00  0.00     0.156 C 
BRANCH   9  10
ATOM     10  O   UNL     1      37.265 -18.397 -31.781  1.00  0.00    -0.396 OA
ATOM     11  H   UNL     1      38.205 -18.687 -31.646  1.00  0.00     0.210 HD
ENDBRANCH   9  10
ENDBRANCH   8   9
ENDBRANCH   7   8
ENDBRANCH   1   7
TORSDOF 8
ENDMDL
MODEL 6
REMARK VINA RESULT:    -3.499      0.871      2.489
REMARK INTER + INTRA:          -5.492
REMARK INTER:                  -5.053
REMARK INTRA:                  -0.440
REMARK UNBOUND:                -0.460
REMARK SMILES CCCCCCCCCO
REMARK SMILES IDX 6 1 5 2 4 3 3 4 2 5 1 6 7 7 8 8 9 9 10 10
REMARK H PARENT 10 11
REMARK Flexibility Score: inf
ROOT
ATOM      1  C   UNL     1      34.410 -19.101 -30.987  1.00  0.00     0.000 C 
ENDROOT
BRANCH   1   2
ATOM      2  C   UNL     1      33.301 -20.151 -31.197  1.00  0.00     0.000 C 
BRANCH   2   3
ATOM      3  C   UNL     1      32.210 -20.170 -30.112  1.00  0.00    -0.000 C 
BRANCH   3   4
ATOM      4  C   UNL     1      31.725 -18.764 -29.728  1.00  0.00    -0.000 C 
BRANCH   4   5
ATOM      5  C   UNL     1      32.016 -18.467 -28.253  1.00  0.00    -0.003 C 
ATOM      6  C   UNL     1      32.966 -17.282 -28.105  1.00  0.00     0.004 C 
ENDBRANCH   4   5
ENDBRANCH   3   4
ENDBRANCH   2   3
ENDBRANCH   1   2
BRANCH   1   7
ATOM      7  C   UNL     1      35.281 -19.308 -29.732  1.00  0.00     0.002 C 
BRANCH   7   8
ATOM      8  C   UNL     1      36.211 -18.131 -29.387  1.00  0.00     0.028 C 
BRANCH   8   9
ATOM      9  C   UNL     1      37.013 -17.631 -30.591  1.00  0.00     0.156 C 
BRANCH   9  10
ATOM     10  O   UNL     1      38.194 -18.375 -30.704  1.00  0.00    -0.396 OA
ATOM     11  H   UNL     1      38.062 -19.186 -30.148  1.00  0.00     0.210 HD
ENDBRANCH   9  10
ENDBRANCH   8   9
ENDBRANCH   7   8
ENDBRANCH   1   7
TORSDOF 8
ENDMDL
MODEL 7
REMARK VINA RESULT:    -3.448      2.233      4.785
REMARK INTER + INTRA:          -5.420
REMARK INTER:                  -5.107
REMARK INTRA:                  -0.313
REMARK UNBOUND:                -0.460
REMARK SMILES CCCCCCCCCO
REMARK SMILES IDX 6 1 5 2 4 3 3 4 2 5 1 6 7 7 8 8 9 9 10 10
REMARK H PARENT 10 11
REMARK Flexibility Score: inf
ROOT
ATOM      1  C   UNL     1      33.276 -20.194 -30.954  1.00  0.00     0.000 C 
ENDROOT
BRANCH   1   2
ATOM      2  C   UNL     1      34.273 -19.028 -30.806  1.00  0.00     0.000 C 
BRANCH   2   3
ATOM      3  C   UNL     1      35.243 -19.149 -29.617  1.00  0.00    -0.000 C 
BRANCH   3   4
ATOM      4  C   UNL     1      35.901 -17.811 -29.246  1.00  0.00    -0.000 C 
BRANCH   4   5
ATOM      5  C   UNL     1      36.998 -17.442 -30.251  1.00  0.00    -0.003 C 
ATOM      6  C   UNL     1      37.885 -18.643 -30.566  1.00  0.00     0.004 C 
ENDBRANCH   4   5
ENDBRANCH   3   4
ENDBRANCH   2   3
ENDBRANCH   1   2
BRANCH   1   7
ATOM      7  C   UNL     1      31.978 -20.056 -30.135  1.00  0.00     0.002 C 
BRANCH   7   8
ATOM      8  C   UNL     1      31.699 -18.641 -29.598  1.00  0.00     0.028 C 
BRANCH   8   9
ATOM      9  C   UNL     1      32.060 -18.482 -28.119  1.00  0.00     0.156 C 
BRANCH   9  10
ATOM     10  O   UNL     1      32.645 -17.226 -27.915  1.00  0.00    -0.396 OA
ATOM     11  H   UNL     1      32.876 -16.881 -28.817  1.00  0.00     0.210 HD
ENDBRANCH   9  10
ENDBRANCH   8   9
ENDBRANCH   7   8
ENDBRANCH   1   7
TORSDOF 8
ENDMDL
MODEL 8
REMARK VINA RESULT:    -3.315      1.356      2.270
REMARK INTER + INTRA:          -5.229
REMARK INTER:                  -4.985
REMARK INTRA:                  -0.244
REMARK UNBOUND:                -0.460
REMARK SMILES CCCCCCCCCO
REMARK SMILES IDX 6 1 5 2 4 3 3 4 2 5 1 6 7 7 8 8 9 9 10 10
REMARK H PARENT 10 11
REMARK Flexibility Score: inf
ROOT
ATOM      1  C   UNL     1      35.945 -18.737 -29.192  1.00  0.00     0.000 C 
ENDROOT
BRANCH   1   2
ATOM      2  C   UNL     1      34.426 -18.773 -29.451  1.00  0.00     0.000 C 
BRANCH   2   3
ATOM      3  C   UNL     1      33.988 -19.664 -30.628  1.00  0.00    -0.000 C 
BRANCH   3   4
ATOM      4  C   UNL     1      32.513 -20.085 -30.541  1.00  0.00    -0.000 C 
BRANCH   4   5
ATOM      5  C   UNL     1      31.832 -19.449 -29.324  1.00  0.00    -0.003 C 
ATOM      6  C   UNL     1      30.954 -18.271 -29.735  1.00  0.00     0.004 C 
ENDBRANCH   4   5
ENDBRANCH   3   4
ENDBRANCH   2   3
ENDBRANCH   1   2
BRANCH   1   7
ATOM      7  C   UNL     1      36.782 -18.058 -30.293  1.00  0.00     0.002 C 
BRANCH   7   8
ATOM      8  C   UNL     1      38.085 -18.791 -30.661  1.00  0.00     0.028 C 
BRANCH   8   9
ATOM      9  C   UNL     1      38.272 -20.101 -29.890  1.00  0.00     0.156 C 
BRANCH   9  10
ATOM     10  O   UNL     1      39.133 -20.942 -30.605  1.00  0.00    -0.396 OA
ATOM     11  H   UNL     1      38.983 -20.738 -31.565  1.00  0.00     0.210 HD
ENDBRANCH   9  10
ENDBRANCH   8   9
ENDBRANCH   7   8
ENDBRANCH   1   7
TORSDOF 8
ENDMDL
MODEL 9
REMARK VINA RESULT:    -3.012      2.006      3.156
REMARK INTER + INTRA:          -4.792
REMARK INTER:                  -4.591
REMARK INTRA:                  -0.202
REMARK UNBOUND:                -0.460
REMARK SMILES CCCCCCCCCO
REMARK SMILES IDX 6 1 5 2 4 3 3 4 2 5 1 6 7 7 8 8 9 9 10 10
REMARK H PARENT 10 11
REMARK Flexibility Score: inf
ROOT
ATOM      1  C   UNL     1      34.825 -19.229 -29.671  1.00  0.00     0.000 C 
ENDROOT
BRANCH   1   2
ATOM      2  C   UNL     1      34.370 -19.593 -31.097  1.00  0.00     0.000 C 
BRANCH   2   3
ATOM      3  C   UNL     1      32.874 -19.929 -31.237  1.00  0.00    -0.000 C 
BRANCH   3   4
ATOM      4  C   UNL     1      32.147 -19.987 -29.886  1.00  0.00    -0.000 C 
BRANCH   4   5
ATOM      5  C   UNL     1      31.505 -18.637 -29.549  1.00  0.00    -0.003 C 
ATOM      6  C   UNL     1      31.794 -18.232 -28.107  1.00  0.00     0.004 C 
ENDBRANCH   4   5
ENDBRANCH   3   4
ENDBRANCH   2   3
ENDBRANCH   1   2
BRANCH   1   7
ATOM      7  C   UNL     1      36.188 -18.514 -29.579  1.00  0.00     0.002 C 
BRANCH   7   8
ATOM      8  C   UNL     1      36.111 -17.009 -29.269  1.00  0.00     0.028 C 
BRANCH   8   9
ATOM      9  C   UNL     1      34.880 -16.632 -28.440  1.00  0.00     0.156 C 
BRANCH   9  10
ATOM     10  O   UNL     1      34.565 -15.286 -28.660  1.00  0.00    -0.396 OA
ATOM     11  H   UNL     1      34.086 -15.254 -29.529  1.00  0.00     0.210 HD
ENDBRANCH   9  10
ENDBRANCH   8   9
ENDBRANCH   7   8
ENDBRANCH   1   7
TORSDOF 8
ENDMDL
