MODEL 1
REMARK VINA RESULT:    -6.490      0.000      0.000
REMARK INTER + INTRA:          -8.767
REMARK INTER:                  -8.198
REMARK INTRA:                  -0.570
REMARK UNBOUND:                -0.570
REMARK SMILES Oc1cc(O)cc(CCc2ccccc2O)c1
REMARK SMILES IDX 9 1 10 2 12 3 13 4 11 5 14 6 15 7 16 8 8 10 7 11 6 12 17 13
REMARK SMILES IDX 4 14 2 15 3 16 5 17 1 19
REMARK H PARENT 16 9 5 18 1 20
REMARK Flexibility Score: inf
ROOT
ATOM      1  C   UNL     1     -23.375  -8.729 -29.160  1.00  0.00     0.044 C 
ENDROOT
BRANCH   1   2
ATOM      2  C   UNL     1     -24.046  -7.685 -28.304  1.00  0.00    -0.006 A 
ATOM      3  C   UNL     1     -26.058  -6.471 -27.676  1.00  0.00     0.001 A 
ATOM      4  C   UNL     1     -25.347  -5.799 -26.680  1.00  0.00     0.004 A 
ATOM      5  C   UNL     1     -25.414  -7.414 -28.482  1.00  0.00     0.007 A 
ATOM      6  C   UNL     1     -23.991  -6.071 -26.484  1.00  0.00     0.046 A 
ATOM      7  C   UNL     1     -23.336  -7.017 -27.287  1.00  0.00     0.118 A 
BRANCH   7   8
ATOM      8  O   UNL     1     -21.985  -7.293 -27.075  1.00  0.00    -0.508 OA
ATOM      9  H   UNL     1     -21.320  -6.560 -26.857  1.00  0.00     0.293 HD
ENDBRANCH   7   8
ENDBRANCH   1   2
BRANCH   1  10
ATOM     10  C   UNL     1     -23.443 -10.103 -28.488  1.00  0.00     0.040 C 
BRANCH  10  11
ATOM     11  C   UNL     1     -24.676 -10.846 -28.926  1.00  0.00    -0.040 A 
ATOM     12  C   UNL     1     -24.754 -11.386 -30.221  1.00  0.00     0.050 A 
ATOM     13  C   UNL     1     -25.780 -10.956 -28.066  1.00  0.00     0.050 A 
ATOM     14  C   UNL     1     -25.912 -12.048 -30.642  1.00  0.00     0.119 A 
ATOM     15  C   UNL     1     -26.942 -11.618 -28.486  1.00  0.00     0.119 A 
ATOM     16  C   UNL     1     -27.005 -12.165 -29.772  1.00  0.00     0.092 A 
BRANCH  14  17
ATOM     17  O   UNL     1     -25.968 -12.584 -31.927  1.00  0.00    -0.508 OA
ATOM     18  H   UNL     1     -25.885 -13.580 -32.089  1.00  0.00     0.293 HD
ENDBRANCH  14  17
BRANCH  15  19
ATOM     19  O   UNL     1     -28.038 -11.736 -27.636  1.00  0.00    -0.508 OA
ATOM     20  H   UNL     1     -28.008 -11.394 -26.682  1.00  0.00     0.293 HD
ENDBRANCH  15  19
ENDBRANCH  10  11
ENDBRANCH   1  10
TORSDOF 6
ENDMDL
MODEL 2
REMARK VINA RESULT:    -6.424      0.117      2.037
REMARK INTER + INTRA:          -8.684
REMARK INTER:                  -8.095
REMARK INTRA:                  -0.589
REMARK UNBOUND:                -0.570
REMARK SMILES Oc1cc(O)cc(CCc2ccccc2O)c1
REMARK SMILES IDX 9 1 10 2 12 3 13 4 11 5 14 6 15 7 16 8 8 10 7 11 6 12 17 13
REMARK SMILES IDX 4 14 2 15 3 16 5 17 1 19
REMARK H PARENT 16 9 5 18 1 20
REMARK Flexibility Score: inf
ROOT
ATOM      1  C   UNL     1     -23.433  -8.710 -29.198  1.00  0.00     0.044 C 
ENDROOT
BRANCH   1   2
ATOM      2  C   UNL     1     -24.092  -7.633 -28.374  1.00  0.00    -0.006 A 
ATOM      3  C   UNL     1     -26.085  -6.363 -27.799  1.00  0.00     0.001 A 
ATOM      4  C   UNL     1     -25.373  -5.683 -26.809  1.00  0.00     0.004 A 
ATOM      5  C   UNL     1     -25.451  -7.337 -28.575  1.00  0.00     0.007 A 
ATOM      6  C   UNL     1     -24.025  -5.980 -26.589  1.00  0.00     0.046 A 
ATOM      7  C   UNL     1     -23.380  -6.957 -27.363  1.00  0.00     0.118 A 
BRANCH   7   8
ATOM      8  O   UNL     1     -22.038  -7.257 -27.127  1.00  0.00    -0.508 OA
ATOM      9  H   UNL     1     -21.692  -8.209 -27.165  1.00  0.00     0.293 HD
ENDBRANCH   7   8
ENDBRANCH   1   2
BRANCH   1  10
ATOM     10  C   UNL     1     -23.553 -10.070 -28.504  1.00  0.00     0.040 C 
BRANCH  10  11
ATOM     11  C   UNL     1     -24.781 -10.798 -28.979  1.00  0.00    -0.040 A 
ATOM     12  C   UNL     1     -25.896 -10.932 -28.134  1.00  0.00     0.050 A 
ATOM     13  C   UNL     1     -24.802 -11.400 -30.248  1.00  0.00     0.050 A 
ATOM     14  C   UNL     1     -27.026 -11.637 -28.561  1.00  0.00     0.119 A 
ATOM     15  C   UNL     1     -25.933 -12.108 -30.677  1.00  0.00     0.119 A 
ATOM     16  C   UNL     1     -27.044 -12.223 -29.834  1.00  0.00     0.092 A 
BRANCH  14  17
ATOM     17  O   UNL     1     -28.125 -11.752 -27.713  1.00  0.00    -0.508 OA
ATOM     18  H   UNL     1     -28.660 -10.940 -27.426  1.00  0.00     0.293 HD
ENDBRANCH  14  17
BRANCH  15  19
ATOM     19  O   UNL     1     -25.963 -12.702 -31.936  1.00  0.00    -0.508 OA
ATOM     20  H   UNL     1     -26.822 -12.771 -32.469  1.00  0.00     0.293 HD
ENDBRANCH  15  19
ENDBRANCH  10  11
ENDBRANCH   1  10
TORSDOF 6
ENDMDL
MODEL 3
REMARK VINA RESULT:    -6.350      2.164      3.007
REMARK INTER + INTRA:          -8.590
REMARK INTER:                  -8.056
REMARK INTRA:                  -0.534
REMARK UNBOUND:                -0.570
REMARK SMILES Oc1cc(O)cc(CCc2ccccc2O)c1
REMARK SMILES IDX 9 1 10 2 12 3 13 4 11 5 14 6 15 7 16 8 8 10 7 11 6 12 17 13
REMARK SMILES IDX 4 14 2 15 3 16 5 17 1 19
REMARK H PARENT 16 9 5 18 1 20
REMARK Flexibility Score: inf
ROOT
ATOM      1  C   UNL     1     -22.872  -6.918 -27.133  1.00  0.00     0.044 C 
ENDROOT
BRANCH   1   2
ATOM      2  C   UNL     1     -23.966  -5.888 -27.009  1.00  0.00    -0.006 A 
ATOM      3  C   UNL     1     -25.459  -4.283 -28.062  1.00  0.00     0.001 A 
ATOM      4  C   UNL     1     -26.051  -4.015 -26.826  1.00  0.00     0.004 A 
ATOM      5  C   UNL     1     -24.424  -5.217 -28.156  1.00  0.00     0.007 A 
ATOM      6  C   UNL     1     -25.614  -4.687 -25.681  1.00  0.00     0.046 A 
ATOM      7  C   UNL     1     -24.578  -5.628 -25.766  1.00  0.00     0.118 A 
BRANCH   7   8
ATOM      8  O   UNL     1     -24.157  -6.305 -24.620  1.00  0.00    -0.508 OA
ATOM      9  H   UNL     1     -24.352  -7.290 -24.484  1.00  0.00     0.293 HD
ENDBRANCH   7   8
ENDBRANCH   1   2
BRANCH   1  10
ATOM     10  C   UNL     1     -22.557  -7.195 -28.606  1.00  0.00     0.040 C 
BRANCH  10  11
ATOM     11  C   UNL     1     -22.860  -8.628 -28.951  1.00  0.00    -0.040 A 
ATOM     12  C   UNL     1     -21.965  -9.371 -29.739  1.00  0.00     0.050 A 
ATOM     13  C   UNL     1     -24.065  -9.217 -28.536  1.00  0.00     0.050 A 
ATOM     14  C   UNL     1     -22.259 -10.693 -30.088  1.00  0.00     0.119 A 
ATOM     15  C   UNL     1     -24.362 -10.542 -28.885  1.00  0.00     0.119 A 
ATOM     16  C   UNL     1     -23.459 -11.278 -29.658  1.00  0.00     0.092 A 
BRANCH  14  17
ATOM     17  O   UNL     1     -21.356 -11.416 -30.864  1.00  0.00    -0.508 OA
ATOM     18  H   UNL     1     -21.667 -12.132 -31.510  1.00  0.00     0.293 HD
ENDBRANCH  14  17
BRANCH  15  19
ATOM     19  O   UNL     1     -25.553 -11.135 -28.471  1.00  0.00    -0.508 OA
ATOM     20  H   UNL     1     -25.751 -12.111 -28.658  1.00  0.00     0.293 HD
ENDBRANCH  15  19
ENDBRANCH  10  11
ENDBRANCH   1  10
TORSDOF 6
ENDMDL
MODEL 4
REMARK VINA RESULT:    -6.307      2.202      3.571
REMARK INTER + INTRA:          -8.537
REMARK INTER:                  -8.007
REMARK INTRA:                  -0.529
REMARK UNBOUND:                -0.570
REMARK SMILES Oc1cc(O)cc(CCc2ccccc2O)c1
REMARK SMILES IDX 9 1 10 2 12 3 13 4 11 5 14 6 15 7 16 8 8 10 7 11 6 12 17 13
REMARK SMILES IDX 4 14 2 15 3 16 5 17 1 19
REMARK H PARENT 16 9 5 18 1 20
REMARK Flexibility Score: inf
ROOT
ATOM      1  C   UNL     1     -22.935  -6.878 -27.104  1.00  0.00     0.044 C 
ENDROOT
BRANCH   1   2
ATOM      2  C   UNL     1     -24.046  -5.860 -27.039  1.00  0.00    -0.006 A 
ATOM      3  C   UNL     1     -25.515  -4.291 -28.176  1.00  0.00     0.001 A 
ATOM      4  C   UNL     1     -26.160  -4.013 -26.969  1.00  0.00     0.004 A 
ATOM      5  C   UNL     1     -24.466  -5.213 -28.214  1.00  0.00     0.007 A 
ATOM      6  C   UNL     1     -25.760  -4.661 -25.797  1.00  0.00     0.046 A 
ATOM      7  C   UNL     1     -24.709  -5.590 -25.826  1.00  0.00     0.118 A 
BRANCH   7   8
ATOM      8  O   UNL     1     -24.327  -6.244 -24.654  1.00  0.00    -0.508 OA
ATOM      9  H   UNL     1     -24.776  -6.051 -23.767  1.00  0.00     0.293 HD
ENDBRANCH   7   8
ENDBRANCH   1   2
BRANCH   1  10
ATOM     10  C   UNL     1     -22.530  -7.142 -28.558  1.00  0.00     0.040 C 
BRANCH  10  11
ATOM     11  C   UNL     1     -22.851  -8.560 -28.946  1.00  0.00    -0.040 A 
ATOM     12  C   UNL     1     -24.028  -9.171 -28.484  1.00  0.00     0.050 A 
ATOM     13  C   UNL     1     -21.949  -9.302 -29.726  1.00  0.00     0.050 A 
ATOM     14  C   UNL     1     -24.313 -10.499 -28.817  1.00  0.00     0.119 A 
ATOM     15  C   UNL     1     -22.232 -10.633 -30.061  1.00  0.00     0.119 A 
ATOM     16  C   UNL     1     -23.414 -11.229 -29.608  1.00  0.00     0.092 A 
BRANCH  14  17
ATOM     17  O   UNL     1     -25.489 -11.086 -28.357  1.00  0.00    -0.508 OA
ATOM     18  H   UNL     1     -25.802 -10.967 -27.400  1.00  0.00     0.293 HD
ENDBRANCH  14  17
BRANCH  15  19
ATOM     19  O   UNL     1     -21.346 -11.374 -30.839  1.00  0.00    -0.508 OA
ATOM     20  H   UNL     1     -20.410 -11.590 -30.514  1.00  0.00     0.293 HD
ENDBRANCH  15  19
ENDBRANCH  10  11
ENDBRANCH   1  10
TORSDOF 6
ENDMDL
MODEL 5
REMARK VINA RESULT:    -6.234      2.078      6.626
REMARK INTER + INTRA:          -8.444
REMARK INTER:                  -8.024
REMARK INTRA:                  -0.419
REMARK UNBOUND:                -0.570
REMARK SMILES Oc1cc(O)cc(CCc2ccccc2O)c1
REMARK SMILES IDX 9 1 10 2 12 3 13 4 11 5 14 6 15 7 16 8 8 10 7 11 6 12 17 13
REMARK SMILES IDX 4 14 2 15 3 16 5 17 1 19
REMARK H PARENT 16 9 5 18 1 20
REMARK Flexibility Score: inf
ROOT
ATOM      1  C   UNL     1     -26.518  -9.138 -28.060  1.00  0.00     0.044 C 
ENDROOT
BRANCH   1   2
ATOM      2  C   UNL     1     -26.473 -10.290 -29.033  1.00  0.00    -0.006 A 
ATOM      3  C   UNL     1     -25.513 -11.315 -31.018  1.00  0.00     0.001 A 
ATOM      4  C   UNL     1     -26.309 -12.445 -30.825  1.00  0.00     0.004 A 
ATOM      5  C   UNL     1     -25.589 -10.243 -30.125  1.00  0.00     0.007 A 
ATOM      6  C   UNL     1     -27.180 -12.509 -29.735  1.00  0.00     0.046 A 
ATOM      7  C   UNL     1     -27.263 -11.439 -28.832  1.00  0.00     0.118 A 
BRANCH   7   8
ATOM      8  O   UNL     1     -28.125 -11.517 -27.737  1.00  0.00    -0.508 OA
ATOM      9  H   UNL     1     -27.811 -11.303 -26.798  1.00  0.00     0.293 HD
ENDBRANCH   7   8
ENDBRANCH   1   2
BRANCH   1  10
ATOM     10  C   UNL     1     -26.280  -7.810 -28.784  1.00  0.00     0.040 C 
BRANCH  10  11
ATOM     11  C   UNL     1     -26.019  -6.707 -27.795  1.00  0.00    -0.040 A 
ATOM     12  C   UNL     1     -25.206  -6.940 -26.674  1.00  0.00     0.050 A 
ATOM     13  C   UNL     1     -26.633  -5.454 -27.953  1.00  0.00     0.050 A 
ATOM     14  C   UNL     1     -24.988  -5.927 -25.735  1.00  0.00     0.119 A 
ATOM     15  C   UNL     1     -26.416  -4.437 -27.013  1.00  0.00     0.119 A 
ATOM     16  C   UNL     1     -25.593  -4.674 -25.907  1.00  0.00     0.092 A 
BRANCH  14  17
ATOM     17  O   UNL     1     -24.171  -6.174 -24.633  1.00  0.00    -0.508 OA
ATOM     18  H   UNL     1     -24.215  -5.598 -23.801  1.00  0.00     0.293 HD
ENDBRANCH  14  17
BRANCH  15  19
ATOM     19  O   UNL     1     -27.016  -3.189 -27.166  1.00  0.00    -0.508 OA
ATOM     20  H   UNL     1     -27.571  -2.774 -26.427  1.00  0.00     0.293 HD
ENDBRANCH  15  19
ENDBRANCH  10  11
ENDBRANCH   1  10
TORSDOF 6
ENDMDL
MODEL 6
REMARK VINA RESULT:    -6.147      2.652      3.684
REMARK INTER + INTRA:          -8.334
REMARK INTER:                  -7.782
REMARK INTRA:                  -0.552
REMARK UNBOUND:                -0.570
REMARK SMILES Oc1cc(O)cc(CCc2ccccc2O)c1
REMARK SMILES IDX 9 1 10 2 12 3 13 4 11 5 14 6 15 7 16 8 8 10 7 11 6 12 17 13
REMARK SMILES IDX 4 14 2 15 3 16 5 17 1 19
REMARK H PARENT 16 9 5 18 1 20
REMARK Flexibility Score: inf
ROOT
ATOM      1  C   UNL     1     -27.603  -6.891 -28.993  1.00  0.00     0.044 C 
ENDROOT
BRANCH   1   2
ATOM      2  C   UNL     1     -26.735  -6.107 -28.042  1.00  0.00    -0.006 A 
ATOM      3  C   UNL     1     -24.794  -6.007 -26.579  1.00  0.00     0.001 A 
ATOM      4  C   UNL     1     -25.053  -4.661 -26.319  1.00  0.00     0.004 A 
ATOM      5  C   UNL     1     -25.627  -6.728 -27.440  1.00  0.00     0.007 A 
ATOM      6  C   UNL     1     -26.143  -4.029 -26.924  1.00  0.00     0.046 A 
ATOM      7  C   UNL     1     -26.984  -4.744 -27.790  1.00  0.00     0.118 A 
BRANCH   7   8
ATOM      8  O   UNL     1     -28.062  -4.102 -28.401  1.00  0.00    -0.508 OA
ATOM      9  H   UNL     1     -28.030  -3.818 -29.373  1.00  0.00     0.293 HD
ENDBRANCH   7   8
ENDBRANCH   1   2
BRANCH   1  10
ATOM     10  C   UNL     1     -26.743  -7.737 -29.937  1.00  0.00     0.040 C 
BRANCH  10  11
ATOM     11  C   UNL     1     -27.181  -9.176 -29.905  1.00  0.00    -0.040 A 
ATOM     12  C   UNL     1     -27.464  -9.802 -28.680  1.00  0.00     0.050 A 
ATOM     13  C   UNL     1     -27.254  -9.921 -31.093  1.00  0.00     0.050 A 
ATOM     14  C   UNL     1     -27.839 -11.149 -28.644  1.00  0.00     0.119 A 
ATOM     15  C   UNL     1     -27.630 -11.271 -31.060  1.00  0.00     0.119 A 
ATOM     16  C   UNL     1     -27.924 -11.882 -29.836  1.00  0.00     0.092 A 
BRANCH  14  17
ATOM     17  O   UNL     1     -28.124 -11.751 -27.421  1.00  0.00    -0.508 OA
ATOM     18  H   UNL     1     -28.348 -11.202 -26.599  1.00  0.00     0.293 HD
ENDBRANCH  14  17
BRANCH  15  19
ATOM     19  O   UNL     1     -27.711 -12.014 -32.235  1.00  0.00    -0.508 OA
ATOM     20  H   UNL     1     -27.575 -11.585 -33.143  1.00  0.00     0.293 HD
ENDBRANCH  15  19
ENDBRANCH  10  11
ENDBRANCH   1  10
TORSDOF 6
ENDMDL
MODEL 7
REMARK VINA RESULT:    -6.137      1.426      6.490
REMARK INTER + INTRA:          -8.322
REMARK INTER:                  -7.823
REMARK INTRA:                  -0.498
REMARK UNBOUND:                -0.570
REMARK SMILES Oc1cc(O)cc(CCc2ccccc2O)c1
REMARK SMILES IDX 9 1 10 2 12 3 13 4 11 5 14 6 15 7 16 8 8 10 7 11 6 12 17 13
REMARK SMILES IDX 4 14 2 15 3 16 5 17 1 19
REMARK H PARENT 16 9 5 18 1 20
REMARK Flexibility Score: inf
ROOT
ATOM      1  C   UNL     1     -25.648 -10.289 -28.152  1.00  0.00     0.044 C 
ENDROOT
BRANCH   1   2
ATOM      2  C   UNL     1     -26.013 -11.140 -29.342  1.00  0.00    -0.006 A 
ATOM      3  C   UNL     1     -25.422 -12.069 -31.510  1.00  0.00     0.001 A 
ATOM      4  C   UNL     1     -26.627 -12.772 -31.543  1.00  0.00     0.004 A 
ATOM      5  C   UNL     1     -25.112 -11.260 -30.414  1.00  0.00     0.007 A 
ATOM      6  C   UNL     1     -27.525 -12.673 -30.477  1.00  0.00     0.046 A 
ATOM      7  C   UNL     1     -27.222 -11.864 -29.371  1.00  0.00     0.118 A 
BRANCH   7   8
ATOM      8  O   UNL     1     -28.116 -11.781 -28.303  1.00  0.00    -0.508 OA
ATOM      9  H   UNL     1     -28.848 -12.470 -28.169  1.00  0.00     0.293 HD
ENDBRANCH   7   8
ENDBRANCH   1   2
BRANCH   1  10
ATOM     10  C   UNL     1     -26.185  -8.864 -28.322  1.00  0.00     0.040 C 
BRANCH  10  11
ATOM     11  C   UNL     1     -25.141  -7.855 -27.931  1.00  0.00    -0.040 A 
ATOM     12  C   UNL     1     -25.506  -6.695 -27.227  1.00  0.00     0.050 A 
ATOM     13  C   UNL     1     -23.802  -8.035 -28.315  1.00  0.00     0.050 A 
ATOM     14  C   UNL     1     -24.543  -5.739 -26.890  1.00  0.00     0.119 A 
ATOM     15  C   UNL     1     -22.835  -7.078 -27.979  1.00  0.00     0.119 A 
ATOM     16  C   UNL     1     -23.206  -5.933 -27.266  1.00  0.00     0.092 A 
BRANCH  14  17
ATOM     17  O   UNL     1     -24.922  -4.599 -26.185  1.00  0.00    -0.508 OA
ATOM     18  H   UNL     1     -25.823  -4.535 -25.726  1.00  0.00     0.293 HD
ENDBRANCH  14  17
BRANCH  15  19
ATOM     19  O   UNL     1     -21.504  -7.253 -28.351  1.00  0.00    -0.508 OA
ATOM     20  H   UNL     1     -21.068  -6.661 -29.050  1.00  0.00     0.293 HD
ENDBRANCH  15  19
ENDBRANCH  10  11
ENDBRANCH   1  10
TORSDOF 6
ENDMDL
MODEL 8
REMARK VINA RESULT:    -6.111      2.280      5.990
REMARK INTER + INTRA:          -8.289
REMARK INTER:                  -7.720
REMARK INTRA:                  -0.569
REMARK UNBOUND:                -0.570
REMARK SMILES Oc1cc(O)cc(CCc2ccccc2O)c1
REMARK SMILES IDX 9 1 10 2 12 3 13 4 11 5 14 6 15 7 16 8 8 10 7 11 6 12 17 13
REMARK SMILES IDX 4 14 2 15 3 16 5 17 1 19
REMARK H PARENT 16 9 5 18 1 20
REMARK Flexibility Score: inf
ROOT
ATOM      1  C   UNL     1     -26.683 -11.413 -27.967  1.00  0.00     0.044 C 
ENDROOT
BRANCH   1   2
ATOM      2  C   UNL     1     -26.128 -11.649 -29.349  1.00  0.00    -0.006 A 
ATOM      3  C   UNL     1     -24.300 -11.421 -30.937  1.00  0.00     0.001 A 
ATOM      4  C   UNL     1     -25.033 -12.131 -31.890  1.00  0.00     0.004 A 
ATOM      5  C   UNL     1     -24.841 -11.184 -29.670  1.00  0.00     0.007 A 
ATOM      6  C   UNL     1     -26.307 -12.611 -31.577  1.00  0.00     0.046 A 
ATOM      7  C   UNL     1     -26.858 -12.380 -30.307  1.00  0.00     0.118 A 
BRANCH   7   8
ATOM      8  O   UNL     1     -28.125 -12.875 -29.998  1.00  0.00    -0.508 OA
ATOM      9  H   UNL     1     -28.310 -13.351 -29.122  1.00  0.00     0.293 HD
ENDBRANCH   7   8
ENDBRANCH   1   2
BRANCH   1  10
ATOM     10  C   UNL     1     -27.796 -10.361 -28.005  1.00  0.00     0.040 C 
BRANCH  10  11
ATOM     11  C   UNL     1     -27.248  -9.027 -28.432  1.00  0.00    -0.040 A 
ATOM     12  C   UNL     1     -26.266  -8.385 -27.660  1.00  0.00     0.050 A 
ATOM     13  C   UNL     1     -27.756  -8.385 -29.573  1.00  0.00     0.050 A 
ATOM     14  C   UNL     1     -25.778  -7.129 -28.037  1.00  0.00     0.119 A 
ATOM     15  C   UNL     1     -27.270  -7.126 -29.953  1.00  0.00     0.119 A 
ATOM     16  C   UNL     1     -26.281  -6.502 -29.186  1.00  0.00     0.092 A 
BRANCH  14  17
ATOM     17  O   UNL     1     -24.798  -6.512 -27.264  1.00  0.00    -0.508 OA
ATOM     18  H   UNL     1     -24.913  -5.567 -26.918  1.00  0.00     0.293 HD
ENDBRANCH  14  17
BRANCH  15  19
ATOM     19  O   UNL     1     -27.765  -6.487 -31.087  1.00  0.00    -0.508 OA
ATOM     20  H   UNL     1     -27.773  -5.476 -31.163  1.00  0.00     0.293 HD
ENDBRANCH  15  19
ENDBRANCH  10  11
ENDBRANCH   1  10
TORSDOF 6
ENDMDL
MODEL 9
REMARK VINA RESULT:    -6.087      1.421      6.221
REMARK INTER + INTRA:          -8.258
REMARK INTER:                  -7.768
REMARK INTRA:                  -0.489
REMARK UNBOUND:                -0.570
REMARK SMILES Oc1cc(O)cc(CCc2ccccc2O)c1
REMARK SMILES IDX 9 1 10 2 12 3 13 4 11 5 14 6 15 7 16 8 8 10 7 11 6 12 17 13
REMARK SMILES IDX 4 14 2 15 3 16 5 17 1 19
REMARK H PARENT 16 9 5 18 1 20
REMARK Flexibility Score: inf
ROOT
ATOM      1  C   UNL     1     -25.173 -10.455 -28.457  1.00  0.00     0.044 C 
ENDROOT
BRANCH   1   2
ATOM      2  C   UNL     1     -25.581 -11.281 -29.652  1.00  0.00    -0.006 A 
ATOM      3  C   UNL     1     -25.122 -12.069 -31.906  1.00  0.00     0.001 A 
ATOM      4  C   UNL     1     -26.272 -12.860 -31.869  1.00  0.00     0.004 A 
ATOM      5  C   UNL     1     -24.774 -11.286 -30.802  1.00  0.00     0.007 A 
ATOM      6  C   UNL     1     -27.074 -12.875 -30.725  1.00  0.00     0.046 A 
ATOM      7  C   UNL     1     -26.732 -12.093 -29.611  1.00  0.00     0.118 A 
BRANCH   7   8
ATOM      8  O   UNL     1     -27.530 -12.125 -28.467  1.00  0.00    -0.508 OA
ATOM      9  H   UNL     1     -28.462 -11.728 -28.459  1.00  0.00     0.293 HD
ENDBRANCH   7   8
ENDBRANCH   1   2
BRANCH   1  10
ATOM     10  C   UNL     1     -25.866  -9.090 -28.483  1.00  0.00     0.040 C 
BRANCH  10  11
ATOM     11  C   UNL     1     -24.901  -8.000 -28.105  1.00  0.00    -0.040 A 
ATOM     12  C   UNL     1     -23.550  -8.089 -28.479  1.00  0.00     0.050 A 
ATOM     13  C   UNL     1     -25.330  -6.912 -27.326  1.00  0.00     0.050 A 
ATOM     14  C   UNL     1     -22.644  -7.093 -28.100  1.00  0.00     0.119 A 
ATOM     15  C   UNL     1     -24.423  -5.913 -26.946  1.00  0.00     0.119 A 
ATOM     16  C   UNL     1     -23.083  -6.004 -27.335  1.00  0.00     0.092 A 
BRANCH  14  17
ATOM     17  O   UNL     1     -21.309  -7.195 -28.487  1.00  0.00    -0.508 OA
ATOM     18  H   UNL     1     -20.810  -8.076 -28.442  1.00  0.00     0.293 HD
ENDBRANCH  14  17
BRANCH  15  19
ATOM     19  O   UNL     1     -24.843  -4.829 -26.179  1.00  0.00    -0.508 OA
ATOM     20  H   UNL     1     -24.589  -4.742 -25.201  1.00  0.00     0.293 HD
ENDBRANCH  15  19
ENDBRANCH  10  11
ENDBRANCH   1  10
TORSDOF 6
ENDMDL
