MODEL 1
REMARK VINA RESULT:    -4.609      0.000      0.000
REMARK INTER + INTRA:          -4.878
REMARK INTER:                  -4.878
REMARK INTRA:                   0.000
REMARK UNBOUND:                 0.000
REMARK SMILES Cc1cc(O)c(C)c(C)c1O
REMARK SMILES IDX 1 1 2 2 3 3 4 4 6 5 8 6 10 7 9 8 7 9 11 10 5 12
REMARK H PARENT 11 11 5 13
REMARK Flexibility Score: inf
ROOT
ATOM      1  C   UNL     1      -3.785   5.615  -3.802  1.00  0.00     0.048 C 
ATOM      2  C   UNL     1      -5.043   6.439  -3.831  1.00  0.00    -0.005 A 
ATOM      3  C   UNL     1      -6.208   5.956  -3.229  1.00  0.00     0.053 A 
ATOM      4  C   UNL     1      -7.394   6.692  -3.273  1.00  0.00     0.119 A 
ATOM      5  C   UNL     1      -7.431   7.942  -3.923  1.00  0.00    -0.003 A 
ATOM      6  C   UNL     1      -6.241   8.465  -4.502  1.00  0.00    -0.002 A 
ATOM      7  C   UNL     1      -5.058   7.683  -4.483  1.00  0.00     0.121 A 
ATOM      8  C   UNL     1      -6.216   9.827  -5.161  1.00  0.00     0.049 C 
ATOM      9  C   UNL     1      -8.731   8.712  -3.977  1.00  0.00     0.049 C 
ENDROOT
BRANCH   7  10
ATOM     10  O   UNL     1      -3.883   8.117  -5.109  1.00  0.00    -0.507 OA
ATOM     11  H   UNL     1      -3.235   8.775  -4.698  1.00  0.00     0.293 HD
ENDBRANCH   7  10
BRANCH   4  12
ATOM     12  O   UNL     1      -8.540   6.176  -2.665  1.00  0.00    -0.508 OA
ATOM     13  H   UNL     1      -9.470   6.420  -2.985  1.00  0.00     0.293 HD
ENDBRANCH   4  12
TORSDOF 2
ENDMDL
MODEL 2
REMARK VINA RESULT:    -4.378     18.619     19.957
REMARK INTER + INTRA:          -4.634
REMARK INTER:                  -4.634
REMARK INTRA:                   0.000
REMARK UNBOUND:                 0.000
REMARK SMILES Cc1cc(O)c(C)c(C)c1O
REMARK SMILES IDX 1 1 2 2 3 3 4 4 6 5 8 6 10 7 9 8 7 9 11 10 5 12
REMARK H PARENT 11 11 5 13
REMARK Flexibility Score: inf
ROOT
ATOM      1  C   UNL     1       5.180  -9.932   3.166  1.00  0.00     0.048 C 
ATOM      2  C   UNL     1       4.055  -9.103   3.724  1.00  0.00    -0.005 A 
ATOM      3  C   UNL     1       2.733  -9.529   3.573  1.00  0.00     0.053 A 
ATOM      4  C   UNL     1       1.673  -8.758   4.055  1.00  0.00     0.119 A 
ATOM      5  C   UNL     1       1.925  -7.536   4.712  1.00  0.00    -0.003 A 
ATOM      6  C   UNL     1       3.268  -7.113   4.911  1.00  0.00    -0.002 A 
ATOM      7  C   UNL     1       4.328  -7.890   4.376  1.00  0.00     0.121 A 
ATOM      8  C   UNL     1       3.592  -5.838   5.659  1.00  0.00     0.049 C 
ATOM      9  C   UNL     1       0.761  -6.707   5.207  1.00  0.00     0.049 C 
ENDROOT
BRANCH   7  10
ATOM     10  O   UNL     1       5.662  -7.476   4.474  1.00  0.00    -0.507 OA
ATOM     11  H   UNL     1       6.156  -7.368   5.349  1.00  0.00     0.293 HD
ENDBRANCH   7  10
BRANCH   4  12
ATOM     12  O   UNL     1       0.364  -9.213   3.882  1.00  0.00    -0.508 OA
ATOM     13  H   UNL     1      -0.266  -8.783   3.213  1.00  0.00     0.293 HD
ENDBRANCH   4  12
TORSDOF 2
ENDMDL
MODEL 3
REMARK VINA RESULT:    -4.320     18.604     19.807
REMARK INTER + INTRA:          -4.573
REMARK INTER:                  -4.573
REMARK INTRA:                   0.000
REMARK UNBOUND:                 0.000
REMARK SMILES Cc1cc(O)c(C)c(C)c1O
REMARK SMILES IDX 1 1 2 2 3 3 4 4 6 5 8 6 10 7 9 8 7 9 11 10 5 12
REMARK H PARENT 11 11 5 13
REMARK Flexibility Score: inf
ROOT
ATOM      1  C   UNL     1      -0.800  -8.227   4.371  1.00  0.00     0.048 C 
ATOM      2  C   UNL     1       0.675  -7.968   4.509  1.00  0.00    -0.005 A 
ATOM      3  C   UNL     1       1.123  -6.818   5.164  1.00  0.00     0.053 A 
ATOM      4  C   UNL     1       2.488  -6.543   5.274  1.00  0.00     0.119 A 
ATOM      5  C   UNL     1       3.438  -7.432   4.730  1.00  0.00    -0.003 A 
ATOM      6  C   UNL     1       2.996  -8.629   4.101  1.00  0.00    -0.002 A 
ATOM      7  C   UNL     1       1.605  -8.868   3.962  1.00  0.00     0.121 A 
ATOM      8  C   UNL     1       3.977  -9.642   3.552  1.00  0.00     0.049 C 
ATOM      9  C   UNL     1       4.910  -7.105   4.843  1.00  0.00     0.049 C 
ENDROOT
BRANCH   7  10
ATOM     10  O   UNL     1       1.118  -9.989   3.279  1.00  0.00    -0.507 OA
ATOM     11  H   UNL     1       1.601 -10.434   2.510  1.00  0.00     0.293 HD
ENDBRANCH   7  10
BRANCH   4  12
ATOM     12  O   UNL     1       2.900  -5.382   5.930  1.00  0.00    -0.508 OA
ATOM     13  H   UNL     1       2.234  -4.724   6.320  1.00  0.00     0.293 HD
ENDBRANCH   4  12
TORSDOF 2
ENDMDL
MODEL 4
REMARK VINA RESULT:    -4.273      2.233      3.268
REMARK INTER + INTRA:          -4.523
REMARK INTER:                  -4.523
REMARK INTRA:                   0.000
REMARK UNBOUND:                 0.000
REMARK SMILES Cc1cc(O)c(C)c(C)c1O
REMARK SMILES IDX 1 1 2 2 3 3 4 4 6 5 8 6 10 7 9 8 7 9 11 10 5 12
REMARK H PARENT 11 11 5 13
REMARK Flexibility Score: inf
ROOT
ATOM      1  C   UNL     1      -4.890   5.660  -3.905  1.00  0.00     0.048 C 
ATOM      2  C   UNL     1      -5.560   6.816  -3.215  1.00  0.00    -0.005 A 
ATOM      3  C   UNL     1      -4.788   7.788  -2.574  1.00  0.00     0.053 A 
ATOM      4  C   UNL     1      -5.391   8.852  -1.901  1.00  0.00     0.119 A 
ATOM      5  C   UNL     1      -6.796   8.965  -1.864  1.00  0.00    -0.003 A 
ATOM      6  C   UNL     1      -7.593   8.006  -2.551  1.00  0.00    -0.002 A 
ATOM      7  C   UNL     1      -6.961   6.910  -3.193  1.00  0.00     0.121 A 
ATOM      8  C   UNL     1      -9.102   8.114  -2.589  1.00  0.00     0.049 C 
ATOM      9  C   UNL     1      -7.429  10.113  -1.111  1.00  0.00     0.049 C 
ENDROOT
BRANCH   7  10
ATOM     10  O   UNL     1      -7.703   5.897  -3.812  1.00  0.00    -0.507 OA
ATOM     11  H   UNL     1      -8.559   6.058  -4.325  1.00  0.00     0.293 HD
ENDBRANCH   7  10
BRANCH   4  12
ATOM     12  O   UNL     1      -4.588   9.802  -1.266  1.00  0.00    -0.508 OA
ATOM     13  H   UNL     1      -3.576   9.765  -1.316  1.00  0.00     0.293 HD
ENDBRANCH   4  12
TORSDOF 2
ENDMDL
MODEL 5
REMARK VINA RESULT:    -4.217     18.020     19.420
REMARK INTER + INTRA:          -4.464
REMARK INTER:                  -4.464
REMARK INTRA:                   0.000
REMARK UNBOUND:                 0.000
REMARK SMILES Cc1cc(O)c(C)c(C)c1O
REMARK SMILES IDX 1 1 2 2 3 3 4 4 6 5 8 6 10 7 9 8 7 9 11 10 5 12
REMARK H PARENT 11 11 5 13
REMARK Flexibility Score: inf
ROOT
ATOM      1  C   UNL     1       3.929  -9.656   3.494  1.00  0.00     0.048 C 
ATOM      2  C   UNL     1       2.986  -8.637   4.073  1.00  0.00    -0.005 A 
ATOM      3  C   UNL     1       3.492  -7.499   4.706  1.00  0.00     0.053 A 
ATOM      4  C   UNL     1       2.634  -6.558   5.278  1.00  0.00     0.119 A 
ATOM      5  C   UNL     1       1.237  -6.740   5.218  1.00  0.00    -0.003 A 
ATOM      6  C   UNL     1       0.708  -7.872   4.538  1.00  0.00    -0.002 A 
ATOM      7  C   UNL     1       1.598  -8.838   4.001  1.00  0.00     0.121 A 
ATOM      8  C   UNL     1      -0.784  -8.084   4.398  1.00  0.00     0.049 C 
ATOM      9  C   UNL     1       0.328  -5.719   5.863  1.00  0.00     0.049 C 
ENDROOT
BRANCH   7  10
ATOM     10  O   UNL     1       1.128 -10.010   3.395  1.00  0.00    -0.507 OA
ATOM     11  H   UNL     1       0.218 -10.411   3.573  1.00  0.00     0.293 HD
ENDBRANCH   7  10
BRANCH   4  12
ATOM     12  O   UNL     1       3.175  -5.435   5.907  1.00  0.00    -0.508 OA
ATOM     13  H   UNL     1       3.568  -4.663   5.378  1.00  0.00     0.293 HD
ENDBRANCH   4  12
TORSDOF 2
ENDMDL
MODEL 6
REMARK VINA RESULT:    -4.210     18.714     20.531
REMARK INTER + INTRA:          -4.457
REMARK INTER:                  -4.457
REMARK INTRA:                   0.000
REMARK UNBOUND:                 0.000
REMARK SMILES Cc1cc(O)c(C)c(C)c1O
REMARK SMILES IDX 1 1 2 2 3 3 4 4 6 5 8 6 10 7 9 8 7 9 11 10 5 12
REMARK H PARENT 11 11 5 13
REMARK Flexibility Score: inf
ROOT
ATOM      1  C   UNL     1       2.651  -5.559   5.832  1.00  0.00     0.048 C 
ATOM      2  C   UNL     1       3.226  -6.753   5.121  1.00  0.00    -0.005 A 
ATOM      3  C   UNL     1       4.608  -6.871   4.960  1.00  0.00     0.053 A 
ATOM      4  C   UNL     1       5.159  -7.956   4.274  1.00  0.00     0.119 A 
ATOM      5  C   UNL     1       4.323  -8.956   3.738  1.00  0.00    -0.003 A 
ATOM      6  C   UNL     1       2.916  -8.871   3.933  1.00  0.00    -0.002 A 
ATOM      7  C   UNL     1       2.374  -7.740   4.596  1.00  0.00     0.121 A 
ATOM      8  C   UNL     1       1.981  -9.948   3.427  1.00  0.00     0.049 C 
ATOM      9  C   UNL     1       4.939 -10.111   2.981  1.00  0.00     0.049 C 
ENDROOT
BRANCH   7  10
ATOM     10  O   UNL     1       0.993  -7.568   4.742  1.00  0.00    -0.507 OA
ATOM     11  H   UNL     1       0.315  -7.819   4.034  1.00  0.00     0.293 HD
ENDBRANCH   7  10
BRANCH   4  12
ATOM     12  O   UNL     1       6.545  -8.038   4.128  1.00  0.00    -0.508 OA
ATOM     13  H   UNL     1       7.001  -7.845   3.243  1.00  0.00     0.293 HD
ENDBRANCH   4  12
TORSDOF 2
ENDMDL
MODEL 7
REMARK VINA RESULT:    -4.205     18.241     19.902
REMARK INTER + INTRA:          -4.451
REMARK INTER:                  -4.451
REMARK INTRA:                   0.000
REMARK UNBOUND:                 0.000
REMARK SMILES Cc1cc(O)c(C)c(C)c1O
REMARK SMILES IDX 1 1 2 2 3 3 4 4 6 5 8 6 10 7 9 8 7 9 11 10 5 12
REMARK H PARENT 11 11 5 13
REMARK Flexibility Score: inf
ROOT
ATOM      1  C   UNL     1       0.799  -5.811   5.787  1.00  0.00     0.048 C 
ATOM      2  C   UNL     1       1.635  -6.871   5.124  1.00  0.00    -0.005 A 
ATOM      3  C   UNL     1       1.020  -7.979   4.537  1.00  0.00     0.053 A 
ATOM      4  C   UNL     1       1.780  -8.990   3.945  1.00  0.00     0.119 A 
ATOM      5  C   UNL     1       3.187  -8.903   3.926  1.00  0.00    -0.003 A 
ATOM      6  C   UNL     1       3.825  -7.758   4.483  1.00  0.00    -0.002 A 
ATOM      7  C   UNL     1       3.036  -6.764   5.116  1.00  0.00     0.121 A 
ATOM      8  C   UNL     1       5.327  -7.591   4.437  1.00  0.00     0.049 C 
ATOM      9  C   UNL     1       3.991 -10.019   3.299  1.00  0.00     0.049 C 
ENDROOT
BRANCH   7  10
ATOM     10  O   UNL     1       3.619  -5.660   5.750  1.00  0.00    -0.507 OA
ATOM     11  H   UNL     1       4.615  -5.484   5.772  1.00  0.00     0.293 HD
ENDBRANCH   7  10
BRANCH   4  12
ATOM     12  O   UNL     1       1.131 -10.085   3.371  1.00  0.00    -0.508 OA
ATOM     13  H   UNL     1       0.789 -10.857   3.932  1.00  0.00     0.293 HD
ENDBRANCH   4  12
TORSDOF 2
ENDMDL
MODEL 8
REMARK VINA RESULT:    -4.171     17.380     18.822
REMARK INTER + INTRA:          -4.415
REMARK INTER:                  -4.415
REMARK INTRA:                   0.000
REMARK UNBOUND:                 0.000
REMARK SMILES Cc1cc(O)c(C)c(C)c1O
REMARK SMILES IDX 1 1 2 2 3 3 4 4 6 5 8 6 10 7 9 8 7 9 11 10 5 12
REMARK H PARENT 11 11 5 13
REMARK Flexibility Score: inf
ROOT
ATOM      1  C   UNL     1       2.317  -9.737   3.567  1.00  0.00     0.048 C 
ATOM      2  C   UNL     1       1.833  -8.479   4.235  1.00  0.00    -0.005 A 
ATOM      3  C   UNL     1       0.463  -8.254   4.388  1.00  0.00     0.053 A 
ATOM      4  C   UNL     1      -0.007  -7.079   4.978  1.00  0.00     0.119 A 
ATOM      5  C   UNL     1       0.900  -6.101   5.435  1.00  0.00    -0.003 A 
ATOM      6  C   UNL     1       2.298  -6.338   5.325  1.00  0.00    -0.002 A 
ATOM      7  C   UNL     1       2.754  -7.519   4.685  1.00  0.00     0.121 A 
ATOM      8  C   UNL     1       3.312  -5.346   5.852  1.00  0.00     0.049 C 
ATOM      9  C   UNL     1       0.368  -4.826   6.050  1.00  0.00     0.049 C 
ENDROOT
BRANCH   7  10
ATOM     10  O   UNL     1       4.118  -7.761   4.479  1.00  0.00    -0.507 OA
ATOM     11  H   UNL     1       4.857  -7.230   4.918  1.00  0.00     0.293 HD
ENDBRANCH   7  10
BRANCH   4  12
ATOM     12  O   UNL     1      -1.384  -6.884   5.110  1.00  0.00    -0.508 OA
ATOM     13  H   UNL     1      -1.826  -6.007   4.860  1.00  0.00     0.293 HD
ENDBRANCH   4  12
TORSDOF 2
ENDMDL
MODEL 9
REMARK VINA RESULT:    -4.167      2.118      2.235
REMARK INTER + INTRA:          -4.410
REMARK INTER:                  -4.410
REMARK INTRA:                   0.000
REMARK UNBOUND:                 0.000
REMARK SMILES Cc1cc(O)c(C)c(C)c1O
REMARK SMILES IDX 1 1 2 2 3 3 4 4 6 5 8 6 10 7 9 8 7 9 11 10 5 12
REMARK H PARENT 11 11 5 13
REMARK Flexibility Score: inf
ROOT
ATOM      1  C   UNL     1      -4.258   6.091  -3.108  1.00  0.00     0.048 C 
ATOM      2  C   UNL     1      -5.440   7.019  -3.165  1.00  0.00    -0.005 A 
ATOM      3  C   UNL     1      -6.450   6.806  -4.107  1.00  0.00     0.053 A 
ATOM      4  C   UNL     1      -7.540   7.674  -4.197  1.00  0.00     0.119 A 
ATOM      5  C   UNL     1      -7.640   8.781  -3.329  1.00  0.00    -0.003 A 
ATOM      6  C   UNL     1      -6.641   8.985  -2.337  1.00  0.00    -0.002 A 
ATOM      7  C   UNL     1      -5.522   8.115  -2.290  1.00  0.00     0.121 A 
ATOM      8  C   UNL     1      -6.733  10.124  -1.346  1.00  0.00     0.049 C 
ATOM      9  C   UNL     1      -8.818   9.721  -3.459  1.00  0.00     0.049 C 
ENDROOT
BRANCH   7  10
ATOM     10  O   UNL     1      -4.472   8.320  -1.387  1.00  0.00    -0.507 OA
ATOM     11  H   UNL     1      -3.540   7.948  -1.511  1.00  0.00     0.293 HD
ENDBRANCH   7  10
BRANCH   4  12
ATOM     12  O   UNL     1      -8.528   7.433  -5.154  1.00  0.00    -0.508 OA
ATOM     13  H   UNL     1      -9.125   6.615  -5.110  1.00  0.00     0.293 HD
ENDBRANCH   4  12
TORSDOF 2
ENDMDL
