MODEL 1
REMARK VINA RESULT:    -4.566      0.000      0.000
REMARK INTER + INTRA:          -6.798
REMARK INTER:                  -6.968
REMARK INTRA:                   0.170
REMARK UNBOUND:                 0.170
REMARK SMILES CC1=CCC[C@@H](C)C(=O)C[C@@H](C(C)C)C(=O)C1
REMARK SMILES IDX 8 1 9 2 6 3 7 4 5 5 4 6 3 7 2 8 1 9 10 11 11 12 15 13 16 14
REMARK SMILES IDX 17 15 12 17 13 18 14 19
REMARK H PARENT
REMARK Flexibility Score: 70.00
ROOT
ATOM      1  C   UNL     1      12.166 -32.726 -28.849  1.00  0.00     0.136 C 
ATOM      2  O   UNL     1      11.037 -32.403 -29.191  1.00  0.00    -0.299 OA
ENDROOT
BRANCH   1   3
ATOM      3  C   UNL     1      12.344 -33.416 -27.508  1.00  0.00     0.053 C 
ATOM      4  C   UNL     1      13.695 -33.050 -26.874  1.00  0.00     0.016 C 
BRANCH   3   5
ATOM      5  C   UNL     1      12.202 -34.947 -27.679  1.00  0.00     0.015 C 
BRANCH   5   6
ATOM      6  C   UNL     1      13.381 -35.572 -28.460  1.00  0.00     0.028 C 
BRANCH   6   7
ATOM      7  C   UNL     1      12.907 -36.559 -29.500  1.00  0.00    -0.028 C 
ATOM      8  C   UNL     1      13.007 -36.388 -30.840  1.00  0.00    -0.070 CG0
ATOM      9  C   UNL     1      12.509 -37.494 -31.735  1.00  0.00     0.039 C 
ATOM     10  G   UNL     1      13.605 -35.146 -31.480  1.00  0.00     0.000 G0
ENDBRANCH   6   7
ENDBRANCH   5   6
ENDBRANCH   3   5
ENDBRANCH   1   3
BRANCH   1  11
ATOM     11  C   UNL     1      13.309 -32.365 -29.783  1.00  0.00     0.087 C 
BRANCH  11  12
ATOM     12  C   UNL     1      13.082 -32.573 -31.307  1.00  0.00     0.066 C 
BRANCH  12  13
ATOM     13  C   UNL     1      12.642 -33.997 -31.625  1.00  0.00     0.140 C 
ATOM     14  O   UNL     1      11.479 -34.216 -31.931  1.00  0.00    -0.299 OA
BRANCH  13  15
ATOM     15  C   UNL     1      13.614 -35.150 -31.501  1.00  0.00     0.106 CG0
ATOM     16  G   UNL     1      12.990 -36.375 -30.854  1.00  0.00     0.000 G0
ENDBRANCH  13  15
ENDBRANCH  12  13
BRANCH  12  17
ATOM     17  C   UNL     1      14.333 -32.139 -32.137  1.00  0.00    -0.006 C 
ATOM     18  C   UNL     1      15.180 -31.103 -31.381  1.00  0.00     0.008 C 
ATOM     19  C   UNL     1      14.011 -31.617 -33.550  1.00  0.00     0.008 C 
ENDBRANCH  12  17
ENDBRANCH  11  12
ENDBRANCH   1  11
TORSDOF 1
ENDMDL
MODEL 2
REMARK VINA RESULT:    -4.543      1.674      4.095
REMARK INTER + INTRA:          -6.763
REMARK INTER:                  -6.978
REMARK INTRA:                   0.215
REMARK UNBOUND:                 0.170
REMARK SMILES CC1=CCC[C@@H](C)C(=O)C[C@@H](C(C)C)C(=O)C1
REMARK SMILES IDX 8 1 9 2 6 3 7 4 5 5 4 6 3 7 2 8 1 9 10 11 11 12 15 13 16 14
REMARK SMILES IDX 17 15 12 17 13 18 14 19
REMARK H PARENT
REMARK Flexibility Score: 70.00
ROOT
ATOM      1  C   UNL     1      13.371 -32.438 -30.309  1.00  0.00     0.136 C 
ATOM      2  O   UNL     1      13.892 -31.379 -29.986  1.00  0.00    -0.299 OA
ENDROOT
BRANCH   1   3
ATOM      3  C   UNL     1      13.548 -32.923 -31.737  1.00  0.00     0.053 C 
ATOM      4  C   UNL     1      14.698 -32.181 -32.434  1.00  0.00     0.016 C 
BRANCH   3   5
ATOM      5  C   UNL     1      12.222 -32.760 -32.518  1.00  0.00     0.015 C 
BRANCH   5   6
ATOM      6  C   UNL     1      11.184 -33.849 -32.165  1.00  0.00     0.028 C 
BRANCH   6   7
ATOM      7  C   UNL     1      11.749 -35.240 -32.327  1.00  0.00    -0.028 C 
ATOM      8  C   UNL     1      11.937 -36.127 -31.320  1.00  0.00    -0.070 CG0
ATOM      9  C   UNL     1      12.485 -37.488 -31.668  1.00  0.00     0.039 C 
ATOM     10  G   UNL     1      11.614 -35.822 -29.868  1.00  0.00     0.000 G0
ENDBRANCH   6   7
ENDBRANCH   5   6
ENDBRANCH   3   5
ENDBRANCH   1   3
BRANCH   1  11
ATOM     11  C   UNL     1      12.546 -33.160 -29.257  1.00  0.00     0.087 C 
BRANCH  11  12
ATOM     12  C   UNL     1      13.238 -34.309 -28.469  1.00  0.00     0.066 C 
BRANCH  12  13
ATOM     13  C   UNL     1      12.825 -35.680 -28.988  1.00  0.00     0.140 C 
ATOM     14  O   UNL     1      13.521 -36.655 -28.740  1.00  0.00    -0.299 OA
BRANCH  13  15
ATOM     15  C   UNL     1      11.599 -35.838 -29.861  1.00  0.00     0.106 CG0
ATOM     16  G   UNL     1      11.947 -36.121 -31.313  1.00  0.00     0.000 G0
ENDBRANCH  13  15
ENDBRANCH  12  13
BRANCH  12  17
ATOM     17  C   UNL     1      13.014 -34.164 -26.929  1.00  0.00    -0.006 C 
ATOM     18  C   UNL     1      11.537 -33.896 -26.598  1.00  0.00     0.008 C 
ATOM     19  C   UNL     1      13.900 -33.104 -26.252  1.00  0.00     0.008 C 
ENDBRANCH  12  17
ENDBRANCH  11  12
ENDBRANCH   1  11
TORSDOF 1
ENDMDL
MODEL 3
REMARK VINA RESULT:    -3.613      1.911      4.928
REMARK INTER + INTRA:          -5.344
REMARK INTER:                  -6.349
REMARK INTRA:                   1.006
REMARK UNBOUND:                 0.170
REMARK SMILES CC1=CCC[C@@H](C)C(=O)C[C@@H](C(C)C)C(=O)C1
REMARK SMILES IDX 8 1 9 2 6 3 7 4 5 5 4 6 3 7 2 8 1 9 10 11 11 12 15 13 16 14
REMARK SMILES IDX 17 15 12 17 13 18 14 19
REMARK H PARENT
REMARK Flexibility Score: 70.00
ROOT
ATOM      1  C   UNL     1      13.242 -36.249 -29.405  1.00  0.00     0.136 C 
ATOM      2  O   UNL     1      13.811 -37.267 -29.037  1.00  0.00    -0.299 OA
ENDROOT
BRANCH   1   3
ATOM      3  C   UNL     1      12.598 -36.240 -30.781  1.00  0.00     0.053 C 
ATOM      4  C   UNL     1      12.496 -37.662 -31.352  1.00  0.00     0.016 C 
BRANCH   3   5
ATOM      5  C   UNL     1      13.393 -35.311 -31.729  1.00  0.00     0.015 C 
BRANCH   5   6
ATOM      6  C   UNL     1      12.783 -33.894 -31.827  1.00  0.00     0.028 C 
BRANCH   6   7
ATOM      7  C   UNL     1      13.507 -32.907 -30.942  1.00  0.00    -0.028 C 
ATOM      8  C   UNL     1      12.954 -32.246 -29.897  1.00  0.00    -0.070 CG0
ATOM      9  C   UNL     1      13.834 -31.317 -29.100  1.00  0.00     0.039 C 
ATOM     10  G   UNL     1      11.500 -32.404 -29.485  1.00  0.00     0.000 G0
ENDBRANCH   6   7
ENDBRANCH   5   6
ENDBRANCH   3   5
ENDBRANCH   1   3
BRANCH   1  11
ATOM     11  C   UNL     1      13.267 -35.055 -28.465  1.00  0.00     0.087 C 
BRANCH  11  12
ATOM     12  C   UNL     1      11.900 -34.516 -27.956  1.00  0.00     0.066 C 
BRANCH  12  13
ATOM     13  C   UNL     1      11.124 -33.807 -29.058  1.00  0.00     0.140 C 
ATOM     14  O   UNL     1      10.237 -34.403 -29.652  1.00  0.00    -0.299 OA
BRANCH  13  15
ATOM     15  C   UNL     1      11.484 -32.396 -29.469  1.00  0.00     0.106 CG0
ATOM     16  G   UNL     1      12.930 -32.266 -29.914  1.00  0.00     0.000 G0
ENDBRANCH  13  15
ENDBRANCH  12  13
BRANCH  12  17
ATOM     17  C   UNL     1      12.074 -33.625 -26.684  1.00  0.00    -0.006 C 
ATOM     18  C   UNL     1      13.551 -33.502 -26.279  1.00  0.00     0.008 C 
ATOM     19  C   UNL     1      11.237 -34.073 -25.471  1.00  0.00     0.008 C 
ENDBRANCH  12  17
ENDBRANCH  11  12
ENDBRANCH   1  11
TORSDOF 1
ENDMDL
MODEL 4
REMARK VINA RESULT:    -3.508      1.743      4.019
REMARK INTER + INTRA:          -5.183
REMARK INTER:                  -6.074
REMARK INTRA:                   0.890
REMARK UNBOUND:                 0.170
REMARK SMILES CC1=CCC[C@@H](C)C(=O)C[C@@H](C(C)C)C(=O)C1
REMARK SMILES IDX 8 1 9 2 6 3 7 4 5 5 4 6 3 7 2 8 1 9 10 11 11 12 15 13 16 14
REMARK SMILES IDX 17 15 12 17 13 18 14 19
REMARK H PARENT
REMARK Flexibility Score: 70.00
ROOT
ATOM      1  C   UNL     1      11.339 -32.754 -29.844  1.00  0.00     0.136 C 
ATOM      2  O   UNL     1      11.629 -31.623 -29.479  1.00  0.00    -0.299 OA
ENDROOT
BRANCH   1   3
ATOM      3  C   UNL     1      10.964 -32.968 -31.300  1.00  0.00     0.053 C 
ATOM      4  C   UNL     1       9.878 -34.046 -31.438  1.00  0.00     0.016 C 
BRANCH   3   5
ATOM      5  C   UNL     1      12.224 -33.333 -32.121  1.00  0.00     0.015 C 
BRANCH   5   6
ATOM      6  C   UNL     1      13.225 -34.199 -31.324  1.00  0.00     0.028 C 
BRANCH   6   7
ATOM      7  C   UNL     1      13.191 -35.645 -31.758  1.00  0.00    -0.028 C 
ATOM      8  C   UNL     1      12.687 -36.667 -31.026  1.00  0.00    -0.070 CG0
ATOM      9  C   UNL     1      12.705 -38.048 -31.629  1.00  0.00     0.039 C 
ATOM     10  G   UNL     1      12.096 -36.486 -29.637  1.00  0.00     0.000 G0
ENDBRANCH   6   7
ENDBRANCH   5   6
ENDBRANCH   3   5
ENDBRANCH   1   3
BRANCH   1  11
ATOM     11  C   UNL     1      11.336 -33.850 -28.791  1.00  0.00     0.087 C 
BRANCH  11  12
ATOM     12  C   UNL     1      12.713 -34.329 -28.251  1.00  0.00     0.066 C 
BRANCH  12  13
ATOM     13  C   UNL     1      13.043 -35.742 -28.714  1.00  0.00     0.140 C 
ATOM     14  O   UNL     1      14.094 -36.262 -28.368  1.00  0.00    -0.299 OA
BRANCH  13  15
ATOM     15  C   UNL     1      12.113 -36.484 -29.650  1.00  0.00     0.106 CG0
ATOM     16  G   UNL     1      12.704 -36.668 -31.038  1.00  0.00     0.000 G0
ENDBRANCH  13  15
ENDBRANCH  12  13
BRANCH  12  17
ATOM     17  C   UNL     1      12.805 -34.175 -26.699  1.00  0.00    -0.006 C 
ATOM     18  C   UNL     1      11.425 -33.916 -26.075  1.00  0.00     0.008 C 
ATOM     19  C   UNL     1      13.802 -33.104 -26.221  1.00  0.00     0.008 C 
ENDBRANCH  12  17
ENDBRANCH  11  12
ENDBRANCH   1  11
TORSDOF 1
ENDMDL
MODEL 5
REMARK VINA RESULT:    -3.499      1.774      3.504
REMARK INTER + INTRA:          -5.169
REMARK INTER:                  -6.103
REMARK INTRA:                   0.934
REMARK UNBOUND:                 0.170
REMARK SMILES CC1=CCC[C@@H](C)C(=O)C[C@@H](C(C)C)C(=O)C1
REMARK SMILES IDX 8 1 9 2 6 3 7 4 5 5 4 6 3 7 2 8 1 9 10 11 11 12 15 13 16 14
REMARK SMILES IDX 17 15 12 17 13 18 14 19
REMARK H PARENT
REMARK Flexibility Score: 70.00
ROOT
ATOM      1  C   UNL     1      13.323 -35.889 -31.005  1.00  0.00     0.136 C 
ATOM      2  O   UNL     1      12.984 -36.939 -31.532  1.00  0.00    -0.299 OA
ENDROOT
BRANCH   1   3
ATOM      3  C   UNL     1      13.226 -35.775 -29.494  1.00  0.00     0.053 C 
ATOM      4  C   UNL     1      13.953 -36.939 -28.805  1.00  0.00     0.016 C 
BRANCH   3   5
ATOM      5  C   UNL     1      11.741 -35.709 -29.065  1.00  0.00     0.015 C 
BRANCH   5   6
ATOM      6  C   UNL     1      11.491 -34.688 -27.932  1.00  0.00     0.028 C 
BRANCH   6   7
ATOM      7  C   UNL     1      12.539 -33.600 -27.913  1.00  0.00    -0.028 C 
ATOM      8  C   UNL     1      12.596 -32.558 -28.777  1.00  0.00    -0.070 CG0
ATOM      9  C   UNL     1      13.696 -31.545 -28.592  1.00  0.00     0.039 C 
ATOM     10  G   UNL     1      11.603 -32.358 -29.909  1.00  0.00     0.000 G0
ENDBRANCH   6   7
ENDBRANCH   5   6
ENDBRANCH   3   5
ENDBRANCH   1   3
BRANCH   1  11
ATOM     11  C   UNL     1      13.774 -34.761 -31.920  1.00  0.00     0.087 C 
BRANCH  11  12
ATOM     12  C   UNL     1      13.580 -33.305 -31.409  1.00  0.00     0.066 C 
BRANCH  12  13
ATOM     13  C   UNL     1      12.109 -32.963 -31.214  1.00  0.00     0.140 C 
ATOM     14  O   UNL     1      11.321 -33.135 -32.132  1.00  0.00    -0.299 OA
BRANCH  13  15
ATOM     15  C   UNL     1      11.625 -32.350 -29.917  1.00  0.00     0.106 CG0
ATOM     16  G   UNL     1      12.603 -32.555 -28.772  1.00  0.00     0.000 G0
ENDBRANCH  13  15
ENDBRANCH  12  13
BRANCH  12  17
ATOM     17  C   UNL     1      14.312 -32.274 -32.328  1.00  0.00    -0.006 C 
ATOM     18  C   UNL     1      15.358 -32.959 -33.222  1.00  0.00     0.008 C 
ATOM     19  C   UNL     1      14.960 -31.097 -31.577  1.00  0.00     0.008 C 
ENDBRANCH  12  17
ENDBRANCH  11  12
ENDBRANCH   1  11
TORSDOF 1
ENDMDL
MODEL 6
REMARK VINA RESULT:    -3.468      2.139      3.862
REMARK INTER + INTRA:          -5.122
REMARK INTER:                  -4.964
REMARK INTRA:                  -0.158
REMARK UNBOUND:                 0.170
REMARK SMILES CC1=CCC[C@@H](C)C(=O)C[C@@H](C(C)C)C(=O)C1
REMARK SMILES IDX 8 1 9 2 6 3 7 4 5 5 4 6 3 7 2 8 1 9 10 11 11 12 15 13 16 14
REMARK SMILES IDX 17 15 12 17 13 18 14 19
REMARK H PARENT
REMARK Flexibility Score: 70.00
ROOT
ATOM      1  C   UNL     1      12.372 -34.629 -31.932  1.00  0.00     0.136 C 
ATOM      2  O   UNL     1      13.227 -35.501 -31.861  1.00  0.00    -0.299 OA
ENDROOT
BRANCH   1   3
ATOM      3  C   UNL     1      10.917 -35.029 -31.764  1.00  0.00     0.053 C 
ATOM      4  C   UNL     1       9.979 -33.882 -32.170  1.00  0.00     0.016 C 
BRANCH   3   5
ATOM      5  C   UNL     1      10.657 -35.475 -30.306  1.00  0.00     0.015 C 
BRANCH   5   6
ATOM      6  C   UNL     1      10.465 -34.282 -29.342  1.00  0.00     0.028 C 
BRANCH   6   7
ATOM      7  C   UNL     1      11.651 -34.102 -28.424  1.00  0.00    -0.028 C 
ATOM      8  C   UNL     1      12.548 -33.090 -28.499  1.00  0.00    -0.070 CG0
ATOM      9  C   UNL     1      13.657 -33.048 -27.479  1.00  0.00     0.039 C 
ATOM     10  G   UNL     1      12.483 -31.994 -29.549  1.00  0.00     0.000 G0
ENDBRANCH   6   7
ENDBRANCH   5   6
ENDBRANCH   3   5
ENDBRANCH   1   3
BRANCH   1  11
ATOM     11  C   UNL     1      12.841 -33.214 -32.230  1.00  0.00     0.087 C 
BRANCH  11  12
ATOM     12  C   UNL     1      14.119 -32.714 -31.498  1.00  0.00     0.066 C 
BRANCH  12  13
ATOM     13  C   UNL     1      13.781 -31.814 -30.317  1.00  0.00     0.140 C 
ATOM     14  O   UNL     1      14.589 -30.974 -29.946  1.00  0.00    -0.299 OA
BRANCH  13  15
ATOM     15  C   UNL     1      12.484 -31.992 -29.558  1.00  0.00     0.106 CG0
ATOM     16  G   UNL     1      12.569 -33.082 -28.502  1.00  0.00     0.000 G0
ENDBRANCH  13  15
ENDBRANCH  12  13
BRANCH  12  17
ATOM     17  C   UNL     1      15.121 -32.040 -32.491  1.00  0.00    -0.006 C 
ATOM     18  C   UNL     1      14.396 -31.117 -33.483  1.00  0.00     0.008 C 
ATOM     19  C   UNL     1      16.019 -33.027 -33.259  1.00  0.00     0.008 C 
ENDBRANCH  12  17
ENDBRANCH  11  12
ENDBRANCH   1  11
TORSDOF 1
ENDMDL
MODEL 7
REMARK VINA RESULT:    -3.359      1.325      1.613
REMARK INTER + INTRA:          -4.955
REMARK INTER:                  -5.454
REMARK INTRA:                   0.498
REMARK UNBOUND:                 0.170
REMARK SMILES CC1=CCC[C@@H](C)C(=O)C[C@@H](C(C)C)C(=O)C1
REMARK SMILES IDX 8 1 9 2 6 3 7 4 5 5 4 6 3 7 2 8 1 9 10 11 11 12 15 13 16 14
REMARK SMILES IDX 17 15 12 17 13 18 14 19
REMARK H PARENT
REMARK Flexibility Score: 70.00
ROOT
ATOM      1  C   UNL     1      12.695 -33.068 -29.010  1.00  0.00     0.136 C 
ATOM      2  O   UNL     1      12.305 -31.941 -28.737  1.00  0.00    -0.299 OA
ENDROOT
BRANCH   1   3
ATOM      3  C   UNL     1      12.886 -34.060 -27.877  1.00  0.00     0.053 C 
ATOM      4  C   UNL     1      13.323 -33.348 -26.587  1.00  0.00     0.016 C 
BRANCH   3   5
ATOM      5  C   UNL     1      13.908 -35.145 -28.291  1.00  0.00     0.015 C 
BRANCH   5   6
ATOM      6  C   UNL     1      13.259 -36.533 -28.488  1.00  0.00     0.028 C 
BRANCH   6   7
ATOM      7  C   UNL     1      13.244 -36.949 -29.940  1.00  0.00    -0.028 C 
ATOM      8  C   UNL     1      12.332 -36.545 -30.856  1.00  0.00    -0.070 CG0
ATOM      9  C   UNL     1      12.487 -37.034 -32.274  1.00  0.00     0.039 C 
ATOM     10  G   UNL     1      11.174 -35.617 -30.529  1.00  0.00     0.000 G0
ENDBRANCH   6   7
ENDBRANCH   5   6
ENDBRANCH   3   5
ENDBRANCH   1   3
BRANCH   1  11
ATOM     11  C   UNL     1      13.003 -33.367 -30.468  1.00  0.00     0.087 C 
BRANCH  11  12
ATOM     12  C   UNL     1      11.836 -33.235 -31.488  1.00  0.00     0.066 C 
BRANCH  12  13
ATOM     13  C   UNL     1      11.009 -34.511 -31.572  1.00  0.00     0.140 C 
ATOM     14  O   UNL     1      10.165 -34.629 -32.448  1.00  0.00    -0.299 OA
BRANCH  13  15
ATOM     15  C   UNL     1      11.177 -35.608 -30.542  1.00  0.00     0.106 CG0
ATOM     16  G   UNL     1      12.335 -36.539 -30.861  1.00  0.00     0.000 G0
ENDBRANCH  13  15
ENDBRANCH  12  13
BRANCH  12  17
ATOM     17  C   UNL     1      12.348 -32.766 -32.888  1.00  0.00    -0.006 C 
ATOM     18  C   UNL     1      13.748 -32.138 -32.794  1.00  0.00     0.008 C 
ATOM     19  C   UNL     1      11.397 -31.808 -33.628  1.00  0.00     0.008 C 
ENDBRANCH  12  17
ENDBRANCH  11  12
ENDBRANCH   1  11
TORSDOF 1
ENDMDL
MODEL 8
REMARK VINA RESULT:    -3.250      1.715      3.912
REMARK INTER + INTRA:          -4.790
REMARK INTER:                  -5.861
REMARK INTRA:                   1.071
REMARK UNBOUND:                 0.170
REMARK SMILES CC1=CCC[C@@H](C)C(=O)C[C@@H](C(C)C)C(=O)C1
REMARK SMILES IDX 8 1 9 2 6 3 7 4 5 5 4 6 3 7 2 8 1 9 10 11 11 12 15 13 16 14
REMARK SMILES IDX 17 15 12 17 13 18 14 19
REMARK H PARENT
REMARK Flexibility Score: 70.00
ROOT
ATOM      1  C   UNL     1      12.800 -32.751 -31.291  1.00  0.00     0.136 C 
ATOM      2  O   UNL     1      13.879 -32.231 -31.540  1.00  0.00    -0.299 OA
ENDROOT
BRANCH   1   3
ATOM      3  C   UNL     1      12.109 -33.541 -32.389  1.00  0.00     0.053 C 
ATOM      4  C   UNL     1      11.165 -32.644 -33.203  1.00  0.00     0.016 C 
BRANCH   3   5
ATOM      5  C   UNL     1      11.351 -34.743 -31.777  1.00  0.00     0.015 C 
BRANCH   5   6
ATOM      6  C   UNL     1      12.057 -36.092 -32.042  1.00  0.00     0.028 C 
BRANCH   6   7
ATOM      7  C   UNL     1      13.088 -36.405 -30.983  1.00  0.00    -0.028 C 
ATOM      8  C   UNL     1      12.917 -36.225 -29.652  1.00  0.00    -0.070 CG0
ATOM      9  C   UNL     1      14.044 -36.623 -28.732  1.00  0.00     0.039 C 
ATOM     10  G   UNL     1      11.647 -35.655 -29.043  1.00  0.00     0.000 G0
ENDBRANCH   6   7
ENDBRANCH   5   6
ENDBRANCH   3   5
ENDBRANCH   1   3
BRANCH   1  11
ATOM     11  C   UNL     1      12.217 -32.523 -29.906  1.00  0.00     0.087 C 
BRANCH  11  12
ATOM     12  C   UNL     1      12.830 -33.333 -28.728  1.00  0.00     0.066 C 
BRANCH  12  13
ATOM     13  C   UNL     1      11.879 -34.411 -28.226  1.00  0.00     0.140 C 
ATOM     14  O   UNL     1      11.341 -34.284 -27.136  1.00  0.00    -0.299 OA
BRANCH  13  15
ATOM     15  C   UNL     1      11.644 -35.669 -29.034  1.00  0.00     0.106 CG0
ATOM     16  G   UNL     1      12.923 -36.226 -29.636  1.00  0.00     0.000 G0
ENDBRANCH  13  15
ENDBRANCH  12  13
BRANCH  12  17
ATOM     17  C   UNL     1      13.320 -32.392 -27.580  1.00  0.00    -0.006 C 
ATOM     18  C   UNL     1      14.204 -31.257 -28.120  1.00  0.00     0.008 C 
ATOM     19  C   UNL     1      14.044 -33.114 -26.429  1.00  0.00     0.008 C 
ENDBRANCH  12  17
ENDBRANCH  11  12
ENDBRANCH   1  11
TORSDOF 1
ENDMDL
MODEL 9
REMARK VINA RESULT:    -3.033      2.328      4.426
REMARK INTER + INTRA:          -4.458
REMARK INTER:                  -4.390
REMARK INTRA:                  -0.067
REMARK UNBOUND:                 0.170
REMARK SMILES CC1=CCC[C@@H](C)C(=O)C[C@@H](C(C)C)C(=O)C1
REMARK SMILES IDX 8 1 9 2 6 3 7 4 5 5 4 6 3 7 2 8 1 9 10 11 11 12 15 13 16 14
REMARK SMILES IDX 17 15 12 17 13 18 14 19
REMARK H PARENT
REMARK Flexibility Score: 70.00
ROOT
ATOM      1  C   UNL     1      13.717 -33.440 -32.066  1.00  0.00     0.136 C 
ATOM      2  O   UNL     1      14.668 -34.096 -32.469  1.00  0.00    -0.299 OA
ENDROOT
BRANCH   1   3
ATOM      3  C   UNL     1      13.911 -31.950 -31.843  1.00  0.00     0.053 C 
ATOM      4  C   UNL     1      14.877 -31.358 -32.880  1.00  0.00     0.016 C 
BRANCH   3   5
ATOM      5  C   UNL     1      14.411 -31.693 -30.401  1.00  0.00     0.015 C 
BRANCH   5   6
ATOM      6  C   UNL     1      13.256 -31.436 -29.407  1.00  0.00     0.028 C 
BRANCH   6   7
ATOM      7  C   UNL     1      13.155 -32.526 -28.366  1.00  0.00    -0.028 C 
ATOM      8  C   UNL     1      12.038 -33.240 -28.091  1.00  0.00    -0.070 CG0
ATOM      9  C   UNL     1      12.125 -34.315 -27.039  1.00  0.00     0.039 C 
ATOM     10  G   UNL     1      10.712 -33.019 -28.799  1.00  0.00     0.000 G0
ENDBRANCH   6   7
ENDBRANCH   5   6
ENDBRANCH   3   5
ENDBRANCH   1   3
BRANCH   1  11
ATOM     11  C   UNL     1      12.425 -34.186 -31.778  1.00  0.00     0.087 C 
BRANCH  11  12
ATOM     12  C   UNL     1      11.187 -33.340 -31.364  1.00  0.00     0.066 C 
BRANCH  12  13
ATOM     13  C   UNL     1      10.572 -33.836 -30.062  1.00  0.00     0.140 C 
ATOM     14  O   UNL     1       9.915 -34.868 -30.058  1.00  0.00    -0.299 OA
BRANCH  13  15
ATOM     15  C   UNL     1      10.708 -33.030 -28.788  1.00  0.00     0.106 CG0
ATOM     16  G   UNL     1      12.049 -33.238 -28.105  1.00  0.00     0.000 G0
ENDBRANCH  13  15
ENDBRANCH  12  13
BRANCH  12  17
ATOM     17  C   UNL     1      10.140 -33.254 -32.521  1.00  0.00    -0.006 C 
ATOM     18  C   UNL     1       9.950 -34.613 -33.213  1.00  0.00     0.008 C 
ATOM     19  C   UNL     1      10.440 -32.171 -33.574  1.00  0.00     0.008 C 
ENDBRANCH  12  17
ENDBRANCH  11  12
ENDBRANCH   1  11
TORSDOF 1
ENDMDL
