MODEL 1
REMARK VINA RESULT:    -4.352      0.000      0.000
REMARK INTER + INTRA:          -9.810
REMARK INTER:                  -8.169
REMARK INTRA:                  -1.641
REMARK UNBOUND:                -1.641
REMARK SMILES O=C([O-])CCCCCCCCCCCCCCC(=O)[O-]
REMARK SMILES IDX 10 1 9 2 8 3 7 4 6 5 5 6 4 7 2 8 1 9 3 10 11 11 12 12 13 13
REMARK SMILES IDX 14 14 15 15 16 16 17 17 18 18 19 19 20 20
REMARK H PARENT
REMARK Flexibility Score: inf
ROOT
ATOM      1  C   UNL     1      78.927  80.395  78.183  1.00  0.00     0.000 C 
ENDROOT
BRANCH   1   2
ATOM      2  C   UNL     1      77.672  81.102  78.726  1.00  0.00     0.000 C 
BRANCH   2   3
ATOM      3  C   UNL     1      76.661  80.123  79.344  1.00  0.00     0.000 C 
BRANCH   3   4
ATOM      4  C   UNL     1      75.219  80.657  79.298  1.00  0.00     0.000 C 
BRANCH   4   5
ATOM      5  C   UNL     1      74.898  81.377  77.977  1.00  0.00     0.000 C 
BRANCH   5   6
ATOM      6  C   UNL     1      74.037  80.521  77.031  1.00  0.00     0.006 C 
BRANCH   6   7
ATOM      7  C   UNL     1      73.132  81.379  76.134  1.00  0.00     0.053 C 
BRANCH   7   8
ATOM      8  C   UNL     1      71.916  81.861  76.865  1.00  0.00     0.041 C 
ATOM      9  O   UNL     1      71.857  83.047  77.283  1.00  0.00    -0.550 OA
ATOM     10  O   UNL     1      70.862  80.990  77.112  1.00  0.00    -0.550 OA
ENDBRANCH   7   8
ENDBRANCH   6   7
ENDBRANCH   5   6
ENDBRANCH   4   5
ENDBRANCH   3   4
ENDBRANCH   2   3
ENDBRANCH   1   2
BRANCH   1  11
ATOM     11  C   UNL     1      80.135  81.340  78.044  1.00  0.00     0.000 C 
BRANCH  11  12
ATOM     12  C   UNL     1      80.846  81.289  76.680  1.00  0.00     0.000 C 
BRANCH  12  13
ATOM     13  C   UNL     1      81.165  82.686  76.120  1.00  0.00     0.000 C 
BRANCH  13  14
ATOM     14  C   UNL     1      79.974  83.314  75.378  1.00  0.00     0.000 C 
BRANCH  14  15
ATOM     15  C   UNL     1      79.396  82.384  74.297  1.00  0.00     0.000 C 
BRANCH  15  16
ATOM     16  C   UNL     1      77.893  82.609  74.068  1.00  0.00     0.006 C 
BRANCH  16  17
ATOM     17  C   UNL     1      77.132  82.892  75.370  1.00  0.00     0.053 C 
BRANCH  17  18
ATOM     18  C   UNL     1      76.387  84.186  75.267  1.00  0.00     0.041 C 
ATOM     19  O   UNL     1      76.953  85.207  74.795  1.00  0.00    -0.550 OA
ATOM     20  O   UNL     1      75.052  84.251  75.648  1.00  0.00    -0.550 OA
ENDBRANCH  17  18
ENDBRANCH  16  17
ENDBRANCH  15  16
ENDBRANCH  14  15
ENDBRANCH  13  14
ENDBRANCH  12  13
ENDBRANCH  11  12
ENDBRANCH   1  11
TORSDOF 15
ENDMDL
MODEL 2
REMARK VINA RESULT:    -4.233      1.682      2.435
REMARK INTER + INTRA:          -9.585
REMARK INTER:                  -7.080
REMARK INTRA:                  -2.505
REMARK UNBOUND:                -1.641
REMARK SMILES O=C([O-])CCCCCCCCCCCCCCC(=O)[O-]
REMARK SMILES IDX 10 1 9 2 8 3 7 4 6 5 5 6 4 7 2 8 1 9 3 10 11 11 12 12 13 13
REMARK SMILES IDX 14 14 15 15 16 16 17 17 18 18 19 19 20 20
REMARK H PARENT
REMARK Flexibility Score: inf
ROOT
ATOM      1  C   UNL     1      78.178  81.545  78.490  1.00  0.00     0.000 C 
ENDROOT
BRANCH   1   2
ATOM      2  C   UNL     1      76.653  81.741  78.562  1.00  0.00     0.000 C 
BRANCH   2   3
ATOM      3  C   UNL     1      75.929  80.530  79.173  1.00  0.00     0.000 C 
BRANCH   3   4
ATOM      4  C   UNL     1      74.702  80.100  78.349  1.00  0.00     0.000 C 
BRANCH   4   5
ATOM      5  C   UNL     1      74.095  81.262  77.544  1.00  0.00     0.000 C 
BRANCH   5   6
ATOM      6  C   UNL     1      72.843  80.843  76.752  1.00  0.00     0.006 C 
BRANCH   6   7
ATOM      7  C   UNL     1      72.781  81.511  75.371  1.00  0.00     0.053 C 
BRANCH   7   8
ATOM      8  C   UNL     1      71.495  82.251  75.165  1.00  0.00     0.041 C 
ATOM      9  O   UNL     1      70.810  82.618  76.156  1.00  0.00    -0.550 OA
ATOM     10  O   UNL     1      71.038  82.508  73.878  1.00  0.00    -0.550 OA
ENDBRANCH   7   8
ENDBRANCH   6   7
ENDBRANCH   5   6
ENDBRANCH   4   5
ENDBRANCH   3   4
ENDBRANCH   2   3
ENDBRANCH   1   2
BRANCH   1  11
ATOM     11  C   UNL     1      78.587  80.063  78.392  1.00  0.00     0.000 C 
BRANCH  11  12
ATOM     12  C   UNL     1      78.858  79.556  76.965  1.00  0.00     0.000 C 
BRANCH  12  13
ATOM     13  C   UNL     1      77.837  78.501  76.503  1.00  0.00     0.000 C 
BRANCH  13  14
ATOM     14  C   UNL     1      76.825  79.058  75.489  1.00  0.00     0.000 C 
BRANCH  14  15
ATOM     15  C   UNL     1      77.372  80.271  74.715  1.00  0.00     0.000 C 
BRANCH  15  16
ATOM     16  C   UNL     1      76.475  81.511  74.854  1.00  0.00     0.006 C 
BRANCH  16  17
ATOM     17  C   UNL     1      77.275  82.794  75.116  1.00  0.00     0.053 C 
BRANCH  17  18
ATOM     18  C   UNL     1      76.397  83.996  74.961  1.00  0.00     0.041 C 
ATOM     19  O   UNL     1      75.144  83.872  74.971  1.00  0.00    -0.550 OA
ATOM     20  O   UNL     1      76.964  85.262  74.855  1.00  0.00    -0.550 OA
ENDBRANCH  17  18
ENDBRANCH  16  17
ENDBRANCH  15  16
ENDBRANCH  14  15
ENDBRANCH  13  14
ENDBRANCH  12  13
ENDBRANCH  11  12
ENDBRANCH   1  11
TORSDOF 15
ENDMDL
MODEL 3
REMARK VINA RESULT:    -4.223      3.562      6.825
REMARK INTER + INTRA:          -9.568
REMARK INTER:                  -7.691
REMARK INTRA:                  -1.877
REMARK UNBOUND:                -1.641
REMARK SMILES O=C([O-])CCCCCCCCCCCCCCC(=O)[O-]
REMARK SMILES IDX 10 1 9 2 8 3 7 4 6 5 5 6 4 7 2 8 1 9 3 10 11 11 12 12 13 13
REMARK SMILES IDX 14 14 15 15 16 16 17 17 18 18 19 19 20 20
REMARK H PARENT
REMARK Flexibility Score: inf
ROOT
ATOM      1  C   UNL     1      75.300  81.737  78.471  1.00  0.00     0.000 C 
ENDROOT
BRANCH   1   2
ATOM      2  C   UNL     1      76.792  82.101  78.570  1.00  0.00     0.000 C 
BRANCH   2   3
ATOM      3  C   UNL     1      77.711  80.880  78.405  1.00  0.00     0.000 C 
BRANCH   3   4
ATOM      4  C   UNL     1      79.139  81.269  77.982  1.00  0.00     0.000 C 
BRANCH   4   5
ATOM      5  C   UNL     1      80.211  80.390  78.648  1.00  0.00     0.000 C 
BRANCH   5   6
ATOM      6  C   UNL     1      81.605  81.045  78.636  1.00  0.00     0.006 C 
BRANCH   6   7
ATOM      7  C   UNL     1      82.285  80.984  80.012  1.00  0.00     0.053 C 
BRANCH   7   8
ATOM      8  C   UNL     1      83.778  81.063  79.901  1.00  0.00     0.041 C 
ATOM      9  O   UNL     1      84.311  81.834  79.060  1.00  0.00    -0.550 OA
ATOM     10  O   UNL     1      84.578  80.261  80.705  1.00  0.00    -0.550 OA
ENDBRANCH   7   8
ENDBRANCH   6   7
ENDBRANCH   5   6
ENDBRANCH   4   5
ENDBRANCH   3   4
ENDBRANCH   2   3
ENDBRANCH   1   2
BRANCH   1  11
ATOM     11  C   UNL     1      75.049  80.219  78.524  1.00  0.00     0.000 C 
BRANCH  11  12
ATOM     12  C   UNL     1      74.005  79.697  77.521  1.00  0.00     0.000 C 
BRANCH  12  13
ATOM     13  C   UNL     1      74.335  80.074  76.066  1.00  0.00     0.000 C 
BRANCH  13  14
ATOM     14  C   UNL     1      75.559  79.319  75.521  1.00  0.00     0.000 C 
BRANCH  14  15
ATOM     15  C   UNL     1      76.628  80.267  74.948  1.00  0.00     0.000 C 
BRANCH  15  16
ATOM     16  C   UNL     1      76.063  81.655  74.607  1.00  0.00     0.006 C 
BRANCH  16  17
ATOM     17  C   UNL     1      77.014  82.794  74.996  1.00  0.00     0.053 C 
BRANCH  17  18
ATOM     18  C   UNL     1      76.250  84.063  75.206  1.00  0.00     0.041 C 
ATOM     19  O   UNL     1      75.137  84.044  75.795  1.00  0.00    -0.550 OA
ATOM     20  O   UNL     1      76.791  85.276  74.794  1.00  0.00    -0.550 OA
ENDBRANCH  17  18
ENDBRANCH  16  17
ENDBRANCH  15  16
ENDBRANCH  14  15
ENDBRANCH  13  14
ENDBRANCH  12  13
ENDBRANCH  11  12
ENDBRANCH   1  11
TORSDOF 15
ENDMDL
MODEL 4
REMARK VINA RESULT:    -4.194      1.794      4.634
REMARK INTER + INTRA:          -9.514
REMARK INTER:                  -7.173
REMARK INTRA:                  -2.341
REMARK UNBOUND:                -1.641
REMARK SMILES O=C([O-])CCCCCCCCCCCCCCC(=O)[O-]
REMARK SMILES IDX 10 1 9 2 8 3 7 4 6 5 5 6 4 7 2 8 1 9 3 10 11 11 12 12 13 13
REMARK SMILES IDX 14 14 15 15 16 16 17 17 18 18 19 19 20 20
REMARK H PARENT
REMARK Flexibility Score: inf
ROOT
ATOM      1  C   UNL     1      74.090  81.499  77.784  1.00  0.00     0.000 C 
ENDROOT
BRANCH   1   2
ATOM      2  C   UNL     1      73.959  80.060  77.255  1.00  0.00     0.000 C 
BRANCH   2   3
ATOM      3  C   UNL     1      74.226  79.959  75.744  1.00  0.00     0.000 C 
BRANCH   3   4
ATOM      4  C   UNL     1      75.573  79.285  75.427  1.00  0.00     0.000 C 
BRANCH   4   5
ATOM      5  C   UNL     1      76.599  80.268  74.839  1.00  0.00     0.000 C 
BRANCH   5   6
ATOM      6  C   UNL     1      75.993  81.653  74.546  1.00  0.00     0.006 C 
BRANCH   6   7
ATOM      7  C   UNL     1      76.923  82.796  74.979  1.00  0.00     0.053 C 
BRANCH   7   8
ATOM      8  C   UNL     1      76.185  84.092  75.124  1.00  0.00     0.041 C 
ATOM      9  O   UNL     1      76.777  85.185  74.918  1.00  0.00    -0.550 OA
ATOM     10  O   UNL     1      74.853  84.094  75.519  1.00  0.00    -0.550 OA
ENDBRANCH   7   8
ENDBRANCH   6   7
ENDBRANCH   5   6
ENDBRANCH   4   5
ENDBRANCH   3   4
ENDBRANCH   2   3
ENDBRANCH   1   2
BRANCH   1  11
ATOM     11  C   UNL     1      75.500  81.817  78.315  1.00  0.00     0.000 C 
BRANCH  11  12
ATOM     12  C   UNL     1      76.158  80.687  79.128  1.00  0.00     0.000 C 
BRANCH  12  13
ATOM     13  C   UNL     1      77.420  80.122  78.452  1.00  0.00     0.000 C 
BRANCH  13  14
ATOM     14  C   UNL     1      78.416  81.220  78.045  1.00  0.00     0.000 C 
BRANCH  14  15
ATOM     15  C   UNL     1      79.875  80.834  78.347  1.00  0.00     0.000 C 
BRANCH  15  16
ATOM     16  C   UNL     1      80.883  81.651  77.524  1.00  0.00     0.006 C 
BRANCH  16  17
ATOM     17  C   UNL     1      80.884  81.269  76.039  1.00  0.00     0.053 C 
BRANCH  17  18
ATOM     18  C   UNL     1      80.589  82.466  75.191  1.00  0.00     0.041 C 
ATOM     19  O   UNL     1      80.683  83.625  75.676  1.00  0.00    -0.550 OA
ATOM     20  O   UNL     1      80.258  82.305  73.851  1.00  0.00    -0.550 OA
ENDBRANCH  17  18
ENDBRANCH  16  17
ENDBRANCH  15  16
ENDBRANCH  14  15
ENDBRANCH  13  14
ENDBRANCH  12  13
ENDBRANCH  11  12
ENDBRANCH   1  11
TORSDOF 15
ENDMDL
MODEL 5
REMARK VINA RESULT:    -4.170      3.318      6.521
REMARK INTER + INTRA:          -9.468
REMARK INTER:                  -7.490
REMARK INTRA:                  -1.977
REMARK UNBOUND:                -1.641
REMARK SMILES O=C([O-])CCCCCCCCCCCCCCC(=O)[O-]
REMARK SMILES IDX 10 1 9 2 8 3 7 4 6 5 5 6 4 7 2 8 1 9 3 10 11 11 12 12 13 13
REMARK SMILES IDX 14 14 15 15 16 16 17 17 18 18 19 19 20 20
REMARK H PARENT
REMARK Flexibility Score: inf
ROOT
ATOM      1  C   UNL     1      76.741  77.792  80.129  1.00  0.00     0.000 C 
ENDROOT
BRANCH   1   2
ATOM      2  C   UNL     1      78.112  78.102  79.501  1.00  0.00     0.000 C 
BRANCH   2   3
ATOM      3  C   UNL     1      78.045  78.239  77.972  1.00  0.00     0.000 C 
BRANCH   3   4
ATOM      4  C   UNL     1      78.609  79.582  77.474  1.00  0.00     0.000 C 
BRANCH   4   5
ATOM      5  C   UNL     1      79.016  80.514  78.628  1.00  0.00     0.000 C 
BRANCH   5   6
ATOM      6  C   UNL     1      80.491  80.947  78.548  1.00  0.00     0.006 C 
BRANCH   6   7
ATOM      7  C   UNL     1      81.406  80.047  79.390  1.00  0.00     0.053 C 
BRANCH   7   8
ATOM      8  C   UNL     1      82.758  80.661  79.596  1.00  0.00     0.041 C 
ATOM      9  O   UNL     1      83.368  80.499  80.686  1.00  0.00    -0.550 OA
ATOM     10  O   UNL     1      83.328  81.439  78.596  1.00  0.00    -0.550 OA
ENDBRANCH   7   8
ENDBRANCH   6   7
ENDBRANCH   5   6
ENDBRANCH   4   5
ENDBRANCH   3   4
ENDBRANCH   2   3
ENDBRANCH   1   2
BRANCH   1  11
ATOM     11  C   UNL     1      76.183  78.965  80.957  1.00  0.00     0.000 C 
BRANCH  11  12
ATOM     12  C   UNL     1      75.528  80.088  80.133  1.00  0.00     0.000 C 
BRANCH  12  13
ATOM     13  C   UNL     1      74.687  79.556  78.960  1.00  0.00     0.000 C 
BRANCH  13  14
ATOM     14  C   UNL     1      74.892  80.364  77.668  1.00  0.00     0.000 C 
BRANCH  14  15
ATOM     15  C   UNL     1      75.279  81.828  77.944  1.00  0.00     0.000 C 
BRANCH  15  16
ATOM     16  C   UNL     1      76.236  82.394  76.882  1.00  0.00     0.006 C 
BRANCH  16  17
ATOM     17  C   UNL     1      75.560  83.416  75.960  1.00  0.00     0.053 C 
BRANCH  17  18
ATOM     18  C   UNL     1      76.558  84.007  75.015  1.00  0.00     0.041 C 
ATOM     19  O   UNL     1      76.644  85.257  74.883  1.00  0.00    -0.550 OA
ATOM     20  O   UNL     1      77.429  83.179  74.317  1.00  0.00    -0.550 OA
ENDBRANCH  17  18
ENDBRANCH  16  17
ENDBRANCH  15  16
ENDBRANCH  14  15
ENDBRANCH  13  14
ENDBRANCH  12  13
ENDBRANCH  11  12
ENDBRANCH   1  11
TORSDOF 15
ENDMDL
MODEL 6
REMARK VINA RESULT:    -4.132      1.779      5.241
REMARK INTER + INTRA:          -9.397
REMARK INTER:                  -6.960
REMARK INTRA:                  -2.437
REMARK UNBOUND:                -1.641
REMARK SMILES O=C([O-])CCCCCCCCCCCCCCC(=O)[O-]
REMARK SMILES IDX 10 1 9 2 8 3 7 4 6 5 5 6 4 7 2 8 1 9 3 10 11 11 12 12 13 13
REMARK SMILES IDX 14 14 15 15 16 16 17 17 18 18 19 19 20 20
REMARK H PARENT
REMARK Flexibility Score: inf
ROOT
ATOM      1  C   UNL     1      75.487  81.689  78.755  1.00  0.00     0.000 C 
ENDROOT
BRANCH   1   2
ATOM      2  C   UNL     1      76.848  82.071  78.146  1.00  0.00     0.000 C 
BRANCH   2   3
ATOM      3  C   UNL     1      77.977  81.121  78.577  1.00  0.00     0.000 C 
BRANCH   3   4
ATOM      4  C   UNL     1      79.302  81.411  77.848  1.00  0.00     0.000 C 
BRANCH   4   5
ATOM      5  C   UNL     1      79.379  80.727  76.473  1.00  0.00     0.000 C 
BRANCH   5   6
ATOM      6  C   UNL     1      79.995  81.636  75.394  1.00  0.00     0.006 C 
BRANCH   6   7
ATOM      7  C   UNL     1      79.596  83.108  75.578  1.00  0.00     0.053 C 
BRANCH   7   8
ATOM      8  C   UNL     1      78.513  83.516  74.627  1.00  0.00     0.041 C 
ATOM      9  O   UNL     1      77.853  84.569  74.832  1.00  0.00    -0.550 OA
ATOM     10  O   UNL     1      78.211  82.718  73.531  1.00  0.00    -0.550 OA
ENDBRANCH   7   8
ENDBRANCH   6   7
ENDBRANCH   5   6
ENDBRANCH   4   5
ENDBRANCH   3   4
ENDBRANCH   2   3
ENDBRANCH   1   2
BRANCH   1  11
ATOM     11  C   UNL     1      75.519  80.337  79.492  1.00  0.00     0.000 C 
BRANCH  11  12
ATOM     12  C   UNL     1      74.685  79.220  78.839  1.00  0.00     0.000 C 
BRANCH  12  13
ATOM     13  C   UNL     1      75.440  78.492  77.713  1.00  0.00     0.000 C 
BRANCH  13  14
ATOM     14  C   UNL     1      74.976  78.924  76.312  1.00  0.00     0.000 C 
BRANCH  14  15
ATOM     15  C   UNL     1      76.064  79.695  75.543  1.00  0.00     0.000 C 
BRANCH  15  16
ATOM     16  C   UNL     1      75.500  80.905  74.781  1.00  0.00     0.006 C 
BRANCH  16  17
ATOM     17  C   UNL     1      74.119  81.337  75.293  1.00  0.00     0.053 C 
BRANCH  17  18
ATOM     18  C   UNL     1      73.920  82.805  75.082  1.00  0.00     0.041 C 
ATOM     19  O   UNL     1      72.957  83.220  74.386  1.00  0.00    -0.550 OA
ATOM     20  O   UNL     1      74.771  83.717  75.697  1.00  0.00    -0.550 OA
ENDBRANCH  17  18
ENDBRANCH  16  17
ENDBRANCH  15  16
ENDBRANCH  14  15
ENDBRANCH  13  14
ENDBRANCH  12  13
ENDBRANCH  11  12
ENDBRANCH   1  11
TORSDOF 15
ENDMDL
MODEL 7
REMARK VINA RESULT:    -4.102      0.918      5.168
REMARK INTER + INTRA:          -9.340
REMARK INTER:                  -7.573
REMARK INTRA:                  -1.767
REMARK UNBOUND:                -1.641
REMARK SMILES O=C([O-])CCCCCCCCCCCCCCC(=O)[O-]
REMARK SMILES IDX 10 1 9 2 8 3 7 4 6 5 5 6 4 7 2 8 1 9 3 10 11 11 12 12 13 13
REMARK SMILES IDX 14 14 15 15 16 16 17 17 18 18 19 19 20 20
REMARK H PARENT
REMARK Flexibility Score: inf
ROOT
ATOM      1  C   UNL     1      79.462  81.443  77.969  1.00  0.00     0.000 C 
ENDROOT
BRANCH   1   2
ATOM      2  C   UNL     1      80.886  81.604  77.409  1.00  0.00     0.000 C 
BRANCH   2   3
ATOM      3  C   UNL     1      80.915  82.377  76.080  1.00  0.00     0.000 C 
BRANCH   3   4
ATOM      4  C   UNL     1      80.092  81.687  74.978  1.00  0.00     0.000 C 
BRANCH   4   5
ATOM      5  C   UNL     1      79.028  82.616  74.368  1.00  0.00     0.000 C 
BRANCH   5   6
ATOM      6  C   UNL     1      77.595  82.095  74.580  1.00  0.00     0.006 C 
BRANCH   6   7
ATOM      7  C   UNL     1      76.849  82.877  75.671  1.00  0.00     0.053 C 
BRANCH   7   8
ATOM      8  C   UNL     1      76.055  84.013  75.102  1.00  0.00     0.041 C 
ATOM      9  O   UNL     1      76.606  85.125  74.885  1.00  0.00    -0.550 OA
ATOM     10  O   UNL     1      74.700  83.853  74.839  1.00  0.00    -0.550 OA
ENDBRANCH   7   8
ENDBRANCH   6   7
ENDBRANCH   5   6
ENDBRANCH   4   5
ENDBRANCH   3   4
ENDBRANCH   2   3
ENDBRANCH   1   2
BRANCH   1  11
ATOM     11  C   UNL     1      79.037  79.970  78.111  1.00  0.00     0.000 C 
BRANCH  11  12
ATOM     12  C   UNL     1      77.521  79.719  78.022  1.00  0.00     0.000 C 
BRANCH  12  13
ATOM     13  C   UNL     1      76.750  80.281  79.229  1.00  0.00     0.000 C 
BRANCH  13  14
ATOM     14  C   UNL     1      75.226  80.180  79.060  1.00  0.00     0.000 C 
BRANCH  14  15
ATOM     15  C   UNL     1      74.792  80.238  77.584  1.00  0.00     0.000 C 
BRANCH  15  16
ATOM     16  C   UNL     1      73.774  81.358  77.314  1.00  0.00     0.006 C 
BRANCH  16  17
ATOM     17  C   UNL     1      72.938  81.107  76.052  1.00  0.00     0.053 C 
BRANCH  17  18
ATOM     18  C   UNL     1      71.607  81.781  76.166  1.00  0.00     0.041 C 
ATOM     19  O   UNL     1      70.982  81.769  77.259  1.00  0.00    -0.550 OA
ATOM     20  O   UNL     1      71.079  82.465  75.077  1.00  0.00    -0.550 OA
ENDBRANCH  17  18
ENDBRANCH  16  17
ENDBRANCH  15  16
ENDBRANCH  14  15
ENDBRANCH  13  14
ENDBRANCH  12  13
ENDBRANCH  11  12
ENDBRANCH   1  11
TORSDOF 15
ENDMDL
MODEL 8
REMARK VINA RESULT:    -4.062      2.343      3.785
REMARK INTER + INTRA:          -9.266
REMARK INTER:                  -7.056
REMARK INTRA:                  -2.210
REMARK UNBOUND:                -1.641
REMARK SMILES O=C([O-])CCCCCCCCCCCCCCC(=O)[O-]
REMARK SMILES IDX 10 1 9 2 8 3 7 4 6 5 5 6 4 7 2 8 1 9 3 10 11 11 12 12 13 13
REMARK SMILES IDX 14 14 15 15 16 16 17 17 18 18 19 19 20 20
REMARK H PARENT
REMARK Flexibility Score: inf
ROOT
ATOM      1  C   UNL     1      80.845  81.435  76.704  1.00  0.00     0.000 C 
ENDROOT
BRANCH   1   2
ATOM      2  C   UNL     1      79.967  80.219  76.358  1.00  0.00     0.000 C 
BRANCH   2   3
ATOM      3  C   UNL     1      78.664  80.179  77.173  1.00  0.00     0.000 C 
BRANCH   3   4
ATOM      4  C   UNL     1      78.539  81.365  78.145  1.00  0.00     0.000 C 
BRANCH   4   5
ATOM      5  C   UNL     1      77.077  81.776  78.389  1.00  0.00     0.000 C 
BRANCH   5   6
ATOM      6  C   UNL     1      76.075  80.854  77.670  1.00  0.00     0.006 C 
BRANCH   6   7
ATOM      7  C   UNL     1      75.060  80.233  78.640  1.00  0.00     0.053 C 
BRANCH   7   8
ATOM      8  C   UNL     1      75.724  79.674  79.862  1.00  0.00     0.041 C 
ATOM      9  O   UNL     1      75.449  80.138  81.001  1.00  0.00    -0.550 OA
ATOM     10  O   UNL     1      76.669  78.663  79.740  1.00  0.00    -0.550 OA
ENDBRANCH   7   8
ENDBRANCH   6   7
ENDBRANCH   5   6
ENDBRANCH   4   5
ENDBRANCH   3   4
ENDBRANCH   2   3
ENDBRANCH   1   2
BRANCH   1  11
ATOM     11  C   UNL     1      80.945  82.450  75.550  1.00  0.00     0.000 C 
BRANCH  11  12
ATOM     12  C   UNL     1      79.714  83.355  75.371  1.00  0.00     0.000 C 
BRANCH  12  13
ATOM     13  C   UNL     1      78.795  82.894  74.226  1.00  0.00     0.000 C 
BRANCH  13  14
ATOM     14  C   UNL     1      77.340  82.688  74.679  1.00  0.00     0.000 C 
BRANCH  14  15
ATOM     15  C   UNL     1      76.643  84.011  75.040  1.00  0.00     0.000 C 
BRANCH  15  16
ATOM     16  C   UNL     1      75.266  83.793  75.688  1.00  0.00     0.006 C 
BRANCH  16  17
ATOM     17  C   UNL     1      74.295  83.034  74.774  1.00  0.00     0.053 C 
BRANCH  17  18
ATOM     18  C   UNL     1      72.992  82.805  75.474  1.00  0.00     0.041 C 
ATOM     19  O   UNL     1      71.911  82.833  74.828  1.00  0.00    -0.550 OA
ATOM     20  O   UNL     1      72.975  82.509  76.833  1.00  0.00    -0.550 OA
ENDBRANCH  17  18
ENDBRANCH  16  17
ENDBRANCH  15  16
ENDBRANCH  14  15
ENDBRANCH  13  14
ENDBRANCH  12  13
ENDBRANCH  11  12
ENDBRANCH   1  11
TORSDOF 15
ENDMDL
MODEL 9
REMARK VINA RESULT:    -4.028      1.990      5.781
REMARK INTER + INTRA:          -9.202
REMARK INTER:                  -6.709
REMARK INTRA:                  -2.493
REMARK UNBOUND:                -1.641
REMARK SMILES O=C([O-])CCCCCCCCCCCCCCC(=O)[O-]
REMARK SMILES IDX 10 1 9 2 8 3 7 4 6 5 5 6 4 7 2 8 1 9 3 10 11 11 12 12 13 13
REMARK SMILES IDX 14 14 15 15 16 16 17 17 18 18 19 19 20 20
REMARK H PARENT
REMARK Flexibility Score: inf
ROOT
ATOM      1  C   UNL     1      74.768  79.392  78.067  1.00  0.00     0.000 C 
ENDROOT
BRANCH   1   2
ATOM      2  C   UNL     1      75.540  80.285  79.055  1.00  0.00     0.000 C 
BRANCH   2   3
ATOM      3  C   UNL     1      75.391  81.782  78.740  1.00  0.00     0.000 C 
BRANCH   3   4
ATOM      4  C   UNL     1      76.359  82.253  77.640  1.00  0.00     0.000 C 
BRANCH   4   5
ATOM      5  C   UNL     1      77.783  81.704  77.834  1.00  0.00     0.000 C 
BRANCH   5   6
ATOM      6  C   UNL     1      78.628  81.784  76.549  1.00  0.00     0.006 C 
BRANCH   6   7
ATOM      7  C   UNL     1      77.760  81.775  75.282  1.00  0.00     0.053 C 
BRANCH   7   8
ATOM      8  C   UNL     1      78.118  82.894  74.352  1.00  0.00     0.041 C 
ATOM      9  O   UNL     1      78.478  82.646  73.171  1.00  0.00    -0.550 OA
ATOM     10  O   UNL     1      78.085  84.209  74.799  1.00  0.00    -0.550 OA
ENDBRANCH   7   8
ENDBRANCH   6   7
ENDBRANCH   5   6
ENDBRANCH   4   5
ENDBRANCH   3   4
ENDBRANCH   2   3
ENDBRANCH   1   2
BRANCH   1  11
ATOM     11  C   UNL     1      75.665  78.808  76.960  1.00  0.00     0.000 C 
BRANCH  11  12
ATOM     12  C   UNL     1      75.093  78.916  75.535  1.00  0.00     0.000 C 
BRANCH  12  13
ATOM     13  C   UNL     1      73.912  79.897  75.439  1.00  0.00     0.000 C 
BRANCH  13  14
ATOM     14  C   UNL     1      74.294  81.221  74.759  1.00  0.00     0.000 C 
BRANCH  14  15
ATOM     15  C   UNL     1      73.543  82.427  75.351  1.00  0.00     0.000 C 
BRANCH  15  16
ATOM     16  C   UNL     1      72.470  82.008  76.369  1.00  0.00     0.006 C 
BRANCH  16  17
ATOM     17  C   UNL     1      71.052  82.394  75.927  1.00  0.00     0.053 C 
BRANCH  17  18
ATOM     18  C   UNL     1      70.699  81.703  74.647  1.00  0.00     0.041 C 
ATOM     19  O   UNL     1      70.392  80.482  74.650  1.00  0.00    -0.550 OA
ATOM     20  O   UNL     1      70.660  82.422  73.458  1.00  0.00    -0.550 OA
ENDBRANCH  17  18
ENDBRANCH  16  17
ENDBRANCH  15  16
ENDBRANCH  14  15
ENDBRANCH  13  14
ENDBRANCH  12  13
ENDBRANCH  11  12
ENDBRANCH   1  11
TORSDOF 15
ENDMDL
