MODEL 1
REMARK VINA RESULT:     9.311      0.000      0.000
REMARK INTER + INTRA:          15.765
REMARK INTER:                  15.299
REMARK INTRA:                   0.466
REMARK UNBOUND:                 0.466
REMARK SMILES C[C@H]1O[C@@H](OC[C@@H]2O[C@H](Oc3c(-c4ccc(O)c(O)c4)oc4cc(O)cc(O)c4c3=O)[C@H](O)[C@H](O)[C@H]2O)[C@@H](O)[C@@H](O)[C@H]1O
REMARK SMILES IDX 7 1 36 2 34 3 32 4 9 5 8 6 6 7 5 8 4 9 1 10 2 11 42 12 3 13
REMARK SMILES IDX 40 14 38 15 43 16 41 18 39 20 37 22 35 24 10 26 11 27 12 28
REMARK SMILES IDX 30 29 21 30 29 31 31 32 22 33 27 34 23 35 26 36 24 37 13 38
REMARK SMILES IDX 20 39 14 40 18 41 15 42 16 43 19 44 17 46 28 48 25 50 33 52
REMARK H PARENT 43 17 41 19 39 21 37 23 35 25 19 45 17 47 28 49 25 51 33 53
REMARK Flexibility Score: inf
ROOT
ATOM      1  C   UNL     1      38.687 -31.216  11.551  1.00  0.00     0.180 C 
ATOM      2  C   UNL     1      39.028 -29.733  11.870  1.00  0.00     0.177 C 
ATOM      3  C   UNL     1      37.717 -28.883  11.897  1.00  0.00     0.180 C 
ATOM      4  C   UNL     1      36.820 -29.580  12.909  1.00  0.00     0.214 C 
ATOM      5  C   UNL     1      36.549 -31.098  12.513  1.00  0.00     0.339 C 
ATOM      6  O   UNL     1      37.310 -31.392  11.343  1.00  0.00    -0.332 OA
ENDROOT
BRANCH   1   7
ATOM      7  C   UNL     1      39.544 -31.812  10.354  1.00  0.00     0.198 C 
BRANCH   7   8
ATOM      8  O   UNL     1      40.911 -32.009  10.710  1.00  0.00    -0.347 OA
BRANCH   8   9
ATOM      9  C   UNL     1      41.161 -31.481  12.015  1.00  0.00     0.281 C 
ATOM     10  C   UNL     1      42.938 -30.125   9.902  1.00  0.00     0.041 C 
ATOM     11  C   UNL     1      43.256 -30.821  11.236  1.00  0.00     0.150 C 
ATOM     12  C   UNL     1      43.732 -32.355  11.390  1.00  0.00     0.174 C 
ATOM     13  O   UNL     1      42.159 -30.474  12.034  1.00  0.00    -0.344 OA
ATOM     14  C   UNL     1      43.134 -33.068  12.636  1.00  0.00     0.179 C 
ATOM     15  C   UNL     1      41.686 -32.563  13.008  1.00  0.00     0.202 C 
BRANCH  12  16
ATOM     16  O   UNL     1      43.630 -33.185  10.239  1.00  0.00    -0.388 OA
ATOM     17  H   UNL     1      42.709 -33.445  10.230  1.00  0.00     0.211 HD
ENDBRANCH  12  16
BRANCH  14  18
ATOM     18  O   UNL     1      43.204 -34.484  12.604  1.00  0.00    -0.387 OA
ATOM     19  H   UNL     1      43.065 -34.792  11.643  1.00  0.00     0.211 HD
ENDBRANCH  14  18
BRANCH  15  20
ATOM     20  O   UNL     1      40.729 -33.624  13.088  1.00  0.00    -0.385 OA
ATOM     21  H   UNL     1      40.914 -34.252  12.347  1.00  0.00     0.211 HD
ENDBRANCH  15  20
ENDBRANCH   8   9
ENDBRANCH   7   8
ENDBRANCH   1   7
BRANCH   2  22
ATOM     22  O   UNL     1      39.694 -29.670  13.098  1.00  0.00    -0.387 OA
ATOM     23  H   UNL     1      40.177 -28.822  13.139  1.00  0.00     0.211 HD
ENDBRANCH   2  22
BRANCH   3  24
ATOM     24  O   UNL     1      37.083 -28.875  10.639  1.00  0.00    -0.387 OA
ATOM     25  H   UNL     1      37.146 -29.801  10.275  1.00  0.00     0.211 HD
ENDBRANCH   3  24
BRANCH   5  26
ATOM     26  O   UNL     1      35.167 -31.265  12.234  1.00  0.00    -0.454 OA
BRANCH  26  27
ATOM     27  C   UNL     1      34.504 -32.208  11.367  1.00  0.00     0.214 A 
ATOM     28  C   UNL     1      34.748 -32.334   9.974  1.00  0.00     0.180 A 
ATOM     29  C   UNL     1      33.499 -33.013  11.933  1.00  0.00     0.239 A 
ATOM     30  O   UNL     1      34.166 -33.284   9.298  1.00  0.00    -0.452 OA
ATOM     31  C   UNL     1      32.861 -34.008  11.165  1.00  0.00     0.111 A 
ATOM     32  O   UNL     1      33.138 -32.819  13.125  1.00  0.00    -0.285 OA
ATOM     33  C   UNL     1      33.236 -34.084   9.787  1.00  0.00     0.146 A 
ATOM     34  C   UNL     1      31.818 -34.871  11.600  1.00  0.00     0.134 A 
ATOM     35  C   UNL     1      32.568 -34.957   8.922  1.00  0.00     0.094 A 
ATOM     36  C   UNL     1      31.134 -35.698  10.699  1.00  0.00     0.093 A 
ATOM     37  C   UNL     1      31.494 -35.715   9.341  1.00  0.00     0.123 A 
BRANCH  28  38
ATOM     38  C   UNL     1      35.461 -31.356   9.123  1.00  0.00     0.025 A 
ATOM     39  C   UNL     1      36.438 -31.807   8.206  1.00  0.00     0.062 A 
ATOM     40  C   UNL     1      34.852 -30.103   8.942  1.00  0.00     0.016 A 
ATOM     41  C   UNL     1      36.773 -31.011   7.098  1.00  0.00     0.158 A 
ATOM     42  C   UNL     1      35.180 -29.319   7.846  1.00  0.00     0.051 A 
ATOM     43  C   UNL     1      36.197 -29.715   6.975  1.00  0.00     0.157 A 
BRANCH  41  44
ATOM     44  O   UNL     1      37.678 -31.456   6.117  1.00  0.00    -0.504 OA
ATOM     45  H   UNL     1      38.038 -30.796   5.420  1.00  0.00     0.293 HD
ENDBRANCH  41  44
BRANCH  43  46
ATOM     46  O   UNL     1      36.629 -28.875   5.953  1.00  0.00    -0.504 OA
ATOM     47  H   UNL     1      36.342 -27.897   5.898  1.00  0.00     0.293 HD
ENDBRANCH  43  46
ENDBRANCH  28  38
BRANCH  34  48
ATOM     48  O   UNL     1      31.439 -35.001  12.943  1.00  0.00    -0.507 OA
ATOM     49  H   UNL     1      30.570 -34.652  13.312  1.00  0.00     0.293 HD
ENDBRANCH  34  48
BRANCH  37  50
ATOM     50  O   UNL     1      30.797 -36.505   8.445  1.00  0.00    -0.508 OA
ATOM     51  H   UNL     1      30.386 -36.165   7.591  1.00  0.00     0.293 HD
ENDBRANCH  37  50
ENDBRANCH  26  27
ENDBRANCH   5  26
BRANCH   4  52
ATOM     52  O   UNL     1      35.608 -28.877  13.018  1.00  0.00    -0.384 OA
ATOM     53  H   UNL     1      35.652 -28.356  13.886  1.00  0.00     0.211 HD
ENDBRANCH   4  52
TORSDOF 16
ENDMDL
