MODEL 1
REMARK VINA RESULT:    -4.973      0.000      0.000
REMARK INTER + INTRA:         -13.427
REMARK INTER:                 -10.787
REMARK INTRA:                  -2.640
REMARK UNBOUND:                -2.640
REMARK SMILES CCCCCCCCCCCCCCCCCCCCCC(=O)[O-]
REMARK SMILES IDX 12 1 11 2 10 3 9 4 8 5 7 6 6 7 5 8 4 9 3 10 2 11 1 12 13 13
REMARK SMILES IDX 14 14 15 15 16 16 17 17 18 18 19 19 20 20 21 21 22 22 23 23
REMARK SMILES IDX 24 24
REMARK H PARENT
REMARK Flexibility Score: inf
ROOT
ATOM      1  C   UNL     1      11.732 -15.983  10.100  1.00  0.00     0.000 C 
ENDROOT
BRANCH   1   2
ATOM      2  C   UNL     1      12.332 -17.394  10.280  1.00  0.00     0.000 C 
BRANCH   2   3
ATOM      3  C   UNL     1      12.814 -18.037   8.965  1.00  0.00     0.000 C 
BRANCH   3   4
ATOM      4  C   UNL     1      11.947 -19.200   8.443  1.00  0.00    -0.000 C 
BRANCH   4   5
ATOM      5  C   UNL     1      10.510 -19.230   8.995  1.00  0.00    -0.000 C 
BRANCH   5   6
ATOM      6  C   UNL     1       9.447 -19.312   7.886  1.00  0.00    -0.000 C 
BRANCH   6   7
ATOM      7  C   UNL     1       9.619 -18.202   6.832  1.00  0.00    -0.000 C 
BRANCH   7   8
ATOM      8  C   UNL     1       9.098 -16.829   7.300  1.00  0.00    -0.000 C 
BRANCH   8   9
ATOM      9  C   UNL     1       8.787 -15.893   6.118  1.00  0.00    -0.000 C 
BRANCH   9  10
ATOM     10  C   UNL     1       9.105 -16.531   4.756  1.00  0.00    -0.000 C 
BRANCH  10  11
ATOM     11  C   UNL     1       7.868 -16.654   3.855  1.00  0.00    -0.003 C 
ATOM     12  C   UNL     1       7.177 -18.000   4.053  1.00  0.00     0.004 C 
ENDBRANCH  10  11
ENDBRANCH   9  10
ENDBRANCH   8   9
ENDBRANCH   7   8
ENDBRANCH   6   7
ENDBRANCH   5   6
ENDBRANCH   4   5
ENDBRANCH   3   4
ENDBRANCH   2   3
ENDBRANCH   1   2
BRANCH   1  13
ATOM     13  C   UNL     1      10.724 -15.626  11.208  1.00  0.00     0.000 C 
BRANCH  13  14
ATOM     14  C   UNL     1      11.129 -16.215  12.569  1.00  0.00     0.000 C 
BRANCH  14  15
ATOM     15  C   UNL     1      11.305 -15.135  13.650  1.00  0.00     0.000 C 
BRANCH  15  16
ATOM     16  C   UNL     1      11.436 -15.741  15.064  1.00  0.00     0.000 C 
BRANCH  16  17
ATOM     17  C   UNL     1      12.698 -15.280  15.820  1.00  0.00     0.000 C 
BRANCH  17  18
ATOM     18  C   UNL     1      13.611 -16.416  16.317  1.00  0.00     0.000 C 
BRANCH  18  19
ATOM     19  C   UNL     1      13.656 -17.652  15.399  1.00  0.00     0.000 C 
BRANCH  19  20
ATOM     20  C   UNL     1      14.927 -17.709  14.535  1.00  0.00     0.006 C 
BRANCH  20  21
ATOM     21  C   UNL     1      14.670 -17.229  13.100  1.00  0.00     0.053 C 
BRANCH  21  22
ATOM     22  C   UNL     1      15.055 -15.791  12.919  1.00  0.00     0.041 C 
ATOM     23  O   UNL     1      14.632 -15.142  11.927  1.00  0.00    -0.550 OA
ATOM     24  O   UNL     1      15.851 -15.163  13.866  1.00  0.00    -0.550 OA
ENDBRANCH  21  22
ENDBRANCH  20  21
ENDBRANCH  19  20
ENDBRANCH  18  19
ENDBRANCH  17  18
ENDBRANCH  16  17
ENDBRANCH  15  16
ENDBRANCH  14  15
ENDBRANCH  13  14
ENDBRANCH   1  13
TORSDOF 20
ENDMDL
MODEL 2
REMARK VINA RESULT:    -4.849      1.896      4.634
REMARK INTER + INTRA:         -13.158
REMARK INTER:                 -10.487
REMARK INTRA:                  -2.671
REMARK UNBOUND:                -2.640
REMARK SMILES CCCCCCCCCCCCCCCCCCCCCC(=O)[O-]
REMARK SMILES IDX 12 1 11 2 10 3 9 4 8 5 7 6 6 7 5 8 4 9 3 10 2 11 1 12 13 13
REMARK SMILES IDX 14 14 15 15 16 16 17 17 18 18 19 19 20 20 21 21 22 22 23 23
REMARK SMILES IDX 24 24
REMARK H PARENT
REMARK Flexibility Score: inf
ROOT
ATOM      1  C   UNL     1       8.924 -16.639   6.949  1.00  0.00     0.000 C 
ENDROOT
BRANCH   1   2
ATOM      2  C   UNL     1       8.625 -15.882   5.638  1.00  0.00     0.000 C 
BRANCH   2   3
ATOM      3  C   UNL     1       9.836 -15.774   4.692  1.00  0.00     0.000 C 
BRANCH   3   4
ATOM      4  C   UNL     1       9.756 -16.637   3.417  1.00  0.00    -0.000 C 
BRANCH   4   5
ATOM      5  C   UNL     1       8.358 -16.712   2.776  1.00  0.00    -0.000 C 
BRANCH   5   6
ATOM      6  C   UNL     1       7.770 -18.133   2.790  1.00  0.00    -0.000 C 
BRANCH   6   7
ATOM      7  C   UNL     1       6.447 -18.207   3.575  1.00  0.00    -0.000 C 
BRANCH   7   8
ATOM      8  C   UNL     1       6.557 -19.014   4.884  1.00  0.00    -0.000 C 
BRANCH   8   9
ATOM      9  C   UNL     1       7.810 -19.909   4.909  1.00  0.00    -0.000 C 
BRANCH   9  10
ATOM     10  C   UNL     1       8.300 -20.203   6.336  1.00  0.00    -0.000 C 
BRANCH  10  11
ATOM     11  C   UNL     1       9.828 -20.325   6.426  1.00  0.00    -0.003 C 
ATOM     12  C   UNL     1      10.500 -19.696   5.209  1.00  0.00     0.004 C 
ENDBRANCH  10  11
ENDBRANCH   9  10
ENDBRANCH   8   9
ENDBRANCH   7   8
ENDBRANCH   6   7
ENDBRANCH   5   6
ENDBRANCH   4   5
ENDBRANCH   3   4
ENDBRANCH   2   3
ENDBRANCH   1   2
BRANCH   1  13
ATOM     13  C   UNL     1      10.231 -16.169   7.615  1.00  0.00     0.000 C 
BRANCH  13  14
ATOM     14  C   UNL     1      11.125 -17.350   8.028  1.00  0.00     0.000 C 
BRANCH  14  15
ATOM     15  C   UNL     1      11.346 -17.419   9.549  1.00  0.00     0.000 C 
BRANCH  15  16
ATOM     16  C   UNL     1      11.229 -16.034  10.218  1.00  0.00     0.000 C 
BRANCH  16  17
ATOM     17  C   UNL     1      11.754 -16.002  11.668  1.00  0.00     0.000 C 
BRANCH  17  18
ATOM     18  C   UNL     1      10.672 -15.822  12.749  1.00  0.00     0.000 C 
BRANCH  18  19
ATOM     19  C   UNL     1      11.124 -16.180  14.177  1.00  0.00     0.000 C 
BRANCH  19  20
ATOM     20  C   UNL     1      11.230 -14.951  15.096  1.00  0.00     0.006 C 
BRANCH  20  21
ATOM     21  C   UNL     1      12.622 -14.821  15.727  1.00  0.00     0.053 C 
BRANCH  21  22
ATOM     22  C   UNL     1      13.502 -13.895  14.942  1.00  0.00     0.041 C 
ATOM     23  O   UNL     1      14.107 -14.311  13.919  1.00  0.00    -0.550 OA
ATOM     24  O   UNL     1      13.624 -12.566  15.324  1.00  0.00    -0.550 OA
ENDBRANCH  21  22
ENDBRANCH  20  21
ENDBRANCH  19  20
ENDBRANCH  18  19
ENDBRANCH  17  18
ENDBRANCH  16  17
ENDBRANCH  15  16
ENDBRANCH  14  15
ENDBRANCH  13  14
ENDBRANCH   1  13
TORSDOF 20
ENDMDL
MODEL 3
REMARK VINA RESULT:    -4.836      1.311      2.834
REMARK INTER + INTRA:         -13.129
REMARK INTER:                 -10.765
REMARK INTRA:                  -2.365
REMARK UNBOUND:                -2.640
REMARK SMILES CCCCCCCCCCCCCCCCCCCCCC(=O)[O-]
REMARK SMILES IDX 12 1 11 2 10 3 9 4 8 5 7 6 6 7 5 8 4 9 3 10 2 11 1 12 13 13
REMARK SMILES IDX 14 14 15 15 16 16 17 17 18 18 19 19 20 20 21 21 22 22 23 23
REMARK SMILES IDX 24 24
REMARK H PARENT
REMARK Flexibility Score: inf
ROOT
ATOM      1  C   UNL     1      11.085 -15.116  13.676  1.00  0.00     0.000 C 
ENDROOT
BRANCH   1   2
ATOM      2  C   UNL     1      11.010 -16.298  12.688  1.00  0.00     0.000 C 
BRANCH   2   3
ATOM      3  C   UNL     1      10.997 -15.871  11.207  1.00  0.00     0.000 C 
BRANCH   3   4
ATOM      4  C   UNL     1      11.504 -16.932  10.211  1.00  0.00    -0.000 C 
BRANCH   4   5
ATOM      5  C   UNL     1      11.725 -16.415   8.777  1.00  0.00    -0.000 C 
BRANCH   5   6
ATOM      6  C   UNL     1      10.409 -16.203   8.009  1.00  0.00    -0.000 C 
BRANCH   6   7
ATOM      7  C   UNL     1       9.718 -17.536   7.662  1.00  0.00    -0.000 C 
BRANCH   7   8
ATOM      8  C   UNL     1       8.507 -17.370   6.723  1.00  0.00    -0.000 C 
BRANCH   8   9
ATOM      9  C   UNL     1       8.635 -16.125   5.825  1.00  0.00    -0.000 C 
BRANCH   9  10
ATOM     10  C   UNL     1       8.269 -16.411   4.360  1.00  0.00    -0.000 C 
BRANCH  10  11
ATOM     11  C   UNL     1       7.519 -17.739   4.183  1.00  0.00    -0.003 C 
ATOM     12  C   UNL     1       7.424 -18.123   2.709  1.00  0.00     0.004 C 
ENDBRANCH  10  11
ENDBRANCH   9  10
ENDBRANCH   8   9
ENDBRANCH   7   8
ENDBRANCH   6   7
ENDBRANCH   5   6
ENDBRANCH   4   5
ENDBRANCH   3   4
ENDBRANCH   2   3
ENDBRANCH   1   2
BRANCH   1  13
ATOM     13  C   UNL     1      11.397 -15.569  15.115  1.00  0.00     0.000 C 
BRANCH  13  14
ATOM     14  C   UNL     1      12.780 -15.088  15.585  1.00  0.00     0.000 C 
BRANCH  14  15
ATOM     15  C   UNL     1      13.587 -16.200  16.278  1.00  0.00     0.000 C 
BRANCH  15  16
ATOM     16  C   UNL     1      13.636 -17.494  15.439  1.00  0.00     0.000 C 
BRANCH  16  17
ATOM     17  C   UNL     1      15.061 -17.901  15.013  1.00  0.00     0.000 C 
BRANCH  17  18
ATOM     18  C   UNL     1      15.637 -17.108  13.824  1.00  0.00     0.000 C 
BRANCH  18  19
ATOM     19  C   UNL     1      14.642 -16.863  12.674  1.00  0.00     0.000 C 
BRANCH  19  20
ATOM     20  C   UNL     1      14.613 -15.395  12.214  1.00  0.00     0.006 C 
BRANCH  20  21
ATOM     21  C   UNL     1      15.930 -14.669  12.517  1.00  0.00     0.053 C 
BRANCH  21  22
ATOM     22  C   UNL     1      15.695 -13.350  13.187  1.00  0.00     0.041 C 
ATOM     23  O   UNL     1      15.567 -12.303  12.498  1.00  0.00    -0.550 OA
ATOM     24  O   UNL     1      15.583 -13.284  14.568  1.00  0.00    -0.550 OA
ENDBRANCH  21  22
ENDBRANCH  20  21
ENDBRANCH  19  20
ENDBRANCH  18  19
ENDBRANCH  17  18
ENDBRANCH  16  17
ENDBRANCH  15  16
ENDBRANCH  14  15
ENDBRANCH  13  14
ENDBRANCH   1  13
TORSDOF 20
ENDMDL
MODEL 4
REMARK VINA RESULT:    -4.826      1.692      4.797
REMARK INTER + INTRA:         -13.108
REMARK INTER:                 -10.487
REMARK INTRA:                  -2.622
REMARK UNBOUND:                -2.640
REMARK SMILES CCCCCCCCCCCCCCCCCCCCCC(=O)[O-]
REMARK SMILES IDX 12 1 11 2 10 3 9 4 8 5 7 6 6 7 5 8 4 9 3 10 2 11 1 12 13 13
REMARK SMILES IDX 14 14 15 15 16 16 17 17 18 18 19 19 20 20 21 21 22 22 23 23
REMARK SMILES IDX 24 24
REMARK H PARENT
REMARK Flexibility Score: inf
ROOT
ATOM      1  C   UNL     1       9.106 -20.735   7.914  1.00  0.00     0.000 C 
ENDROOT
BRANCH   1   2
ATOM      2  C   UNL     1       8.662 -19.423   7.235  1.00  0.00     0.000 C 
BRANCH   2   3
ATOM      3  C   UNL     1       8.251 -19.595   5.759  1.00  0.00     0.000 C 
BRANCH   3   4
ATOM      4  C   UNL     1       6.762 -19.336   5.455  1.00  0.00    -0.000 C 
BRANCH   4   5
ATOM      5  C   UNL     1       6.497 -18.557   4.154  1.00  0.00    -0.000 C 
BRANCH   5   6
ATOM      6  C   UNL     1       7.791 -18.135   3.436  1.00  0.00    -0.000 C 
BRANCH   6   7
ATOM      7  C   UNL     1       8.037 -16.617   3.528  1.00  0.00    -0.000 C 
BRANCH   7   8
ATOM      8  C   UNL     1       9.185 -16.241   4.484  1.00  0.00    -0.000 C 
BRANCH   8   9
ATOM      9  C   UNL     1       8.673 -15.869   5.888  1.00  0.00    -0.000 C 
BRANCH   9  10
ATOM     10  C   UNL     1       9.754 -16.016   6.971  1.00  0.00    -0.000 C 
BRANCH  10  11
ATOM     11  C   UNL     1      11.175 -16.039   6.393  1.00  0.00    -0.003 C 
ATOM     12  C   UNL     1      11.968 -14.812   6.837  1.00  0.00     0.004 C 
ENDBRANCH  10  11
ENDBRANCH   9  10
ENDBRANCH   8   9
ENDBRANCH   7   8
ENDBRANCH   6   7
ENDBRANCH   5   6
ENDBRANCH   4   5
ENDBRANCH   3   4
ENDBRANCH   2   3
ENDBRANCH   1   2
BRANCH   1  13
ATOM     13  C   UNL     1      10.335 -20.543   8.821  1.00  0.00     0.000 C 
BRANCH  13  14
ATOM     14  C   UNL     1      10.704 -19.059   8.986  1.00  0.00     0.000 C 
BRANCH  14  15
ATOM     15  C   UNL     1      12.225 -18.832   9.042  1.00  0.00     0.000 C 
BRANCH  15  16
ATOM     16  C   UNL     1      12.583 -17.391   9.463  1.00  0.00     0.000 C 
BRANCH  16  17
ATOM     17  C   UNL     1      11.424 -16.643  10.154  1.00  0.00     0.000 C 
BRANCH  17  18
ATOM     18  C   UNL     1      11.785 -15.986  11.500  1.00  0.00     0.000 C 
BRANCH  18  19
ATOM     19  C   UNL     1      10.610 -15.855  12.487  1.00  0.00     0.000 C 
BRANCH  19  20
ATOM     20  C   UNL     1      11.070 -15.580  13.929  1.00  0.00     0.006 C 
BRANCH  20  21
ATOM     21  C   UNL     1      12.599 -15.535  14.048  1.00  0.00     0.053 C 
BRANCH  21  22
ATOM     22  C   UNL     1      13.128 -16.698  14.831  1.00  0.00     0.041 C 
ATOM     23  O   UNL     1      13.446 -17.766  14.244  1.00  0.00    -0.550 OA
ATOM     24  O   UNL     1      13.301 -16.588  16.204  1.00  0.00    -0.550 OA
ENDBRANCH  21  22
ENDBRANCH  20  21
ENDBRANCH  19  20
ENDBRANCH  18  19
ENDBRANCH  17  18
ENDBRANCH  16  17
ENDBRANCH  15  16
ENDBRANCH  14  15
ENDBRANCH  13  14
ENDBRANCH   1  13
TORSDOF 20
ENDMDL
MODEL 5
REMARK VINA RESULT:    -4.801      2.389      5.055
REMARK INTER + INTRA:         -13.055
REMARK INTER:                 -10.591
REMARK INTRA:                  -2.464
REMARK UNBOUND:                -2.640
REMARK SMILES CCCCCCCCCCCCCCCCCCCCCC(=O)[O-]
REMARK SMILES IDX 12 1 11 2 10 3 9 4 8 5 7 6 6 7 5 8 4 9 3 10 2 11 1 12 13 13
REMARK SMILES IDX 14 14 15 15 16 16 17 17 18 18 19 19 20 20 21 21 22 22 23 23
REMARK SMILES IDX 24 24
REMARK H PARENT
REMARK Flexibility Score: inf
ROOT
ATOM      1  C   UNL     1      13.518 -15.498  15.728  1.00  0.00     0.000 C 
ENDROOT
BRANCH   1   2
ATOM      2  C   UNL     1      12.148 -15.146  16.343  1.00  0.00     0.000 C 
BRANCH   2   3
ATOM      3  C   UNL     1      10.991 -15.147  15.325  1.00  0.00     0.000 C 
BRANCH   3   4
ATOM      4  C   UNL     1      11.416 -15.128  13.843  1.00  0.00    -0.000 C 
BRANCH   4   5
ATOM      5  C   UNL     1      10.598 -16.058  12.927  1.00  0.00    -0.000 C 
BRANCH   5   6
ATOM      6  C   UNL     1      10.624 -15.617  11.454  1.00  0.00    -0.000 C 
BRANCH   6   7
ATOM      7  C   UNL     1      11.886 -16.111  10.722  1.00  0.00    -0.000 C 
BRANCH   7   8
ATOM      8  C   UNL     1      11.575 -16.948   9.465  1.00  0.00    -0.000 C 
BRANCH   8   9
ATOM      9  C   UNL     1      10.537 -16.265   8.555  1.00  0.00    -0.000 C 
BRANCH   9  10
ATOM     10  C   UNL     1      10.165 -17.121   7.333  1.00  0.00    -0.000 C 
BRANCH  10  11
ATOM     11  C   UNL     1       8.664 -17.082   7.016  1.00  0.00    -0.003 C 
ATOM     12  C   UNL     1       8.086 -18.492   6.931  1.00  0.00     0.004 C 
ENDBRANCH  10  11
ENDBRANCH   9  10
ENDBRANCH   8   9
ENDBRANCH   7   8
ENDBRANCH   6   7
ENDBRANCH   5   6
ENDBRANCH   4   5
ENDBRANCH   3   4
ENDBRANCH   2   3
ENDBRANCH   1   2
BRANCH   1  13
ATOM     13  C   UNL     1      14.184 -16.700  16.422  1.00  0.00     0.000 C 
BRANCH  13  14
ATOM     14  C   UNL     1      14.726 -17.724  15.410  1.00  0.00     0.000 C 
BRANCH  14  15
ATOM     15  C   UNL     1      14.012 -17.643  14.049  1.00  0.00     0.000 C 
BRANCH  15  16
ATOM     16  C   UNL     1      14.982 -17.283  12.904  1.00  0.00     0.000 C 
BRANCH  16  17
ATOM     17  C   UNL     1      14.867 -15.818  12.434  1.00  0.00     0.000 C 
BRANCH  17  18
ATOM     18  C   UNL     1      15.820 -14.833  13.137  1.00  0.00     0.000 C 
BRANCH  18  19
ATOM     19  C   UNL     1      15.379 -13.359  13.075  1.00  0.00     0.000 C 
BRANCH  19  20
ATOM     20  C   UNL     1      15.314 -12.696  14.462  1.00  0.00     0.006 C 
BRANCH  20  21
ATOM     21  C   UNL     1      13.930 -12.101  14.752  1.00  0.00     0.053 C 
BRANCH  21  22
ATOM     22  C   UNL     1      13.936 -10.606  14.646  1.00  0.00     0.041 C 
ATOM     23  O   UNL     1      13.025  -9.928  15.190  1.00  0.00    -0.550 OA
ATOM     24  O   UNL     1      14.967  -9.963  13.975  1.00  0.00    -0.550 OA
ENDBRANCH  21  22
ENDBRANCH  20  21
ENDBRANCH  19  20
ENDBRANCH  18  19
ENDBRANCH  17  18
ENDBRANCH  16  17
ENDBRANCH  15  16
ENDBRANCH  14  15
ENDBRANCH  13  14
ENDBRANCH   1  13
TORSDOF 20
ENDMDL
MODEL 6
REMARK VINA RESULT:    -4.789      3.275      8.453
REMARK INTER + INTRA:         -13.028
REMARK INTER:                 -10.548
REMARK INTRA:                  -2.481
REMARK UNBOUND:                -2.640
REMARK SMILES CCCCCCCCCCCCCCCCCCCCCC(=O)[O-]
REMARK SMILES IDX 12 1 11 2 10 3 9 4 8 5 7 6 6 7 5 8 4 9 3 10 2 11 1 12 13 13
REMARK SMILES IDX 14 14 15 15 16 16 17 17 18 18 19 19 20 20 21 21 22 22 23 23
REMARK SMILES IDX 24 24
REMARK H PARENT
REMARK Flexibility Score: inf
ROOT
ATOM      1  C   UNL     1      12.111 -15.869  15.159  1.00  0.00     0.000 C 
ENDROOT
BRANCH   1   2
ATOM      2  C   UNL     1      13.357 -16.708  15.511  1.00  0.00     0.000 C 
BRANCH   2   3
ATOM      3  C   UNL     1      13.707 -17.775  14.455  1.00  0.00     0.000 C 
BRANCH   3   4
ATOM      4  C   UNL     1      14.941 -17.464  13.586  1.00  0.00    -0.000 C 
BRANCH   4   5
ATOM      5  C   UNL     1      15.894 -16.408  14.176  1.00  0.00    -0.000 C 
BRANCH   5   6
ATOM      6  C   UNL     1      15.970 -15.130  13.324  1.00  0.00    -0.000 C 
BRANCH   6   7
ATOM      7  C   UNL     1      14.699 -14.270  13.452  1.00  0.00    -0.000 C 
BRANCH   7   8
ATOM      8  C   UNL     1      14.988 -12.809  13.850  1.00  0.00    -0.000 C 
BRANCH   8   9
ATOM      9  C   UNL     1      14.131 -12.353  15.046  1.00  0.00    -0.000 C 
BRANCH   9  10
ATOM     10  C   UNL     1      13.558 -10.939  14.861  1.00  0.00    -0.000 C 
BRANCH  10  11
ATOM     11  C   UNL     1      12.048 -10.870  15.127  1.00  0.00    -0.003 C 
ATOM     12  C   UNL     1      11.481 -12.256  15.424  1.00  0.00     0.004 C 
ENDBRANCH  10  11
ENDBRANCH   9  10
ENDBRANCH   8   9
ENDBRANCH   7   8
ENDBRANCH   6   7
ENDBRANCH   5   6
ENDBRANCH   4   5
ENDBRANCH   3   4
ENDBRANCH   2   3
ENDBRANCH   1   2
BRANCH   1  13
ATOM     13  C   UNL     1      11.272 -16.504  14.035  1.00  0.00     0.000 C 
BRANCH  13  14
ATOM     14  C   UNL     1      10.847 -15.471  12.978  1.00  0.00     0.000 C 
BRANCH  14  15
ATOM     15  C   UNL     1      11.059 -15.975  11.540  1.00  0.00     0.000 C 
BRANCH  15  16
ATOM     16  C   UNL     1      12.532 -16.347  11.265  1.00  0.00     0.000 C 
BRANCH  16  17
ATOM     17  C   UNL     1      12.704 -17.420  10.170  1.00  0.00     0.000 C 
BRANCH  17  18
ATOM     18  C   UNL     1      11.422 -17.760   9.385  1.00  0.00     0.000 C 
BRANCH  18  19
ATOM     19  C   UNL     1      11.312 -17.078   8.009  1.00  0.00     0.000 C 
BRANCH  19  20
ATOM     20  C   UNL     1      10.048 -16.211   7.873  1.00  0.00     0.006 C 
BRANCH  20  21
ATOM     21  C   UNL     1       9.069 -16.779   6.837  1.00  0.00     0.053 C 
BRANCH  21  22
ATOM     22  C   UNL     1       9.051 -15.958   5.583  1.00  0.00     0.041 C 
ATOM     23  O   UNL     1       9.894 -15.038   5.415  1.00  0.00    -0.550 OA
ATOM     24  O   UNL     1       8.125 -16.235   4.587  1.00  0.00    -0.550 OA
ENDBRANCH  21  22
ENDBRANCH  20  21
ENDBRANCH  19  20
ENDBRANCH  18  19
ENDBRANCH  17  18
ENDBRANCH  16  17
ENDBRANCH  15  16
ENDBRANCH  14  15
ENDBRANCH  13  14
ENDBRANCH   1  13
TORSDOF 20
ENDMDL
MODEL 7
REMARK VINA RESULT:    -4.757      4.927      8.232
REMARK INTER + INTRA:         -12.958
REMARK INTER:                  -9.782
REMARK INTRA:                  -3.177
REMARK UNBOUND:                -2.640
REMARK SMILES CCCCCCCCCCCCCCCCCCCCCC(=O)[O-]
REMARK SMILES IDX 12 1 11 2 10 3 9 4 8 5 7 6 6 7 5 8 4 9 3 10 2 11 1 12 13 13
REMARK SMILES IDX 14 14 15 15 16 16 17 17 18 18 19 19 20 20 21 21 22 22 23 23
REMARK SMILES IDX 24 24
REMARK H PARENT
REMARK Flexibility Score: inf
ROOT
ATOM      1  C   UNL     1      12.849 -11.728  14.976  1.00  0.00     0.000 C 
ENDROOT
BRANCH   1   2
ATOM      2  C   UNL     1      11.554 -12.509  15.279  1.00  0.00     0.000 C 
BRANCH   2   3
ATOM      3  C   UNL     1      11.749 -13.679  16.264  1.00  0.00     0.000 C 
BRANCH   3   4
ATOM      4  C   UNL     1      11.264 -15.053  15.761  1.00  0.00    -0.000 C 
BRANCH   4   5
ATOM      5  C   UNL     1      12.320 -15.864  14.987  1.00  0.00    -0.000 C 
BRANCH   5   6
ATOM      6  C   UNL     1      13.469 -16.357  15.884  1.00  0.00    -0.000 C 
BRANCH   6   7
ATOM      7  C   UNL     1      14.105 -17.655  15.353  1.00  0.00    -0.000 C 
BRANCH   7   8
ATOM      8  C   UNL     1      15.503 -17.444  14.738  1.00  0.00    -0.000 C 
BRANCH   8   9
ATOM      9  C   UNL     1      15.505 -17.659  13.213  1.00  0.00    -0.000 C 
BRANCH   9  10
ATOM     10  C   UNL     1      15.194 -16.372  12.432  1.00  0.00    -0.000 C 
BRANCH  10  11
ATOM     11  C   UNL     1      14.686 -16.649  11.010  1.00  0.00    -0.003 C 
ATOM     12  C   UNL     1      13.389 -17.453  11.038  1.00  0.00     0.004 C 
ENDBRANCH  10  11
ENDBRANCH   9  10
ENDBRANCH   8   9
ENDBRANCH   7   8
ENDBRANCH   6   7
ENDBRANCH   5   6
ENDBRANCH   4   5
ENDBRANCH   3   4
ENDBRANCH   2   3
ENDBRANCH   1   2
BRANCH   1  13
ATOM     13  C   UNL     1      14.116 -12.546  15.282  1.00  0.00     0.000 C 
BRANCH  13  14
ATOM     14  C   UNL     1      14.727 -13.163  14.013  1.00  0.00     0.000 C 
BRANCH  14  15
ATOM     15  C   UNL     1      16.251 -13.344  14.119  1.00  0.00     0.000 C 
BRANCH  15  16
ATOM     16  C   UNL     1      16.980 -12.899  12.834  1.00  0.00     0.000 C 
BRANCH  16  17
ATOM     17  C   UNL     1      16.075 -12.146  11.838  1.00  0.00     0.000 C 
BRANCH  17  18
ATOM     18  C   UNL     1      16.473 -10.681  11.576  1.00  0.00     0.000 C 
BRANCH  18  19
ATOM     19  C   UNL     1      15.478  -9.638  12.118  1.00  0.00     0.000 C 
BRANCH  19  20
ATOM     20  C   UNL     1      15.551  -9.481  13.647  1.00  0.00     0.006 C 
BRANCH  20  21
ATOM     21  C   UNL     1      16.912  -8.943  14.106  1.00  0.00     0.053 C 
BRANCH  21  22
ATOM     22  C   UNL     1      17.116  -7.519  13.685  1.00  0.00     0.041 C 
ATOM     23  O   UNL     1      18.132  -7.195  13.015  1.00  0.00    -0.550 OA
ATOM     24  O   UNL     1      16.165  -6.559  14.004  1.00  0.00    -0.550 OA
ENDBRANCH  21  22
ENDBRANCH  20  21
ENDBRANCH  19  20
ENDBRANCH  18  19
ENDBRANCH  17  18
ENDBRANCH  16  17
ENDBRANCH  15  16
ENDBRANCH  14  15
ENDBRANCH  13  14
ENDBRANCH   1  13
TORSDOF 20
ENDMDL
MODEL 8
REMARK VINA RESULT:    -4.717      3.237      8.979
REMARK INTER + INTRA:         -12.872
REMARK INTER:                 -10.034
REMARK INTRA:                  -2.838
REMARK UNBOUND:                -2.640
REMARK SMILES CCCCCCCCCCCCCCCCCCCCCC(=O)[O-]
REMARK SMILES IDX 12 1 11 2 10 3 9 4 8 5 7 6 6 7 5 8 4 9 3 10 2 11 1 12 13 13
REMARK SMILES IDX 14 14 15 15 16 16 17 17 18 18 19 19 20 20 21 21 22 22 23 23
REMARK SMILES IDX 24 24
REMARK H PARENT
REMARK Flexibility Score: inf
ROOT
ATOM      1  C   UNL     1      11.016 -15.249  13.045  1.00  0.00     0.000 C 
ENDROOT
BRANCH   1   2
ATOM      2  C   UNL     1      11.002 -15.846  14.467  1.00  0.00     0.000 C 
BRANCH   2   3
ATOM      3  C   UNL     1      11.544 -14.891  15.548  1.00  0.00     0.000 C 
BRANCH   3   4
ATOM      4  C   UNL     1      11.756 -13.433  15.094  1.00  0.00    -0.000 C 
BRANCH   4   5
ATOM      5  C   UNL     1      13.214 -12.944  15.157  1.00  0.00    -0.000 C 
BRANCH   5   6
ATOM      6  C   UNL     1      14.232 -14.067  14.894  1.00  0.00    -0.000 C 
BRANCH   6   7
ATOM      7  C   UNL     1      14.651 -14.136  13.413  1.00  0.00    -0.000 C 
BRANCH   7   8
ATOM      8  C   UNL     1      15.848 -15.073  13.160  1.00  0.00    -0.000 C 
BRANCH   8   9
ATOM      9  C   UNL     1      15.439 -16.343  12.392  1.00  0.00    -0.000 C 
BRANCH   9  10
ATOM     10  C   UNL     1      15.372 -17.586  13.294  1.00  0.00    -0.000 C 
BRANCH  10  11
ATOM     11  C   UNL     1      13.987 -17.788  13.925  1.00  0.00    -0.003 C 
ATOM     12  C   UNL     1      14.069 -17.761  15.448  1.00  0.00     0.004 C 
ENDBRANCH  10  11
ENDBRANCH   9  10
ENDBRANCH   8   9
ENDBRANCH   7   8
ENDBRANCH   6   7
ENDBRANCH   5   6
ENDBRANCH   4   5
ENDBRANCH   3   4
ENDBRANCH   2   3
ENDBRANCH   1   2
BRANCH   1  13
ATOM     13  C   UNL     1      11.132 -16.328  11.953  1.00  0.00     0.000 C 
BRANCH  13  14
ATOM     14  C   UNL     1      12.142 -15.939  10.861  1.00  0.00     0.000 C 
BRANCH  14  15
ATOM     15  C   UNL     1      12.340 -17.051   9.816  1.00  0.00     0.000 C 
BRANCH  15  16
ATOM     16  C   UNL     1      11.013 -17.459   9.142  1.00  0.00     0.000 C 
BRANCH  16  17
ATOM     17  C   UNL     1      10.356 -16.322   8.334  1.00  0.00     0.000 C 
BRANCH  17  18
ATOM     18  C   UNL     1      11.274 -15.644   7.299  1.00  0.00     0.000 C 
BRANCH  18  19
ATOM     19  C   UNL     1      10.617 -15.384   5.930  1.00  0.00     0.000 C 
BRANCH  19  20
ATOM     20  C   UNL     1       9.095 -15.611   5.946  1.00  0.00     0.006 C 
BRANCH  20  21
ATOM     21  C   UNL     1       8.605 -16.315   4.673  1.00  0.00     0.053 C 
BRANCH  21  22
ATOM     22  C   UNL     1       8.019 -17.661   4.975  1.00  0.00     0.041 C 
ATOM     23  O   UNL     1       7.375 -18.285   4.091  1.00  0.00    -0.550 OA
ATOM     24  O   UNL     1       8.214 -18.238   6.222  1.00  0.00    -0.550 OA
ENDBRANCH  21  22
ENDBRANCH  20  21
ENDBRANCH  19  20
ENDBRANCH  18  19
ENDBRANCH  17  18
ENDBRANCH  16  17
ENDBRANCH  15  16
ENDBRANCH  14  15
ENDBRANCH  13  14
ENDBRANCH   1  13
TORSDOF 20
ENDMDL
MODEL 9
REMARK VINA RESULT:    -4.712      1.660      4.058
REMARK INTER + INTRA:         -12.861
REMARK INTER:                 -10.187
REMARK INTRA:                  -2.674
REMARK UNBOUND:                -2.640
REMARK SMILES CCCCCCCCCCCCCCCCCCCCCC(=O)[O-]
REMARK SMILES IDX 12 1 11 2 10 3 9 4 8 5 7 6 6 7 5 8 4 9 3 10 2 11 1 12 13 13
REMARK SMILES IDX 14 14 15 15 16 16 17 17 18 18 19 19 20 20 21 21 22 22 23 23
REMARK SMILES IDX 24 24
REMARK H PARENT
REMARK Flexibility Score: inf
ROOT
ATOM      1  C   UNL     1      10.839 -20.539   8.864  1.00  0.00     0.000 C 
ENDROOT
BRANCH   1   2
ATOM      2  C   UNL     1       9.386 -20.316   8.396  1.00  0.00     0.000 C 
BRANCH   2   3
ATOM      3  C   UNL     1       9.267 -19.442   7.132  1.00  0.00     0.000 C 
BRANCH   3   4
ATOM      4  C   UNL     1       8.045 -18.502   7.094  1.00  0.00    -0.000 C 
BRANCH   4   5
ATOM      5  C   UNL     1       8.388 -17.001   7.102  1.00  0.00    -0.000 C 
BRANCH   5   6
ATOM      6  C   UNL     1       9.817 -16.717   7.597  1.00  0.00    -0.000 C 
BRANCH   6   7
ATOM      7  C   UNL     1      10.583 -15.776   6.648  1.00  0.00    -0.000 C 
BRANCH   7   8
ATOM      8  C   UNL     1       9.768 -15.361   5.408  1.00  0.00    -0.000 C 
BRANCH   8   9
ATOM      9  C   UNL     1      10.407 -15.859   4.099  1.00  0.00    -0.000 C 
BRANCH   9  10
ATOM     10  C   UNL     1       9.431 -16.669   3.232  1.00  0.00    -0.000 C 
BRANCH  10  11
ATOM     11  C   UNL     1       7.971 -16.520   3.685  1.00  0.00    -0.003 C 
ATOM     12  C   UNL     1       7.200 -17.823   3.487  1.00  0.00     0.004 C 
ENDBRANCH  10  11
ENDBRANCH   9  10
ENDBRANCH   8   9
ENDBRANCH   7   8
ENDBRANCH   6   7
ENDBRANCH   5   6
ENDBRANCH   4   5
ENDBRANCH   3   4
ENDBRANCH   2   3
ENDBRANCH   1   2
BRANCH   1  13
ATOM     13  C   UNL     1      11.867 -20.242   7.757  1.00  0.00     0.000 C 
BRANCH  13  14
ATOM     14  C   UNL     1      12.815 -19.093   8.141  1.00  0.00     0.000 C 
BRANCH  14  15
ATOM     15  C   UNL     1      12.456 -18.460   9.496  1.00  0.00     0.000 C 
BRANCH  15  16
ATOM     16  C   UNL     1      13.001 -17.022   9.630  1.00  0.00     0.000 C 
BRANCH  16  17
ATOM     17  C   UNL     1      12.578 -16.320  10.936  1.00  0.00     0.000 C 
BRANCH  17  18
ATOM     18  C   UNL     1      11.057 -16.208  11.151  1.00  0.00     0.000 C 
BRANCH  18  19
ATOM     19  C   UNL     1      10.643 -15.554  12.483  1.00  0.00     0.000 C 
BRANCH  19  20
ATOM     20  C   UNL     1      11.154 -16.327  13.711  1.00  0.00     0.006 C 
BRANCH  20  21
ATOM     21  C   UNL     1      11.640 -15.388  14.822  1.00  0.00     0.053 C 
BRANCH  21  22
ATOM     22  C   UNL     1      13.063 -15.667  15.201  1.00  0.00     0.041 C 
ATOM     23  O   UNL     1      13.929 -14.756  15.127  1.00  0.00    -0.550 OA
ATOM     24  O   UNL     1      13.423 -16.923  15.667  1.00  0.00    -0.550 OA
ENDBRANCH  21  22
ENDBRANCH  20  21
ENDBRANCH  19  20
ENDBRANCH  18  19
ENDBRANCH  17  18
ENDBRANCH  16  17
ENDBRANCH  15  16
ENDBRANCH  14  15
ENDBRANCH  13  14
ENDBRANCH   1  13
TORSDOF 20
ENDMDL
