MODEL 1
REMARK VINA RESULT:    -5.171      0.000      0.000
REMARK INTER + INTRA:         -11.720
REMARK INTER:                  -8.949
REMARK INTRA:                  -2.771
REMARK UNBOUND:                -2.771
REMARK SMILES OC[C@@H]1O[C@@H](O[C@@H]2[C@H](O)[C@H](O)[C@@H](O[C@H]3[C@H](O)[C@@H](O)[C@@H](O)O[C@@H]3CO)O[C@@H]2CO)[C@@H](O)[C@H](O)[C@@H]1O
REMARK SMILES IDX 7 1 26 2 25 3 12 4 10 5 8 6 6 7 5 8 3 9 33 10 4 11 31 12
REMARK SMILES IDX 29 13 2 14 1 15 34 17 32 19 30 21 27 23 28 24 9 26 11 28
REMARK SMILES IDX 13 30 14 31 22 32 15 33 21 34 17 35 19 36 23 37 24 38 16 40
REMARK SMILES IDX 18 42 20 44
REMARK H PARENT 1 16 34 18 32 20 30 22 28 25 9 27 11 29 24 39 16 41 18 43
REMARK H PARENT 20 45
REMARK Flexibility Score: inf
ROOT
ATOM      1  C   UNL     1     -18.085  -4.469  19.581  1.00  0.00     0.184 C 
ATOM      2  C   UNL     1     -19.037  -3.385  19.020  1.00  0.00     0.178 C 
ATOM      3  O   UNL     1     -19.538  -3.786  17.758  1.00  0.00    -0.341 OA
ATOM      4  C   UNL     1     -20.380  -4.925  17.859  1.00  0.00     0.282 C 
ATOM      5  C   UNL     1     -19.680  -6.132  18.537  1.00  0.00     0.202 C 
ATOM      6  C   UNL     1     -18.947  -5.712  19.837  1.00  0.00     0.180 C 
ENDROOT
BRANCH   1   7
ATOM      7  O   UNL     1     -17.067  -4.827  18.661  1.00  0.00    -0.341 OA
BRANCH   7   8
ATOM      8  C   UNL     1     -15.743  -4.724  19.171  1.00  0.00     0.282 C 
ATOM      9  C   UNL     1     -15.166  -3.246  17.423  1.00  0.00     0.178 C 
ATOM     10  C   UNL     1     -14.233  -4.259  16.727  1.00  0.00     0.177 C 
ATOM     11  O   UNL     1     -15.177  -3.465  18.828  1.00  0.00    -0.341 OA
ATOM     12  C   UNL     1     -14.687  -5.693  17.082  1.00  0.00     0.179 C 
ATOM     13  C   UNL     1     -14.873  -5.870  18.610  1.00  0.00     0.202 C 
BRANCH   9  14
ATOM     14  C   UNL     1     -14.780  -1.786  17.132  1.00  0.00     0.191 C 
BRANCH  14  15
ATOM     15  O   UNL     1     -14.990  -0.982  18.263  1.00  0.00    -0.394 OA
ATOM     16  H   UNL     1     -15.890  -1.222  18.610  1.00  0.00     0.210 HD
ENDBRANCH  14  15
ENDBRANCH   9  14
BRANCH  10  17
ATOM     17  O   UNL     1     -12.875  -4.031  17.044  1.00  0.00    -0.387 OA
ATOM     18  H   UNL     1     -12.766  -3.074  17.274  1.00  0.00     0.211 HD
ENDBRANCH  10  17
BRANCH  12  19
ATOM     19  O   UNL     1     -13.815  -6.654  16.528  1.00  0.00    -0.387 OA
ATOM     20  H   UNL     1     -14.165  -7.558  16.751  1.00  0.00     0.211 HD
ENDBRANCH  12  19
BRANCH  13  21
ATOM     21  O   UNL     1     -15.483  -7.106  18.896  1.00  0.00    -0.385 OA
ATOM     22  H   UNL     1     -15.459  -7.213  19.884  1.00  0.00     0.211 HD
ENDBRANCH  13  21
ENDBRANCH   7   8
ENDBRANCH   1   7
BRANCH   2  23
ATOM     23  C   UNL     1     -18.387  -1.997  18.896  1.00  0.00     0.191 C 
BRANCH  23  24
ATOM     24  O   UNL     1     -17.361  -1.861  19.844  1.00  0.00    -0.394 OA
ATOM     25  H   UNL     1     -17.757  -2.081  20.728  1.00  0.00     0.210 HD
ENDBRANCH  23  24
ENDBRANCH   2  23
BRANCH   6  26
ATOM     26  O   UNL     1     -18.142  -6.756  20.323  1.00  0.00    -0.387 OA
ATOM     27  H   UNL     1     -17.619  -6.388  21.084  1.00  0.00     0.211 HD
ENDBRANCH   6  26
BRANCH   5  28
ATOM     28  O   UNL     1     -18.776  -6.716  17.627  1.00  0.00    -0.385 OA
ATOM     29  H   UNL     1     -19.113  -7.630  17.421  1.00  0.00     0.211 HD
ENDBRANCH   5  28
BRANCH   4  30
ATOM     30  O   UNL     1     -21.591  -4.614  18.539  1.00  0.00    -0.341 OA
BRANCH  30  31
ATOM     31  C   UNL     1     -22.705  -4.574  17.656  1.00  0.00     0.184 C 
ATOM     32  C   UNL     1     -23.427  -3.212  17.796  1.00  0.00     0.178 C 
ATOM     33  C   UNL     1     -23.709  -5.692  18.023  1.00  0.00     0.180 C 
ATOM     34  O   UNL     1     -24.541  -3.154  16.913  1.00  0.00    -0.342 OA
ATOM     35  C   UNL     1     -24.974  -5.552  17.164  1.00  0.00     0.201 C 
ATOM     36  C   UNL     1     -25.532  -4.114  17.240  1.00  0.00     0.279 C 
BRANCH  32  37
ATOM     37  C   UNL     1     -22.484  -2.038  17.458  1.00  0.00     0.191 C 
BRANCH  37  38
ATOM     38  O   UNL     1     -21.709  -2.320  16.324  1.00  0.00    -0.394 OA
ATOM     39  H   UNL     1     -21.930  -1.629  15.645  1.00  0.00     0.210 HD
ENDBRANCH  37  38
ENDBRANCH  32  37
BRANCH  33  40
ATOM     40  O   UNL     1     -23.148  -6.963  17.803  1.00  0.00    -0.387 OA
ATOM     41  H   UNL     1     -22.616  -6.900  16.966  1.00  0.00     0.211 HD
ENDBRANCH  33  40
BRANCH  35  42
ATOM     42  O   UNL     1     -25.964  -6.463  17.584  1.00  0.00    -0.385 OA
ATOM     43  H   UNL     1     -26.821  -5.968  17.604  1.00  0.00     0.211 HD
ENDBRANCH  35  42
BRANCH  36  44
ATOM     44  O   UNL     1     -26.092  -3.843  18.507  1.00  0.00    -0.366 OA
ATOM     45  H   UNL     1     -25.386  -4.043  19.181  1.00  0.00     0.213 HD
ENDBRANCH  36  44
ENDBRANCH  30  31
ENDBRANCH   4  30
TORSDOF 18
ENDMDL
MODEL 2
REMARK VINA RESULT:    -5.151     13.679     17.084
REMARK INTER + INTRA:         -11.687
REMARK INTER:                  -8.905
REMARK INTRA:                  -2.782
REMARK UNBOUND:                -2.771
REMARK SMILES OC[C@@H]1O[C@@H](O[C@@H]2[C@H](O)[C@H](O)[C@@H](O[C@H]3[C@H](O)[C@@H](O)[C@@H](O)O[C@@H]3CO)O[C@@H]2CO)[C@@H](O)[C@H](O)[C@@H]1O
REMARK SMILES IDX 7 1 26 2 25 3 12 4 10 5 8 6 6 7 5 8 3 9 33 10 4 11 31 12
REMARK SMILES IDX 29 13 2 14 1 15 34 17 32 19 30 21 27 23 28 24 9 26 11 28
REMARK SMILES IDX 13 30 14 31 22 32 15 33 21 34 17 35 19 36 23 37 24 38 16 40
REMARK SMILES IDX 18 42 20 44
REMARK H PARENT 1 16 34 18 32 20 30 22 28 25 9 27 11 29 24 39 16 41 18 43
REMARK H PARENT 20 45
REMARK Flexibility Score: inf
ROOT
ATOM      1  C   UNL     1     -16.715   4.693  28.639  1.00  0.00     0.184 C 
ATOM      2  C   UNL     1     -17.013   5.840  29.636  1.00  0.00     0.178 C 
ATOM      3  O   UNL     1     -15.806   6.310  30.207  1.00  0.00    -0.341 OA
ATOM      4  C   UNL     1     -14.972   6.939  29.244  1.00  0.00     0.282 C 
ATOM      5  C   UNL     1     -14.642   6.015  28.042  1.00  0.00     0.202 C 
ATOM      6  C   UNL     1     -15.911   5.317  27.490  1.00  0.00     0.180 C 
ENDROOT
BRANCH   1   7
ATOM      7  O   UNL     1     -15.926   3.665  29.213  1.00  0.00    -0.341 OA
BRANCH   7   8
ATOM      8  C   UNL     1     -16.338   2.344  28.879  1.00  0.00     0.282 C 
ATOM      9  C   UNL     1     -16.660   1.847  31.164  1.00  0.00     0.178 C 
ATOM     10  C   UNL     1     -15.468   0.870  31.234  1.00  0.00     0.177 C 
ATOM     11  O   UNL     1     -17.233   1.841  29.863  1.00  0.00    -0.341 OA
ATOM     12  C   UNL     1     -14.435   1.254  30.149  1.00  0.00     0.179 C 
ATOM     13  C   UNL     1     -15.103   1.423  28.760  1.00  0.00     0.202 C 
BRANCH   9  14
ATOM     14  C   UNL     1     -17.746   1.533  32.206  1.00  0.00     0.191 C 
BRANCH  14  15
ATOM     15  O   UNL     1     -18.010   2.657  33.004  1.00  0.00    -0.394 OA
ATOM     16  H   UNL     1     -18.205   2.310  33.915  1.00  0.00     0.210 HD
ENDBRANCH  14  15
ENDBRANCH   9  14
BRANCH  10  17
ATOM     17  O   UNL     1     -15.881  -0.477  31.130  1.00  0.00    -0.387 OA
ATOM     18  H   UNL     1     -15.324  -1.021  31.741  1.00  0.00     0.211 HD
ENDBRANCH  10  17
BRANCH  12  19
ATOM     19  O   UNL     1     -13.361   0.340  30.124  1.00  0.00    -0.387 OA
ATOM     20  H   UNL     1     -13.370  -0.131  29.248  1.00  0.00     0.211 HD
ENDBRANCH  12  19
BRANCH  13  21
ATOM     21  O   UNL     1     -14.194   1.973  27.837  1.00  0.00    -0.385 OA
ATOM     22  H   UNL     1     -14.122   2.941  28.052  1.00  0.00     0.211 HD
ENDBRANCH  13  21
ENDBRANCH   7   8
ENDBRANCH   1   7
BRANCH   2  23
ATOM     23  C   UNL     1     -17.990   5.444  30.756  1.00  0.00     0.191 C 
BRANCH  23  24
ATOM     24  O   UNL     1     -18.770   4.351  30.348  1.00  0.00    -0.394 OA
ATOM     25  H   UNL     1     -18.840   4.403  29.359  1.00  0.00     0.210 HD
ENDBRANCH  23  24
ENDBRANCH   2  23
BRANCH   6  26
ATOM     26  O   UNL     1     -15.576   4.325  26.553  1.00  0.00    -0.387 OA
ATOM     27  H   UNL     1     -14.662   4.009  26.781  1.00  0.00     0.211 HD
ENDBRANCH   6  26
BRANCH   5  28
ATOM     28  O   UNL     1     -13.686   5.058  28.441  1.00  0.00    -0.385 OA
ATOM     29  H   UNL     1     -13.054   4.938  27.681  1.00  0.00     0.211 HD
ENDBRANCH   5  28
BRANCH   4  30
ATOM     30  O   UNL     1     -15.543   8.158  28.784  1.00  0.00    -0.341 OA
BRANCH  30  31
ATOM     31  C   UNL     1     -14.720   9.280  29.080  1.00  0.00     0.184 C 
ATOM     32  C   UNL     1     -15.515  10.289  29.945  1.00  0.00     0.178 C 
ATOM     33  C   UNL     1     -14.302   9.988  27.772  1.00  0.00     0.180 C 
ATOM     34  O   UNL     1     -14.702  11.414  30.257  1.00  0.00    -0.342 OA
ATOM     35  C   UNL     1     -13.539  11.279  28.105  1.00  0.00     0.201 C 
ATOM     36  C   UNL     1     -14.340  12.148  29.099  1.00  0.00     0.279 C 
BRANCH  32  37
ATOM     37  C   UNL     1     -15.982   9.650  31.270  1.00  0.00     0.191 C 
BRANCH  37  38
ATOM     38  O   UNL     1     -17.202   8.978  31.107  1.00  0.00    -0.394 OA
ATOM     39  H   UNL     1     -17.921   9.639  31.291  1.00  0.00     0.210 HD
ENDBRANCH  37  38
ENDBRANCH  32  37
BRANCH  33  40
ATOM     40  O   UNL     1     -13.476   9.160  26.993  1.00  0.00    -0.387 OA
ATOM     41  H   UNL     1     -13.546   8.245  27.375  1.00  0.00     0.211 HD
ENDBRANCH  33  40
BRANCH  35  42
ATOM     42  O   UNL     1     -13.281  12.021  26.934  1.00  0.00    -0.385 OA
ATOM     43  H   UNL     1     -12.817  11.413  26.305  1.00  0.00     0.211 HD
ENDBRANCH  35  42
BRANCH  36  44
ATOM     44  O   UNL     1     -15.480  12.715  28.489  1.00  0.00    -0.366 OA
ATOM     45  H   UNL     1     -16.273  12.335  28.957  1.00  0.00     0.213 HD
ENDBRANCH  36  44
ENDBRANCH  30  31
ENDBRANCH   4  30
TORSDOF 18
ENDMDL
MODEL 3
REMARK VINA RESULT:    -5.085      4.269      4.945
REMARK INTER + INTRA:         -11.572
REMARK INTER:                  -8.734
REMARK INTRA:                  -2.838
REMARK UNBOUND:                -2.771
REMARK SMILES OC[C@@H]1O[C@@H](O[C@@H]2[C@H](O)[C@H](O)[C@@H](O[C@H]3[C@H](O)[C@@H](O)[C@@H](O)O[C@@H]3CO)O[C@@H]2CO)[C@@H](O)[C@H](O)[C@@H]1O
REMARK SMILES IDX 7 1 26 2 25 3 12 4 10 5 8 6 6 7 5 8 3 9 33 10 4 11 31 12
REMARK SMILES IDX 29 13 2 14 1 15 34 17 32 19 30 21 27 23 28 24 9 26 11 28
REMARK SMILES IDX 13 30 14 31 22 32 15 33 21 34 17 35 19 36 23 37 24 38 16 40
REMARK SMILES IDX 18 42 20 44
REMARK H PARENT 1 16 34 18 32 20 30 22 28 25 9 27 11 29 24 39 16 41 18 43
REMARK H PARENT 20 45
REMARK Flexibility Score: inf
ROOT
ATOM      1  C   UNL     1     -16.738  -4.381  21.797  1.00  0.00     0.184 C 
ATOM      2  C   UNL     1     -17.756  -3.293  22.217  1.00  0.00     0.178 C 
ATOM      3  O   UNL     1     -19.037  -3.602  21.701  1.00  0.00    -0.341 OA
ATOM      4  C   UNL     1     -19.575  -4.780  22.286  1.00  0.00     0.282 C 
ATOM      5  C   UNL     1     -18.646  -6.011  22.119  1.00  0.00     0.202 C 
ATOM      6  C   UNL     1     -17.179  -5.676  22.492  1.00  0.00     0.180 C 
ENDROOT
BRANCH   1   7
ATOM      7  O   UNL     1     -16.739  -4.615  20.399  1.00  0.00    -0.341 OA
BRANCH   7   8
ATOM      8  C   UNL     1     -15.447  -4.677  19.807  1.00  0.00     0.282 C 
ATOM      9  C   UNL     1     -16.055  -3.001  18.261  1.00  0.00     0.178 C 
ATOM     10  C   UNL     1     -16.055  -3.959  17.052  1.00  0.00     0.177 C 
ATOM     11  O   UNL     1     -15.106  -3.423  19.231  1.00  0.00    -0.341 OA
ATOM     12  C   UNL     1     -16.337  -5.397  17.546  1.00  0.00     0.179 C 
ATOM     13  C   UNL     1     -15.415  -5.784  18.730  1.00  0.00     0.202 C 
BRANCH   9  14
ATOM     14  C   UNL     1     -15.771  -1.543  17.862  1.00  0.00     0.191 C 
BRANCH  14  15
ATOM     15  O   UNL     1     -14.398  -1.347  17.641  1.00  0.00    -0.394 OA
ATOM     16  H   UNL     1     -14.033  -0.974  18.487  1.00  0.00     0.210 HD
ENDBRANCH  14  15
ENDBRANCH   9  14
BRANCH  10  17
ATOM     17  O   UNL     1     -14.856  -3.872  16.309  1.00  0.00    -0.387 OA
ATOM     18  H   UNL     1     -14.257  -4.606  16.598  1.00  0.00     0.211 HD
ENDBRANCH  10  17
BRANCH  12  19
ATOM     19  O   UNL     1     -16.271  -6.322  16.483  1.00  0.00    -0.387 OA
ATOM     20  H   UNL     1     -17.171  -6.730  16.367  1.00  0.00     0.211 HD
ENDBRANCH  12  19
BRANCH  13  21
ATOM     21  O   UNL     1     -15.825  -7.005  19.299  1.00  0.00    -0.385 OA
ATOM     22  H   UNL     1     -16.716  -6.842  19.708  1.00  0.00     0.211 HD
ENDBRANCH  13  21
ENDBRANCH   7   8
ENDBRANCH   1   7
BRANCH   2  23
ATOM     23  C   UNL     1     -17.356  -1.874  21.780  1.00  0.00     0.191 C 
BRANCH  23  24
ATOM     24  O   UNL     1     -15.966  -1.801  21.597  1.00  0.00    -0.394 OA
ATOM     25  H   UNL     1     -15.711  -0.850  21.722  1.00  0.00     0.210 HD
ENDBRANCH  23  24
ENDBRANCH   2  23
BRANCH   6  26
ATOM     26  O   UNL     1     -16.315  -6.725  22.133  1.00  0.00    -0.387 OA
ATOM     27  H   UNL     1     -15.989  -6.531  21.215  1.00  0.00     0.211 HD
ENDBRANCH   6  26
BRANCH   5  28
ATOM     28  O   UNL     1     -18.725  -6.476  20.791  1.00  0.00    -0.385 OA
ATOM     29  H   UNL     1     -19.633  -6.249  20.452  1.00  0.00     0.211 HD
ENDBRANCH   5  28
BRANCH   4  30
ATOM     30  O   UNL     1     -19.883  -4.579  23.661  1.00  0.00    -0.341 OA
BRANCH  30  31
ATOM     31  C   UNL     1     -21.272  -4.732  23.926  1.00  0.00     0.184 C 
ATOM     32  C   UNL     1     -21.821  -3.436  24.570  1.00  0.00     0.178 C 
ATOM     33  C   UNL     1     -21.494  -5.897  24.918  1.00  0.00     0.180 C 
ATOM     34  O   UNL     1     -23.212  -3.571  24.834  1.00  0.00    -0.342 OA
ATOM     35  C   UNL     1     -22.977  -5.962  25.314  1.00  0.00     0.201 C 
ATOM     36  C   UNL     1     -23.477  -4.582  25.793  1.00  0.00     0.279 C 
BRANCH  32  37
ATOM     37  C   UNL     1     -21.623  -2.219  23.642  1.00  0.00     0.191 C 
BRANCH  37  38
ATOM     38  O   UNL     1     -20.342  -1.668  23.794  1.00  0.00    -0.394 OA
ATOM     39  H   UNL     1     -19.792  -2.346  24.268  1.00  0.00     0.210 HD
ENDBRANCH  37  38
ENDBRANCH  32  37
BRANCH  33  40
ATOM     40  O   UNL     1     -21.122  -7.125  24.344  1.00  0.00    -0.387 OA
ATOM     41  H   UNL     1     -20.201  -7.008  23.991  1.00  0.00     0.211 HD
ENDBRANCH  33  40
BRANCH  35  42
ATOM     42  O   UNL     1     -23.178  -6.915  26.332  1.00  0.00    -0.385 OA
ATOM     43  H   UNL     1     -22.429  -7.559  26.276  1.00  0.00     0.211 HD
ENDBRANCH  35  42
BRANCH  36  44
ATOM     44  O   UNL     1     -22.928  -4.239  27.047  1.00  0.00    -0.366 OA
ATOM     45  H   UNL     1     -22.370  -3.426  26.903  1.00  0.00     0.213 HD
ENDBRANCH  36  44
ENDBRANCH  30  31
ENDBRANCH   4  30
TORSDOF 18
ENDMDL
MODEL 4
REMARK VINA RESULT:    -4.932     13.285     16.673
REMARK INTER + INTRA:         -11.306
REMARK INTER:                  -9.273
REMARK INTRA:                  -2.033
REMARK UNBOUND:                -2.771
REMARK SMILES OC[C@@H]1O[C@@H](O[C@@H]2[C@H](O)[C@H](O)[C@@H](O[C@H]3[C@H](O)[C@@H](O)[C@@H](O)O[C@@H]3CO)O[C@@H]2CO)[C@@H](O)[C@H](O)[C@@H]1O
REMARK SMILES IDX 7 1 26 2 25 3 12 4 10 5 8 6 6 7 5 8 3 9 33 10 4 11 31 12
REMARK SMILES IDX 29 13 2 14 1 15 34 17 32 19 30 21 27 23 28 24 9 26 11 28
REMARK SMILES IDX 13 30 14 31 22 32 15 33 21 34 17 35 19 36 23 37 24 38 16 40
REMARK SMILES IDX 18 42 20 44
REMARK H PARENT 1 16 34 18 32 20 30 22 28 25 9 27 11 29 24 39 16 41 18 43
REMARK H PARENT 20 45
REMARK Flexibility Score: inf
ROOT
ATOM      1  C   UNL     1     -16.914   4.363  28.295  1.00  0.00     0.184 C 
ATOM      2  C   UNL     1     -16.997   5.546  29.290  1.00  0.00     0.178 C 
ATOM      3  O   UNL     1     -15.922   5.484  30.208  1.00  0.00    -0.341 OA
ATOM      4  C   UNL     1     -14.669   5.695  29.573  1.00  0.00     0.282 C 
ATOM      5  C   UNL     1     -14.409   4.697  28.414  1.00  0.00     0.202 C 
ATOM      6  C   UNL     1     -15.636   4.579  27.474  1.00  0.00     0.180 C 
ENDROOT
BRANCH   1   7
ATOM      7  O   UNL     1     -16.804   3.110  28.949  1.00  0.00    -0.341 OA
BRANCH   7   8
ATOM      8  C   UNL     1     -17.916   2.243  28.761  1.00  0.00     0.282 C 
ATOM      9  C   UNL     1     -17.751   1.516  31.000  1.00  0.00     0.178 C 
ATOM     10  C   UNL     1     -17.279   0.097  30.621  1.00  0.00     0.177 C 
ATOM     11  O   UNL     1     -18.602   2.043  29.991  1.00  0.00    -0.341 OA
ATOM     12  C   UNL     1     -16.576   0.148  29.246  1.00  0.00     0.179 C 
ATOM     13  C   UNL     1     -17.438   0.889  28.192  1.00  0.00     0.202 C 
BRANCH   9  14
ATOM     14  C   UNL     1     -18.475   1.558  32.357  1.00  0.00     0.191 C 
BRANCH  14  15
ATOM     15  O   UNL     1     -18.011   2.629  33.135  1.00  0.00    -0.394 OA
ATOM     16  H   UNL     1     -17.153   2.328  33.536  1.00  0.00     0.210 HD
ENDBRANCH  14  15
ENDBRANCH   9  14
BRANCH  10  17
ATOM     17  O   UNL     1     -18.338  -0.838  30.649  1.00  0.00    -0.387 OA
ATOM     18  H   UNL     1     -19.107  -0.423  31.115  1.00  0.00     0.211 HD
ENDBRANCH  10  17
BRANCH  12  19
ATOM     19  O   UNL     1     -16.193  -1.142  28.822  1.00  0.00    -0.387 OA
ATOM     20  H   UNL     1     -16.891  -1.787  29.116  1.00  0.00     0.211 HD
ENDBRANCH  12  19
BRANCH  13  21
ATOM     21  O   UNL     1     -16.699   1.109  27.014  1.00  0.00    -0.385 OA
ATOM     22  H   UNL     1     -16.032   1.815  27.225  1.00  0.00     0.211 HD
ENDBRANCH  13  21
ENDBRANCH   7   8
ENDBRANCH   1   7
BRANCH   2  23
ATOM     23  C   UNL     1     -18.326   5.610  30.061  1.00  0.00     0.191 C 
BRANCH  23  24
ATOM     24  O   UNL     1     -18.246   4.825  31.222  1.00  0.00    -0.394 OA
ATOM     25  H   UNL     1     -19.022   4.206  31.203  1.00  0.00     0.210 HD
ENDBRANCH  23  24
ENDBRANCH   2  23
BRANCH   6  26
ATOM     26  O   UNL     1     -15.474   3.521  26.562  1.00  0.00    -0.387 OA
ATOM     27  H   UNL     1     -14.990   3.888  25.776  1.00  0.00     0.211 HD
ENDBRANCH   6  26
BRANCH   5  28
ATOM     28  O   UNL     1     -14.074   3.437  28.951  1.00  0.00    -0.385 OA
ATOM     29  H   UNL     1     -13.152   3.221  28.645  1.00  0.00     0.211 HD
ENDBRANCH   5  28
BRANCH   4  30
ATOM     30  O   UNL     1     -14.545   7.033  29.106  1.00  0.00    -0.341 OA
BRANCH  30  31
ATOM     31  C   UNL     1     -15.232   7.957  29.941  1.00  0.00     0.184 C 
ATOM     32  C   UNL     1     -15.587   9.224  29.126  1.00  0.00     0.178 C 
ATOM     33  C   UNL     1     -14.326   8.378  31.120  1.00  0.00     0.180 C 
ATOM     34  O   UNL     1     -16.283  10.156  29.946  1.00  0.00    -0.342 OA
ATOM     35  C   UNL     1     -15.017   9.484  31.933  1.00  0.00     0.201 C 
ATOM     36  C   UNL     1     -15.479  10.634  31.012  1.00  0.00     0.279 C 
BRANCH  32  37
ATOM     37  C   UNL     1     -16.484   8.884  27.917  1.00  0.00     0.191 C 
BRANCH  37  38
ATOM     38  O   UNL     1     -15.753   8.234  26.911  1.00  0.00    -0.394 OA
ATOM     39  H   UNL     1     -16.356   8.152  26.125  1.00  0.00     0.210 HD
ENDBRANCH  37  38
ENDBRANCH  32  37
BRANCH  33  40
ATOM     40  O   UNL     1     -14.064   7.287  31.968  1.00  0.00    -0.387 OA
ATOM     41  H   UNL     1     -13.943   7.658  32.882  1.00  0.00     0.211 HD
ENDBRANCH  33  40
BRANCH  35  42
ATOM     42  O   UNL     1     -14.149   9.991  32.920  1.00  0.00    -0.385 OA
ATOM     43  H   UNL     1     -14.687  10.112  33.743  1.00  0.00     0.211 HD
ENDBRANCH  35  42
BRANCH  36  44
ATOM     44  O   UNL     1     -14.382  11.373  30.518  1.00  0.00    -0.366 OA
ATOM     45  H   UNL     1     -13.793  11.567  31.298  1.00  0.00     0.213 HD
ENDBRANCH  36  44
ENDBRANCH  30  31
ENDBRANCH   4  30
TORSDOF 18
ENDMDL
MODEL 5
REMARK VINA RESULT:    -4.888     13.049     16.564
REMARK INTER + INTRA:         -11.231
REMARK INTER:                  -8.583
REMARK INTRA:                  -2.648
REMARK UNBOUND:                -2.771
REMARK SMILES OC[C@@H]1O[C@@H](O[C@@H]2[C@H](O)[C@H](O)[C@@H](O[C@H]3[C@H](O)[C@@H](O)[C@@H](O)O[C@@H]3CO)O[C@@H]2CO)[C@@H](O)[C@H](O)[C@@H]1O
REMARK SMILES IDX 7 1 26 2 25 3 12 4 10 5 8 6 6 7 5 8 3 9 33 10 4 11 31 12
REMARK SMILES IDX 29 13 2 14 1 15 34 17 32 19 30 21 27 23 28 24 9 26 11 28
REMARK SMILES IDX 13 30 14 31 22 32 15 33 21 34 17 35 19 36 23 37 24 38 16 40
REMARK SMILES IDX 18 42 20 44
REMARK H PARENT 1 16 34 18 32 20 30 22 28 25 9 27 11 29 24 39 16 41 18 43
REMARK H PARENT 20 45
REMARK Flexibility Score: inf
ROOT
ATOM      1  C   UNL     1     -15.530   3.564  29.929  1.00  0.00     0.184 C 
ATOM      2  C   UNL     1     -14.347   4.408  29.393  1.00  0.00     0.178 C 
ATOM      3  O   UNL     1     -14.827   5.622  28.847  1.00  0.00    -0.341 OA
ATOM      4  C   UNL     1     -15.391   6.465  29.842  1.00  0.00     0.282 C 
ATOM      5  C   UNL     1     -16.531   5.777  30.636  1.00  0.00     0.202 C 
ATOM      6  C   UNL     1     -16.128   4.354  31.101  1.00  0.00     0.180 C 
ENDROOT
BRANCH   1   7
ATOM      7  O   UNL     1     -16.550   3.381  28.962  1.00  0.00    -0.341 OA
BRANCH   7   8
ATOM      8  C   UNL     1     -17.124   2.079  28.944  1.00  0.00     0.282 C 
ATOM      9  C   UNL     1     -16.547   1.838  26.668  1.00  0.00     0.178 C 
ATOM     10  C   UNL     1     -18.009   1.893  26.177  1.00  0.00     0.177 C 
ATOM     11  O   UNL     1     -16.480   1.269  27.969  1.00  0.00    -0.341 OA
ATOM     12  C   UNL     1     -18.855   2.689  27.197  1.00  0.00     0.179 C 
ATOM     13  C   UNL     1     -18.636   2.176  28.643  1.00  0.00     0.202 C 
BRANCH   9  14
ATOM     14  C   UNL     1     -15.630   1.052  25.714  1.00  0.00     0.191 C 
BRANCH  14  15
ATOM     15  O   UNL     1     -14.544   0.500  26.411  1.00  0.00    -0.394 OA
ATOM     16  H   UNL     1     -14.009   0.001  25.739  1.00  0.00     0.210 HD
ENDBRANCH  14  15
ENDBRANCH   9  14
BRANCH  10  17
ATOM     17  O   UNL     1     -18.533   0.604  25.932  1.00  0.00    -0.387 OA
ATOM     18  H   UNL     1     -18.093  -0.033  26.549  1.00  0.00     0.211 HD
ENDBRANCH  10  17
BRANCH  12  19
ATOM     19  O   UNL     1     -20.217   2.701  26.828  1.00  0.00    -0.387 OA
ATOM     20  H   UNL     1     -20.719   2.129  27.468  1.00  0.00     0.211 HD
ENDBRANCH  12  19
BRANCH  13  21
ATOM     21  O   UNL     1     -19.246   3.039  29.573  1.00  0.00    -0.385 OA
ATOM     22  H   UNL     1     -18.621   3.802  29.703  1.00  0.00     0.211 HD
ENDBRANCH  13  21
ENDBRANCH   7   8
ENDBRANCH   1   7
BRANCH   2  23
ATOM     23  C   UNL     1     -13.494   3.676  28.344  1.00  0.00     0.191 C 
BRANCH  23  24
ATOM     24  O   UNL     1     -13.626   2.287  28.502  1.00  0.00    -0.394 OA
ATOM     25  H   UNL     1     -14.598   2.086  28.471  1.00  0.00     0.210 HD
ENDBRANCH  23  24
ENDBRANCH   2  23
BRANCH   6  26
ATOM     26  O   UNL     1     -17.232   3.661  31.625  1.00  0.00    -0.387 OA
ATOM     27  H   UNL     1     -17.009   3.428  32.565  1.00  0.00     0.211 HD
ENDBRANCH   6  26
BRANCH   5  28
ATOM     28  O   UNL     1     -17.690   5.725  29.835  1.00  0.00    -0.385 OA
ATOM     29  H   UNL     1     -18.299   6.446  30.150  1.00  0.00     0.211 HD
ENDBRANCH   5  28
BRANCH   4  30
ATOM     30  O   UNL     1     -14.393   6.949  30.733  1.00  0.00    -0.341 OA
BRANCH  30  31
ATOM     31  C   UNL     1     -14.154   8.341  30.564  1.00  0.00     0.184 C 
ATOM     32  C   UNL     1     -15.267   9.147  31.279  1.00  0.00     0.178 C 
ATOM     33  C   UNL     1     -14.185   8.703  29.062  1.00  0.00     0.180 C 
ATOM     34  O   UNL     1     -15.037  10.543  31.126  1.00  0.00    -0.342 OA
ATOM     35  C   UNL     1     -14.074  10.227  28.895  1.00  0.00     0.201 C 
ATOM     36  C   UNL     1     -15.120  10.951  29.770  1.00  0.00     0.279 C 
BRANCH  32  37
ATOM     37  C   UNL     1     -15.310   8.830  32.789  1.00  0.00     0.191 C 
BRANCH  37  38
ATOM     38  O   UNL     1     -14.018   8.664  33.309  1.00  0.00    -0.394 OA
ATOM     39  H   UNL     1     -13.703   9.564  33.589  1.00  0.00     0.210 HD
ENDBRANCH  37  38
ENDBRANCH  32  37
BRANCH  33  40
ATOM     40  O   UNL     1     -13.121   8.092  28.375  1.00  0.00    -0.387 OA
ATOM     41  H   UNL     1     -13.187   8.383  27.427  1.00  0.00     0.211 HD
ENDBRANCH  33  40
BRANCH  35  42
ATOM     42  O   UNL     1     -14.253  10.594  27.546  1.00  0.00    -0.385 OA
ATOM     43  H   UNL     1     -13.981  11.542  27.468  1.00  0.00     0.211 HD
ENDBRANCH  35  42
BRANCH  36  44
ATOM     44  O   UNL     1     -16.428  10.767  29.271  1.00  0.00    -0.366 OA
ATOM     45  H   UNL     1     -16.990  11.488  29.669  1.00  0.00     0.213 HD
ENDBRANCH  36  44
ENDBRANCH  30  31
ENDBRANCH   4  30
TORSDOF 18
ENDMDL
MODEL 6
REMARK VINA RESULT:    -4.827      3.768      7.726
REMARK INTER + INTRA:         -11.124
REMARK INTER:                  -8.633
REMARK INTRA:                  -2.491
REMARK UNBOUND:                -2.771
REMARK SMILES OC[C@@H]1O[C@@H](O[C@@H]2[C@H](O)[C@H](O)[C@@H](O[C@H]3[C@H](O)[C@@H](O)[C@@H](O)O[C@@H]3CO)O[C@@H]2CO)[C@@H](O)[C@H](O)[C@@H]1O
REMARK SMILES IDX 7 1 26 2 25 3 12 4 10 5 8 6 6 7 5 8 3 9 33 10 4 11 31 12
REMARK SMILES IDX 29 13 2 14 1 15 34 17 32 19 30 21 27 23 28 24 9 26 11 28
REMARK SMILES IDX 13 30 14 31 22 32 15 33 21 34 17 35 19 36 23 37 24 38 16 40
REMARK SMILES IDX 18 42 20 44
REMARK H PARENT 1 16 34 18 32 20 30 22 28 25 9 27 11 29 24 39 16 41 18 43
REMARK H PARENT 20 45
REMARK Flexibility Score: inf
ROOT
ATOM      1  C   UNL     1     -16.707  -1.002  18.149  1.00  0.00     0.184 C 
ATOM      2  C   UNL     1     -17.851  -0.582  19.104  1.00  0.00     0.178 C 
ATOM      3  O   UNL     1     -17.503  -0.890  20.441  1.00  0.00    -0.341 OA
ATOM      4  C   UNL     1     -16.408  -0.108  20.898  1.00  0.00     0.282 C 
ATOM      5  C   UNL     1     -15.153  -0.250  19.998  1.00  0.00     0.202 C 
ATOM      6  C   UNL     1     -15.507  -0.111  18.496  1.00  0.00     0.180 C 
ENDROOT
BRANCH   1   7
ATOM      7  O   UNL     1     -16.314  -2.351  18.331  1.00  0.00    -0.341 OA
BRANCH   7   8
ATOM      8  C   UNL     1     -16.012  -3.049  17.129  1.00  0.00     0.282 C 
ATOM      9  C   UNL     1     -17.566  -4.732  17.694  1.00  0.00     0.178 C 
ATOM     10  C   UNL     1     -16.484  -5.804  17.941  1.00  0.00     0.177 C 
ATOM     11  O   UNL     1     -17.135  -3.810  16.702  1.00  0.00    -0.341 OA
ATOM     12  C   UNL     1     -15.164  -5.106  18.341  1.00  0.00     0.179 C 
ATOM     13  C   UNL     1     -14.794  -3.974  17.349  1.00  0.00     0.202 C 
BRANCH   9  14
ATOM     14  C   UNL     1     -18.917  -5.340  17.279  1.00  0.00     0.191 C 
BRANCH  14  15
ATOM     15  O   UNL     1     -18.938  -6.722  17.524  1.00  0.00    -0.394 OA
ATOM     16  H   UNL     1     -19.641  -7.097  16.931  1.00  0.00     0.210 HD
ENDBRANCH  14  15
ENDBRANCH   9  14
BRANCH  10  17
ATOM     17  O   UNL     1     -16.323  -6.661  16.830  1.00  0.00    -0.387 OA
ATOM     18  H   UNL     1     -15.404  -7.028  16.850  1.00  0.00     0.211 HD
ENDBRANCH  10  17
BRANCH  12  19
ATOM     19  O   UNL     1     -14.122  -6.043  18.504  1.00  0.00    -0.387 OA
ATOM     20  H   UNL     1     -14.516  -6.892  18.841  1.00  0.00     0.211 HD
ENDBRANCH  12  19
BRANCH  13  21
ATOM     21  O   UNL     1     -13.713  -3.217  17.840  1.00  0.00    -0.385 OA
ATOM     22  H   UNL     1     -14.103  -2.410  18.269  1.00  0.00     0.211 HD
ENDBRANCH  13  21
ENDBRANCH   7   8
ENDBRANCH   1   7
BRANCH   2  23
ATOM     23  C   UNL     1     -19.205  -1.228  18.766  1.00  0.00     0.191 C 
BRANCH  23  24
ATOM     24  O   UNL     1     -19.205  -1.673  17.434  1.00  0.00    -0.394 OA
ATOM     25  H   UNL     1     -19.758  -2.497  17.408  1.00  0.00     0.210 HD
ENDBRANCH  23  24
ENDBRANCH   2  23
BRANCH   6  26
ATOM     26  O   UNL     1     -14.411  -0.454  17.685  1.00  0.00    -0.387 OA
ATOM     27  H   UNL     1     -14.098  -1.348  17.984  1.00  0.00     0.211 HD
ENDBRANCH   6  26
BRANCH   5  28
ATOM     28  O   UNL     1     -14.540  -1.495  20.248  1.00  0.00    -0.385 OA
ATOM     29  H   UNL     1     -13.656  -1.486  19.791  1.00  0.00     0.211 HD
ENDBRANCH   5  28
BRANCH   4  30
ATOM     30  O   UNL     1     -16.769   1.262  21.025  1.00  0.00    -0.341 OA
BRANCH  30  31
ATOM     31  C   UNL     1     -16.888   1.660  22.386  1.00  0.00     0.184 C 
ATOM     32  C   UNL     1     -15.482   1.962  22.960  1.00  0.00     0.178 C 
ATOM     33  C   UNL     1     -17.515   0.518  23.217  1.00  0.00     0.180 C 
ATOM     34  O   UNL     1     -15.584   2.370  24.319  1.00  0.00    -0.342 OA
ATOM     35  C   UNL     1     -17.504   0.897  24.706  1.00  0.00     0.201 C 
ATOM     36  C   UNL     1     -16.092   1.337  25.149  1.00  0.00     0.279 C 
BRANCH  32  37
ATOM     37  C   UNL     1     -14.781   3.088  22.171  1.00  0.00     0.191 C 
BRANCH  37  38
ATOM     38  O   UNL     1     -13.792   2.572  21.321  1.00  0.00    -0.394 OA
ATOM     39  H   UNL     1     -14.250   1.965  20.682  1.00  0.00     0.210 HD
ENDBRANCH  37  38
ENDBRANCH  32  37
BRANCH  33  40
ATOM     40  O   UNL     1     -18.841   0.275  22.820  1.00  0.00    -0.387 OA
ATOM     41  H   UNL     1     -18.797  -0.309  22.018  1.00  0.00     0.211 HD
ENDBRANCH  33  40
BRANCH  35  42
ATOM     42  O   UNL     1     -17.928  -0.188  25.499  1.00  0.00    -0.385 OA
ATOM     43  H   UNL     1     -18.606   0.163  26.129  1.00  0.00     0.211 HD
ENDBRANCH  35  42
BRANCH  36  44
ATOM     44  O   UNL     1     -15.198   0.245  25.191  1.00  0.00    -0.366 OA
ATOM     45  H   UNL     1     -14.886   0.167  26.134  1.00  0.00     0.213 HD
ENDBRANCH  36  44
ENDBRANCH  30  31
ENDBRANCH   4  30
TORSDOF 18
ENDMDL
MODEL 7
REMARK VINA RESULT:    -4.814      4.633      8.742
REMARK INTER + INTRA:         -11.102
REMARK INTER:                  -8.205
REMARK INTRA:                  -2.898
REMARK UNBOUND:                -2.771
REMARK SMILES OC[C@@H]1O[C@@H](O[C@@H]2[C@H](O)[C@H](O)[C@@H](O[C@H]3[C@H](O)[C@@H](O)[C@@H](O)O[C@@H]3CO)O[C@@H]2CO)[C@@H](O)[C@H](O)[C@@H]1O
REMARK SMILES IDX 7 1 26 2 25 3 12 4 10 5 8 6 6 7 5 8 3 9 33 10 4 11 31 12
REMARK SMILES IDX 29 13 2 14 1 15 34 17 32 19 30 21 27 23 28 24 9 26 11 28
REMARK SMILES IDX 13 30 14 31 22 32 15 33 21 34 17 35 19 36 23 37 24 38 16 40
REMARK SMILES IDX 18 42 20 44
REMARK H PARENT 1 16 34 18 32 20 30 22 28 25 9 27 11 29 24 39 16 41 18 43
REMARK H PARENT 20 45
REMARK Flexibility Score: inf
ROOT
ATOM      1  C   UNL     1     -15.356  -0.386  22.777  1.00  0.00     0.184 C 
ATOM      2  C   UNL     1     -16.376  -1.508  22.462  1.00  0.00     0.178 C 
ATOM      3  O   UNL     1     -16.933  -1.309  21.176  1.00  0.00    -0.341 OA
ATOM      4  C   UNL     1     -15.965  -1.465  20.148  1.00  0.00     0.282 C 
ATOM      5  C   UNL     1     -14.744  -0.525  20.327  1.00  0.00     0.202 C 
ATOM      6  C   UNL     1     -14.203  -0.557  21.779  1.00  0.00     0.180 C 
ENDROOT
BRANCH   1   7
ATOM      7  O   UNL     1     -15.901   0.910  22.595  1.00  0.00    -0.341 OA
BRANCH   7   8
ATOM      8  C   UNL     1     -15.499   1.865  23.570  1.00  0.00     0.282 C 
ATOM      9  C   UNL     1     -17.757   2.329  24.073  1.00  0.00     0.178 C 
ATOM     10  C   UNL     1     -17.718   3.746  23.465  1.00  0.00     0.177 C 
ATOM     11  O   UNL     1     -16.482   1.974  24.591  1.00  0.00    -0.341 OA
ATOM     12  C   UNL     1     -16.620   3.799  22.377  1.00  0.00     0.179 C 
ATOM     13  C   UNL     1     -15.273   3.239  22.899  1.00  0.00     0.202 C 
BRANCH   9  14
ATOM     14  C   UNL     1     -18.819   2.187  25.177  1.00  0.00     0.191 C 
BRANCH  14  15
ATOM     15  O   UNL     1     -19.342   0.885  25.200  1.00  0.00    -0.394 OA
ATOM     16  H   UNL     1     -19.420   0.635  26.159  1.00  0.00     0.210 HD
ENDBRANCH  14  15
ENDBRANCH   9  14
BRANCH  10  17
ATOM     17  O   UNL     1     -17.544   4.741  24.452  1.00  0.00    -0.387 OA
ATOM     18  H   UNL     1     -18.435   4.983  24.810  1.00  0.00     0.211 HD
ENDBRANCH  10  17
BRANCH  12  19
ATOM     19  O   UNL     1     -16.495   5.099  21.844  1.00  0.00    -0.387 OA
ATOM     20  H   UNL     1     -16.265   5.720  22.586  1.00  0.00     0.211 HD
ENDBRANCH  12  19
BRANCH  13  21
ATOM     21  O   UNL     1     -14.352   3.100  21.843  1.00  0.00    -0.385 OA
ATOM     22  H   UNL     1     -13.535   3.600  22.112  1.00  0.00     0.211 HD
ENDBRANCH  13  21
ENDBRANCH   7   8
ENDBRANCH   1   7
BRANCH   2  23
ATOM     23  C   UNL     1     -17.506  -1.622  23.498  1.00  0.00     0.191 C 
BRANCH  23  24
ATOM     24  O   UNL     1     -17.114  -1.022  24.705  1.00  0.00    -0.394 OA
ATOM     25  H   UNL     1     -17.564  -1.524  25.434  1.00  0.00     0.210 HD
ENDBRANCH  23  24
ENDBRANCH   2  23
BRANCH   6  26
ATOM     26  O   UNL     1     -13.245   0.450  21.985  1.00  0.00    -0.387 OA
ATOM     27  H   UNL     1     -12.560   0.077  22.600  1.00  0.00     0.211 HD
ENDBRANCH   6  26
BRANCH   5  28
ATOM     28  O   UNL     1     -15.110   0.788  19.965  1.00  0.00    -0.385 OA
ATOM     29  H   UNL     1     -14.273   1.278  19.744  1.00  0.00     0.211 HD
ENDBRANCH   5  28
BRANCH   4  30
ATOM     30  O   UNL     1     -15.534  -2.817  20.046  1.00  0.00    -0.341 OA
BRANCH  30  31
ATOM     31  C   UNL     1     -15.782  -3.361  18.756  1.00  0.00     0.184 C 
ATOM     32  C   UNL     1     -16.705  -4.598  18.887  1.00  0.00     0.178 C 
ATOM     33  C   UNL     1     -14.454  -3.816  18.110  1.00  0.00     0.180 C 
ATOM     34  O   UNL     1     -16.970  -5.151  17.602  1.00  0.00    -0.342 OA
ATOM     35  C   UNL     1     -14.744  -4.535  16.784  1.00  0.00     0.201 C 
ATOM     36  C   UNL     1     -15.795  -5.649  16.984  1.00  0.00     0.279 C 
BRANCH  32  37
ATOM     37  C   UNL     1     -18.054  -4.229  19.539  1.00  0.00     0.191 C 
BRANCH  37  38
ATOM     38  O   UNL     1     -17.959  -4.238  20.939  1.00  0.00    -0.394 OA
ATOM     39  H   UNL     1     -17.049  -4.566  21.163  1.00  0.00     0.210 HD
ENDBRANCH  37  38
ENDBRANCH  32  37
BRANCH  33  40
ATOM     40  O   UNL     1     -13.616  -2.716  17.856  1.00  0.00    -0.387 OA
ATOM     41  H   UNL     1     -12.791  -2.855  18.391  1.00  0.00     0.211 HD
ENDBRANCH  33  40
BRANCH  35  42
ATOM     42  O   UNL     1     -13.564  -5.092  16.252  1.00  0.00    -0.385 OA
ATOM     43  H   UNL     1     -12.883  -5.062  16.970  1.00  0.00     0.211 HD
ENDBRANCH  35  42
BRANCH  36  44
ATOM     44  O   UNL     1     -15.266  -6.734  17.715  1.00  0.00    -0.366 OA
ATOM     45  H   UNL     1     -14.790  -6.346  18.499  1.00  0.00     0.213 HD
ENDBRANCH  36  44
ENDBRANCH  30  31
ENDBRANCH   4  30
TORSDOF 18
ENDMDL
MODEL 8
REMARK VINA RESULT:    -4.717      2.133      3.473
REMARK INTER + INTRA:         -10.935
REMARK INTER:                  -8.132
REMARK INTRA:                  -2.803
REMARK UNBOUND:                -2.771
REMARK SMILES OC[C@@H]1O[C@@H](O[C@@H]2[C@H](O)[C@H](O)[C@@H](O[C@H]3[C@H](O)[C@@H](O)[C@@H](O)O[C@@H]3CO)O[C@@H]2CO)[C@@H](O)[C@H](O)[C@@H]1O
REMARK SMILES IDX 7 1 26 2 25 3 12 4 10 5 8 6 6 7 5 8 3 9 33 10 4 11 31 12
REMARK SMILES IDX 29 13 2 14 1 15 34 17 32 19 30 21 27 23 28 24 9 26 11 28
REMARK SMILES IDX 13 30 14 31 22 32 15 33 21 34 17 35 19 36 23 37 24 38 16 40
REMARK SMILES IDX 18 42 20 44
REMARK H PARENT 1 16 34 18 32 20 30 22 28 25 9 27 11 29 24 39 16 41 18 43
REMARK H PARENT 20 45
REMARK Flexibility Score: inf
ROOT
ATOM      1  C   UNL     1     -18.958  -3.549  19.191  1.00  0.00     0.184 C 
ATOM      2  C   UNL     1     -19.731  -4.222  18.030  1.00  0.00     0.178 C 
ATOM      3  O   UNL     1     -20.492  -5.310  18.521  1.00  0.00    -0.341 OA
ATOM      4  C   UNL     1     -21.533  -4.881  19.387  1.00  0.00     0.282 C 
ATOM      5  C   UNL     1     -21.012  -4.042  20.583  1.00  0.00     0.202 C 
ATOM      6  C   UNL     1     -20.017  -2.946  20.123  1.00  0.00     0.180 C 
ENDROOT
BRANCH   1   7
ATOM      7  O   UNL     1     -18.193  -4.476  19.943  1.00  0.00    -0.341 OA
BRANCH   7   8
ATOM      8  C   UNL     1     -16.867  -4.052  20.234  1.00  0.00     0.282 C 
ATOM      9  C   UNL     1     -16.002  -5.987  19.195  1.00  0.00     0.178 C 
ATOM     10  C   UNL     1     -15.508  -6.611  20.517  1.00  0.00     0.177 C 
ATOM     11  O   UNL     1     -15.959  -4.568  19.268  1.00  0.00    -0.341 OA
ATOM     12  C   UNL     1     -16.365  -6.069  21.684  1.00  0.00     0.179 C 
ATOM     13  C   UNL     1     -16.463  -4.522  21.649  1.00  0.00     0.202 C 
BRANCH   9  14
ATOM     14  C   UNL     1     -15.195  -6.465  17.976  1.00  0.00     0.191 C 
BRANCH  14  15
ATOM     15  O   UNL     1     -14.037  -5.689  17.811  1.00  0.00    -0.394 OA
ATOM     16  H   UNL     1     -13.298  -6.330  17.639  1.00  0.00     0.210 HD
ENDBRANCH  14  15
ENDBRANCH   9  14
BRANCH  10  17
ATOM     17  O   UNL     1     -14.126  -6.395  20.720  1.00  0.00    -0.387 OA
ATOM     18  H   UNL     1     -13.666  -6.494  19.849  1.00  0.00     0.211 HD
ENDBRANCH  10  17
BRANCH  12  19
ATOM     19  O   UNL     1     -15.900  -6.554  22.925  1.00  0.00    -0.387 OA
ATOM     20  H   UNL     1     -15.256  -5.893  23.297  1.00  0.00     0.211 HD
ENDBRANCH  12  19
BRANCH  13  21
ATOM     21  O   UNL     1     -17.410  -4.064  22.584  1.00  0.00    -0.385 OA
ATOM     22  H   UNL     1     -18.305  -4.230  22.186  1.00  0.00     0.211 HD
ENDBRANCH  13  21
ENDBRANCH   7   8
ENDBRANCH   1   7
BRANCH   2  23
ATOM     23  C   UNL     1     -18.826  -4.705  16.885  1.00  0.00     0.191 C 
BRANCH  23  24
ATOM     24  O   UNL     1     -17.633  -3.964  16.871  1.00  0.00    -0.394 OA
ATOM     25  H   UNL     1     -16.900  -4.599  17.083  1.00  0.00     0.210 HD
ENDBRANCH  23  24
ENDBRANCH   2  23
BRANCH   6  26
ATOM     26  O   UNL     1     -19.389  -2.339  21.224  1.00  0.00    -0.387 OA
ATOM     27  H   UNL     1     -18.559  -1.912  20.885  1.00  0.00     0.211 HD
ENDBRANCH   6  26
BRANCH   5  28
ATOM     28  O   UNL     1     -20.403  -4.899  21.523  1.00  0.00    -0.385 OA
ATOM     29  H   UNL     1     -19.631  -4.409  21.913  1.00  0.00     0.211 HD
ENDBRANCH   5  28
BRANCH   4  30
ATOM     30  O   UNL     1     -22.531  -4.157  18.677  1.00  0.00    -0.341 OA
BRANCH  30  31
ATOM     31  C   UNL     1     -23.784  -4.831  18.678  1.00  0.00     0.184 C 
ATOM     32  C   UNL     1     -24.202  -5.145  17.220  1.00  0.00     0.178 C 
ATOM     33  C   UNL     1     -24.868  -3.928  19.308  1.00  0.00     0.180 C 
ATOM     34  O   UNL     1     -25.451  -5.827  17.205  1.00  0.00    -0.342 OA
ATOM     35  C   UNL     1     -26.243  -4.600  19.172  1.00  0.00     0.201 C 
ATOM     36  C   UNL     1     -26.504  -5.022  17.710  1.00  0.00     0.279 C 
BRANCH  32  37
ATOM     37  C   UNL     1     -23.159  -6.036  16.514  1.00  0.00     0.191 C 
BRANCH  37  38
ATOM     38  O   UNL     1     -22.201  -5.261  15.844  1.00  0.00    -0.394 OA
ATOM     39  H   UNL     1     -22.465  -4.311  15.965  1.00  0.00     0.210 HD
ENDBRANCH  37  38
ENDBRANCH  32  37
BRANCH  33  40
ATOM     40  O   UNL     1     -24.605  -3.702  20.671  1.00  0.00    -0.387 OA
ATOM     41  H   UNL     1     -23.701  -4.073  20.853  1.00  0.00     0.211 HD
ENDBRANCH  33  40
BRANCH  35  42
ATOM     42  O   UNL     1     -27.266  -3.731  19.601  1.00  0.00    -0.385 OA
ATOM     43  H   UNL     1     -27.844  -4.248  20.216  1.00  0.00     0.211 HD
ENDBRANCH  35  42
BRANCH  36  44
ATOM     44  O   UNL     1     -26.721  -3.902  16.879  1.00  0.00    -0.366 OA
ATOM     45  H   UNL     1     -26.553  -4.202  15.944  1.00  0.00     0.213 HD
ENDBRANCH  36  44
ENDBRANCH  30  31
ENDBRANCH   4  30
TORSDOF 18
ENDMDL
