MODEL 1
REMARK VINA RESULT:    -3.073      0.000      0.000
REMARK INTER + INTRA:          -4.089
REMARK INTER:                  -3.971
REMARK INTRA:                  -0.118
REMARK UNBOUND:                -0.118
REMARK SMILES CCCCCCC(=O)[O-]
REMARK SMILES IDX 5 1 6 2 7 3 8 4 9 5 4 6 3 7 2 8 1 9
REMARK H PARENT
REMARK Flexibility Score: inf
ROOT
ATOM      1  C   UNL     1      52.660  18.533  85.051  1.00  0.00     0.006 C 
ENDROOT
BRANCH   1   2
ATOM      2  C   UNL     1      51.835  19.661  85.688  1.00  0.00     0.053 C 
BRANCH   2   3
ATOM      3  C   UNL     1      50.505  19.174  86.176  1.00  0.00     0.041 C 
ATOM      4  O   UNL     1      50.045  19.581  87.275  1.00  0.00    -0.550 OA
ATOM      5  O   UNL     1      49.760  18.294  85.400  1.00  0.00    -0.550 OA
ENDBRANCH   2   3
ENDBRANCH   1   2
BRANCH   1   6
ATOM      6  C   UNL     1      54.031  18.293  85.715  1.00  0.00     0.000 C 
BRANCH   6   7
ATOM      7  C   UNL     1      55.237  18.315  84.753  1.00  0.00    -0.000 C 
BRANCH   7   8
ATOM      8  C   UNL     1      56.090  17.034  84.752  1.00  0.00    -0.003 C 
ATOM      9  C   UNL     1      56.093  16.320  86.103  1.00  0.00     0.004 C 
ENDBRANCH   7   8
ENDBRANCH   6   7
ENDBRANCH   1   6
TORSDOF 5
ENDMDL
MODEL 2
REMARK VINA RESULT:    -3.065      0.728      1.534
REMARK INTER + INTRA:          -4.079
REMARK INTER:                  -3.948
REMARK INTRA:                  -0.131
REMARK UNBOUND:                -0.118
REMARK SMILES CCCCCCC(=O)[O-]
REMARK SMILES IDX 5 1 6 2 7 3 8 4 9 5 4 6 3 7 2 8 1 9
REMARK H PARENT
REMARK Flexibility Score: inf
ROOT
ATOM      1  C   UNL     1      52.206  18.465  85.133  1.00  0.00     0.006 C 
ENDROOT
BRANCH   1   2
ATOM      2  C   UNL     1      51.405  19.496  85.943  1.00  0.00     0.053 C 
BRANCH   2   3
ATOM      3  C   UNL     1      50.003  19.037  86.200  1.00  0.00     0.041 C 
ATOM      4  O   UNL     1      49.371  18.403  85.315  1.00  0.00    -0.550 OA
ATOM      5  O   UNL     1      49.405  19.281  87.430  1.00  0.00    -0.550 OA
ENDBRANCH   2   3
ENDBRANCH   1   2
BRANCH   1   6
ATOM      6  C   UNL     1      53.732  18.537  85.340  1.00  0.00     0.000 C 
BRANCH   6   7
ATOM      7  C   UNL     1      54.270  17.725  86.537  1.00  0.00    -0.000 C 
BRANCH   7   8
ATOM      8  C   UNL     1      55.585  16.974  86.271  1.00  0.00    -0.003 C 
ATOM      9  C   UNL     1      56.009  17.013  84.803  1.00  0.00     0.004 C 
ENDBRANCH   7   8
ENDBRANCH   6   7
ENDBRANCH   1   6
TORSDOF 5
ENDMDL
MODEL 3
REMARK VINA RESULT:    -2.894     13.797     14.930
REMARK INTER + INTRA:          -3.858
REMARK INTER:                  -3.653
REMARK INTRA:                  -0.204
REMARK UNBOUND:                -0.118
REMARK SMILES CCCCCCC(=O)[O-]
REMARK SMILES IDX 5 1 6 2 7 3 8 4 9 5 4 6 3 7 2 8 1 9
REMARK H PARENT
REMARK Flexibility Score: inf
ROOT
ATOM      1  C   UNL     1      39.795  19.555  79.529  1.00  0.00     0.006 C 
ENDROOT
BRANCH   1   2
ATOM      2  C   UNL     1      38.721  20.278  80.356  1.00  0.00     0.053 C 
BRANCH   2   3
ATOM      3  C   UNL     1      37.751  19.318  80.973  1.00  0.00     0.041 C 
ATOM      4  O   UNL     1      37.307  19.522  82.133  1.00  0.00    -0.550 OA
ATOM      5  O   UNL     1      37.313  18.213  80.253  1.00  0.00    -0.550 OA
ENDBRANCH   2   3
ENDBRANCH   1   2
BRANCH   1   6
ATOM      6  C   UNL     1      41.244  19.938  79.892  1.00  0.00     0.000 C 
BRANCH   6   7
ATOM      7  C   UNL     1      42.033  20.649  78.773  1.00  0.00    -0.000 C 
BRANCH   7   8
ATOM      8  C   UNL     1      41.282  21.799  78.081  1.00  0.00    -0.003 C 
ATOM      9  C   UNL     1      40.935  21.494  76.624  1.00  0.00     0.004 C 
ENDBRANCH   7   8
ENDBRANCH   6   7
ENDBRANCH   1   6
TORSDOF 5
ENDMDL
MODEL 4
REMARK VINA RESULT:    -2.888     12.295     13.994
REMARK INTER + INTRA:          -3.850
REMARK INTER:                  -3.770
REMARK INTRA:                  -0.080
REMARK UNBOUND:                -0.118
REMARK SMILES CCCCCCC(=O)[O-]
REMARK SMILES IDX 5 1 6 2 7 3 8 4 9 5 4 6 3 7 2 8 1 9
REMARK H PARENT
REMARK Flexibility Score: inf
ROOT
ATOM      1  C   UNL     1      40.089  19.562  79.809  1.00  0.00     0.006 C 
ENDROOT
BRANCH   1   2
ATOM      2  C   UNL     1      38.809  20.281  80.262  1.00  0.00     0.053 C 
BRANCH   2   3
ATOM      3  C   UNL     1      37.798  19.325  80.816  1.00  0.00     0.041 C 
ATOM      4  O   UNL     1      37.398  18.353  80.123  1.00  0.00    -0.550 OA
ATOM      5  O   UNL     1      37.322  19.489  82.111  1.00  0.00    -0.550 OA
ENDBRANCH   2   3
ENDBRANCH   1   2
BRANCH   1   6
ATOM      6  C   UNL     1      41.393  20.328  80.113  1.00  0.00     0.000 C 
BRANCH   6   7
ATOM      7  C   UNL     1      42.242  20.692  78.876  1.00  0.00    -0.000 C 
BRANCH   7   8
ATOM      8  C   UNL     1      43.757  20.765  79.131  1.00  0.00    -0.003 C 
ATOM      9  C   UNL     1      44.544  19.705  78.362  1.00  0.00     0.004 C 
ENDBRANCH   7   8
ENDBRANCH   6   7
ENDBRANCH   1   6
TORSDOF 5
ENDMDL
MODEL 5
REMARK VINA RESULT:    -2.832      3.268      5.151
REMARK INTER + INTRA:          -3.777
REMARK INTER:                  -3.601
REMARK INTRA:                  -0.176
REMARK UNBOUND:                -0.118
REMARK SMILES CCCCCCC(=O)[O-]
REMARK SMILES IDX 5 1 6 2 7 3 8 4 9 5 4 6 3 7 2 8 1 9
REMARK H PARENT
REMARK Flexibility Score: inf
ROOT
ATOM      1  C   UNL     1      53.956  18.515  85.303  1.00  0.00     0.006 C 
ENDROOT
BRANCH   1   2
ATOM      2  C   UNL     1      54.296  17.687  86.551  1.00  0.00     0.053 C 
BRANCH   2   3
ATOM      3  C   UNL     1      55.525  16.855  86.351  1.00  0.00     0.041 C 
ATOM      4  O   UNL     1      56.044  16.245  87.323  1.00  0.00    -0.550 OA
ATOM      5  O   UNL     1      56.079  16.726  85.083  1.00  0.00    -0.550 OA
ENDBRANCH   2   3
ENDBRANCH   1   2
BRANCH   1   6
ATOM      6  C   UNL     1      52.458  18.845  85.145  1.00  0.00     0.000 C 
BRANCH   6   7
ATOM      7  C   UNL     1      51.854  19.705  86.274  1.00  0.00    -0.000 C 
BRANCH   7   8
ATOM      8  C   UNL     1      50.366  19.443  86.563  1.00  0.00    -0.003 C 
ATOM      9  C   UNL     1      49.726  18.475  85.568  1.00  0.00     0.004 C 
ENDBRANCH   7   8
ENDBRANCH   6   7
ENDBRANCH   1   6
TORSDOF 5
ENDMDL
MODEL 6
REMARK VINA RESULT:    -2.817     14.505     15.760
REMARK INTER + INTRA:          -3.758
REMARK INTER:                  -3.356
REMARK INTRA:                  -0.402
REMARK UNBOUND:                -0.118
REMARK SMILES CCCCCCC(=O)[O-]
REMARK SMILES IDX 5 1 6 2 7 3 8 4 9 5 4 6 3 7 2 8 1 9
REMARK H PARENT
REMARK Flexibility Score: inf
ROOT
ATOM      1  C   UNL     1      38.222  21.585  79.982  1.00  0.00     0.006 C 
ENDROOT
BRANCH   1   2
ATOM      2  C   UNL     1      39.728  21.823  79.790  1.00  0.00     0.053 C 
BRANCH   2   3
ATOM      3  C   UNL     1      40.373  20.715  79.015  1.00  0.00     0.041 C 
ATOM      4  O   UNL     1      40.774  19.678  79.606  1.00  0.00    -0.550 OA
ATOM      5  O   UNL     1      40.503  20.815  77.635  1.00  0.00    -0.550 OA
ENDBRANCH   2   3
ENDBRANCH   1   2
BRANCH   1   6
ATOM      6  C   UNL     1      37.830  21.082  81.386  1.00  0.00     0.000 C 
BRANCH   6   7
ATOM      7  C   UNL     1      37.682  19.552  81.516  1.00  0.00    -0.000 C 
BRANCH   7   8
ATOM      8  C   UNL     1      37.283  18.827  80.218  1.00  0.00    -0.003 C 
ATOM      9  C   UNL     1      37.992  17.485  80.042  1.00  0.00     0.004 C 
ENDBRANCH   7   8
ENDBRANCH   6   7
ENDBRANCH   1   6
TORSDOF 5
ENDMDL
MODEL 7
REMARK VINA RESULT:    -2.808     14.284     15.184
REMARK INTER + INTRA:          -3.746
REMARK INTER:                  -3.608
REMARK INTRA:                  -0.138
REMARK UNBOUND:                -0.118
REMARK SMILES CCCCCCC(=O)[O-]
REMARK SMILES IDX 5 1 6 2 7 3 8 4 9 5 4 6 3 7 2 8 1 9
REMARK H PARENT
REMARK Flexibility Score: inf
ROOT
ATOM      1  C   UNL     1      40.195  19.649  80.164  1.00  0.00     0.006 C 
ENDROOT
BRANCH   1   2
ATOM      2  C   UNL     1      38.778  20.239  80.223  1.00  0.00     0.053 C 
BRANCH   2   3
ATOM      3  C   UNL     1      37.795  19.271  80.809  1.00  0.00     0.041 C 
ATOM      4  O   UNL     1      37.473  18.232  80.175  1.00  0.00    -0.550 OA
ATOM      5  O   UNL     1      37.260  19.501  82.070  1.00  0.00    -0.550 OA
ENDBRANCH   2   3
ENDBRANCH   1   2
BRANCH   1   6
ATOM      6  C   UNL     1      41.109  20.289  79.099  1.00  0.00     0.000 C 
BRANCH   6   7
ATOM      7  C   UNL     1      40.475  21.451  78.306  1.00  0.00    -0.000 C 
BRANCH   7   8
ATOM      8  C   UNL     1      40.738  21.419  76.790  1.00  0.00    -0.003 C 
ATOM      9  C   UNL     1      42.100  21.997  76.408  1.00  0.00     0.004 C 
ENDBRANCH   7   8
ENDBRANCH   6   7
ENDBRANCH   1   6
TORSDOF 5
ENDMDL
MODEL 8
REMARK VINA RESULT:    -2.806     14.039     15.486
REMARK INTER + INTRA:          -3.744
REMARK INTER:                  -3.405
REMARK INTRA:                  -0.338
REMARK UNBOUND:                -0.118
REMARK SMILES CCCCCCC(=O)[O-]
REMARK SMILES IDX 5 1 6 2 7 3 8 4 9 5 4 6 3 7 2 8 1 9
REMARK H PARENT
REMARK Flexibility Score: inf
ROOT
ATOM      1  C   UNL     1      44.339  31.268  90.388  1.00  0.00     0.006 C 
ENDROOT
BRANCH   1   2
ATOM      2  C   UNL     1      44.461  31.297  91.919  1.00  0.00     0.053 C 
BRANCH   2   3
ATOM      3  C   UNL     1      43.924  30.046  92.545  1.00  0.00     0.041 C 
ATOM      4  O   UNL     1      44.705  29.230  93.102  1.00  0.00    -0.550 OA
ATOM      5  O   UNL     1      42.557  29.798  92.542  1.00  0.00    -0.550 OA
ENDBRANCH   2   3
ENDBRANCH   1   2
BRANCH   1   6
ATOM      6  C   UNL     1      45.596  30.753  89.657  1.00  0.00     0.000 C 
BRANCH   6   7
ATOM      7  C   UNL     1      46.877  31.578  89.897  1.00  0.00    -0.000 C 
BRANCH   7   8
ATOM      8  C   UNL     1      47.951  30.875  90.745  1.00  0.00    -0.003 C 
ATOM      9  C   UNL     1      47.587  29.432  91.092  1.00  0.00     0.004 C 
ENDBRANCH   7   8
ENDBRANCH   6   7
ENDBRANCH   1   6
TORSDOF 5
ENDMDL
MODEL 9
REMARK VINA RESULT:    -2.783     11.217     12.981
REMARK INTER + INTRA:          -3.714
REMARK INTER:                  -3.574
REMARK INTRA:                  -0.140
REMARK UNBOUND:                -0.118
REMARK SMILES CCCCCCC(=O)[O-]
REMARK SMILES IDX 5 1 6 2 7 3 8 4 9 5 4 6 3 7 2 8 1 9
REMARK H PARENT
REMARK Flexibility Score: inf
ROOT
ATOM      1  C   UNL     1      44.227  19.688  78.414  1.00  0.00     0.006 C 
ENDROOT
BRANCH   1   2
ATOM      2  C   UNL     1      45.648  19.629  77.832  1.00  0.00     0.053 C 
BRANCH   2   3
ATOM      3  C   UNL     1      45.804  18.506  76.854  1.00  0.00     0.041 C 
ATOM      4  O   UNL     1      45.713  17.311  77.240  1.00  0.00    -0.550 OA
ATOM      5  O   UNL     1      46.019  18.780  75.508  1.00  0.00    -0.550 OA
ENDBRANCH   2   3
ENDBRANCH   1   2
BRANCH   1   6
ATOM      6  C   UNL     1      43.440  20.963  78.047  1.00  0.00     0.000 C 
BRANCH   6   7
ATOM      7  C   UNL     1      41.963  20.970  78.492  1.00  0.00    -0.000 C 
BRANCH   7   8
ATOM      8  C   UNL     1      41.603  19.922  79.558  1.00  0.00    -0.003 C 
ATOM      9  C   UNL     1      40.095  19.758  79.749  1.00  0.00     0.004 C 
ENDBRANCH   7   8
ENDBRANCH   6   7
ENDBRANCH   1   6
TORSDOF 5
ENDMDL
