MODEL 1
REMARK VINA RESULT:    -4.833      0.000      0.000
REMARK INTER + INTRA:          -4.833
REMARK INTER:                  -4.833
REMARK INTRA:                   0.000
REMARK UNBOUND:                 0.000
REMARK SMILES O=c1ccc2ccccc2o1
REMARK SMILES IDX 7 1 8 2 9 3 10 4 5 5 6 6 4 7 3 8 2 9 1 10 11 11
REMARK H PARENT
REMARK Flexibility Score: inf
ROOT
ATOM      1  C   UNL     1      11.742  -4.214 -21.721  1.00  0.00     0.001 A 
ATOM      2  C   UNL     1      12.254  -3.608 -22.873  1.00  0.00     0.004 A 
ATOM      3  C   UNL     1      11.406  -3.300 -23.943  1.00  0.00     0.048 A 
ATOM      4  C   UNL     1      10.042  -3.597 -23.864  1.00  0.00     0.138 A 
ATOM      5  C   UNL     1       9.524  -4.210 -22.700  1.00  0.00     0.018 A 
ATOM      6  C   UNL     1      10.379  -4.517 -21.631  1.00  0.00     0.012 A 
ATOM      7  C   UNL     1       8.156  -4.496 -22.650  1.00  0.00     0.019 A 
ATOM      8  C   UNL     1       7.348  -4.171 -23.740  1.00  0.00     0.094 A 
ATOM      9  C   UNL     1       7.931  -3.566 -24.859  1.00  0.00     0.336 A 
ATOM     10  O   UNL     1       7.219  -3.265 -25.852  1.00  0.00    -0.246 OA
ATOM     11  O   UNL     1       9.236  -3.304 -24.882  1.00  0.00    -0.423 OA
ENDROOT
TORSDOF 0
ENDMDL
MODEL 2
REMARK VINA RESULT:    -4.812      2.573      5.117
REMARK INTER + INTRA:          -4.812
REMARK INTER:                  -4.812
REMARK INTRA:                   0.000
REMARK UNBOUND:                 0.000
REMARK SMILES O=c1ccc2ccccc2o1
REMARK SMILES IDX 7 1 8 2 9 3 10 4 5 5 6 6 4 7 3 8 2 9 1 10 11 11
REMARK H PARENT
REMARK Flexibility Score: inf
ROOT
ATOM      1  C   UNL     1       4.941  -5.071 -26.957  1.00  0.00     0.001 A 
ATOM      2  C   UNL     1       4.888  -3.743 -26.516  1.00  0.00     0.004 A 
ATOM      3  C   UNL     1       5.734  -3.308 -25.491  1.00  0.00     0.048 A 
ATOM      4  C   UNL     1       6.636  -4.198 -24.901  1.00  0.00     0.138 A 
ATOM      5  C   UNL     1       6.690  -5.539 -25.344  1.00  0.00     0.018 A 
ATOM      6  C   UNL     1       5.839  -5.970 -26.373  1.00  0.00     0.012 A 
ATOM      7  C   UNL     1       7.602  -6.407 -24.736  1.00  0.00     0.019 A 
ATOM      8  C   UNL     1       8.426  -5.930 -23.717  1.00  0.00     0.094 A 
ATOM      9  C   UNL     1       8.317  -4.589 -23.329  1.00  0.00     0.336 A 
ATOM     10  O   UNL     1       9.052  -4.139 -22.411  1.00  0.00    -0.246 OA
ATOM     11  O   UNL     1       7.441  -3.784 -23.924  1.00  0.00    -0.423 OA
ENDROOT
TORSDOF 0
ENDMDL
MODEL 3
REMARK VINA RESULT:    -4.801      1.968      4.387
REMARK INTER + INTRA:          -4.801
REMARK INTER:                  -4.801
REMARK INTRA:                   0.000
REMARK UNBOUND:                 0.000
REMARK SMILES O=c1ccc2ccccc2o1
REMARK SMILES IDX 7 1 8 2 9 3 10 4 5 5 6 6 4 7 3 8 2 9 1 10 11 11
REMARK H PARENT
REMARK Flexibility Score: inf
ROOT
ATOM      1  C   UNL     1       7.879  -3.708 -24.954  1.00  0.00     0.001 A 
ATOM      2  C   UNL     1       7.359  -4.265 -23.780  1.00  0.00     0.004 A 
ATOM      3  C   UNL     1       8.191  -4.490 -22.679  1.00  0.00     0.048 A 
ATOM      4  C   UNL     1       9.548  -4.159 -22.746  1.00  0.00     0.138 A 
ATOM      5  C   UNL     1      10.074  -3.596 -23.931  1.00  0.00     0.018 A 
ATOM      6  C   UNL     1       9.235  -3.373 -25.033  1.00  0.00     0.012 A 
ATOM      7  C   UNL     1      11.434  -3.275 -23.969  1.00  0.00     0.019 A 
ATOM      8  C   UNL     1      12.227  -3.517 -22.847  1.00  0.00     0.094 A 
ATOM      9  C   UNL     1      11.637  -4.077 -21.709  1.00  0.00     0.336 A 
ATOM     10  O   UNL     1      12.335  -4.302 -20.686  1.00  0.00    -0.246 OA
ATOM     11  O   UNL     1      10.340  -4.374 -21.698  1.00  0.00    -0.423 OA
ENDROOT
TORSDOF 0
ENDMDL
MODEL 4
REMARK VINA RESULT:    -4.791      9.820     10.643
REMARK INTER + INTRA:          -4.791
REMARK INTER:                  -4.791
REMARK INTRA:                   0.000
REMARK UNBOUND:                 0.000
REMARK SMILES O=c1ccc2ccccc2o1
REMARK SMILES IDX 7 1 8 2 9 3 10 4 5 5 6 6 4 7 3 8 2 9 1 10 11 11
REMARK H PARENT
REMARK Flexibility Score: inf
ROOT
ATOM      1  C   UNL     1      17.138  -5.811 -15.978  1.00  0.00     0.001 A 
ATOM      2  C   UNL     1      18.358  -6.345 -16.408  1.00  0.00     0.004 A 
ATOM      3  C   UNL     1      19.118  -5.676 -17.373  1.00  0.00     0.048 A 
ATOM      4  C   UNL     1      18.660  -4.470 -17.913  1.00  0.00     0.138 A 
ATOM      5  C   UNL     1      17.427  -3.930 -17.480  1.00  0.00     0.018 A 
ATOM      6  C   UNL     1      16.670  -4.606 -16.512  1.00  0.00     0.012 A 
ATOM      7  C   UNL     1      16.995  -2.723 -18.038  1.00  0.00     0.019 A 
ATOM      8  C   UNL     1      17.785  -2.091 -18.998  1.00  0.00     0.094 A 
ATOM      9  C   UNL     1      18.994  -2.684 -19.378  1.00  0.00     0.336 A 
ATOM     10  O   UNL     1      19.721  -2.128 -20.243  1.00  0.00    -0.246 OA
ATOM     11  O   UNL     1      19.383  -3.833 -18.832  1.00  0.00    -0.423 OA
ENDROOT
TORSDOF 0
ENDMDL
MODEL 5
REMARK VINA RESULT:    -4.762      2.848      5.085
REMARK INTER + INTRA:          -4.762
REMARK INTER:                  -4.762
REMARK INTRA:                   0.000
REMARK UNBOUND:                 0.000
REMARK SMILES O=c1ccc2ccccc2o1
REMARK SMILES IDX 7 1 8 2 9 3 10 4 5 5 6 6 4 7 3 8 2 9 1 10 11 11
REMARK H PARENT
REMARK Flexibility Score: inf
ROOT
ATOM      1  C   UNL     1       5.486  -4.123 -26.451  1.00  0.00     0.001 A 
ATOM      2  C   UNL     1       5.512  -5.489 -26.756  1.00  0.00     0.004 A 
ATOM      3  C   UNL     1       6.249  -6.373 -25.961  1.00  0.00     0.048 A 
ATOM      4  C   UNL     1       6.963  -5.895 -24.858  1.00  0.00     0.138 A 
ATOM      5  C   UNL     1       6.938  -4.516 -24.550  1.00  0.00     0.018 A 
ATOM      6  C   UNL     1       6.197  -3.634 -25.350  1.00  0.00     0.012 A 
ATOM      7  C   UNL     1       7.662  -4.067 -23.441  1.00  0.00     0.019 A 
ATOM      8  C   UNL     1       8.383  -4.985 -22.677  1.00  0.00     0.094 A 
ATOM      9  C   UNL     1       8.362  -6.336 -23.043  1.00  0.00     0.336 A 
ATOM     10  O   UNL     1       9.006  -7.180 -22.366  1.00  0.00    -0.246 OA
ATOM     11  O   UNL     1       7.665  -6.737 -24.103  1.00  0.00    -0.423 OA
ENDROOT
TORSDOF 0
ENDMDL
MODEL 6
REMARK VINA RESULT:    -4.742      1.677      3.832
REMARK INTER + INTRA:          -4.742
REMARK INTER:                  -4.742
REMARK INTRA:                   0.000
REMARK UNBOUND:                 0.000
REMARK SMILES O=c1ccc2ccccc2o1
REMARK SMILES IDX 7 1 8 2 9 3 10 4 5 5 6 6 4 7 3 8 2 9 1 10 11 11
REMARK H PARENT
REMARK Flexibility Score: inf
ROOT
ATOM      1  C   UNL     1       7.116  -4.187 -24.262  1.00  0.00     0.001 A 
ATOM      2  C   UNL     1       7.887  -3.558 -25.246  1.00  0.00     0.004 A 
ATOM      3  C   UNL     1       9.252  -3.334 -25.034  1.00  0.00     0.048 A 
ATOM      4  C   UNL     1       9.851  -3.739 -23.837  1.00  0.00     0.138 A 
ATOM      5  C   UNL     1       9.073  -4.374 -22.843  1.00  0.00     0.018 A 
ATOM      6  C   UNL     1       7.705  -4.596 -23.061  1.00  0.00     0.012 A 
ATOM      7  C   UNL     1       9.699  -4.768 -21.657  1.00  0.00     0.019 A 
ATOM      8  C   UNL     1      11.062  -4.525 -21.489  1.00  0.00     0.094 A 
ATOM      9  C   UNL     1      11.769  -3.891 -22.517  1.00  0.00     0.336 A 
ATOM     10  O   UNL     1      13.000  -3.662 -22.384  1.00  0.00    -0.246 OA
ATOM     11  O   UNL     1      11.150  -3.525 -23.636  1.00  0.00    -0.423 OA
ENDROOT
TORSDOF 0
ENDMDL
MODEL 7
REMARK VINA RESULT:    -4.730      3.499      4.786
REMARK INTER + INTRA:          -4.730
REMARK INTER:                  -4.730
REMARK INTRA:                   0.000
REMARK UNBOUND:                 0.000
REMARK SMILES O=c1ccc2ccccc2o1
REMARK SMILES IDX 7 1 8 2 9 3 10 4 5 5 6 6 4 7 3 8 2 9 1 10 11 11
REMARK H PARENT
REMARK Flexibility Score: inf
ROOT
ATOM      1  C   UNL     1       7.212  -3.758 -24.759  1.00  0.00     0.001 A 
ATOM      2  C   UNL     1       7.007  -4.798 -25.672  1.00  0.00     0.004 A 
ATOM      3  C   UNL     1       6.992  -6.126 -25.235  1.00  0.00     0.048 A 
ATOM      4  C   UNL     1       7.183  -6.420 -23.881  1.00  0.00     0.138 A 
ATOM      5  C   UNL     1       7.392  -5.371 -22.957  1.00  0.00     0.018 A 
ATOM      6  C   UNL     1       7.405  -4.040 -23.402  1.00  0.00     0.012 A 
ATOM      7  C   UNL     1       7.580  -5.695 -21.611  1.00  0.00     0.019 A 
ATOM      8  C   UNL     1       7.558  -7.033 -21.219  1.00  0.00     0.094 A 
ATOM      9  C   UNL     1       7.346  -8.020 -22.189  1.00  0.00     0.336 A 
ATOM     10  O   UNL     1       7.322  -9.233 -21.856  1.00  0.00    -0.246 OA
ATOM     11  O   UNL     1       7.170  -7.685 -23.465  1.00  0.00    -0.423 OA
ENDROOT
TORSDOF 0
ENDMDL
MODEL 8
REMARK VINA RESULT:    -4.713      1.778      4.213
REMARK INTER + INTRA:          -4.713
REMARK INTER:                  -4.713
REMARK INTRA:                   0.000
REMARK UNBOUND:                 0.000
REMARK SMILES O=c1ccc2ccccc2o1
REMARK SMILES IDX 7 1 8 2 9 3 10 4 5 5 6 6 4 7 3 8 2 9 1 10 11 11
REMARK H PARENT
REMARK Flexibility Score: inf
ROOT
ATOM      1  C   UNL     1       6.175  -5.510 -25.763  1.00  0.00     0.001 A 
ATOM      2  C   UNL     1       6.228  -4.150 -26.087  1.00  0.00     0.004 A 
ATOM      3  C   UNL     1       7.312  -3.369 -25.672  1.00  0.00     0.048 A 
ATOM      4  C   UNL     1       8.348  -3.946 -24.931  1.00  0.00     0.138 A 
ATOM      5  C   UNL     1       8.295  -5.320 -24.603  1.00  0.00     0.018 A 
ATOM      6  C   UNL     1       7.205  -6.098 -25.022  1.00  0.00     0.012 A 
ATOM      7  C   UNL     1       9.344  -5.870 -23.860  1.00  0.00     0.019 A 
ATOM      8  C   UNL     1      10.405  -5.054 -23.467  1.00  0.00     0.094 A 
ATOM      9  C   UNL     1      10.390  -3.702 -23.828  1.00  0.00     0.336 A 
ATOM     10  O   UNL     1      11.339  -2.950 -23.484  1.00  0.00    -0.246 OA
ATOM     11  O   UNL     1       9.379  -3.203 -24.535  1.00  0.00    -0.423 OA
ENDROOT
TORSDOF 0
ENDMDL
MODEL 9
REMARK VINA RESULT:    -4.688     16.304     17.417
REMARK INTER + INTRA:          -4.688
REMARK INTER:                  -4.688
REMARK INTRA:                   0.000
REMARK UNBOUND:                 0.000
REMARK SMILES O=c1ccc2ccccc2o1
REMARK SMILES IDX 7 1 8 2 9 3 10 4 5 5 6 6 4 7 3 8 2 9 1 10 11 11
REMARK H PARENT
REMARK Flexibility Score: inf
ROOT
ATOM      1  C   UNL     1      21.617   5.394 -19.758  1.00  0.00     0.001 A 
ATOM      2  C   UNL     1      22.361   4.781 -18.743  1.00  0.00     0.004 A 
ATOM      3  C   UNL     1      22.391   5.336 -17.459  1.00  0.00     0.048 A 
ATOM      4  C   UNL     1      21.677   6.507 -17.185  1.00  0.00     0.138 A 
ATOM      5  C   UNL     1      20.926   7.127 -18.210  1.00  0.00     0.018 A 
ATOM      6  C   UNL     1      20.900   6.566 -19.495  1.00  0.00     0.012 A 
ATOM      7  C   UNL     1      20.223   8.297 -17.907  1.00  0.00     0.019 A 
ATOM      8  C   UNL     1      20.281   8.815 -16.613  1.00  0.00     0.094 A 
ATOM      9  C   UNL     1      21.045   8.147 -15.650  1.00  0.00     0.336 A 
ATOM     10  O   UNL     1      21.111   8.599 -14.476  1.00  0.00    -0.246 OA
ATOM     11  O   UNL     1      21.706   7.036 -15.964  1.00  0.00    -0.423 OA
ENDROOT
TORSDOF 0
ENDMDL
