MODEL 1
REMARK VINA RESULT:    -3.057      0.000      0.000
REMARK INTER + INTRA:          -6.727
REMARK INTER:                  -7.704
REMARK INTRA:                   0.978
REMARK UNBOUND:                 0.978
REMARK SMILES CCCCCCCCCCCCCCCCCCCCCCCCCCCC(=O)[O-]
REMARK SMILES IDX 15 1 16 2 17 3 18 4 19 5 20 6 21 7 22 8 23 9 24 10 25 11
REMARK SMILES IDX 26 12 27 13 28 14 29 15 30 16 14 17 13 18 12 19 11 20 10 21
REMARK SMILES IDX 9 22 8 23 7 24 6 25 5 26 4 27 3 28 2 29 1 30
REMARK H PARENT
REMARK Flexibility Score: inf
ROOT
ATOM      1  C   UNL     1      44.783  30.005   2.383  1.00  0.00     0.000 C 
ENDROOT
BRANCH   1   2
ATOM      2  C   UNL     1      45.730  30.050   1.166  1.00  0.00     0.000 C 
BRANCH   2   3
ATOM      3  C   UNL     1      46.537  28.765   0.909  1.00  0.00     0.000 C 
BRANCH   3   4
ATOM      4  C   UNL     1      47.069  28.677  -0.532  1.00  0.00     0.000 C 
BRANCH   4   5
ATOM      5  C   UNL     1      47.099  30.039  -1.244  1.00  0.00     0.000 C 
BRANCH   5   6
ATOM      6  C   UNL     1      46.096  30.120  -2.407  1.00  0.00     0.000 C 
BRANCH   6   7
ATOM      7  C   UNL     1      46.509  29.261  -3.618  1.00  0.00     0.000 C 
BRANCH   7   8
ATOM      8  C   UNL     1      46.480  27.736  -3.386  1.00  0.00     0.000 C 
BRANCH   8   9
ATOM      9  C   UNL     1      46.422  26.881  -4.665  1.00  0.00     0.000 C 
BRANCH   9  10
ATOM     10  C   UNL     1      46.633  27.708  -5.944  1.00  0.00     0.000 C 
BRANCH  10  11
ATOM     11  C   UNL     1      45.349  27.857  -6.778  1.00  0.00     0.000 C 
BRANCH  11  12
ATOM     12  C   UNL     1      44.485  29.088  -6.428  1.00  0.00     0.006 C 
BRANCH  12  13
ATOM     13  C   UNL     1      43.529  28.882  -5.243  1.00  0.00     0.053 C 
BRANCH  13  14
ATOM     14  C   UNL     1      42.094  28.977  -5.657  1.00  0.00     0.041 C 
ATOM     15  O   UNL     1      41.266  28.107  -5.280  1.00  0.00    -0.550 OA
ATOM     16  O   UNL     1      41.674  30.014  -6.481  1.00  0.00    -0.550 OA
ENDBRANCH  13  14
ENDBRANCH  12  13
ENDBRANCH  11  12
ENDBRANCH  10  11
ENDBRANCH   9  10
ENDBRANCH   8   9
ENDBRANCH   7   8
ENDBRANCH   6   7
ENDBRANCH   5   6
ENDBRANCH   4   5
ENDBRANCH   3   4
ENDBRANCH   2   3
ENDBRANCH   1   2
BRANCH   1  17
ATOM     17  C   UNL     1      43.283  29.847   2.058  1.00  0.00     0.000 C 
BRANCH  17  18
ATOM     18  C   UNL     1      42.362  29.726   3.294  1.00  0.00     0.000 C 
BRANCH  18  19
ATOM     19  C   UNL     1      41.362  28.553   3.223  1.00  0.00     0.000 C 
BRANCH  19  20
ATOM     20  C   UNL     1      41.787  27.389   2.311  1.00  0.00     0.000 C 
BRANCH  20  21
ATOM     21  C   UNL     1      43.309  27.330   2.088  1.00  0.00     0.000 C 
BRANCH  21  22
ATOM     22  C   UNL     1      44.091  27.138   3.397  1.00  0.00    -0.000 C 
BRANCH  22  23
ATOM     23  C   UNL     1      44.807  25.777   3.451  1.00  0.00    -0.000 C 
BRANCH  23  24
ATOM     24  C   UNL     1      46.295  25.896   3.812  1.00  0.00    -0.000 C 
BRANCH  24  25
ATOM     25  C   UNL     1      46.538  25.852   5.332  1.00  0.00    -0.000 C 
BRANCH  25  26
ATOM     26  C   UNL     1      47.124  27.165   5.881  1.00  0.00    -0.000 C 
BRANCH  26  27
ATOM     27  C   UNL     1      46.516  27.651   7.213  1.00  0.00    -0.000 C 
BRANCH  27  28
ATOM     28  C   UNL     1      45.836  29.033   7.125  1.00  0.00    -0.000 C 
BRANCH  28  29
ATOM     29  C   UNL     1      45.294  29.503   8.484  1.00  0.00    -0.003 C 
ATOM     30  C   UNL     1      45.004  28.319   9.402  1.00  0.00     0.004 C 
ENDBRANCH  28  29
ENDBRANCH  27  28
ENDBRANCH  26  27
ENDBRANCH  25  26
ENDBRANCH  24  25
ENDBRANCH  23  24
ENDBRANCH  22  23
ENDBRANCH  21  22
ENDBRANCH  20  21
ENDBRANCH  19  20
ENDBRANCH  18  19
ENDBRANCH  17  18
ENDBRANCH   1  17
TORSDOF 26
ENDMDL
MODEL 2
REMARK VINA RESULT:    -2.064      4.257     10.288
REMARK INTER + INTRA:          -4.224
REMARK INTER:                  -4.492
REMARK INTRA:                   0.268
REMARK UNBOUND:                 0.978
REMARK SMILES CCCCCCCCCCCCCCCCCCCCCCCCCCCC(=O)[O-]
REMARK SMILES IDX 15 1 16 2 17 3 18 4 19 5 20 6 21 7 22 8 23 9 24 10 25 11
REMARK SMILES IDX 26 12 27 13 28 14 29 15 30 16 14 17 13 18 12 19 11 20 10 21
REMARK SMILES IDX 9 22 8 23 7 24 6 25 5 26 4 27 3 28 2 29 1 30
REMARK H PARENT
REMARK Flexibility Score: inf
ROOT
ATOM      1  C   UNL     1      41.327  27.154   1.823  1.00  0.00     0.000 C 
ENDROOT
BRANCH   1   2
ATOM      2  C   UNL     1      41.115  27.981   3.108  1.00  0.00     0.000 C 
BRANCH   2   3
ATOM      3  C   UNL     1      41.189  29.508   2.932  1.00  0.00     0.000 C 
BRANCH   3   4
ATOM      4  C   UNL     1      42.422  30.125   3.614  1.00  0.00     0.000 C 
BRANCH   4   5
ATOM      5  C   UNL     1      43.744  29.507   3.133  1.00  0.00     0.000 C 
BRANCH   5   6
ATOM      6  C   UNL     1      44.972  30.125   3.824  1.00  0.00     0.000 C 
BRANCH   6   7
ATOM      7  C   UNL     1      45.773  29.102   4.652  1.00  0.00     0.000 C 
BRANCH   7   8
ATOM      8  C   UNL     1      47.011  29.668   5.380  1.00  0.00     0.000 C 
BRANCH   8   9
ATOM      9  C   UNL     1      47.019  29.469   6.907  1.00  0.00     0.000 C 
BRANCH   9  10
ATOM     10  C   UNL     1      45.618  29.586   7.530  1.00  0.00     0.000 C 
BRANCH  10  11
ATOM     11  C   UNL     1      45.658  29.837   9.048  1.00  0.00     0.000 C 
BRANCH  11  12
ATOM     12  C   UNL     1      46.894  29.262   9.770  1.00  0.00     0.006 C 
BRANCH  12  13
ATOM     13  C   UNL     1      46.684  27.872  10.391  1.00  0.00     0.053 C 
BRANCH  13  14
ATOM     14  C   UNL     1      45.823  26.998   9.533  1.00  0.00     0.041 C 
ATOM     15  O   UNL     1      44.577  26.962   9.712  1.00  0.00    -0.550 OA
ATOM     16  O   UNL     1      46.401  26.204   8.549  1.00  0.00    -0.550 OA
ENDBRANCH  13  14
ENDBRANCH  12  13
ENDBRANCH  11  12
ENDBRANCH  10  11
ENDBRANCH   9  10
ENDBRANCH   8   9
ENDBRANCH   7   8
ENDBRANCH   6   7
ENDBRANCH   5   6
ENDBRANCH   4   5
ENDBRANCH   3   4
ENDBRANCH   2   3
ENDBRANCH   1   2
BRANCH   1  17
ATOM     17  C   UNL     1      42.787  26.759   1.515  1.00  0.00     0.000 C 
BRANCH  17  18
ATOM     18  C   UNL     1      43.801  27.112   2.627  1.00  0.00     0.000 C 
BRANCH  18  19
ATOM     19  C   UNL     1      44.793  25.979   2.959  1.00  0.00     0.000 C 
BRANCH  19  20
ATOM     20  C   UNL     1      46.188  26.446   3.410  1.00  0.00     0.000 C 
BRANCH  20  21
ATOM     21  C   UNL     1      47.124  26.758   2.229  1.00  0.00     0.000 C 
BRANCH  21  22
ATOM     22  C   UNL     1      46.877  28.152   1.631  1.00  0.00    -0.000 C 
BRANCH  22  23
ATOM     23  C   UNL     1      45.954  28.100   0.400  1.00  0.00    -0.000 C 
BRANCH  23  24
ATOM     24  C   UNL     1      46.233  29.226  -0.607  1.00  0.00    -0.000 C 
BRANCH  24  25
ATOM     25  C   UNL     1      46.771  28.697  -1.949  1.00  0.00    -0.000 C 
BRANCH  25  26
ATOM     26  C   UNL     1      45.668  28.526  -3.008  1.00  0.00    -0.000 C 
BRANCH  26  27
ATOM     27  C   UNL     1      45.026  29.837  -3.508  1.00  0.00    -0.000 C 
BRANCH  27  28
ATOM     28  C   UNL     1      44.550  29.783  -4.975  1.00  0.00    -0.000 C 
BRANCH  28  29
ATOM     29  C   UNL     1      43.368  28.821  -5.169  1.00  0.00    -0.003 C 
ATOM     30  C   UNL     1      43.777  27.603  -5.992  1.00  0.00     0.004 C 
ENDBRANCH  28  29
ENDBRANCH  27  28
ENDBRANCH  26  27
ENDBRANCH  25  26
ENDBRANCH  24  25
ENDBRANCH  23  24
ENDBRANCH  22  23
ENDBRANCH  21  22
ENDBRANCH  20  21
ENDBRANCH  19  20
ENDBRANCH  18  19
ENDBRANCH  17  18
ENDBRANCH   1  17
TORSDOF 26
ENDMDL
MODEL 3
REMARK VINA RESULT:    -1.608      1.534      3.196
REMARK INTER + INTRA:          -3.074
REMARK INTER:                  -1.659
REMARK INTRA:                  -1.415
REMARK UNBOUND:                 0.978
REMARK SMILES CCCCCCCCCCCCCCCCCCCCCCCCCCCC(=O)[O-]
REMARK SMILES IDX 15 1 16 2 17 3 18 4 19 5 20 6 21 7 22 8 23 9 24 10 25 11
REMARK SMILES IDX 26 12 27 13 28 14 29 15 30 16 14 17 13 18 12 19 11 20 10 21
REMARK SMILES IDX 9 22 8 23 7 24 6 25 5 26 4 27 3 28 2 29 1 30
REMARK H PARENT
REMARK Flexibility Score: inf
ROOT
ATOM      1  C   UNL     1      44.367  29.145   3.179  1.00  0.00     0.000 C 
ENDROOT
BRANCH   1   2
ATOM      2  C   UNL     1      43.684  30.033   2.118  1.00  0.00     0.000 C 
BRANCH   2   3
ATOM      3  C   UNL     1      44.406  30.117   0.762  1.00  0.00     0.000 C 
BRANCH   3   4
ATOM      4  C   UNL     1      45.206  28.844   0.436  1.00  0.00     0.000 C 
BRANCH   4   5
ATOM      5  C   UNL     1      46.611  29.143  -0.112  1.00  0.00     0.000 C 
BRANCH   5   6
ATOM      6  C   UNL     1      46.970  28.273  -1.328  1.00  0.00     0.000 C 
BRANCH   6   7
ATOM      7  C   UNL     1      46.393  28.818  -2.648  1.00  0.00     0.000 C 
BRANCH   7   8
ATOM      8  C   UNL     1      47.125  28.360  -3.927  1.00  0.00     0.000 C 
BRANCH   8   9
ATOM      9  C   UNL     1      46.222  28.145  -5.156  1.00  0.00     0.000 C 
BRANCH   9  10
ATOM     10  C   UNL     1      46.589  29.066  -6.332  1.00  0.00     0.000 C 
BRANCH  10  11
ATOM     11  C   UNL     1      45.475  30.070  -6.675  1.00  0.00     0.000 C 
BRANCH  11  12
ATOM     12  C   UNL     1      44.128  29.434  -7.079  1.00  0.00     0.006 C 
BRANCH  12  13
ATOM     13  C   UNL     1      43.490  28.547  -5.998  1.00  0.00     0.053 C 
BRANCH  13  14
ATOM     14  C   UNL     1      42.017  28.783  -5.876  1.00  0.00     0.041 C 
ATOM     15  O   UNL     1      41.296  27.976  -5.233  1.00  0.00    -0.550 OA
ATOM     16  O   UNL     1      41.435  29.884  -6.493  1.00  0.00    -0.550 OA
ENDBRANCH  13  14
ENDBRANCH  12  13
ENDBRANCH  11  12
ENDBRANCH  10  11
ENDBRANCH   9  10
ENDBRANCH   8   9
ENDBRANCH   7   8
ENDBRANCH   6   7
ENDBRANCH   5   6
ENDBRANCH   4   5
ENDBRANCH   3   4
ENDBRANCH   2   3
ENDBRANCH   1   2
BRANCH   1  17
ATOM     17  C   UNL     1      45.631  29.739   3.835  1.00  0.00     0.000 C 
BRANCH  17  18
ATOM     18  C   UNL     1      46.786  28.732   4.043  1.00  0.00     0.000 C 
BRANCH  18  19
ATOM     19  C   UNL     1      46.747  27.522   3.087  1.00  0.00     0.000 C 
BRANCH  19  20
ATOM     20  C   UNL     1      46.625  26.152   3.777  1.00  0.00     0.000 C 
BRANCH  20  21
ATOM     21  C   UNL     1      46.022  26.246   5.190  1.00  0.00     0.000 C 
BRANCH  21  22
ATOM     22  C   UNL     1      47.062  26.001   6.294  1.00  0.00    -0.000 C 
BRANCH  22  23
ATOM     23  C   UNL     1      47.125  27.164   7.300  1.00  0.00    -0.000 C 
BRANCH  23  24
ATOM     24  C   UNL     1      45.829  27.988   7.347  1.00  0.00    -0.000 C 
BRANCH  24  25
ATOM     25  C   UNL     1      46.002  29.316   8.107  1.00  0.00    -0.000 C 
BRANCH  25  26
ATOM     26  C   UNL     1      45.660  29.196   9.602  1.00  0.00    -0.000 C 
BRANCH  26  27
ATOM     27  C   UNL     1      46.860  28.926  10.533  1.00  0.00    -0.000 C 
BRANCH  27  28
ATOM     28  C   UNL     1      46.792  27.570  11.268  1.00  0.00    -0.000 C 
BRANCH  28  29
ATOM     29  C   UNL     1      46.923  26.379  10.306  1.00  0.00    -0.003 C 
ATOM     30  C   UNL     1      46.897  25.054  11.062  1.00  0.00     0.004 C 
ENDBRANCH  28  29
ENDBRANCH  27  28
ENDBRANCH  26  27
ENDBRANCH  25  26
ENDBRANCH  24  25
ENDBRANCH  23  24
ENDBRANCH  22  23
ENDBRANCH  21  22
ENDBRANCH  20  21
ENDBRANCH  19  20
ENDBRANCH  18  19
ENDBRANCH  17  18
ENDBRANCH   1  17
TORSDOF 26
ENDMDL
MODEL 4
REMARK VINA RESULT:    -0.507      1.622      3.901
REMARK INTER + INTRA:          -0.299
REMARK INTER:                  -2.682
REMARK INTRA:                   2.382
REMARK UNBOUND:                 0.978
REMARK SMILES CCCCCCCCCCCCCCCCCCCCCCCCCCCC(=O)[O-]
REMARK SMILES IDX 15 1 16 2 17 3 18 4 19 5 20 6 21 7 22 8 23 9 24 10 25 11
REMARK SMILES IDX 26 12 27 13 28 14 29 15 30 16 14 17 13 18 12 19 11 20 10 21
REMARK SMILES IDX 9 22 8 23 7 24 6 25 5 26 4 27 3 28 2 29 1 30
REMARK H PARENT
REMARK Flexibility Score: inf
ROOT
ATOM      1  C   UNL     1      45.805  29.988   2.359  1.00  0.00     0.000 C 
ENDROOT
BRANCH   1   2
ATOM      2  C   UNL     1      44.334  29.527   2.394  1.00  0.00     0.000 C 
BRANCH   2   3
ATOM      3  C   UNL     1      43.664  29.348   1.020  1.00  0.00     0.000 C 
BRANCH   3   4
ATOM      4  C   UNL     1      44.447  30.030  -0.115  1.00  0.00     0.000 C 
BRANCH   4   5
ATOM      5  C   UNL     1      45.970  29.959   0.081  1.00  0.00     0.000 C 
BRANCH   5   6
ATOM      6  C   UNL     1      46.712  29.531  -1.196  1.00  0.00     0.000 C 
BRANCH   6   7
ATOM      7  C   UNL     1      45.941  28.476  -2.014  1.00  0.00     0.000 C 
BRANCH   7   8
ATOM      8  C   UNL     1      45.695  28.839  -3.493  1.00  0.00     0.000 C 
BRANCH   8   9
ATOM      9  C   UNL     1      46.959  29.178  -4.303  1.00  0.00     0.000 C 
BRANCH   9  10
ATOM     10  C   UNL     1      46.672  30.112  -5.491  1.00  0.00     0.000 C 
BRANCH  10  11
ATOM     11  C   UNL     1      45.939  29.404  -6.644  1.00  0.00     0.000 C 
BRANCH  11  12
ATOM     12  C   UNL     1      45.620  27.915  -6.395  1.00  0.00     0.006 C 
BRANCH  12  13
ATOM     13  C   UNL     1      44.227  27.471  -6.867  1.00  0.00     0.053 C 
BRANCH  13  14
ATOM     14  C   UNL     1      43.134  28.232  -6.185  1.00  0.00     0.041 C 
ATOM     15  O   UNL     1      42.849  27.992  -4.982  1.00  0.00    -0.550 OA
ATOM     16  O   UNL     1      42.412  29.191  -6.885  1.00  0.00    -0.550 OA
ENDBRANCH  13  14
ENDBRANCH  12  13
ENDBRANCH  11  12
ENDBRANCH  10  11
ENDBRANCH   9  10
ENDBRANCH   8   9
ENDBRANCH   7   8
ENDBRANCH   6   7
ENDBRANCH   5   6
ENDBRANCH   4   5
ENDBRANCH   3   4
ENDBRANCH   2   3
ENDBRANCH   1   2
BRANCH   1  17
ATOM     17  C   UNL     1      46.860  28.860   2.357  1.00  0.00     0.000 C 
BRANCH  17  18
ATOM     18  C   UNL     1      47.125  28.220   3.738  1.00  0.00     0.000 C 
BRANCH  18  19
ATOM     19  C   UNL     1      46.027  28.500   4.785  1.00  0.00     0.000 C 
BRANCH  19  20
ATOM     20  C   UNL     1      46.298  29.702   5.706  1.00  0.00     0.000 C 
BRANCH  20  21
ATOM     21  C   UNL     1      46.016  29.394   7.188  1.00  0.00     0.000 C 
BRANCH  21  22
ATOM     22  C   UNL     1      47.005  30.091   8.134  1.00  0.00    -0.000 C 
BRANCH  22  23
ATOM     23  C   UNL     1      47.014  29.454   9.536  1.00  0.00    -0.000 C 
BRANCH  23  24
ATOM     24  C   UNL     1      45.695  28.747   9.881  1.00  0.00    -0.000 C 
BRANCH  24  25
ATOM     25  C   UNL     1      45.913  27.309  10.388  1.00  0.00    -0.000 C 
BRANCH  25  26
ATOM     26  C   UNL     1      46.777  26.465   9.435  1.00  0.00    -0.000 C 
BRANCH  26  27
ATOM     27  C   UNL     1      46.236  26.335   7.996  1.00  0.00    -0.000 C 
BRANCH  27  28
ATOM     28  C   UNL     1      47.125  25.483   7.066  1.00  0.00    -0.000 C 
BRANCH  28  29
ATOM     29  C   UNL     1      46.919  25.831   5.583  1.00  0.00    -0.003 C 
ATOM     30  C   UNL     1      46.132  24.739   4.864  1.00  0.00     0.004 C 
ENDBRANCH  28  29
ENDBRANCH  27  28
ENDBRANCH  26  27
ENDBRANCH  25  26
ENDBRANCH  24  25
ENDBRANCH  23  24
ENDBRANCH  22  23
ENDBRANCH  21  22
ENDBRANCH  20  21
ENDBRANCH  19  20
ENDBRANCH  18  19
ENDBRANCH  17  18
ENDBRANCH   1  17
TORSDOF 26
ENDMDL
