MODEL 1
REMARK VINA RESULT:    60.982      0.000      0.000
REMARK INTER + INTRA:          95.494
REMARK INTER:                  89.501
REMARK INTRA:                   5.993
REMARK UNBOUND:                 5.993
REMARK SMILES O=c1c(O[C@H]2O[C@H](CO)[C@H](O)[C@@H](O)[C@@H]2O)c(-c2ccc(O)c(O)c2)oc2cc(O)cc(O)c12
REMARK SMILES IDX 4 1 3 2 16 3 25 4 2 5 26 6 1 7 33 8 27 9 31 10 28 11 30 12
REMARK SMILES IDX 17 13 18 14 19 15 20 16 24 17 22 18 21 19 23 21 32 23 29 25
REMARK SMILES IDX 5 27 14 28 6 29 12 30 7 31 10 32 15 33 13 35 8 37 9 38 11 40
REMARK H PARENT 21 20 23 22 32 24 29 26 15 34 13 36 9 39 11 41
REMARK Flexibility Score: inf
ROOT
ATOM      1  O   UNL     1      -5.968  -0.277   2.767  1.00  0.00    -0.454 OA
ENDROOT
BRANCH   1   2
ATOM      2  C   UNL     1      -4.579  -0.059   2.899  1.00  0.00     0.214 A 
ATOM      3  C   UNL     1      -4.065   1.190   2.491  1.00  0.00     0.180 A 
ATOM      4  O   UNL     1      -2.765   1.449   2.584  1.00  0.00    -0.452 OA
ATOM      5  C   UNL     1      -3.667  -1.018   3.400  1.00  0.00     0.239 A 
ATOM      6  C   UNL     1      -1.884   0.584   3.063  1.00  0.00     0.146 A 
ATOM      7  O   UNL     1      -4.073  -2.151   3.753  1.00  0.00    -0.285 OA
ATOM      8  C   UNL     1      -2.294  -0.698   3.494  1.00  0.00     0.111 A 
ATOM      9  C   UNL     1      -0.539   0.958   3.131  1.00  0.00     0.094 A 
ATOM     10  C   UNL     1      -1.318  -1.595   3.997  1.00  0.00     0.134 A 
ATOM     11  C   UNL     1       0.417   0.066   3.621  1.00  0.00     0.123 A 
ATOM     12  C   UNL     1       0.027  -1.205   4.055  1.00  0.00     0.093 A 
BRANCH   3  13
ATOM     13  C   UNL     1      -4.935   2.242   1.923  1.00  0.00     0.025 A 
ATOM     14  C   UNL     1      -4.761   2.637   0.584  1.00  0.00     0.016 A 
ATOM     15  C   UNL     1      -5.561   3.641   0.036  1.00  0.00     0.051 A 
ATOM     16  C   UNL     1      -6.533   4.279   0.823  1.00  0.00     0.157 A 
ATOM     17  C   UNL     1      -5.894   2.897   2.714  1.00  0.00     0.062 A 
ATOM     18  C   UNL     1      -6.697   3.906   2.169  1.00  0.00     0.158 A 
BRANCH  16  19
ATOM     19  O   UNL     1      -7.329   5.281   0.276  1.00  0.00    -0.504 OA
ATOM     20  H   UNL     1      -8.277   5.441   0.600  1.00  0.00     0.293 HD
ENDBRANCH  16  19
BRANCH  18  21
ATOM     21  O   UNL     1      -7.641   4.532   2.984  1.00  0.00    -0.504 OA
ATOM     22  H   UNL     1      -8.044   5.430   2.745  1.00  0.00     0.293 HD
ENDBRANCH  18  21
ENDBRANCH   3  13
BRANCH  10  23
ATOM     23  O   UNL     1      -1.677  -2.867   4.440  1.00  0.00    -0.507 OA
ATOM     24  H   UNL     1      -1.407  -3.705   3.932  1.00  0.00     0.293 HD
ENDBRANCH  10  23
BRANCH  11  25
ATOM     25  O   UNL     1       1.753   0.457   3.676  1.00  0.00    -0.508 OA
ATOM     26  H   UNL     1       2.512  -0.207   3.563  1.00  0.00     0.293 HD
ENDBRANCH  11  25
ENDBRANCH   1   2
BRANCH   1  27
ATOM     27  C   UNL     1      -6.651  -0.869   1.656  1.00  0.00     0.339 C 
ATOM     28  C   UNL     1      -6.751  -2.404   1.857  1.00  0.00     0.214 C 
ATOM     29  O   UNL     1      -6.031  -0.531   0.419  1.00  0.00    -0.332 OA
ATOM     30  C   UNL     1      -5.410  -3.122   1.597  1.00  0.00     0.180 C 
ATOM     31  C   UNL     1      -4.714  -1.052   0.337  1.00  0.00     0.179 C 
ATOM     32  C   UNL     1      -4.734  -2.596   0.311  1.00  0.00     0.177 C 
BRANCH  28  33
ATOM     33  O   UNL     1      -7.778  -2.961   1.072  1.00  0.00    -0.384 OA
ATOM     34  H   UNL     1      -8.419  -3.426   1.677  1.00  0.00     0.211 HD
ENDBRANCH  28  33
BRANCH  30  35
ATOM     35  O   UNL     1      -4.563  -2.926   2.701  1.00  0.00    -0.387 OA
ATOM     36  H   UNL     1      -5.078  -2.415   3.375  1.00  0.00     0.211 HD
ENDBRANCH  30  35
BRANCH  31  37
ATOM     37  C   UNL     1      -4.011  -0.471  -0.900  1.00  0.00     0.191 C 
BRANCH  37  38
ATOM     38  O   UNL     1      -2.684  -0.932  -0.993  1.00  0.00    -0.394 OA
ATOM     39  H   UNL     1      -2.364  -0.726  -1.908  1.00  0.00     0.210 HD
ENDBRANCH  37  38
ENDBRANCH  31  37
BRANCH  32  40
ATOM     40  O   UNL     1      -5.417  -3.061  -0.828  1.00  0.00    -0.387 OA
ATOM     41  H   UNL     1      -4.961  -3.896  -1.121  1.00  0.00     0.211 HD
ENDBRANCH  32  40
ENDBRANCH   1  27
TORSDOF 12
ENDMDL
MODEL 2
REMARK VINA RESULT:    61.773      2.228      5.831
REMARK INTER + INTRA:          96.655
REMARK INTER:                  84.460
REMARK INTRA:                  12.196
REMARK UNBOUND:                 5.993
REMARK SMILES O=c1c(O[C@H]2O[C@H](CO)[C@H](O)[C@@H](O)[C@@H]2O)c(-c2ccc(O)c(O)c2)oc2cc(O)cc(O)c12
REMARK SMILES IDX 4 1 3 2 16 3 25 4 2 5 26 6 1 7 33 8 27 9 31 10 28 11 30 12
REMARK SMILES IDX 17 13 18 14 19 15 20 16 24 17 22 18 21 19 23 21 32 23 29 25
REMARK SMILES IDX 5 27 14 28 6 29 12 30 7 31 10 32 15 33 13 35 8 37 9 38 11 40
REMARK H PARENT 21 20 23 22 32 24 29 26 15 34 13 36 9 39 11 41
REMARK Flexibility Score: inf
ROOT
ATOM      1  O   UNL     1      -2.721  -0.846   1.154  1.00  0.00    -0.454 OA
ENDROOT
BRANCH   1   2
ATOM      2  C   UNL     1      -3.008  -0.091   2.312  1.00  0.00     0.214 A 
ATOM      3  C   UNL     1      -1.928   0.287   3.139  1.00  0.00     0.180 A 
ATOM      4  O   UNL     1      -2.139   0.990   4.246  1.00  0.00    -0.452 OA
ATOM      5  C   UNL     1      -4.309   0.298   2.706  1.00  0.00     0.239 A 
ATOM      6  C   UNL     1      -3.339   1.387   4.639  1.00  0.00     0.146 A 
ATOM      7  O   UNL     1      -5.304  -0.034   2.018  1.00  0.00    -0.285 OA
ATOM      8  C   UNL     1      -4.488   1.057   3.886  1.00  0.00     0.111 A 
ATOM      9  C   UNL     1      -3.453   2.134   5.814  1.00  0.00     0.094 A 
ATOM     10  C   UNL     1      -5.756   1.498   4.343  1.00  0.00     0.134 A 
ATOM     11  C   UNL     1      -4.705   2.560   6.261  1.00  0.00     0.123 A 
ATOM     12  C   UNL     1      -5.853   2.245   5.525  1.00  0.00     0.093 A 
BRANCH   3  13
ATOM     13  C   UNL     1      -0.536  -0.103   2.827  1.00  0.00     0.025 A 
ATOM     14  C   UNL     1      -0.010   0.170   1.552  1.00  0.00     0.016 A 
ATOM     15  C   UNL     1       1.296  -0.207   1.233  1.00  0.00     0.051 A 
ATOM     16  C   UNL     1       2.088  -0.880   2.176  1.00  0.00     0.157 A 
ATOM     17  C   UNL     1       0.251  -0.796   3.762  1.00  0.00     0.062 A 
ATOM     18  C   UNL     1       1.561  -1.177   3.446  1.00  0.00     0.158 A 
BRANCH  16  19
ATOM     19  O   UNL     1       3.389  -1.257   1.857  1.00  0.00    -0.504 OA
ATOM     20  H   UNL     1       3.997  -0.656   1.311  1.00  0.00     0.293 HD
ENDBRANCH  16  19
BRANCH  18  21
ATOM     21  O   UNL     1       2.314  -1.862   4.401  1.00  0.00    -0.504 OA
ATOM     22  H   UNL     1       3.317  -1.976   4.311  1.00  0.00     0.293 HD
ENDBRANCH  18  21
ENDBRANCH   3  13
BRANCH  10  23
ATOM     23  O   UNL     1      -6.916   1.203   3.629  1.00  0.00    -0.507 OA
ATOM     24  H   UNL     1      -7.708   1.840   3.610  1.00  0.00     0.293 HD
ENDBRANCH  10  23
BRANCH  11  25
ATOM     25  O   UNL     1      -4.796   3.299   7.438  1.00  0.00    -0.508 OA
ATOM     26  H   UNL     1      -5.642   3.313   7.999  1.00  0.00     0.293 HD
ENDBRANCH  11  25
ENDBRANCH   1   2
BRANCH   1  27
ATOM     27  C   UNL     1      -3.345  -2.066   0.737  1.00  0.00     0.339 C 
ATOM     28  C   UNL     1      -4.388  -1.771  -0.371  1.00  0.00     0.214 C 
ATOM     29  O   UNL     1      -3.917  -2.764   1.839  1.00  0.00    -0.332 OA
ATOM     30  C   UNL     1      -5.680  -1.137   0.187  1.00  0.00     0.180 C 
ATOM     31  C   UNL     1      -4.968  -2.022   2.437  1.00  0.00     0.179 C 
ATOM     32  C   UNL     1      -6.156  -1.867   1.463  1.00  0.00     0.177 C 
BRANCH  28  33
ATOM     33  O   UNL     1      -4.682  -2.925  -1.123  1.00  0.00    -0.384 OA
ATOM     34  H   UNL     1      -4.877  -3.670  -0.490  1.00  0.00     0.211 HD
ENDBRANCH  28  33
BRANCH  30  35
ATOM     35  O   UNL     1      -5.440   0.220   0.468  1.00  0.00    -0.387 OA
ATOM     36  H   UNL     1      -4.461   0.326   0.567  1.00  0.00     0.211 HD
ENDBRANCH  30  35
BRANCH  31  37
ATOM     37  C   UNL     1      -5.392  -2.704   3.748  1.00  0.00     0.191 C 
BRANCH  37  38
ATOM     38  O   UNL     1      -5.044  -1.918   4.863  1.00  0.00    -0.394 OA
ATOM     39  H   UNL     1      -4.090  -2.096   5.062  1.00  0.00     0.210 HD
ENDBRANCH  37  38
ENDBRANCH  31  37
BRANCH  32  40
ATOM     40  O   UNL     1      -6.694  -3.125   1.137  1.00  0.00    -0.387 OA
ATOM     41  H   UNL     1      -6.054  -3.811   1.470  1.00  0.00     0.211 HD
ENDBRANCH  32  40
ENDBRANCH   1  27
TORSDOF 12
ENDMDL
MODEL 3
REMARK VINA RESULT:    63.511      2.192      6.134
REMARK INTER + INTRA:          99.206
REMARK INTER:                  98.135
REMARK INTRA:                   1.071
REMARK UNBOUND:                 5.993
REMARK SMILES O=c1c(O[C@H]2O[C@H](CO)[C@H](O)[C@@H](O)[C@@H]2O)c(-c2ccc(O)c(O)c2)oc2cc(O)cc(O)c12
REMARK SMILES IDX 4 1 3 2 16 3 25 4 2 5 26 6 1 7 33 8 27 9 31 10 28 11 30 12
REMARK SMILES IDX 17 13 18 14 19 15 20 16 24 17 22 18 21 19 23 21 32 23 29 25
REMARK SMILES IDX 5 27 14 28 6 29 12 30 7 31 10 32 15 33 13 35 8 37 9 38 11 40
REMARK H PARENT 21 20 23 22 32 24 29 26 15 34 13 36 9 39 11 41
REMARK Flexibility Score: inf
ROOT
ATOM      1  O   UNL     1      -4.047   0.669   1.176  1.00  0.00    -0.454 OA
ENDROOT
BRANCH   1   2
ATOM      2  C   UNL     1      -3.676   2.022   1.012  1.00  0.00     0.214 A 
ATOM      3  C   UNL     1      -2.398   2.416   1.463  1.00  0.00     0.180 A 
ATOM      4  O   UNL     1      -1.999   3.677   1.342  1.00  0.00    -0.452 OA
ATOM      5  C   UNL     1      -4.509   3.011   0.439  1.00  0.00     0.239 A 
ATOM      6  C   UNL     1      -2.743   4.627   0.797  1.00  0.00     0.146 A 
ATOM      7  O   UNL     1      -5.663   2.715   0.046  1.00  0.00    -0.285 OA
ATOM      8  C   UNL     1      -4.041   4.339   0.318  1.00  0.00     0.111 A 
ATOM      9  C   UNL     1      -2.225   5.921   0.706  1.00  0.00     0.094 A 
ATOM     10  C   UNL     1      -4.806   5.385  -0.256  1.00  0.00     0.134 A 
ATOM     11  C   UNL     1      -2.988   6.948   0.145  1.00  0.00     0.123 A 
ATOM     12  C   UNL     1      -4.273   6.679  -0.337  1.00  0.00     0.093 A 
BRANCH   3  13
ATOM     13  C   UNL     1      -1.471   1.460   2.106  1.00  0.00     0.025 A 
ATOM     14  C   UNL     1      -1.600   1.189   3.480  1.00  0.00     0.016 A 
ATOM     15  C   UNL     1      -0.721   0.303   4.109  1.00  0.00     0.051 A 
ATOM     16  C   UNL     1       0.309  -0.308   3.379  1.00  0.00     0.157 A 
ATOM     17  C   UNL     1      -0.425   0.863   1.382  1.00  0.00     0.062 A 
ATOM     18  C   UNL     1       0.458  -0.024   2.009  1.00  0.00     0.158 A 
BRANCH  16  19
ATOM     19  O   UNL     1       1.184  -1.190   4.006  1.00  0.00    -0.504 OA
ATOM     20  H   UNL     1       1.154  -2.187   3.824  1.00  0.00     0.293 HD
ENDBRANCH  16  19
BRANCH  18  21
ATOM     21  O   UNL     1       1.483  -0.600   1.257  1.00  0.00    -0.504 OA
ATOM     22  H   UNL     1       2.147  -0.038   0.738  1.00  0.00     0.293 HD
ENDBRANCH  18  21
ENDBRANCH   3  13
BRANCH  10  23
ATOM     23  O   UNL     1      -6.089   5.147  -0.747  1.00  0.00    -0.507 OA
ATOM     24  H   UNL     1      -6.824   5.845  -0.682  1.00  0.00     0.293 HD
ENDBRANCH  10  23
BRANCH  11  25
ATOM     25  O   UNL     1      -2.454   8.232   0.068  1.00  0.00    -0.508 OA
ATOM     26  H   UNL     1      -2.161   8.640  -0.814  1.00  0.00     0.293 HD
ENDBRANCH  11  25
ENDBRANCH   1   2
BRANCH   1  27
ATOM     27  C   UNL     1      -5.099   0.151   1.999  1.00  0.00     0.339 C 
ATOM     28  C   UNL     1      -4.534  -0.240   3.390  1.00  0.00     0.214 C 
ATOM     29  O   UNL     1      -5.769  -0.936   1.369  1.00  0.00    -0.332 OA
ATOM     30  C   UNL     1      -3.727  -1.554   3.351  1.00  0.00     0.180 C 
ATOM     31  C   UNL     1      -4.902  -2.042   1.175  1.00  0.00     0.179 C 
ATOM     32  C   UNL     1      -4.460  -2.638   2.530  1.00  0.00     0.177 C 
BRANCH  28  33
ATOM     33  O   UNL     1      -5.554  -0.307   4.359  1.00  0.00    -0.384 OA
ATOM     34  H   UNL     1      -6.292  -0.872   3.999  1.00  0.00     0.211 HD
ENDBRANCH  28  33
BRANCH  30  35
ATOM     35  O   UNL     1      -2.462  -1.299   2.794  1.00  0.00    -0.387 OA
ATOM     36  H   UNL     1      -1.989  -2.167   2.737  1.00  0.00     0.211 HD
ENDBRANCH  30  35
BRANCH  31  37
ATOM     37  C   UNL     1      -5.600  -3.089   0.293  1.00  0.00     0.191 C 
BRANCH  37  38
ATOM     38  O   UNL     1      -5.351  -2.849  -1.072  1.00  0.00    -0.394 OA
ATOM     39  H   UNL     1      -5.056  -1.907  -1.156  1.00  0.00     0.210 HD
ENDBRANCH  37  38
ENDBRANCH  31  37
BRANCH  32  40
ATOM     40  O   UNL     1      -5.572  -3.125   3.240  1.00  0.00    -0.387 OA
ATOM     41  H   UNL     1      -5.242  -3.416   4.133  1.00  0.00     0.211 HD
ENDBRANCH  32  40
ENDBRANCH   1  27
TORSDOF 12
ENDMDL
