MODEL 1
REMARK VINA RESULT:    -2.520      0.000      0.000
REMARK INTER + INTRA:          -4.435
REMARK INTER:                  -3.551
REMARK INTRA:                  -0.884
REMARK UNBOUND:                -0.884
REMARK SMILES CCCCCCCCC(=O)[O-]
REMARK SMILES IDX 6 1 7 2 8 3 9 4 10 5 11 6 5 7 4 8 3 9 2 10 1 11
REMARK H PARENT
REMARK Flexibility Score: inf
ROOT
ATOM      1  C   UNL     1       8.793 -19.972  21.427  1.00  0.00     0.000 C 
ENDROOT
BRANCH   1   2
ATOM      2  C   UNL     1       9.705 -18.739  21.500  1.00  0.00     0.006 C 
BRANCH   2   3
ATOM      3  C   UNL     1      11.169 -19.080  21.193  1.00  0.00     0.053 C 
BRANCH   3   4
ATOM      4  C   UNL     1      11.622 -18.472  19.901  1.00  0.00     0.041 C 
ATOM      5  O   UNL     1      11.701 -19.178  18.862  1.00  0.00    -0.550 OA
ATOM      6  O   UNL     1      11.925 -17.118  19.838  1.00  0.00    -0.550 OA
ENDBRANCH   3   4
ENDBRANCH   2   3
ENDBRANCH   1   2
BRANCH   1   7
ATOM      7  C   UNL     1       7.712 -19.794  20.354  1.00  0.00     0.000 C 
BRANCH   7   8
ATOM      8  C   UNL     1       8.239 -20.198  18.969  1.00  0.00    -0.000 C 
BRANCH   8   9
ATOM      9  C   UNL     1       8.265 -19.023  17.979  1.00  0.00    -0.000 C 
BRANCH   9  10
ATOM     10  C   UNL     1       7.639 -17.747  18.560  1.00  0.00    -0.003 C 
ATOM     11  C   UNL     1       8.621 -16.580  18.508  1.00  0.00     0.004 C 
ENDBRANCH   9  10
ENDBRANCH   8   9
ENDBRANCH   7   8
ENDBRANCH   1   7
TORSDOF 7
ENDMDL
MODEL 2
REMARK VINA RESULT:    -2.472      1.283      2.735
REMARK INTER + INTRA:          -4.368
REMARK INTER:                  -3.484
REMARK INTRA:                  -0.885
REMARK UNBOUND:                -0.884
REMARK SMILES CCCCCCCCC(=O)[O-]
REMARK SMILES IDX 6 1 7 2 8 3 9 4 10 5 11 6 5 7 4 8 3 9 2 10 1 11
REMARK H PARENT
REMARK Flexibility Score: inf
ROOT
ATOM      1  C   UNL     1       9.009 -16.048  19.849  1.00  0.00     0.000 C 
ENDROOT
BRANCH   1   2
ATOM      2  C   UNL     1      10.427 -16.589  19.617  1.00  0.00     0.006 C 
BRANCH   2   3
ATOM      3  C   UNL     1      10.956 -17.369  20.829  1.00  0.00     0.053 C 
BRANCH   3   4
ATOM      4  C   UNL     1      11.694 -18.605  20.415  1.00  0.00     0.041 C 
ATOM      5  O   UNL     1      12.209 -19.356  21.284  1.00  0.00    -0.550 OA
ATOM      6  O   UNL     1      11.786 -18.944  19.071  1.00  0.00    -0.550 OA
ENDBRANCH   3   4
ENDBRANCH   2   3
ENDBRANCH   1   2
BRANCH   1   7
ATOM      7  C   UNL     1       8.091 -16.388  18.669  1.00  0.00     0.000 C 
BRANCH   7   8
ATOM      8  C   UNL     1       8.635 -17.586  17.875  1.00  0.00    -0.000 C 
BRANCH   8   9
ATOM      9  C   UNL     1       7.747 -18.834  18.004  1.00  0.00    -0.000 C 
BRANCH   9  10
ATOM     10  C   UNL     1       8.395 -19.934  18.857  1.00  0.00    -0.003 C 
ATOM     11  C   UNL     1       8.073 -19.743  20.337  1.00  0.00     0.004 C 
ENDBRANCH   9  10
ENDBRANCH   8   9
ENDBRANCH   7   8
ENDBRANCH   1   7
TORSDOF 7
ENDMDL
MODEL 3
REMARK VINA RESULT:    -2.465      1.214      1.944
REMARK INTER + INTRA:          -4.359
REMARK INTER:                  -3.615
REMARK INTRA:                  -0.744
REMARK UNBOUND:                -0.884
REMARK SMILES CCCCCCCCC(=O)[O-]
REMARK SMILES IDX 6 1 7 2 8 3 9 4 10 5 11 6 5 7 4 8 3 9 2 10 1 11
REMARK H PARENT
REMARK Flexibility Score: inf
ROOT
ATOM      1  C   UNL     1       8.401 -20.076  19.438  1.00  0.00     0.000 C 
ENDROOT
BRANCH   1   2
ATOM      2  C   UNL     1       9.484 -19.238  20.135  1.00  0.00     0.006 C 
BRANCH   2   3
ATOM      3  C   UNL     1      10.647 -18.896  19.194  1.00  0.00     0.053 C 
BRANCH   3   4
ATOM      4  C   UNL     1      11.741 -18.162  19.908  1.00  0.00     0.041 C 
ATOM      5  O   UNL     1      11.766 -16.903  19.905  1.00  0.00    -0.550 OA
ATOM      6  O   UNL     1      12.714 -18.867  20.605  1.00  0.00    -0.550 OA
ENDBRANCH   3   4
ENDBRANCH   2   3
ENDBRANCH   1   2
BRANCH   1   7
ATOM      7  C   UNL     1       7.818 -19.328  18.233  1.00  0.00     0.000 C 
BRANCH   7   8
ATOM      8  C   UNL     1       6.617 -18.463  18.650  1.00  0.00    -0.000 C 
BRANCH   8   9
ATOM      9  C   UNL     1       6.654 -17.059  18.027  1.00  0.00    -0.000 C 
BRANCH   9  10
ATOM     10  C   UNL     1       8.075 -16.480  17.958  1.00  0.00    -0.003 C 
ATOM     11  C   UNL     1       8.433 -15.748  19.248  1.00  0.00     0.004 C 
ENDBRANCH   9  10
ENDBRANCH   8   9
ENDBRANCH   7   8
ENDBRANCH   1   7
TORSDOF 7
ENDMDL
MODEL 4
REMARK VINA RESULT:    -2.435      1.372      3.005
REMARK INTER + INTRA:          -4.315
REMARK INTER:                  -3.485
REMARK INTRA:                  -0.830
REMARK UNBOUND:                -0.884
REMARK SMILES CCCCCCCCC(=O)[O-]
REMARK SMILES IDX 6 1 7 2 8 3 9 4 10 5 11 6 5 7 4 8 3 9 2 10 1 11
REMARK H PARENT
REMARK Flexibility Score: inf
ROOT
ATOM      1  C   UNL     1       8.008 -19.650  18.306  1.00  0.00     0.000 C 
ENDROOT
BRANCH   1   2
ATOM      2  C   UNL     1       9.197 -18.741  17.964  1.00  0.00     0.006 C 
BRANCH   2   3
ATOM      3  C   UNL     1      10.533 -19.330  18.437  1.00  0.00     0.053 C 
BRANCH   3   4
ATOM      4  C   UNL     1      11.073 -18.599  19.627  1.00  0.00     0.041 C 
ATOM      5  O   UNL     1      12.179 -18.932  20.127  1.00  0.00    -0.550 OA
ATOM      6  O   UNL     1      10.369 -17.529  20.166  1.00  0.00    -0.550 OA
ENDBRANCH   3   4
ENDBRANCH   2   3
ENDBRANCH   1   2
BRANCH   1   7
ATOM      7  C   UNL     1       6.956 -18.894  19.127  1.00  0.00     0.000 C 
BRANCH   7   8
ATOM      8  C   UNL     1       6.929 -19.393  20.580  1.00  0.00    -0.000 C 
BRANCH   8   9
ATOM      9  C   UNL     1       7.807 -20.635  20.796  1.00  0.00    -0.000 C 
BRANCH   9  10
ATOM     10  C   UNL     1       8.785 -20.471  21.968  1.00  0.00    -0.003 C 
ATOM     11  C   UNL     1       8.556 -19.148  22.694  1.00  0.00     0.004 C 
ENDBRANCH   9  10
ENDBRANCH   8   9
ENDBRANCH   7   8
ENDBRANCH   1   7
TORSDOF 7
ENDMDL
MODEL 5
REMARK VINA RESULT:    -2.406      9.097     10.555
REMARK INTER + INTRA:          -4.275
REMARK INTER:                  -3.782
REMARK INTRA:                  -0.493
REMARK UNBOUND:                -0.884
REMARK SMILES CCCCCCCCC(=O)[O-]
REMARK SMILES IDX 6 1 7 2 8 3 9 4 10 5 11 6 5 7 4 8 3 9 2 10 1 11
REMARK H PARENT
REMARK Flexibility Score: inf
ROOT
ATOM      1  C   UNL     1      -1.523 -19.232  19.417  1.00  0.00     0.000 C 
ENDROOT
BRANCH   1   2
ATOM      2  C   UNL     1      -0.487 -19.395  18.296  1.00  0.00     0.006 C 
BRANCH   2   3
ATOM      3  C   UNL     1       0.516 -20.518  18.591  1.00  0.00     0.053 C 
BRANCH   3   4
ATOM      4  C   UNL     1       1.685 -20.023  19.387  1.00  0.00     0.041 C 
ATOM      5  O   UNL     1       1.706 -20.164  20.637  1.00  0.00    -0.550 OA
ATOM      6  O   UNL     1       2.767 -19.434  18.743  1.00  0.00    -0.550 OA
ENDBRANCH   3   4
ENDBRANCH   2   3
ENDBRANCH   1   2
BRANCH   1   7
ATOM      7  C   UNL     1      -2.567 -20.355  19.370  1.00  0.00     0.000 C 
BRANCH   7   8
ATOM      8  C   UNL     1      -2.833 -20.919  20.774  1.00  0.00    -0.000 C 
BRANCH   8   9
ATOM      9  C   UNL     1      -1.544 -21.125  21.583  1.00  0.00    -0.000 C 
BRANCH   9  10
ATOM     10  C   UNL     1      -1.463 -20.204  22.810  1.00  0.00    -0.003 C 
ATOM     11  C   UNL     1      -0.452 -20.729  23.825  1.00  0.00     0.004 C 
ENDBRANCH   9  10
ENDBRANCH   8   9
ENDBRANCH   7   8
ENDBRANCH   1   7
TORSDOF 7
ENDMDL
MODEL 6
REMARK VINA RESULT:    -2.383      1.640      2.901
REMARK INTER + INTRA:          -4.242
REMARK INTER:                  -3.513
REMARK INTRA:                  -0.729
REMARK UNBOUND:                -0.884
REMARK SMILES CCCCCCCCC(=O)[O-]
REMARK SMILES IDX 6 1 7 2 8 3 9 4 10 5 11 6 5 7 4 8 3 9 2 10 1 11
REMARK H PARENT
REMARK Flexibility Score: inf
ROOT
ATOM      1  C   UNL     1      10.273 -16.967  19.812  1.00  0.00     0.000 C 
ENDROOT
BRANCH   1   2
ATOM      2  C   UNL     1      11.176 -18.204  19.696  1.00  0.00     0.006 C 
BRANCH   2   3
ATOM      3  C   UNL     1      11.346 -18.926  21.040  1.00  0.00     0.053 C 
BRANCH   3   4
ATOM      4  C   UNL     1      12.772 -18.914  21.500  1.00  0.00     0.041 C 
ATOM      5  O   UNL     1      13.543 -17.982  21.149  1.00  0.00    -0.550 OA
ATOM      6  O   UNL     1      13.241 -19.915  22.341  1.00  0.00    -0.550 OA
ENDBRANCH   3   4
ENDBRANCH   2   3
ENDBRANCH   1   2
BRANCH   1   7
ATOM      7  C   UNL     1       9.102 -17.045  18.825  1.00  0.00     0.000 C 
BRANCH   7   8
ATOM      8  C   UNL     1       9.182 -18.324  17.977  1.00  0.00    -0.000 C 
BRANCH   8   9
ATOM      9  C   UNL     1       7.962 -19.239  18.170  1.00  0.00    -0.000 C 
BRANCH   9  10
ATOM     10  C   UNL     1       8.259 -20.436  19.084  1.00  0.00    -0.003 C 
ATOM     11  C   UNL     1       7.745 -20.187  20.499  1.00  0.00     0.004 C 
ENDBRANCH   9  10
ENDBRANCH   8   9
ENDBRANCH   7   8
ENDBRANCH   1   7
TORSDOF 7
ENDMDL
MODEL 7
REMARK VINA RESULT:    -2.360      2.280      4.447
REMARK INTER + INTRA:          -4.210
REMARK INTER:                  -3.415
REMARK INTRA:                  -0.795
REMARK UNBOUND:                -0.884
REMARK SMILES CCCCCCCCC(=O)[O-]
REMARK SMILES IDX 6 1 7 2 8 3 9 4 10 5 11 6 5 7 4 8 3 9 2 10 1 11
REMARK H PARENT
REMARK Flexibility Score: inf
ROOT
ATOM      1  C   UNL     1       8.707 -16.285  19.745  1.00  0.00     0.000 C 
ENDROOT
BRANCH   1   2
ATOM      2  C   UNL     1       8.225 -16.606  18.322  1.00  0.00     0.006 C 
BRANCH   2   3
ATOM      3  C   UNL     1       8.636 -18.016  17.875  1.00  0.00     0.053 C 
BRANCH   3   4
ATOM      4  C   UNL     1       7.745 -19.067  18.462  1.00  0.00     0.041 C 
ATOM      5  O   UNL     1       8.200 -20.212  18.720  1.00  0.00    -0.550 OA
ATOM      6  O   UNL     1       6.419 -18.772  18.754  1.00  0.00    -0.550 OA
ENDBRANCH   3   4
ENDBRANCH   2   3
ENDBRANCH   1   2
BRANCH   1   7
ATOM      7  C   UNL     1      10.046 -15.539  19.717  1.00  0.00     0.000 C 
BRANCH   7   8
ATOM      8  C   UNL     1      11.206 -16.474  20.093  1.00  0.00    -0.000 C 
BRANCH   8   9
ATOM      9  C   UNL     1      10.806 -17.518  21.147  1.00  0.00    -0.000 C 
BRANCH   9  10
ATOM     10  C   UNL     1      11.041 -18.959  20.671  1.00  0.00    -0.003 C 
ATOM     11  C   UNL     1      11.794 -18.983  19.343  1.00  0.00     0.004 C 
ENDBRANCH   9  10
ENDBRANCH   8   9
ENDBRANCH   7   8
ENDBRANCH   1   7
TORSDOF 7
ENDMDL
MODEL 8
REMARK VINA RESULT:    -2.358      2.416      4.339
REMARK INTER + INTRA:          -4.207
REMARK INTER:                  -3.407
REMARK INTRA:                  -0.800
REMARK UNBOUND:                -0.884
REMARK SMILES CCCCCCCCC(=O)[O-]
REMARK SMILES IDX 6 1 7 2 8 3 9 4 10 5 11 6 5 7 4 8 3 9 2 10 1 11
REMARK H PARENT
REMARK Flexibility Score: inf
ROOT
ATOM      1  C   UNL     1       9.254 -18.404  18.092  1.00  0.00     0.000 C 
ENDROOT
BRANCH   1   2
ATOM      2  C   UNL     1       8.012 -19.298  18.226  1.00  0.00     0.006 C 
BRANCH   2   3
ATOM      3  C   UNL     1       8.265 -20.508  19.135  1.00  0.00     0.053 C 
BRANCH   3   4
ATOM      4  C   UNL     1       7.672 -20.313  20.497  1.00  0.00     0.041 C 
ATOM      5  O   UNL     1       6.701 -19.529  20.659  1.00  0.00    -0.550 OA
ATOM      6  O   UNL     1       8.172 -21.022  21.583  1.00  0.00    -0.550 OA
ENDBRANCH   3   4
ENDBRANCH   2   3
ENDBRANCH   1   2
BRANCH   1   7
ATOM      7  C   UNL     1       9.094 -17.115  18.907  1.00  0.00     0.000 C 
BRANCH   7   8
ATOM      8  C   UNL     1      10.298 -16.897  19.836  1.00  0.00    -0.000 C 
BRANCH   8   9
ATOM      9  C   UNL     1      10.152 -17.630  21.178  1.00  0.00    -0.000 C 
BRANCH   9  10
ATOM     10  C   UNL     1      10.990 -18.914  21.245  1.00  0.00    -0.003 C 
ATOM     11  C   UNL     1      12.290 -18.764  20.459  1.00  0.00     0.004 C 
ENDBRANCH   9  10
ENDBRANCH   8   9
ENDBRANCH   7   8
ENDBRANCH   1   7
TORSDOF 7
ENDMDL
