MODEL 1
REMARK VINA RESULT:    -5.916      0.000      0.000
REMARK INTER + INTRA:          -7.557
REMARK INTER:                  -7.300
REMARK INTRA:                  -0.257
REMARK UNBOUND:                -0.257
REMARK SMILES C=CCc1ccc(OC)c(OC)c1
REMARK SMILES IDX 7 1 10 2 13 3 4 4 5 5 6 6 8 7 9 8 11 9 12 10 3 11 2 12 1 13
REMARK H PARENT
REMARK Flexibility Score: inf
ROOT
ATOM      1  C   UNL     1      17.711  10.605 -20.424  1.00  0.00     0.160 A 
ATOM      2  C   UNL     1      17.591   9.462 -19.618  1.00  0.00     0.160 A 
ATOM      3  C   UNL     1      16.837   8.363 -20.074  1.00  0.00     0.054 A 
ATOM      4  C   UNL     1      16.203   8.404 -21.325  1.00  0.00    -0.040 A 
ATOM      5  C   UNL     1      16.339   9.544 -22.129  1.00  0.00     0.008 A 
ATOM      6  C   UNL     1      17.082  10.637 -21.682  1.00  0.00     0.051 A 
ENDROOT
BRANCH   1   7
ATOM      7  O   UNL     1      18.467  11.686 -19.941  1.00  0.00    -0.493 OA
ATOM      8  C   UNL     1      18.105  13.055 -20.093  1.00  0.00     0.278 C 
ENDBRANCH   1   7
BRANCH   2   9
ATOM      9  O   UNL     1      18.236   9.457 -18.371  1.00  0.00    -0.493 OA
ATOM     10  C   UNL     1      19.099   8.421 -17.912  1.00  0.00     0.278 C 
ENDBRANCH   2   9
BRANCH   4  11
ATOM     11  C   UNL     1      15.426   7.215 -21.825  1.00  0.00     0.062 C 
BRANCH  11  12
ATOM     12  C   UNL     1      14.570   6.640 -20.731  1.00  0.00    -0.030 C 
ATOM     13  C   UNL     1      13.438   7.234 -20.339  1.00  0.00     0.004 C 
ENDBRANCH  11  12
ENDBRANCH   4  11
TORSDOF 4
ENDMDL
MODEL 2
REMARK VINA RESULT:    -5.680      1.374      1.586
REMARK INTER + INTRA:          -7.265
REMARK INTER:                  -6.944
REMARK INTRA:                  -0.321
REMARK UNBOUND:                -0.257
REMARK SMILES C=CCc1ccc(OC)c(OC)c1
REMARK SMILES IDX 7 1 10 2 13 3 4 4 5 5 6 6 8 7 9 8 11 9 12 10 3 11 2 12 1 13
REMARK H PARENT
REMARK Flexibility Score: inf
ROOT
ATOM      1  C   UNL     1      17.195  10.117 -21.567  1.00  0.00     0.160 A 
ATOM      2  C   UNL     1      17.470   9.331 -20.437  1.00  0.00     0.160 A 
ATOM      3  C   UNL     1      16.673   8.202 -20.163  1.00  0.00     0.054 A 
ATOM      4  C   UNL     1      15.606   7.860 -21.007  1.00  0.00    -0.040 A 
ATOM      5  C   UNL     1      15.347   8.643 -22.140  1.00  0.00     0.008 A 
ATOM      6  C   UNL     1      16.130   9.764 -22.416  1.00  0.00     0.051 A 
ENDROOT
BRANCH   1   7
ATOM      7  O   UNL     1      18.005  11.237 -21.813  1.00  0.00    -0.493 OA
ATOM      8  C   UNL     1      18.624  11.526 -23.063  1.00  0.00     0.278 C 
ENDBRANCH   1   7
BRANCH   2   9
ATOM      9  O   UNL     1      18.542   9.704 -19.611  1.00  0.00    -0.493 OA
ATOM     10  C   UNL     1      19.680   8.888 -19.348  1.00  0.00     0.278 C 
ENDBRANCH   2   9
BRANCH   4  11
ATOM     11  C   UNL     1      14.777   6.634 -20.730  1.00  0.00     0.062 C 
BRANCH  11  12
ATOM     12  C   UNL     1      13.416   7.016 -20.220  1.00  0.00    -0.030 C 
ATOM     13  C   UNL     1      13.212   7.343 -18.939  1.00  0.00     0.004 C 
ENDBRANCH  11  12
ENDBRANCH   4  11
TORSDOF 4
ENDMDL
MODEL 3
REMARK VINA RESULT:    -5.507      1.107      2.637
REMARK INTER + INTRA:          -7.051
REMARK INTER:                  -6.985
REMARK INTRA:                  -0.066
REMARK UNBOUND:                -0.257
REMARK SMILES C=CCc1ccc(OC)c(OC)c1
REMARK SMILES IDX 7 1 10 2 13 3 4 4 5 5 6 6 8 7 9 8 11 9 12 10 3 11 2 12 1 13
REMARK H PARENT
REMARK Flexibility Score: inf
ROOT
ATOM      1  C   UNL     1      17.934  10.780 -20.291  1.00  0.00     0.160 A 
ATOM      2  C   UNL     1      17.508  10.727 -21.628  1.00  0.00     0.160 A 
ATOM      3  C   UNL     1      16.745   9.630 -22.073  1.00  0.00     0.054 A 
ATOM      4  C   UNL     1      16.412   8.589 -21.193  1.00  0.00    -0.040 A 
ATOM      5  C   UNL     1      16.831   8.656 -19.858  1.00  0.00     0.008 A 
ATOM      6  C   UNL     1      17.589   9.739 -19.410  1.00  0.00     0.051 A 
ENDROOT
BRANCH   1   7
ATOM      7  O   UNL     1      18.695  11.886 -19.877  1.00  0.00    -0.493 OA
ATOM      8  C   UNL     1      18.198  13.217 -19.786  1.00  0.00     0.278 C 
ENDBRANCH   1   7
BRANCH   2   9
ATOM      9  O   UNL     1      17.862  11.784 -22.482  1.00  0.00    -0.493 OA
ATOM     10  C   UNL     1      18.653  11.641 -23.657  1.00  0.00     0.278 C 
ENDBRANCH   2   9
BRANCH   4  11
ATOM     11  C   UNL     1      15.569   7.433 -21.664  1.00  0.00     0.062 C 
BRANCH  11  12
ATOM     12  C   UNL     1      14.803   6.831 -20.519  1.00  0.00    -0.030 C 
ATOM     13  C   UNL     1      13.537   7.178 -20.262  1.00  0.00     0.004 C 
ENDBRANCH  11  12
ENDBRANCH   4  11
TORSDOF 4
ENDMDL
MODEL 4
REMARK VINA RESULT:    -4.745     16.777     18.758
REMARK INTER + INTRA:          -6.112
REMARK INTER:                  -5.826
REMARK INTRA:                  -0.286
REMARK UNBOUND:                -0.257
REMARK SMILES C=CCc1ccc(OC)c(OC)c1
REMARK SMILES IDX 7 1 10 2 13 3 4 4 5 5 6 6 8 7 9 8 11 9 12 10 3 11 2 12 1 13
REMARK H PARENT
REMARK Flexibility Score: inf
ROOT
ATOM      1  C   UNL     1       5.037  -1.781 -29.683  1.00  0.00     0.160 A 
ATOM      2  C   UNL     1       4.661  -2.924 -28.961  1.00  0.00     0.160 A 
ATOM      3  C   UNL     1       5.445  -3.348 -27.870  1.00  0.00     0.054 A 
ATOM      4  C   UNL     1       6.599  -2.640 -27.503  1.00  0.00    -0.040 A 
ATOM      5  C   UNL     1       6.960  -1.492 -28.222  1.00  0.00     0.008 A 
ATOM      6  C   UNL     1       6.190  -1.067 -29.305  1.00  0.00     0.051 A 
ENDROOT
BRANCH   1   7
ATOM      7  O   UNL     1       4.237  -1.383 -30.767  1.00  0.00    -0.493 OA
ATOM      8  C   UNL     1       4.481  -1.743 -32.123  1.00  0.00     0.278 C 
ENDBRANCH   1   7
BRANCH   2   9
ATOM      9  O   UNL     1       3.503  -3.611 -29.357  1.00  0.00    -0.493 OA
ATOM     10  C   UNL     1       2.189  -3.314 -28.894  1.00  0.00     0.278 C 
ENDBRANCH   2   9
BRANCH   4  11
ATOM     11  C   UNL     1       7.417  -3.077 -26.316  1.00  0.00     0.062 C 
BRANCH  11  12
ATOM     12  C   UNL     1       8.885  -2.908 -26.590  1.00  0.00    -0.030 C 
ATOM     13  C   UNL     1       9.594  -3.848 -27.224  1.00  0.00     0.004 C 
ENDBRANCH  11  12
ENDBRANCH   4  11
TORSDOF 4
ENDMDL
MODEL 5
REMARK VINA RESULT:    -4.710      8.994      9.762
REMARK INTER + INTRA:          -6.069
REMARK INTER:                  -5.802
REMARK INTRA:                  -0.268
REMARK UNBOUND:                -0.257
REMARK SMILES C=CCc1ccc(OC)c(OC)c1
REMARK SMILES IDX 7 1 10 2 13 3 4 4 5 5 6 6 8 7 9 8 11 9 12 10 3 11 2 12 1 13
REMARK H PARENT
REMARK Flexibility Score: inf
ROOT
ATOM      1  C   UNL     1       9.618  15.036 -16.265  1.00  0.00     0.160 A 
ATOM      2  C   UNL     1       9.861  13.809 -16.901  1.00  0.00     0.160 A 
ATOM      3  C   UNL     1       9.619  13.679 -18.283  1.00  0.00     0.054 A 
ATOM      4  C   UNL     1       9.132  14.764 -19.026  1.00  0.00    -0.040 A 
ATOM      5  C   UNL     1       8.903  15.990 -18.386  1.00  0.00     0.008 A 
ATOM      6  C   UNL     1       9.139  16.125 -17.017  1.00  0.00     0.051 A 
ENDROOT
BRANCH   1   7
ATOM      7  O   UNL     1       9.866  15.134 -14.887  1.00  0.00    -0.493 OA
ATOM      8  C   UNL     1       8.870  15.402 -13.905  1.00  0.00     0.278 C 
ENDBRANCH   1   7
BRANCH   2   9
ATOM      9  O   UNL     1      10.344  12.742 -16.126  1.00  0.00    -0.493 OA
ATOM     10  C   UNL     1      10.762  11.486 -16.652  1.00  0.00     0.278 C 
ENDBRANCH   2   9
BRANCH   4  11
ATOM     11  C   UNL     1       8.905  14.632 -20.509  1.00  0.00     0.062 C 
BRANCH  11  12
ATOM     12  C   UNL     1       8.617  13.204 -20.879  1.00  0.00    -0.030 C 
ATOM     13  C   UNL     1       7.398  12.811 -21.265  1.00  0.00     0.004 C 
ENDBRANCH  11  12
ENDBRANCH   4  11
TORSDOF 4
ENDMDL
MODEL 6
REMARK VINA RESULT:    -4.587      1.877      4.524
REMARK INTER + INTRA:          -5.917
REMARK INTER:                  -5.618
REMARK INTRA:                  -0.299
REMARK UNBOUND:                -0.257
REMARK SMILES C=CCc1ccc(OC)c(OC)c1
REMARK SMILES IDX 7 1 10 2 13 3 4 4 5 5 6 6 8 7 9 8 11 9 12 10 3 11 2 12 1 13
REMARK H PARENT
REMARK Flexibility Score: inf
ROOT
ATOM      1  C   UNL     1      16.420   8.663 -20.649  1.00  0.00     0.160 A 
ATOM      2  C   UNL     1      17.444   9.246 -19.887  1.00  0.00     0.160 A 
ATOM      3  C   UNL     1      18.168  10.335 -20.409  1.00  0.00     0.054 A 
ATOM      4  C   UNL     1      17.876  10.839 -21.686  1.00  0.00    -0.040 A 
ATOM      5  C   UNL     1      16.844  10.259 -22.435  1.00  0.00     0.008 A 
ATOM      6  C   UNL     1      16.124   9.177 -21.925  1.00  0.00     0.051 A 
ENDROOT
BRANCH   1   7
ATOM      7  O   UNL     1      15.717   7.576 -20.103  1.00  0.00    -0.493 OA
ATOM      8  C   UNL     1      14.863   6.712 -20.847  1.00  0.00     0.278 C 
ENDBRANCH   1   7
BRANCH   2   9
ATOM      9  O   UNL     1      17.711   8.715 -18.615  1.00  0.00    -0.493 OA
ATOM     10  C   UNL     1      19.012   8.392 -18.132  1.00  0.00     0.278 C 
ENDBRANCH   2   9
BRANCH   4  11
ATOM     11  C   UNL     1      18.630  12.024 -22.228  1.00  0.00     0.062 C 
BRANCH  11  12
ATOM     12  C   UNL     1      18.763  11.933 -23.723  1.00  0.00    -0.030 C 
ATOM     13  C   UNL     1      19.922  11.613 -24.307  1.00  0.00     0.004 C 
ENDBRANCH  11  12
ENDBRANCH   4  11
TORSDOF 4
ENDMDL
MODEL 7
REMARK VINA RESULT:    -4.530      9.357     10.435
REMARK INTER + INTRA:          -5.846
REMARK INTER:                  -5.533
REMARK INTRA:                  -0.313
REMARK UNBOUND:                -0.257
REMARK SMILES C=CCc1ccc(OC)c(OC)c1
REMARK SMILES IDX 7 1 10 2 13 3 4 4 5 5 6 6 8 7 9 8 11 9 12 10 3 11 2 12 1 13
REMARK H PARENT
REMARK Flexibility Score: inf
ROOT
ATOM      1  C   UNL     1       8.933  14.860 -19.407  1.00  0.00     0.160 A 
ATOM      2  C   UNL     1       9.401  13.676 -18.816  1.00  0.00     0.160 A 
ATOM      3  C   UNL     1       9.806  13.683 -17.467  1.00  0.00     0.054 A 
ATOM      4  C   UNL     1       9.749  14.863 -16.711  1.00  0.00    -0.040 A 
ATOM      5  C   UNL     1       9.269  16.038 -17.305  1.00  0.00     0.008 A 
ATOM      6  C   UNL     1       8.868  16.040 -18.642  1.00  0.00     0.051 A 
ENDROOT
BRANCH   1   7
ATOM      7  O   UNL     1       8.539  14.823 -20.754  1.00  0.00    -0.493 OA
ATOM      8  C   UNL     1       7.186  14.862 -21.200  1.00  0.00     0.278 C 
ENDBRANCH   1   7
BRANCH   2   9
ATOM      9  O   UNL     1       9.448  12.514 -19.602  1.00  0.00    -0.493 OA
ATOM     10  C   UNL     1      10.565  11.633 -19.674  1.00  0.00     0.278 C 
ENDBRANCH   2   9
BRANCH   4  11
ATOM     11  C   UNL     1      10.151  14.860 -15.260  1.00  0.00     0.062 C 
BRANCH  11  12
ATOM     12  C   UNL     1       9.280  15.790 -14.463  1.00  0.00    -0.030 C 
ATOM     13  C   UNL     1       8.130  15.380 -13.918  1.00  0.00     0.004 C 
ENDBRANCH  11  12
ENDBRANCH   4  11
TORSDOF 4
ENDMDL
MODEL 8
REMARK VINA RESULT:    -4.437      9.242     10.616
REMARK INTER + INTRA:          -5.732
REMARK INTER:                  -5.479
REMARK INTRA:                  -0.253
REMARK UNBOUND:                -0.257
REMARK SMILES C=CCc1ccc(OC)c(OC)c1
REMARK SMILES IDX 7 1 10 2 13 3 4 4 5 5 6 6 8 7 9 8 11 9 12 10 3 11 2 12 1 13
REMARK H PARENT
REMARK Flexibility Score: inf
ROOT
ATOM      1  C   UNL     1       9.601  13.340 -18.804  1.00  0.00     0.160 A 
ATOM      2  C   UNL     1       9.168  14.661 -18.996  1.00  0.00     0.160 A 
ATOM      3  C   UNL     1       9.104  15.540 -17.898  1.00  0.00     0.054 A 
ATOM      4  C   UNL     1       9.465  15.105 -16.614  1.00  0.00    -0.040 A 
ATOM      5  C   UNL     1       9.907  13.787 -16.433  1.00  0.00     0.008 A 
ATOM      6  C   UNL     1       9.971  12.910 -17.516  1.00  0.00     0.051 A 
ENDROOT
BRANCH   1   7
ATOM      7  O   UNL     1       9.652  12.485 -19.918  1.00  0.00    -0.493 OA
ATOM      8  C   UNL     1      10.428  11.293 -19.984  1.00  0.00     0.278 C 
ENDBRANCH   1   7
BRANCH   2   9
ATOM      9  O   UNL     1       8.811  15.062 -20.293  1.00  0.00    -0.493 OA
ATOM     10  C   UNL     1       7.530  14.853 -20.880  1.00  0.00     0.278 C 
ENDBRANCH   2   9
BRANCH   4  11
ATOM     11  C   UNL     1       9.427  16.056 -15.447  1.00  0.00     0.062 C 
BRANCH  11  12
ATOM     12  C   UNL     1       8.564  15.511 -14.343  1.00  0.00    -0.030 C 
ATOM     13  C   UNL     1       7.243  15.366 -14.490  1.00  0.00     0.004 C 
ENDBRANCH  11  12
ENDBRANCH   4  11
TORSDOF 4
ENDMDL
MODEL 9
REMARK VINA RESULT:    -4.376     17.717     20.347
REMARK INTER + INTRA:          -5.657
REMARK INTER:                  -5.350
REMARK INTRA:                  -0.307
REMARK UNBOUND:                -0.257
REMARK SMILES C=CCc1ccc(OC)c(OC)c1
REMARK SMILES IDX 7 1 10 2 13 3 4 4 5 5 6 6 8 7 9 8 11 9 12 10 3 11 2 12 1 13
REMARK H PARENT
REMARK Flexibility Score: inf
ROOT
ATOM      1  C   UNL     1       2.776  -2.287 -31.023  1.00  0.00     0.160 A 
ATOM      2  C   UNL     1       2.608  -2.002 -29.659  1.00  0.00     0.160 A 
ATOM      3  C   UNL     1       3.702  -1.533 -28.905  1.00  0.00     0.054 A 
ATOM      4  C   UNL     1       4.957  -1.351 -29.505  1.00  0.00    -0.040 A 
ATOM      5  C   UNL     1       5.112  -1.626 -30.870  1.00  0.00     0.008 A 
ATOM      6  C   UNL     1       4.034  -2.094 -31.623  1.00  0.00     0.051 A 
ENDROOT
BRANCH   1   7
ATOM      7  O   UNL     1       1.669  -2.756 -31.748  1.00  0.00    -0.493 OA
ATOM      8  C   UNL     1       1.460  -4.118 -32.110  1.00  0.00     0.278 C 
ENDBRANCH   1   7
BRANCH   2   9
ATOM      9  O   UNL     1       1.340  -2.198 -29.089  1.00  0.00    -0.493 OA
ATOM     10  C   UNL     1       0.929  -3.388 -28.424  1.00  0.00     0.278 C 
ENDBRANCH   2   9
BRANCH   4  11
ATOM     11  C   UNL     1       6.115  -0.818 -28.705  1.00  0.00     0.062 C 
BRANCH  11  12
ATOM     12  C   UNL     1       6.705  -1.895 -27.838  1.00  0.00    -0.030 C 
ATOM     13  C   UNL     1       7.938  -2.368 -28.048  1.00  0.00     0.004 C 
ENDBRANCH  11  12
ENDBRANCH   4  11
TORSDOF 4
ENDMDL
