MODEL 1
REMARK VINA RESULT:    -5.891      0.000      0.000
REMARK INTER + INTRA:          -6.407
REMARK INTER:                  -6.407
REMARK INTRA:                   0.000
REMARK UNBOUND:                 0.000
REMARK SMILES Cc1cc(O)c2c(c1)C(=O)c1cc(O)cc(O)c1C2=O
REMARK SMILES IDX 1 1 2 2 8 3 7 4 6 5 4 6 3 7 19 8 20 9 18 10 11 11 9 12 10 13
REMARK SMILES IDX 12 14 13 15 15 16 16 17 5 18 17 20 14 22
REMARK H PARENT 5 19 17 21 14 23
REMARK Flexibility Score: inf
ROOT
ATOM      1  C   UNL     1      -8.674  23.941  -8.932  1.00  0.00     0.044 C 
ATOM      2  C   UNL     1      -8.027  23.876  -7.579  1.00  0.00    -0.047 A 
ATOM      3  C   UNL     1      -8.539  24.630  -6.517  1.00  0.00     0.016 A 
ATOM      4  C   UNL     1      -7.921  24.604  -5.254  1.00  0.00     0.038 A 
ATOM      5  C   UNL     1      -6.760  23.826  -5.059  1.00  0.00     0.076 A 
ATOM      6  C   UNL     1      -6.239  23.076  -6.138  1.00  0.00     0.127 A 
ATOM      7  C   UNL     1      -6.871  23.113  -7.387  1.00  0.00     0.050 A 
ATOM      8  C   UNL     1      -6.097  23.839  -3.728  1.00  0.00     0.201 C 
ATOM      9  O   UNL     1      -4.898  23.462  -3.628  1.00  0.00    -0.288 OA
ATOM     10  C   UNL     1      -6.803  24.403  -2.544  1.00  0.00     0.076 A 
ATOM     11  C   UNL     1      -7.929  25.232  -2.765  1.00  0.00     0.041 A 
ATOM     12  C   UNL     1      -8.479  25.392  -4.132  1.00  0.00     0.194 C 
ATOM     13  O   UNL     1      -9.438  26.186  -4.336  1.00  0.00    -0.289 OA
ATOM     14  C   UNL     1      -8.530  25.899  -1.683  1.00  0.00     0.059 A 
ATOM     15  C   UNL     1      -8.039  25.739  -0.389  1.00  0.00     0.120 A 
ATOM     16  C   UNL     1      -6.960  24.885  -0.157  1.00  0.00     0.093 A 
ATOM     17  C   UNL     1      -6.359  24.189  -1.210  1.00  0.00     0.131 A 
ENDROOT
BRANCH   6  18
ATOM     18  O   UNL     1      -5.100  22.287  -5.972  1.00  0.00    -0.507 OA
ATOM     19  H   UNL     1      -5.069  21.529  -5.300  1.00  0.00     0.293 HD
ENDBRANCH   6  18
BRANCH  17  20
ATOM     20  O   UNL     1      -5.356  23.274  -0.879  1.00  0.00    -0.507 OA
ATOM     21  H   UNL     1      -4.931  23.215   0.036  1.00  0.00     0.293 HD
ENDBRANCH  17  20
BRANCH  15  22
ATOM     22  O   UNL     1      -8.642  26.424   0.663  1.00  0.00    -0.508 OA
ATOM     23  H   UNL     1      -8.722  26.014   1.586  1.00  0.00     0.293 HD
ENDBRANCH  15  22
TORSDOF 3
ENDMDL
MODEL 2
REMARK VINA RESULT:    -5.605      8.892     11.706
REMARK INTER + INTRA:          -6.096
REMARK INTER:                  -6.096
REMARK INTRA:                   0.000
REMARK UNBOUND:                 0.000
REMARK SMILES Cc1cc(O)c2c(c1)C(=O)c1cc(O)cc(O)c1C2=O
REMARK SMILES IDX 1 1 2 2 8 3 7 4 6 5 4 6 3 7 19 8 20 9 18 10 11 11 9 12 10 13
REMARK SMILES IDX 12 14 13 15 15 16 16 17 5 18 17 20 14 22
REMARK H PARENT 5 19 17 21 14 23
REMARK Flexibility Score: inf
ROOT
ATOM      1  C   UNL     1      -0.780  19.064   0.244  1.00  0.00     0.044 C 
ATOM      2  C   UNL     1      -0.293  18.374  -0.997  1.00  0.00    -0.047 A 
ATOM      3  C   UNL     1      -1.108  18.313  -2.134  1.00  0.00     0.016 A 
ATOM      4  C   UNL     1      -0.677  17.641  -3.290  1.00  0.00     0.038 A 
ATOM      5  C   UNL     1       0.582  17.002  -3.302  1.00  0.00     0.076 A 
ATOM      6  C   UNL     1       1.396  17.056  -2.147  1.00  0.00     0.127 A 
ATOM      7  C   UNL     1       0.949  17.733  -1.005  1.00  0.00     0.050 A 
ATOM      8  C   UNL     1       1.007  16.263  -4.520  1.00  0.00     0.201 C 
ATOM      9  O   UNL     1       1.927  15.406  -4.436  1.00  0.00    -0.288 OA
ATOM     10  C   UNL     1       0.273  16.448  -5.803  1.00  0.00     0.076 A 
ATOM     11  C   UNL     1      -1.015  17.033  -5.763  1.00  0.00     0.041 A 
ATOM     12  C   UNL     1      -1.538  17.594  -4.494  1.00  0.00     0.194 C 
ATOM     13  O   UNL     1      -2.713  18.052  -4.444  1.00  0.00    -0.289 OA
ATOM     14  C   UNL     1      -1.796  17.090  -6.930  1.00  0.00     0.059 A 
ATOM     15  C   UNL     1      -1.308  16.589  -8.135  1.00  0.00     0.120 A 
ATOM     16  C   UNL     1      -0.020  16.054  -8.194  1.00  0.00     0.093 A 
ATOM     17  C   UNL     1       0.789  16.009  -7.053  1.00  0.00     0.131 A 
ENDROOT
BRANCH   6  18
ATOM     18  O   UNL     1       2.650  16.445  -2.132  1.00  0.00    -0.507 OA
ATOM     19  H   UNL     1       3.449  16.877  -1.682  1.00  0.00     0.293 HD
ENDBRANCH   6  18
BRANCH  17  20
ATOM     20  O   UNL     1       2.101  15.558  -7.220  1.00  0.00    -0.507 OA
ATOM     21  H   UNL     1       2.595  15.586  -8.101  1.00  0.00     0.293 HD
ENDBRANCH  17  20
BRANCH  15  22
ATOM     22  O   UNL     1      -2.108  16.641  -9.274  1.00  0.00    -0.508 OA
ATOM     23  H   UNL     1      -2.013  17.386  -9.955  1.00  0.00     0.293 HD
ENDBRANCH  15  22
TORSDOF 3
ENDMDL
MODEL 3
REMARK VINA RESULT:    -5.323      1.502      5.505
REMARK INTER + INTRA:          -5.790
REMARK INTER:                  -5.790
REMARK INTRA:                   0.000
REMARK UNBOUND:                 0.000
REMARK SMILES Cc1cc(O)c2c(c1)C(=O)c1cc(O)cc(O)c1C2=O
REMARK SMILES IDX 1 1 2 2 8 3 7 4 6 5 4 6 3 7 19 8 20 9 18 10 11 11 9 12 10 13
REMARK SMILES IDX 12 14 13 15 15 16 16 17 5 18 17 20 14 22
REMARK H PARENT 5 19 17 21 14 23
REMARK Flexibility Score: inf
ROOT
ATOM      1  C   UNL     1      -7.698  25.745   0.557  1.00  0.00     0.044 C 
ATOM      2  C   UNL     1      -7.423  25.291  -0.847  1.00  0.00    -0.047 A 
ATOM      3  C   UNL     1      -8.323  25.594  -1.874  1.00  0.00     0.016 A 
ATOM      4  C   UNL     1      -8.093  25.145  -3.186  1.00  0.00     0.038 A 
ATOM      5  C   UNL     1      -6.953  24.362  -3.469  1.00  0.00     0.076 A 
ATOM      6  C   UNL     1      -6.053  24.047  -2.426  1.00  0.00     0.127 A 
ATOM      7  C   UNL     1      -6.299  24.507  -1.125  1.00  0.00     0.050 A 
ATOM      8  C   UNL     1      -6.745  23.863  -4.854  1.00  0.00     0.201 C 
ATOM      9  O   UNL     1      -5.965  22.894  -5.053  1.00  0.00    -0.288 OA
ATOM     10  C   UNL     1      -7.539  24.427  -5.982  1.00  0.00     0.076 A 
ATOM     11  C   UNL     1      -8.714  25.156  -5.678  1.00  0.00     0.041 A 
ATOM     12  C   UNL     1      -9.042  25.484  -4.270  1.00  0.00     0.194 C 
ATOM     13  O   UNL     1     -10.125  26.073  -3.997  1.00  0.00    -0.289 OA
ATOM     14  C   UNL     1      -9.565  25.575  -6.715  1.00  0.00     0.059 A 
ATOM     15  C   UNL     1      -9.256  25.295  -8.044  1.00  0.00     0.120 A 
ATOM     16  C   UNL     1      -8.075  24.618  -8.355  1.00  0.00     0.093 A 
ATOM     17  C   UNL     1      -7.196  24.212  -7.345  1.00  0.00     0.131 A 
ENDROOT
BRANCH   6  18
ATOM     18  O   UNL     1      -4.911  23.286  -2.677  1.00  0.00    -0.507 OA
ATOM     19  H   UNL     1      -4.816  22.728  -3.517  1.00  0.00     0.293 HD
ENDBRANCH   6  18
BRANCH  17  20
ATOM     20  O   UNL     1      -5.988  23.638  -7.745  1.00  0.00    -0.507 OA
ATOM     21  H   UNL     1      -5.904  22.988  -8.514  1.00  0.00     0.293 HD
ENDBRANCH  17  20
BRANCH  15  22
ATOM     22  O   UNL     1     -10.125  25.707  -9.052  1.00  0.00    -0.508 OA
ATOM     23  H   UNL     1      -9.803  26.268  -9.832  1.00  0.00     0.293 HD
ENDBRANCH  15  22
TORSDOF 3
ENDMDL
MODEL 4
REMARK VINA RESULT:    -5.128      1.209      3.505
REMARK INTER + INTRA:          -5.578
REMARK INTER:                  -5.578
REMARK INTRA:                   0.000
REMARK UNBOUND:                 0.000
REMARK SMILES Cc1cc(O)c2c(c1)C(=O)c1cc(O)cc(O)c1C2=O
REMARK SMILES IDX 1 1 2 2 8 3 7 4 6 5 4 6 3 7 19 8 20 9 18 10 11 11 9 12 10 13
REMARK SMILES IDX 12 14 13 15 15 16 16 17 5 18 17 20 14 22
REMARK H PARENT 5 19 17 21 14 23
REMARK Flexibility Score: inf
ROOT
ATOM      1  C   UNL     1      -7.505  23.816 -10.294  1.00  0.00     0.044 C 
ATOM      2  C   UNL     1      -7.778  24.242  -8.881  1.00  0.00    -0.047 A 
ATOM      3  C   UNL     1      -7.043  23.692  -7.825  1.00  0.00     0.016 A 
ATOM      4  C   UNL     1      -7.313  24.058  -6.495  1.00  0.00     0.038 A 
ATOM      5  C   UNL     1      -8.351  24.974  -6.217  1.00  0.00     0.076 A 
ATOM      6  C   UNL     1      -9.100  25.517  -7.286  1.00  0.00     0.127 A 
ATOM      7  C   UNL     1      -8.813  25.141  -8.605  1.00  0.00     0.050 A 
ATOM      8  C   UNL     1      -8.649  25.321  -4.803  1.00  0.00     0.201 C 
ATOM      9  O   UNL     1      -9.764  25.831  -4.511  1.00  0.00    -0.288 OA
ATOM     10  C   UNL     1      -7.686  24.963  -3.724  1.00  0.00     0.076 A 
ATOM     11  C   UNL     1      -6.691  23.995  -4.004  1.00  0.00     0.041 A 
ATOM     12  C   UNL     1      -6.519  23.484  -5.385  1.00  0.00     0.194 C 
ATOM     13  O   UNL     1      -5.680  22.572  -5.619  1.00  0.00    -0.289 OA
ATOM     14  C   UNL     1      -5.861  23.526  -2.973  1.00  0.00     0.059 A 
ATOM     15  C   UNL     1      -5.995  24.015  -1.675  1.00  0.00     0.120 A 
ATOM     16  C   UNL     1      -6.941  25.005  -1.400  1.00  0.00     0.093 A 
ATOM     17  C   UNL     1      -7.763  25.509  -2.414  1.00  0.00     0.131 A 
ENDROOT
BRANCH   6  18
ATOM     18  O   UNL     1     -10.123  26.434  -7.045  1.00  0.00    -0.507 OA
ATOM     19  H   UNL     1     -10.962  26.176  -6.538  1.00  0.00     0.293 HD
ENDBRANCH   6  18
BRANCH  17  20
ATOM     20  O   UNL     1      -8.607  26.571  -2.079  1.00  0.00    -0.507 OA
ATOM     21  H   UNL     1      -9.456  26.792  -2.580  1.00  0.00     0.293 HD
ENDBRANCH  17  20
BRANCH  15  22
ATOM     22  O   UNL     1      -5.171  23.521  -0.666  1.00  0.00    -0.508 OA
ATOM     23  H   UNL     1      -4.878  24.102   0.111  1.00  0.00     0.293 HD
ENDBRANCH  15  22
TORSDOF 3
ENDMDL
MODEL 5
REMARK VINA RESULT:    -4.481      9.118     10.218
REMARK INTER + INTRA:          -4.874
REMARK INTER:                  -4.874
REMARK INTRA:                   0.000
REMARK UNBOUND:                 0.000
REMARK SMILES Cc1cc(O)c2c(c1)C(=O)c1cc(O)cc(O)c1C2=O
REMARK SMILES IDX 1 1 2 2 8 3 7 4 6 5 4 6 3 7 19 8 20 9 18 10 11 11 9 12 10 13
REMARK SMILES IDX 12 14 13 15 15 16 16 17 5 18 17 20 14 22
REMARK H PARENT 5 19 17 21 14 23
REMARK Flexibility Score: inf
ROOT
ATOM      1  C   UNL     1      -3.141  17.304  -9.204  1.00  0.00     0.044 C 
ATOM      2  C   UNL     1      -3.026  17.035  -7.733  1.00  0.00    -0.047 A 
ATOM      3  C   UNL     1      -1.771  17.030  -7.114  1.00  0.00     0.016 A 
ATOM      4  C   UNL     1      -1.648  16.746  -5.742  1.00  0.00     0.038 A 
ATOM      5  C   UNL     1      -2.798  16.442  -4.983  1.00  0.00     0.076 A 
ATOM      6  C   UNL     1      -4.063  16.437  -5.615  1.00  0.00     0.127 A 
ATOM      7  C   UNL     1      -4.165  16.725  -6.982  1.00  0.00     0.050 A 
ATOM      8  C   UNL     1      -2.646  16.107  -3.543  1.00  0.00     0.201 C 
ATOM      9  O   UNL     1      -3.574  15.496  -2.947  1.00  0.00    -0.288 OA
ATOM     10  C   UNL     1      -1.363  16.386  -2.839  1.00  0.00     0.076 A 
ATOM     11  C   UNL     1      -0.207  16.626  -3.620  1.00  0.00     0.041 A 
ATOM     12  C   UNL     1      -0.318  16.758  -5.092  1.00  0.00     0.194 C 
ATOM     13  O   UNL     1       0.723  16.902  -5.792  1.00  0.00    -0.289 OA
ATOM     14  C   UNL     1       1.046  16.747  -2.996  1.00  0.00     0.059 A 
ATOM     15  C   UNL     1       1.162  16.649  -1.611  1.00  0.00     0.120 A 
ATOM     16  C   UNL     1       0.020  16.461  -0.830  1.00  0.00     0.093 A 
ATOM     17  C   UNL     1      -1.243  16.363  -1.423  1.00  0.00     0.131 A 
ENDROOT
BRANCH   6  18
ATOM     18  O   UNL     1      -5.220  16.153  -4.889  1.00  0.00    -0.507 OA
ATOM     19  H   UNL     1      -6.141  16.394  -5.236  1.00  0.00     0.293 HD
ENDBRANCH   6  18
BRANCH  17  20
ATOM     20  O   UNL     1      -2.344  16.284  -0.566  1.00  0.00    -0.507 OA
ATOM     21  H   UNL     1      -2.696  15.417  -0.185  1.00  0.00     0.293 HD
ENDBRANCH  17  20
BRANCH  15  22
ATOM     22  O   UNL     1       2.418  16.755  -1.018  1.00  0.00    -0.508 OA
ATOM     23  H   UNL     1       2.884  15.950  -0.615  1.00  0.00     0.293 HD
ENDBRANCH  15  22
TORSDOF 3
ENDMDL
MODEL 6
REMARK VINA RESULT:    -4.472      9.477     11.494
REMARK INTER + INTRA:          -4.864
REMARK INTER:                  -4.864
REMARK INTRA:                   0.000
REMARK UNBOUND:                 0.000
REMARK SMILES Cc1cc(O)c2c(c1)C(=O)c1cc(O)cc(O)c1C2=O
REMARK SMILES IDX 1 1 2 2 8 3 7 4 6 5 4 6 3 7 19 8 20 9 18 10 11 11 9 12 10 13
REMARK SMILES IDX 12 14 13 15 15 16 16 17 5 18 17 20 14 22
REMARK H PARENT 5 19 17 21 14 23
REMARK Flexibility Score: inf
ROOT
ATOM      1  C   UNL     1       2.107  14.875  -9.804  1.00  0.00     0.044 C 
ATOM      2  C   UNL     1       1.344  15.443  -8.644  1.00  0.00    -0.047 A 
ATOM      3  C   UNL     1       1.864  15.354  -7.348  1.00  0.00     0.016 A 
ATOM      4  C   UNL     1       1.143  15.852  -6.248  1.00  0.00     0.038 A 
ATOM      5  C   UNL     1      -0.128  16.431  -6.449  1.00  0.00     0.076 A 
ATOM      6  C   UNL     1      -0.656  16.508  -7.758  1.00  0.00     0.127 A 
ATOM      7  C   UNL     1       0.080  16.008  -8.840  1.00  0.00     0.050 A 
ATOM      8  C   UNL     1      -0.894  16.919  -5.271  1.00  0.00     0.201 C 
ATOM      9  O   UNL     1      -2.138  17.097  -5.371  1.00  0.00    -0.288 OA
ATOM     10  C   UNL     1      -0.219  17.082  -3.953  1.00  0.00     0.076 A 
ATOM     11  C   UNL     1       1.026  16.441  -3.752  1.00  0.00     0.041 A 
ATOM     12  C   UNL     1       1.708  15.767  -4.883  1.00  0.00     0.194 C 
ATOM     13  O   UNL     1       2.783  15.137  -4.685  1.00  0.00    -0.289 OA
ATOM     14  C   UNL     1       1.621  16.451  -2.478  1.00  0.00     0.059 A 
ATOM     15  C   UNL     1       1.004  17.101  -1.412  1.00  0.00     0.120 A 
ATOM     16  C   UNL     1      -0.201  17.777  -1.614  1.00  0.00     0.093 A 
ATOM     17  C   UNL     1      -0.802  17.806  -2.877  1.00  0.00     0.131 A 
ENDROOT
BRANCH   6  18
ATOM     18  O   UNL     1      -1.904  17.086  -7.989  1.00  0.00    -0.507 OA
ATOM     19  H   UNL     1      -2.639  17.066  -7.292  1.00  0.00     0.293 HD
ENDBRANCH   6  18
BRANCH  17  20
ATOM     20  O   UNL     1      -1.947  18.592  -3.019  1.00  0.00    -0.507 OA
ATOM     21  H   UNL     1      -2.169  19.113  -3.856  1.00  0.00     0.293 HD
ENDBRANCH  17  20
BRANCH  15  22
ATOM     22  O   UNL     1       1.605  17.081  -0.155  1.00  0.00    -0.508 OA
ATOM     23  H   UNL     1       1.972  16.225   0.244  1.00  0.00     0.293 HD
ENDBRANCH  15  22
TORSDOF 3
ENDMDL
MODEL 7
REMARK VINA RESULT:    -4.239      4.049      5.832
REMARK INTER + INTRA:          -4.610
REMARK INTER:                  -4.610
REMARK INTRA:                   0.000
REMARK UNBOUND:                 0.000
REMARK SMILES Cc1cc(O)c2c(c1)C(=O)c1cc(O)cc(O)c1C2=O
REMARK SMILES IDX 1 1 2 2 8 3 7 4 6 5 4 6 3 7 19 8 20 9 18 10 11 11 9 12 10 13
REMARK SMILES IDX 12 14 13 15 15 16 16 17 5 18 17 20 14 22
REMARK H PARENT 5 19 17 21 14 23
REMARK Flexibility Score: inf
ROOT
ATOM      1  C   UNL     1     -10.116  23.101 -11.125  1.00  0.00     0.044 C 
ATOM      2  C   UNL     1      -9.141  23.078  -9.985  1.00  0.00    -0.047 A 
ATOM      3  C   UNL     1      -8.559  21.872  -9.579  1.00  0.00     0.016 A 
ATOM      4  C   UNL     1      -7.671  21.833  -8.491  1.00  0.00     0.038 A 
ATOM      5  C   UNL     1      -7.376  23.019  -7.784  1.00  0.00     0.076 A 
ATOM      6  C   UNL     1      -7.975  24.233  -8.189  1.00  0.00     0.127 A 
ATOM      7  C   UNL     1      -8.856  24.251  -9.278  1.00  0.00     0.050 A 
ATOM      8  C   UNL     1      -6.464  22.954  -6.611  1.00  0.00     0.201 C 
ATOM      9  O   UNL     1      -6.470  23.891  -5.769  1.00  0.00    -0.288 OA
ATOM     10  C   UNL     1      -5.636  21.738  -6.372  1.00  0.00     0.076 A 
ATOM     11  C   UNL     1      -5.987  20.543  -7.043  1.00  0.00     0.041 A 
ATOM     12  C   UNL     1      -7.048  20.555  -8.078  1.00  0.00     0.194 C 
ATOM     13  O   UNL     1      -7.407  19.475  -8.624  1.00  0.00    -0.289 OA
ATOM     14  C   UNL     1      -5.322  19.345  -6.732  1.00  0.00     0.059 A 
ATOM     15  C   UNL     1      -4.306  19.323  -5.779  1.00  0.00     0.120 A 
ATOM     16  C   UNL     1      -3.921  20.507  -5.148  1.00  0.00     0.093 A 
ATOM     17  C   UNL     1      -4.548  21.719  -5.457  1.00  0.00     0.131 A 
ENDROOT
BRANCH   6  18
ATOM     18  O   UNL     1      -7.693  25.424  -7.519  1.00  0.00    -0.507 OA
ATOM     19  H   UNL     1      -7.553  26.296  -8.016  1.00  0.00     0.293 HD
ENDBRANCH   6  18
BRANCH  17  20
ATOM     20  O   UNL     1      -4.032  22.873  -4.862  1.00  0.00    -0.507 OA
ATOM     21  H   UNL     1      -3.117  22.922  -4.436  1.00  0.00     0.293 HD
ENDBRANCH  17  20
BRANCH  15  22
ATOM     22  O   UNL     1      -3.675  18.119  -5.476  1.00  0.00    -0.508 OA
ATOM     23  H   UNL     1      -2.689  18.082  -5.242  1.00  0.00     0.293 HD
ENDBRANCH  15  22
TORSDOF 3
ENDMDL
MODEL 8
REMARK VINA RESULT:    -4.178      8.576     11.162
REMARK INTER + INTRA:          -4.544
REMARK INTER:                  -4.544
REMARK INTRA:                   0.000
REMARK UNBOUND:                 0.000
REMARK SMILES Cc1cc(O)c2c(c1)C(=O)c1cc(O)cc(O)c1C2=O
REMARK SMILES IDX 1 1 2 2 8 3 7 4 6 5 4 6 3 7 19 8 20 9 18 10 11 11 9 12 10 13
REMARK SMILES IDX 12 14 13 15 15 16 16 17 5 18 17 20 14 22
REMARK H PARENT 5 19 17 21 14 23
REMARK Flexibility Score: inf
ROOT
ATOM      1  C   UNL     1       3.773  14.876  -5.004  1.00  0.00     0.044 C 
ATOM      2  C   UNL     1       2.537  15.303  -5.740  1.00  0.00    -0.047 A 
ATOM      3  C   UNL     1       1.530  16.010  -5.073  1.00  0.00     0.016 A 
ATOM      4  C   UNL     1       0.352  16.385  -5.743  1.00  0.00     0.038 A 
ATOM      5  C   UNL     1       0.172  16.029  -7.096  1.00  0.00     0.076 A 
ATOM      6  C   UNL     1       1.187  15.305  -7.763  1.00  0.00     0.127 A 
ATOM      7  C   UNL     1       2.354  14.942  -7.078  1.00  0.00     0.050 A 
ATOM      8  C   UNL     1      -1.095  16.401  -7.779  1.00  0.00     0.201 C 
ATOM      9  O   UNL     1      -1.429  15.802  -8.836  1.00  0.00    -0.288 OA
ATOM     10  C   UNL     1      -2.020  17.390  -7.157  1.00  0.00     0.076 A 
ATOM     11  C   UNL     1      -1.862  17.686  -5.782  1.00  0.00     0.041 A 
ATOM     12  C   UNL     1      -0.701  17.146  -5.034  1.00  0.00     0.194 C 
ATOM     13  O   UNL     1      -0.601  17.353  -3.793  1.00  0.00    -0.289 OA
ATOM     14  C   UNL     1      -2.803  18.499  -5.128  1.00  0.00     0.059 A 
ATOM     15  C   UNL     1      -3.885  19.033  -5.824  1.00  0.00     0.120 A 
ATOM     16  C   UNL     1      -4.021  18.786  -7.192  1.00  0.00     0.093 A 
ATOM     17  C   UNL     1      -3.085  18.002  -7.873  1.00  0.00     0.131 A 
ENDROOT
BRANCH   6  18
ATOM     18  O   UNL     1       1.044  14.950  -9.104  1.00  0.00    -0.507 OA
ATOM     19  H   UNL     1       1.349  15.560  -9.853  1.00  0.00     0.293 HD
ENDBRANCH   6  18
BRANCH  17  20
ATOM     20  O   UNL     1      -3.234  17.891  -9.258  1.00  0.00    -0.507 OA
ATOM     21  H   UNL     1      -2.513  17.541  -9.874  1.00  0.00     0.293 HD
ENDBRANCH  17  20
BRANCH  15  22
ATOM     22  O   UNL     1      -4.814  19.822  -5.150  1.00  0.00    -0.508 OA
ATOM     23  H   UNL     1      -4.877  19.818  -4.138  1.00  0.00     0.293 HD
ENDBRANCH  15  22
TORSDOF 3
ENDMDL
