MODEL 1
REMARK VINA RESULT:    -4.107      0.000      0.000
REMARK INTER + INTRA:          -6.401
REMARK INTER:                  -5.788
REMARK INTRA:                  -0.613
REMARK UNBOUND:                -0.613
REMARK SMILES CCCCCCCCC(=O)[O-]
REMARK SMILES IDX 6 1 7 2 8 3 9 4 10 5 11 6 5 7 4 8 3 9 2 10 1 11
REMARK H PARENT
REMARK Flexibility Score: inf
ROOT
ATOM      1  C   UNL     1     -48.512 -50.551  18.676  1.00  0.00     0.000 C 
ENDROOT
BRANCH   1   2
ATOM      2  C   UNL     1     -49.385 -50.007  19.813  1.00  0.00     0.006 C 
BRANCH   2   3
ATOM      3  C   UNL     1     -50.615 -49.279  19.261  1.00  0.00     0.053 C 
BRANCH   3   4
ATOM      4  C   UNL     1     -51.730 -50.245  19.019  1.00  0.00     0.041 C 
ATOM      5  O   UNL     1     -52.534 -50.059  18.068  1.00  0.00    -0.550 OA
ATOM      6  O   UNL     1     -51.855 -51.377  19.814  1.00  0.00    -0.550 OA
ENDBRANCH   3   4
ENDBRANCH   2   3
ENDBRANCH   1   2
BRANCH   1   7
ATOM      7  C   UNL     1     -47.457 -49.520  18.251  1.00  0.00     0.000 C 
BRANCH   7   8
ATOM      8  C   UNL     1     -47.450 -49.272  16.735  1.00  0.00    -0.000 C 
BRANCH   8   9
ATOM      9  C   UNL     1     -47.775 -50.540  15.926  1.00  0.00    -0.000 C 
BRANCH   9  10
ATOM     10  C   UNL     1     -48.955 -50.338  14.964  1.00  0.00    -0.003 C 
ATOM     11  C   UNL     1     -50.209 -51.095  15.401  1.00  0.00     0.004 C 
ENDBRANCH   9  10
ENDBRANCH   8   9
ENDBRANCH   7   8
ENDBRANCH   1   7
TORSDOF 7
ENDMDL
MODEL 2
REMARK VINA RESULT:    -4.061      2.310      4.006
REMARK INTER + INTRA:          -6.335
REMARK INTER:                  -5.683
REMARK INTRA:                  -0.652
REMARK UNBOUND:                -0.613
REMARK SMILES CCCCCCCCC(=O)[O-]
REMARK SMILES IDX 6 1 7 2 8 3 9 4 10 5 11 6 5 7 4 8 3 9 2 10 1 11
REMARK H PARENT
REMARK Flexibility Score: inf
ROOT
ATOM      1  C   UNL     1     -47.384 -49.905  17.858  1.00  0.00     0.000 C 
ENDROOT
BRANCH   1   2
ATOM      2  C   UNL     1     -47.686 -49.948  16.355  1.00  0.00     0.006 C 
BRANCH   2   3
ATOM      3  C   UNL     1     -48.684 -51.062  16.026  1.00  0.00     0.053 C 
BRANCH   3   4
ATOM      4  C   UNL     1     -49.532 -50.677  14.855  1.00  0.00     0.041 C 
ATOM      5  O   UNL     1     -49.333 -49.585  14.261  1.00  0.00    -0.550 OA
ATOM      6  O   UNL     1     -50.510 -51.546  14.389  1.00  0.00    -0.550 OA
ENDBRANCH   3   4
ENDBRANCH   2   3
ENDBRANCH   1   2
BRANCH   1   7
ATOM      7  C   UNL     1     -48.006 -48.661  18.509  1.00  0.00     0.000 C 
BRANCH   7   8
ATOM      8  C   UNL     1     -49.437 -48.908  19.010  1.00  0.00    -0.000 C 
BRANCH   8   9
ATOM      9  C   UNL     1     -49.624 -50.320  19.592  1.00  0.00    -0.000 C 
BRANCH   9  10
ATOM     10  C   UNL     1     -51.087 -50.787  19.545  1.00  0.00    -0.003 C 
ATOM     11  C   UNL     1     -51.739 -50.547  18.183  1.00  0.00     0.004 C 
ENDBRANCH   9  10
ENDBRANCH   8   9
ENDBRANCH   7   8
ENDBRANCH   1   7
TORSDOF 7
ENDMDL
MODEL 3
REMARK VINA RESULT:    -4.005      2.273      4.101
REMARK INTER + INTRA:          -6.257
REMARK INTER:                  -5.627
REMARK INTRA:                  -0.630
REMARK UNBOUND:                -0.613
REMARK SMILES CCCCCCCCC(=O)[O-]
REMARK SMILES IDX 6 1 7 2 8 3 9 4 10 5 11 6 5 7 4 8 3 9 2 10 1 11
REMARK H PARENT
REMARK Flexibility Score: inf
ROOT
ATOM      1  C   UNL     1     -47.396 -49.987  17.966  1.00  0.00     0.000 C 
ENDROOT
BRANCH   1   2
ATOM      2  C   UNL     1     -47.746 -49.984  16.473  1.00  0.00     0.006 C 
BRANCH   2   3
ATOM      3  C   UNL     1     -48.780 -51.068  16.149  1.00  0.00     0.053 C 
BRANCH   3   4
ATOM      4  C   UNL     1     -49.544 -50.711  14.913  1.00  0.00     0.041 C 
ATOM      5  O   UNL     1     -50.462 -51.465  14.496  1.00  0.00    -0.550 OA
ATOM      6  O   UNL     1     -49.275 -49.522  14.249  1.00  0.00    -0.550 OA
ENDBRANCH   3   4
ENDBRANCH   2   3
ENDBRANCH   1   2
BRANCH   1   7
ATOM      7  C   UNL     1     -47.335 -48.555  18.518  1.00  0.00     0.000 C 
BRANCH   7   8
ATOM      8  C   UNL     1     -48.727 -47.970  18.799  1.00  0.00    -0.000 C 
BRANCH   8   9
ATOM      9  C   UNL     1     -49.478 -48.732  19.905  1.00  0.00    -0.000 C 
BRANCH   9  10
ATOM     10  C   UNL     1     -50.872 -49.198  19.456  1.00  0.00    -0.003 C 
ATOM     11  C   UNL     1     -50.937 -50.705  19.205  1.00  0.00     0.004 C 
ENDBRANCH   9  10
ENDBRANCH   8   9
ENDBRANCH   7   8
ENDBRANCH   1   7
TORSDOF 7
ENDMDL
MODEL 4
REMARK VINA RESULT:    -4.004     13.952     15.554
REMARK INTER + INTRA:          -6.255
REMARK INTER:                  -5.624
REMARK INTRA:                  -0.631
REMARK UNBOUND:                -0.613
REMARK SMILES CCCCCCCCC(=O)[O-]
REMARK SMILES IDX 6 1 7 2 8 3 9 4 10 5 11 6 5 7 4 8 3 9 2 10 1 11
REMARK H PARENT
REMARK Flexibility Score: inf
ROOT
ATOM      1  C   UNL     1     -45.506 -48.873  30.865  1.00  0.00     0.000 C 
ENDROOT
BRANCH   1   2
ATOM      2  C   UNL     1     -44.629 -49.990  30.288  1.00  0.00     0.006 C 
BRANCH   2   3
ATOM      3  C   UNL     1     -43.149 -49.596  30.316  1.00  0.00     0.053 C 
BRANCH   3   4
ATOM      4  C   UNL     1     -42.307 -50.752  30.755  1.00  0.00     0.041 C 
ATOM      5  O   UNL     1     -42.009 -51.665  29.940  1.00  0.00    -0.550 OA
ATOM      6  O   UNL     1     -41.812 -50.798  32.051  1.00  0.00    -0.550 OA
ENDBRANCH   3   4
ENDBRANCH   2   3
ENDBRANCH   1   2
BRANCH   1   7
ATOM      7  C   UNL     1     -46.805 -49.444  31.454  1.00  0.00     0.000 C 
BRANCH   7   8
ATOM      8  C   UNL     1     -46.998 -49.072  32.932  1.00  0.00    -0.000 C 
BRANCH   8   9
ATOM      9  C   UNL     1     -46.310 -50.063  33.886  1.00  0.00    -0.000 C 
BRANCH   9  10
ATOM     10  C   UNL     1     -46.364 -51.510  33.371  1.00  0.00    -0.003 C 
ATOM     11  C   UNL     1     -44.984 -52.167  33.313  1.00  0.00     0.004 C 
ENDBRANCH   9  10
ENDBRANCH   8   9
ENDBRANCH   7   8
ENDBRANCH   1   7
TORSDOF 7
ENDMDL
MODEL 5
REMARK VINA RESULT:    -3.958      1.157      1.746
REMARK INTER + INTRA:          -6.191
REMARK INTER:                  -5.490
REMARK INTRA:                  -0.701
REMARK UNBOUND:                -0.613
REMARK SMILES CCCCCCCCC(=O)[O-]
REMARK SMILES IDX 6 1 7 2 8 3 9 4 10 5 11 6 5 7 4 8 3 9 2 10 1 11
REMARK H PARENT
REMARK Flexibility Score: inf
ROOT
ATOM      1  C   UNL     1     -49.237 -48.343  19.168  1.00  0.00     0.000 C 
ENDROOT
BRANCH   1   2
ATOM      2  C   UNL     1     -49.614 -49.751  19.646  1.00  0.00     0.006 C 
BRANCH   2   3
ATOM      3  C   UNL     1     -50.684 -50.370  18.741  1.00  0.00     0.053 C 
BRANCH   3   4
ATOM      4  C   UNL     1     -52.052 -50.005  19.222  1.00  0.00     0.041 C 
ATOM      5  O   UNL     1     -52.314 -50.014  20.454  1.00  0.00    -0.550 OA
ATOM      6  O   UNL     1     -53.026 -49.608  18.315  1.00  0.00    -0.550 OA
ENDBRANCH   3   4
ENDBRANCH   2   3
ENDBRANCH   1   2
BRANCH   1   7
ATOM      7  C   UNL     1     -47.728 -48.239  18.900  1.00  0.00     0.000 C 
BRANCH   7   8
ATOM      8  C   UNL     1     -47.210 -49.367  17.995  1.00  0.00    -0.000 C 
BRANCH   8   9
ATOM      9  C   UNL     1     -47.373 -49.048  16.499  1.00  0.00    -0.000 C 
BRANCH   9  10
ATOM     10  C   UNL     1     -48.134 -50.148  15.742  1.00  0.00    -0.003 C 
ATOM     11  C   UNL     1     -48.090 -51.496  16.461  1.00  0.00     0.004 C 
ENDBRANCH   9  10
ENDBRANCH   8   9
ENDBRANCH   7   8
ENDBRANCH   1   7
TORSDOF 7
ENDMDL
MODEL 6
REMARK VINA RESULT:    -3.896      1.990      3.910
REMARK INTER + INTRA:          -6.103
REMARK INTER:                  -5.467
REMARK INTRA:                  -0.636
REMARK UNBOUND:                -0.613
REMARK SMILES CCCCCCCCC(=O)[O-]
REMARK SMILES IDX 6 1 7 2 8 3 9 4 10 5 11 6 5 7 4 8 3 9 2 10 1 11
REMARK H PARENT
REMARK Flexibility Score: inf
ROOT
ATOM      1  C   UNL     1     -48.162 -49.031  15.449  1.00  0.00     0.000 C 
ENDROOT
BRANCH   1   2
ATOM      2  C   UNL     1     -47.749 -50.503  15.560  1.00  0.00     0.006 C 
BRANCH   2   3
ATOM      3  C   UNL     1     -48.714 -51.279  16.462  1.00  0.00     0.053 C 
BRANCH   3   4
ATOM      4  C   UNL     1     -50.121 -51.127  15.976  1.00  0.00     0.041 C 
ATOM      5  O   UNL     1     -51.025 -50.744  16.765  1.00  0.00    -0.550 OA
ATOM      6  O   UNL     1     -50.425 -51.362  14.642  1.00  0.00    -0.550 OA
ENDBRANCH   3   4
ENDBRANCH   2   3
ENDBRANCH   1   2
BRANCH   1   7
ATOM      7  C   UNL     1     -47.104 -48.114  16.082  1.00  0.00     0.000 C 
BRANCH   7   8
ATOM      8  C   UNL     1     -47.722 -46.903  16.796  1.00  0.00    -0.000 C 
BRANCH   8   9
ATOM      9  C   UNL     1     -48.494 -47.295  18.067  1.00  0.00    -0.000 C 
BRANCH   9  10
ATOM     10  C   UNL     1     -47.710 -48.277  18.952  1.00  0.00    -0.003 C 
ATOM     11  C   UNL     1     -48.604 -49.343  19.586  1.00  0.00     0.004 C 
ENDBRANCH   9  10
ENDBRANCH   8   9
ENDBRANCH   7   8
ENDBRANCH   1   7
TORSDOF 7
ENDMDL
MODEL 7
REMARK VINA RESULT:    -3.865      3.777      6.414
REMARK INTER + INTRA:          -6.060
REMARK INTER:                  -5.459
REMARK INTRA:                  -0.601
REMARK UNBOUND:                -0.613
REMARK SMILES CCCCCCCCC(=O)[O-]
REMARK SMILES IDX 6 1 7 2 8 3 9 4 10 5 11 6 5 7 4 8 3 9 2 10 1 11
REMARK H PARENT
REMARK Flexibility Score: inf
ROOT
ATOM      1  C   UNL     1     -52.033 -48.906  22.143  1.00  0.00     0.000 C 
ENDROOT
BRANCH   1   2
ATOM      2  C   UNL     1     -51.700 -48.565  20.685  1.00  0.00     0.006 C 
BRANCH   2   3
ATOM      3  C   UNL     1     -52.514 -49.431  19.718  1.00  0.00     0.053 C 
BRANCH   3   4
ATOM      4  C   UNL     1     -51.739 -50.649  19.328  1.00  0.00     0.041 C 
ATOM      5  O   UNL     1     -50.941 -50.607  18.354  1.00  0.00    -0.550 OA
ATOM      6  O   UNL     1     -51.862 -51.818  20.067  1.00  0.00    -0.550 OA
ENDBRANCH   3   4
ENDBRANCH   2   3
ENDBRANCH   1   2
BRANCH   1   7
ATOM      7  C   UNL     1     -53.479 -48.514  22.482  1.00  0.00     0.000 C 
BRANCH   7   8
ATOM      8  C   UNL     1     -53.692 -46.993  22.492  1.00  0.00    -0.000 C 
BRANCH   8   9
ATOM      9  C   UNL     1     -54.993 -46.573  21.785  1.00  0.00    -0.000 C 
BRANCH   9  10
ATOM     10  C   UNL     1     -55.559 -47.683  20.886  1.00  0.00    -0.003 C 
ATOM     11  C   UNL     1     -57.031 -47.980  21.172  1.00  0.00     0.004 C 
ENDBRANCH   9  10
ENDBRANCH   8   9
ENDBRANCH   7   8
ENDBRANCH   1   7
TORSDOF 7
ENDMDL
MODEL 8
REMARK VINA RESULT:    -3.862      2.252      4.291
REMARK INTER + INTRA:          -6.055
REMARK INTER:                  -5.530
REMARK INTRA:                  -0.524
REMARK UNBOUND:                -0.613
REMARK SMILES CCCCCCCCC(=O)[O-]
REMARK SMILES IDX 6 1 7 2 8 3 9 4 10 5 11 6 5 7 4 8 3 9 2 10 1 11
REMARK H PARENT
REMARK Flexibility Score: inf
ROOT
ATOM      1  C   UNL     1     -47.621 -48.727  18.284  1.00  0.00     0.000 C 
ENDROOT
BRANCH   1   2
ATOM      2  C   UNL     1     -47.382 -49.870  17.291  1.00  0.00     0.006 C 
BRANCH   2   3
ATOM      3  C   UNL     1     -47.684 -49.424  15.857  1.00  0.00     0.053 C 
BRANCH   3   4
ATOM      4  C   UNL     1     -48.756 -50.277  15.257  1.00  0.00     0.041 C 
ATOM      5  O   UNL     1     -49.443 -49.847  14.293  1.00  0.00    -0.550 OA
ATOM      6  O   UNL     1     -48.966 -51.566  15.731  1.00  0.00    -0.550 OA
ENDBRANCH   3   4
ENDBRANCH   2   3
ENDBRANCH   1   2
BRANCH   1   7
ATOM      7  C   UNL     1     -49.033 -48.804  18.882  1.00  0.00     0.000 C 
BRANCH   7   8
ATOM      8  C   UNL     1     -49.498 -50.250  19.115  1.00  0.00    -0.000 C 
BRANCH   8   9
ATOM      9  C   UNL     1     -50.927 -50.502  18.604  1.00  0.00    -0.000 C 
BRANCH   9  10
ATOM     10  C   UNL     1     -51.904 -50.851  19.738  1.00  0.00    -0.003 C 
ATOM     11  C   UNL     1     -52.448 -49.612  20.449  1.00  0.00     0.004 C 
ENDBRANCH   9  10
ENDBRANCH   8   9
ENDBRANCH   7   8
ENDBRANCH   1   7
TORSDOF 7
ENDMDL
MODEL 9
REMARK VINA RESULT:    -3.845     13.248     14.844
REMARK INTER + INTRA:          -6.031
REMARK INTER:                  -5.490
REMARK INTRA:                  -0.540
REMARK UNBOUND:                -0.613
REMARK SMILES CCCCCCCCC(=O)[O-]
REMARK SMILES IDX 6 1 7 2 8 3 9 4 10 5 11 6 5 7 4 8 3 9 2 10 1 11
REMARK H PARENT
REMARK Flexibility Score: inf
ROOT
ATOM      1  C   UNL     1     -42.081 -49.500  28.226  1.00  0.00     0.000 C 
ENDROOT
BRANCH   1   2
ATOM      2  C   UNL     1     -41.728 -50.632  29.199  1.00  0.00     0.006 C 
BRANCH   2   3
ATOM      3  C   UNL     1     -41.858 -50.166  30.653  1.00  0.00     0.053 C 
BRANCH   3   4
ATOM      4  C   UNL     1     -42.935 -50.933  31.354  1.00  0.00     0.041 C 
ATOM      5  O   UNL     1     -42.785 -51.281  32.555  1.00  0.00    -0.550 OA
ATOM      6  O   UNL     1     -44.123 -51.222  30.697  1.00  0.00    -0.550 OA
ENDBRANCH   3   4
ENDBRANCH   2   3
ENDBRANCH   1   2
BRANCH   1   7
ATOM      7  C   UNL     1     -40.812 -48.857  27.647  1.00  0.00     0.000 C 
BRANCH   7   8
ATOM      8  C   UNL     1     -40.728 -47.351  27.937  1.00  0.00    -0.000 C 
BRANCH   8   9
ATOM      9  C   UNL     1     -39.452 -46.966  28.707  1.00  0.00    -0.000 C 
BRANCH   9  10
ATOM     10  C   UNL     1     -38.646 -48.193  29.161  1.00  0.00    -0.003 C 
ATOM     11  C   UNL     1     -37.183 -48.133  28.722  1.00  0.00     0.004 C 
ENDBRANCH   9  10
ENDBRANCH   8   9
ENDBRANCH   7   8
ENDBRANCH   1   7
TORSDOF 7
ENDMDL
