MODEL 1
REMARK VINA RESULT:    -5.156      0.000      0.000
REMARK INTER + INTRA:          -6.158
REMARK INTER:                  -6.362
REMARK INTRA:                   0.204
REMARK UNBOUND:                 0.204
REMARK SMILES Oc1cc(O)c2cc(O)c(-c3cc(O)c(O)c(O)c3)[o+]c2c1
REMARK SMILES IDX 10 1 20 2 21 3 22 4 2 5 3 6 4 7 6 8 7 9 8 10 11 11 12 12
REMARK SMILES IDX 13 13 19 14 15 15 17 16 14 17 16 19 18 21 9 23 1 25 5 27
REMARK H PARENT 14 18 16 20 18 22 9 24 1 26 5 28
REMARK Flexibility Score: inf
ROOT
ATOM      1  C   UNL     1      20.353  -1.924  19.511  1.00  0.00     0.402 A 
ATOM      2  O   UNL     1      19.279  -1.694  20.263  1.00  0.00    -0.202 OA
ATOM      3  C   UNL     1      18.590  -0.559  20.223  1.00  0.00     0.368 A 
ATOM      4  C   UNL     1      17.472  -0.412  21.049  1.00  0.00     0.162 A 
ATOM      5  C   UNL     1      16.728   0.766  21.026  1.00  0.00     0.128 A 
ATOM      6  C   UNL     1      17.099   1.809  20.169  1.00  0.00     0.093 A 
ATOM      7  C   UNL     1      18.214   1.687  19.331  1.00  0.00     0.136 A 
ATOM      8  C   UNL     1      18.976   0.490  19.354  1.00  0.00     0.125 A 
ATOM      9  C   UNL     1      20.116   0.284  18.559  1.00  0.00     0.078 A 
ATOM     10  C   UNL     1      20.818  -0.922  18.640  1.00  0.00     0.223 A 
ENDROOT
BRANCH   1  11
ATOM     11  C   UNL     1      21.031  -3.234  19.639  1.00  0.00     0.091 A 
ATOM     12  C   UNL     1      21.768  -3.783  18.577  1.00  0.00     0.068 A 
ATOM     13  C   UNL     1      22.385  -5.036  18.710  1.00  0.00     0.162 A 
ATOM     14  C   UNL     1      20.889  -3.971  20.826  1.00  0.00     0.068 A 
ATOM     15  C   UNL     1      22.256  -5.756  19.911  1.00  0.00     0.200 A 
ATOM     16  C   UNL     1      21.501  -5.220  20.967  1.00  0.00     0.162 A 
BRANCH  13  17
ATOM     17  O   UNL     1      23.119  -5.568  17.653  1.00  0.00    -0.504 OA
ATOM     18  H   UNL     1      22.671  -5.895  16.805  1.00  0.00     0.293 HD
ENDBRANCH  13  17
BRANCH  15  19
ATOM     19  O   UNL     1      22.866  -7.002  20.061  1.00  0.00    -0.502 OA
ATOM     20  H   UNL     1      22.889  -7.686  19.314  1.00  0.00     0.293 HD
ENDBRANCH  15  19
BRANCH  16  21
ATOM     21  O   UNL     1      21.348  -5.915  22.167  1.00  0.00    -0.504 OA
ATOM     22  H   UNL     1      22.138  -6.174  22.745  1.00  0.00     0.293 HD
ENDBRANCH  16  21
ENDBRANCH   1  11
BRANCH  10  23
ATOM     23  O   UNL     1      21.979  -1.107  17.887  1.00  0.00    -0.500 OA
ATOM     24  H   UNL     1      22.246  -0.463  17.152  1.00  0.00     0.294 HD
ENDBRANCH  10  23
BRANCH   5  25
ATOM     25  O   UNL     1      15.617   0.894  21.858  1.00  0.00    -0.507 OA
ATOM     26  H   UNL     1      15.639   1.481  22.684  1.00  0.00     0.293 HD
ENDBRANCH   5  25
BRANCH   7  27
ATOM     27  O   UNL     1      18.519   2.771  18.502  1.00  0.00    -0.507 OA
ATOM     28  H   UNL     1      18.147   2.901  17.573  1.00  0.00     0.293 HD
ENDBRANCH   7  27
TORSDOF 7
ENDMDL
MODEL 2
REMARK VINA RESULT:    -5.029      0.647      1.906
REMARK INTER + INTRA:          -6.001
REMARK INTER:                  -6.178
REMARK INTRA:                   0.176
REMARK UNBOUND:                 0.204
REMARK SMILES Oc1cc(O)c2cc(O)c(-c3cc(O)c(O)c(O)c3)[o+]c2c1
REMARK SMILES IDX 10 1 20 2 21 3 22 4 2 5 3 6 4 7 6 8 7 9 8 10 11 11 12 12
REMARK SMILES IDX 13 13 19 14 15 15 17 16 14 17 16 19 18 21 9 23 1 25 5 27
REMARK H PARENT 14 18 16 20 18 22 9 24 1 26 5 28
REMARK Flexibility Score: inf
ROOT
ATOM      1  C   UNL     1      20.770  -2.337  19.407  1.00  0.00     0.402 A 
ATOM      2  O   UNL     1      19.607  -2.146  20.025  1.00  0.00    -0.202 OA
ATOM      3  C   UNL     1      18.942  -0.996  19.991  1.00  0.00     0.368 A 
ATOM      4  C   UNL     1      17.724  -0.894  20.670  1.00  0.00     0.162 A 
ATOM      5  C   UNL     1      17.003   0.299  20.647  1.00  0.00     0.128 A 
ATOM      6  C   UNL     1      17.498   1.400  19.940  1.00  0.00     0.093 A 
ATOM      7  C   UNL     1      18.714   1.324  19.250  1.00  0.00     0.136 A 
ATOM      8  C   UNL     1      19.453   0.112  19.274  1.00  0.00     0.125 A 
ATOM      9  C   UNL     1      20.688  -0.053  18.623  1.00  0.00     0.078 A 
ATOM     10  C   UNL     1      21.359  -1.277  18.694  1.00  0.00     0.223 A 
ENDROOT
BRANCH   1  11
ATOM     11  C   UNL     1      21.410  -3.667  19.512  1.00  0.00     0.091 A 
ATOM     12  C   UNL     1      21.334  -4.424  20.693  1.00  0.00     0.068 A 
ATOM     13  C   UNL     1      21.967  -5.673  20.782  1.00  0.00     0.162 A 
ATOM     14  C   UNL     1      22.158  -4.161  18.432  1.00  0.00     0.068 A 
ATOM     15  C   UNL     1      22.694  -6.169  19.686  1.00  0.00     0.200 A 
ATOM     16  C   UNL     1      22.790  -5.405  18.510  1.00  0.00     0.162 A 
BRANCH  13  17
ATOM     17  O   UNL     1      21.879  -6.418  21.956  1.00  0.00    -0.504 OA
ATOM     18  H   UNL     1      21.278  -6.136  22.721  1.00  0.00     0.293 HD
ENDBRANCH  13  17
BRANCH  15  19
ATOM     19  O   UNL     1      23.327  -7.410  19.755  1.00  0.00    -0.502 OA
ATOM     20  H   UNL     1      24.315  -7.524  19.567  1.00  0.00     0.293 HD
ENDBRANCH  15  19
BRANCH  16  21
ATOM     21  O   UNL     1      23.512  -5.866  17.410  1.00  0.00    -0.504 OA
ATOM     22  H   UNL     1      24.253  -5.323  16.984  1.00  0.00     0.293 HD
ENDBRANCH  16  21
ENDBRANCH   1  11
BRANCH  10  23
ATOM     23  O   UNL     1      22.608  -1.424  18.090  1.00  0.00    -0.500 OA
ATOM     24  H   UNL     1      23.284  -0.670  18.072  1.00  0.00     0.294 HD
ENDBRANCH  10  23
BRANCH   5  25
ATOM     25  O   UNL     1      15.791   0.381  21.332  1.00  0.00    -0.507 OA
ATOM     26  H   UNL     1      15.739   0.758  22.271  1.00  0.00     0.293 HD
ENDBRANCH   5  25
BRANCH   7  27
ATOM     27  O   UNL     1      19.140   2.466  18.565  1.00  0.00    -0.507 OA
ATOM     28  H   UNL     1      20.074   2.845  18.613  1.00  0.00     0.293 HD
ENDBRANCH   7  27
TORSDOF 7
ENDMDL
MODEL 3
REMARK VINA RESULT:    -4.985     13.517     15.569
REMARK INTER + INTRA:          -5.947
REMARK INTER:                  -5.681
REMARK INTRA:                  -0.267
REMARK UNBOUND:                 0.204
REMARK SMILES Oc1cc(O)c2cc(O)c(-c3cc(O)c(O)c(O)c3)[o+]c2c1
REMARK SMILES IDX 10 1 20 2 21 3 22 4 2 5 3 6 4 7 6 8 7 9 8 10 11 11 12 12
REMARK SMILES IDX 13 13 19 14 15 15 17 16 14 17 16 19 18 21 9 23 1 25 5 27
REMARK H PARENT 14 18 16 20 18 22 9 24 1 26 5 28
REMARK Flexibility Score: inf
ROOT
ATOM      1  C   UNL     1      14.079  -8.457   9.371  1.00  0.00     0.402 A 
ATOM      2  O   UNL     1      13.373  -9.283   8.604  1.00  0.00    -0.202 OA
ATOM      3  C   UNL     1      13.553 -10.599   8.590  1.00  0.00     0.368 A 
ATOM      4  C   UNL     1      12.758 -11.386   7.751  1.00  0.00     0.162 A 
ATOM      5  C   UNL     1      12.922 -12.770   7.719  1.00  0.00     0.128 A 
ATOM      6  C   UNL     1      13.887 -13.377   8.531  1.00  0.00     0.093 A 
ATOM      7  C   UNL     1      14.696 -12.612   9.380  1.00  0.00     0.136 A 
ATOM      8  C   UNL     1      14.533 -11.202   9.413  1.00  0.00     0.125 A 
ATOM      9  C   UNL     1      15.308 -10.355  10.224  1.00  0.00     0.078 A 
ATOM     10  C   UNL     1      15.092  -8.973  10.200  1.00  0.00     0.223 A 
ENDROOT
BRANCH   1  11
ATOM     11  C   UNL     1      13.779  -7.009   9.304  1.00  0.00     0.091 A 
ATOM     12  C   UNL     1      14.685  -6.099   8.734  1.00  0.00     0.068 A 
ATOM     13  C   UNL     1      14.392  -4.728   8.701  1.00  0.00     0.162 A 
ATOM     14  C   UNL     1      12.590  -6.524   9.873  1.00  0.00     0.068 A 
ATOM     15  C   UNL     1      13.188  -4.254   9.252  1.00  0.00     0.200 A 
ATOM     16  C   UNL     1      12.290  -5.159   9.843  1.00  0.00     0.162 A 
BRANCH  13  17
ATOM     17  O   UNL     1      15.295  -3.835   8.127  1.00  0.00    -0.504 OA
ATOM     18  H   UNL     1      15.013  -2.906   7.837  1.00  0.00     0.293 HD
ENDBRANCH  13  17
BRANCH  15  19
ATOM     19  O   UNL     1      12.880  -2.894   9.224  1.00  0.00    -0.502 OA
ATOM     20  H   UNL     1      12.899  -2.353   8.368  1.00  0.00     0.293 HD
ENDBRANCH  15  19
BRANCH  16  21
ATOM     21  O   UNL     1      11.092  -4.719  10.405  1.00  0.00    -0.504 OA
ATOM     22  H   UNL     1      10.859  -3.736  10.477  1.00  0.00     0.293 HD
ENDBRANCH  16  21
ENDBRANCH   1  11
BRANCH  10  23
ATOM     23  O   UNL     1      15.894  -8.128  10.966  1.00  0.00    -0.500 OA
ATOM     24  H   UNL     1      15.616  -7.178  11.180  1.00  0.00     0.294 HD
ENDBRANCH  10  23
BRANCH   5  25
ATOM     25  O   UNL     1      12.120 -13.537   6.875  1.00  0.00    -0.507 OA
ATOM     26  H   UNL     1      11.737 -14.427   7.173  1.00  0.00     0.293 HD
ENDBRANCH   5  25
BRANCH   7  27
ATOM     27  O   UNL     1      15.634 -13.293  10.162  1.00  0.00    -0.507 OA
ATOM     28  H   UNL     1      15.486 -14.207  10.562  1.00  0.00     0.293 HD
ENDBRANCH   7  27
TORSDOF 7
ENDMDL
MODEL 4
REMARK VINA RESULT:    -4.961      1.719      2.933
REMARK INTER + INTRA:          -5.918
REMARK INTER:                  -5.538
REMARK INTRA:                  -0.380
REMARK UNBOUND:                 0.204
REMARK SMILES Oc1cc(O)c2cc(O)c(-c3cc(O)c(O)c(O)c3)[o+]c2c1
REMARK SMILES IDX 10 1 20 2 21 3 22 4 2 5 3 6 4 7 6 8 7 9 8 10 11 11 12 12
REMARK SMILES IDX 13 13 19 14 15 15 17 16 14 17 16 19 18 21 9 23 1 25 5 27
REMARK H PARENT 14 18 16 20 18 22 9 24 1 26 5 28
REMARK Flexibility Score: inf
ROOT
ATOM      1  C   UNL     1      20.775  -2.639  19.991  1.00  0.00     0.402 A 
ATOM      2  O   UNL     1      20.598  -1.480  19.364  1.00  0.00    -0.202 OA
ATOM      3  C   UNL     1      19.538  -0.701  19.554  1.00  0.00     0.368 A 
ATOM      4  C   UNL     1      19.443   0.503  18.850  1.00  0.00     0.162 A 
ATOM      5  C   UNL     1      18.344   1.341  19.032  1.00  0.00     0.128 A 
ATOM      6  C   UNL     1      17.329   0.977  19.925  1.00  0.00     0.093 A 
ATOM      7  C   UNL     1      17.401  -0.224  20.643  1.00  0.00     0.136 A 
ATOM      8  C   UNL     1      18.517  -1.081  20.458  1.00  0.00     0.125 A 
ATOM      9  C   UNL     1      18.667  -2.309  21.124  1.00  0.00     0.078 A 
ATOM     10  C   UNL     1      19.794  -3.102  20.887  1.00  0.00     0.223 A 
ENDROOT
BRANCH   1  11
ATOM     11  C   UNL     1      22.004  -3.413  19.702  1.00  0.00     0.091 A 
ATOM     12  C   UNL     1      22.042  -4.369  18.674  1.00  0.00     0.068 A 
ATOM     13  C   UNL     1      23.208  -5.108  18.430  1.00  0.00     0.162 A 
ATOM     14  C   UNL     1      23.140  -3.230  20.507  1.00  0.00     0.068 A 
ATOM     15  C   UNL     1      24.348  -4.901  19.226  1.00  0.00     0.200 A 
ATOM     16  C   UNL     1      24.308  -3.961  20.270  1.00  0.00     0.162 A 
BRANCH  13  17
ATOM     17  O   UNL     1      23.236  -6.049  17.403  1.00  0.00    -0.504 OA
ATOM     18  H   UNL     1      22.931  -7.005  17.548  1.00  0.00     0.293 HD
ENDBRANCH  13  17
BRANCH  15  19
ATOM     19  O   UNL     1      25.518  -5.625  18.995  1.00  0.00    -0.502 OA
ATOM     20  H   UNL     1      25.527  -6.478  18.448  1.00  0.00     0.293 HD
ENDBRANCH  15  19
BRANCH  16  21
ATOM     21  O   UNL     1      25.419  -3.740  21.082  1.00  0.00    -0.504 OA
ATOM     22  H   UNL     1      25.577  -4.264  21.934  1.00  0.00     0.293 HD
ENDBRANCH  16  21
ENDBRANCH   1  11
BRANCH  10  23
ATOM     23  O   UNL     1      19.918  -4.344  21.510  1.00  0.00    -0.500 OA
ATOM     24  H   UNL     1      20.410  -4.453  22.389  1.00  0.00     0.294 HD
ENDBRANCH  10  23
BRANCH   5  25
ATOM     25  O   UNL     1      18.267   2.537  18.321  1.00  0.00    -0.507 OA
ATOM     26  H   UNL     1      17.599   2.664  17.569  1.00  0.00     0.293 HD
ENDBRANCH   5  25
BRANCH   7  27
ATOM     27  O   UNL     1      16.350  -0.515  21.518  1.00  0.00    -0.507 OA
ATOM     28  H   UNL     1      16.191  -1.419  21.937  1.00  0.00     0.293 HD
ENDBRANCH   7  27
TORSDOF 7
ENDMDL
MODEL 5
REMARK VINA RESULT:    -4.895      1.817      7.459
REMARK INTER + INTRA:          -5.836
REMARK INTER:                  -5.490
REMARK INTRA:                  -0.346
REMARK UNBOUND:                 0.204
REMARK SMILES Oc1cc(O)c2cc(O)c(-c3cc(O)c(O)c(O)c3)[o+]c2c1
REMARK SMILES IDX 10 1 20 2 21 3 22 4 2 5 3 6 4 7 6 8 7 9 8 10 11 11 12 12
REMARK SMILES IDX 13 13 19 14 15 15 17 16 14 17 16 19 18 21 9 23 1 25 5 27
REMARK H PARENT 14 18 16 20 18 22 9 24 1 26 5 28
REMARK Flexibility Score: inf
ROOT
ATOM      1  C   UNL     1      20.120  -3.329  20.713  1.00  0.00     0.402 A 
ATOM      2  O   UNL     1      20.848  -3.576  19.627  1.00  0.00    -0.202 OA
ATOM      3  C   UNL     1      21.716  -4.578  19.541  1.00  0.00     0.368 A 
ATOM      4  C   UNL     1      22.433  -4.759  18.355  1.00  0.00     0.162 A 
ATOM      5  C   UNL     1      23.347  -5.804  18.236  1.00  0.00     0.128 A 
ATOM      6  C   UNL     1      23.549  -6.680  19.309  1.00  0.00     0.093 A 
ATOM      7  C   UNL     1      22.843  -6.522  20.508  1.00  0.00     0.136 A 
ATOM      8  C   UNL     1      21.913  -5.456  20.634  1.00  0.00     0.125 A 
ATOM      9  C   UNL     1      21.171  -5.213  21.802  1.00  0.00     0.078 A 
ATOM     10  C   UNL     1      20.276  -4.140  21.852  1.00  0.00     0.223 A 
ENDROOT
BRANCH   1  11
ATOM     11  C   UNL     1      19.179  -2.187  20.682  1.00  0.00     0.091 A 
ATOM     12  C   UNL     1      19.622  -0.869  20.882  1.00  0.00     0.068 A 
ATOM     13  C   UNL     1      18.712   0.198  20.872  1.00  0.00     0.162 A 
ATOM     14  C   UNL     1      17.807  -2.428  20.508  1.00  0.00     0.068 A 
ATOM     15  C   UNL     1      17.342  -0.050  20.673  1.00  0.00     0.200 A 
ATOM     16  C   UNL     1      16.893  -1.370  20.495  1.00  0.00     0.162 A 
BRANCH  13  17
ATOM     17  O   UNL     1      19.163   1.502  21.063  1.00  0.00    -0.504 OA
ATOM     18  H   UNL     1      19.975   1.862  20.574  1.00  0.00     0.293 HD
ENDBRANCH  13  17
BRANCH  15  19
ATOM     19  O   UNL     1      16.424   1.000  20.657  1.00  0.00    -0.502 OA
ATOM     20  H   UNL     1      16.257   1.558  19.828  1.00  0.00     0.293 HD
ENDBRANCH  15  19
BRANCH  16  21
ATOM     21  O   UNL     1      15.540  -1.649  20.304  1.00  0.00    -0.504 OA
ATOM     22  H   UNL     1      14.858  -1.543  21.045  1.00  0.00     0.293 HD
ENDBRANCH  16  21
ENDBRANCH   1  11
BRANCH  10  23
ATOM     23  O   UNL     1      19.576  -3.869  23.028  1.00  0.00    -0.500 OA
ATOM     24  H   UNL     1      18.584  -3.665  23.024  1.00  0.00     0.294 HD
ENDBRANCH  10  23
BRANCH   5  25
ATOM     25  O   UNL     1      24.053  -5.967  17.045  1.00  0.00    -0.507 OA
ATOM     26  H   UNL     1      24.790  -6.657  16.957  1.00  0.00     0.293 HD
ENDBRANCH   5  25
BRANCH   7  27
ATOM     27  O   UNL     1      23.098  -7.439  21.532  1.00  0.00    -0.507 OA
ATOM     28  H   UNL     1      23.467  -7.194  22.439  1.00  0.00     0.293 HD
ENDBRANCH   7  27
TORSDOF 7
ENDMDL
MODEL 6
REMARK VINA RESULT:    -4.843      1.855      7.046
REMARK INTER + INTRA:          -5.772
REMARK INTER:                  -5.408
REMARK INTRA:                  -0.364
REMARK UNBOUND:                 0.204
REMARK SMILES Oc1cc(O)c2cc(O)c(-c3cc(O)c(O)c(O)c3)[o+]c2c1
REMARK SMILES IDX 10 1 20 2 21 3 22 4 2 5 3 6 4 7 6 8 7 9 8 10 11 11 12 12
REMARK SMILES IDX 13 13 19 14 15 15 17 16 14 17 16 19 18 21 9 23 1 25 5 27
REMARK H PARENT 14 18 16 20 18 22 9 24 1 26 5 28
REMARK Flexibility Score: inf
ROOT
ATOM      1  C   UNL     1      20.578  -2.887  19.841  1.00  0.00     0.402 A 
ATOM      2  O   UNL     1      20.776  -3.984  20.567  1.00  0.00    -0.202 OA
ATOM      3  C   UNL     1      21.579  -4.974  20.192  1.00  0.00     0.368 A 
ATOM      4  C   UNL     1      21.726  -6.086  21.026  1.00  0.00     0.162 A 
ATOM      5  C   UNL     1      22.565  -7.137  20.659  1.00  0.00     0.128 A 
ATOM      6  C   UNL     1      23.267  -7.080  19.449  1.00  0.00     0.093 A 
ATOM      7  C   UNL     1      23.138  -5.976  18.596  1.00  0.00     0.136 A 
ATOM      8  C   UNL     1      22.282  -4.906  18.965  1.00  0.00     0.125 A 
ATOM      9  C   UNL     1      22.082  -3.767  18.167  1.00  0.00     0.078 A 
ATOM     10  C   UNL     1      21.220  -2.754  18.596  1.00  0.00     0.223 A 
ENDROOT
BRANCH   1  11
ATOM     11  C   UNL     1      19.665  -1.850  20.372  1.00  0.00     0.091 A 
ATOM     12  C   UNL     1      20.158  -0.685  20.984  1.00  0.00     0.068 A 
ATOM     13  C   UNL     1      19.277   0.276  21.501  1.00  0.00     0.162 A 
ATOM     14  C   UNL     1      18.278  -2.058  20.316  1.00  0.00     0.068 A 
ATOM     15  C   UNL     1      17.889   0.069  21.420  1.00  0.00     0.200 A 
ATOM     16  C   UNL     1      17.393  -1.105  20.828  1.00  0.00     0.162 A 
BRANCH  13  17
ATOM     17  O   UNL     1      19.777   1.430  22.099  1.00  0.00    -0.504 OA
ATOM     18  H   UNL     1      19.236   1.955  22.777  1.00  0.00     0.293 HD
ENDBRANCH  13  17
BRANCH  15  19
ATOM     19  O   UNL     1      16.998   1.016  21.926  1.00  0.00    -0.502 OA
ATOM     20  H   UNL     1      16.609   1.754  21.351  1.00  0.00     0.293 HD
ENDBRANCH  15  19
BRANCH  16  21
ATOM     21  O   UNL     1      16.021  -1.342  20.740  1.00  0.00    -0.504 OA
ATOM     22  H   UNL     1      15.639  -2.103  20.192  1.00  0.00     0.293 HD
ENDBRANCH  16  21
ENDBRANCH   1  11
BRANCH  10  23
ATOM     23  O   UNL     1      20.982  -1.646  17.781  1.00  0.00    -0.500 OA
ATOM     24  H   UNL     1      21.535  -0.801  17.855  1.00  0.00     0.294 HD
ENDBRANCH  10  23
BRANCH   5  25
ATOM     25  O   UNL     1      22.696  -8.238  21.504  1.00  0.00    -0.507 OA
ATOM     26  H   UNL     1      22.460  -8.181  22.487  1.00  0.00     0.293 HD
ENDBRANCH   5  25
BRANCH   7  27
ATOM     27  O   UNL     1      23.874  -5.992  17.407  1.00  0.00    -0.507 OA
ATOM     28  H   UNL     1      24.416  -6.779  17.082  1.00  0.00     0.293 HD
ENDBRANCH   7  27
TORSDOF 7
ENDMDL
MODEL 7
REMARK VINA RESULT:    -4.778      1.805      7.078
REMARK INTER + INTRA:          -5.692
REMARK INTER:                  -5.374
REMARK INTRA:                  -0.317
REMARK UNBOUND:                 0.204
REMARK SMILES Oc1cc(O)c2cc(O)c(-c3cc(O)c(O)c(O)c3)[o+]c2c1
REMARK SMILES IDX 10 1 20 2 21 3 22 4 2 5 3 6 4 7 6 8 7 9 8 10 11 11 12 12
REMARK SMILES IDX 13 13 19 14 15 15 17 16 14 17 16 19 18 21 9 23 1 25 5 27
REMARK H PARENT 14 18 16 20 18 22 9 24 1 26 5 28
REMARK Flexibility Score: inf
ROOT
ATOM      1  C   UNL     1      20.542  -2.891  19.841  1.00  0.00     0.402 A 
ATOM      2  O   UNL     1      20.769  -3.978  20.574  1.00  0.00    -0.202 OA
ATOM      3  C   UNL     1      21.573  -4.963  20.189  1.00  0.00     0.368 A 
ATOM      4  C   UNL     1      21.752  -6.064  21.032  1.00  0.00     0.162 A 
ATOM      5  C   UNL     1      22.593  -7.111  20.655  1.00  0.00     0.128 A 
ATOM      6  C   UNL     1      23.264  -7.059  19.429  1.00  0.00     0.093 A 
ATOM      7  C   UNL     1      23.104  -5.967  18.567  1.00  0.00     0.136 A 
ATOM      8  C   UNL     1      22.246  -4.902  18.945  1.00  0.00     0.125 A 
ATOM      9  C   UNL     1      22.014  -3.774  18.139  1.00  0.00     0.078 A 
ATOM     10  C   UNL     1      21.151  -2.765  18.579  1.00  0.00     0.223 A 
ENDROOT
BRANCH   1  11
ATOM     11  C   UNL     1      19.631  -1.858  20.382  1.00  0.00     0.091 A 
ATOM     12  C   UNL     1      18.239  -2.042  20.392  1.00  0.00     0.068 A 
ATOM     13  C   UNL     1      17.391  -1.041  20.889  1.00  0.00     0.162 A 
ATOM     14  C   UNL     1      20.163  -0.643  20.844  1.00  0.00     0.068 A 
ATOM     15  C   UNL     1      17.934   0.163  21.371  1.00  0.00     0.200 A 
ATOM     16  C   UNL     1      19.325   0.359  21.342  1.00  0.00     0.162 A 
BRANCH  13  17
ATOM     17  O   UNL     1      16.011  -1.238  20.901  1.00  0.00    -0.504 OA
ATOM     18  H   UNL     1      15.370  -0.529  20.564  1.00  0.00     0.293 HD
ENDBRANCH  13  17
BRANCH  15  19
ATOM     19  O   UNL     1      17.106   1.167  21.871  1.00  0.00    -0.502 OA
ATOM     20  H   UNL     1      17.337   1.693  22.705  1.00  0.00     0.293 HD
ENDBRANCH  15  19
BRANCH  16  21
ATOM     21  O   UNL     1      19.894   1.546  21.804  1.00  0.00    -0.504 OA
ATOM     22  H   UNL     1      19.413   2.435  21.740  1.00  0.00     0.293 HD
ENDBRANCH  16  21
ENDBRANCH   1  11
BRANCH  10  23
ATOM     23  O   UNL     1      20.882  -1.669  17.757  1.00  0.00    -0.500 OA
ATOM     24  H   UNL     1      21.520  -0.885  17.689  1.00  0.00     0.294 HD
ENDBRANCH  10  23
BRANCH   5  25
ATOM     25  O   UNL     1      22.757  -8.200  21.509  1.00  0.00    -0.507 OA
ATOM     26  H   UNL     1      23.578  -8.295  22.095  1.00  0.00     0.293 HD
ENDBRANCH   5  25
BRANCH   7  27
ATOM     27  O   UNL     1      23.811  -5.989  17.361  1.00  0.00    -0.507 OA
ATOM     28  H   UNL     1      24.129  -5.165  16.872  1.00  0.00     0.293 HD
ENDBRANCH   7  27
TORSDOF 7
ENDMDL
MODEL 8
REMARK VINA RESULT:    -4.644      3.024      4.781
REMARK INTER + INTRA:          -5.527
REMARK INTER:                  -5.165
REMARK INTRA:                  -0.362
REMARK UNBOUND:                 0.204
REMARK SMILES Oc1cc(O)c2cc(O)c(-c3cc(O)c(O)c(O)c3)[o+]c2c1
REMARK SMILES IDX 10 1 20 2 21 3 22 4 2 5 3 6 4 7 6 8 7 9 8 10 11 11 12 12
REMARK SMILES IDX 13 13 19 14 15 15 17 16 14 17 16 19 18 21 9 23 1 25 5 27
REMARK H PARENT 14 18 16 20 18 22 9 24 1 26 5 28
REMARK Flexibility Score: inf
ROOT
ATOM      1  C   UNL     1      23.363  -4.347  18.857  1.00  0.00     0.402 A 
ATOM      2  O   UNL     1      22.271  -3.616  18.646  1.00  0.00    -0.202 OA
ATOM      3  C   UNL     1      22.281  -2.289  18.585  1.00  0.00     0.368 A 
ATOM      4  C   UNL     1      21.082  -1.609  18.355  1.00  0.00     0.162 A 
ATOM      5  C   UNL     1      21.064  -0.217  18.283  1.00  0.00     0.128 A 
ATOM      6  C   UNL     1      22.252   0.506  18.439  1.00  0.00     0.093 A 
ATOM      7  C   UNL     1      23.468  -0.152  18.669  1.00  0.00     0.136 A 
ATOM      8  C   UNL     1      23.489  -1.569  18.747  1.00  0.00     0.125 A 
ATOM      9  C   UNL     1      24.658  -2.311  18.988  1.00  0.00     0.078 A 
ATOM     10  C   UNL     1      24.600  -3.707  19.055  1.00  0.00     0.223 A 
ENDROOT
BRANCH   1  11
ATOM     11  C   UNL     1      23.224  -5.820  18.895  1.00  0.00     0.091 A 
ATOM     12  C   UNL     1      22.819  -6.487  20.063  1.00  0.00     0.068 A 
ATOM     13  C   UNL     1      22.715  -7.886  20.085  1.00  0.00     0.162 A 
ATOM     14  C   UNL     1      23.558  -6.574  17.759  1.00  0.00     0.068 A 
ATOM     15  C   UNL     1      23.030  -8.631  18.935  1.00  0.00     0.200 A 
ATOM     16  C   UNL     1      23.457  -7.968  17.772  1.00  0.00     0.162 A 
BRANCH  13  17
ATOM     17  O   UNL     1      22.306  -8.537  21.247  1.00  0.00    -0.504 OA
ATOM     18  H   UNL     1      22.336  -9.546  21.331  1.00  0.00     0.293 HD
ENDBRANCH  13  17
BRANCH  15  19
ATOM     19  O   UNL     1      22.929 -10.022  18.939  1.00  0.00    -0.502 OA
ATOM     20  H   UNL     1      22.094 -10.504  18.629  1.00  0.00     0.293 HD
ENDBRANCH  15  19
BRANCH  16  21
ATOM     21  O   UNL     1      23.784  -8.680  16.618  1.00  0.00    -0.504 OA
ATOM     22  H   UNL     1      23.561  -9.662  16.508  1.00  0.00     0.293 HD
ENDBRANCH  16  21
ENDBRANCH   1  11
BRANCH  10  23
ATOM     23  O   UNL     1      25.751  -4.440  19.343  1.00  0.00    -0.500 OA
ATOM     24  H   UNL     1      25.714  -5.432  19.545  1.00  0.00     0.294 HD
ENDBRANCH  10  23
BRANCH   5  25
ATOM     25  O   UNL     1      19.858   0.443  18.054  1.00  0.00    -0.507 OA
ATOM     26  H   UNL     1      19.572   0.716  17.121  1.00  0.00     0.293 HD
ENDBRANCH   5  25
BRANCH   7  27
ATOM     27  O   UNL     1      24.611   0.640  18.811  1.00  0.00    -0.507 OA
ATOM     28  H   UNL     1      24.687   1.595  18.494  1.00  0.00     0.293 HD
ENDBRANCH   7  27
TORSDOF 7
ENDMDL
MODEL 9
REMARK VINA RESULT:    -4.610      3.806      8.210
REMARK INTER + INTRA:          -5.485
REMARK INTER:                  -5.105
REMARK INTRA:                  -0.380
REMARK UNBOUND:                 0.204
REMARK SMILES Oc1cc(O)c2cc(O)c(-c3cc(O)c(O)c(O)c3)[o+]c2c1
REMARK SMILES IDX 10 1 20 2 21 3 22 4 2 5 3 6 4 7 6 8 7 9 8 10 11 11 12 12
REMARK SMILES IDX 13 13 19 14 15 15 17 16 14 17 16 19 18 21 9 23 1 25 5 27
REMARK H PARENT 14 18 16 20 18 22 9 24 1 26 5 28
REMARK Flexibility Score: inf
ROOT
ATOM      1  C   UNL     1      23.040  -5.933  19.156  1.00  0.00     0.402 A 
ATOM      2  O   UNL     1      22.465  -6.542  20.190  1.00  0.00    -0.202 OA
ATOM      3  C   UNL     1      22.440  -7.862  20.340  1.00  0.00     0.368 A 
ATOM      4  C   UNL     1      21.814  -8.407  21.464  1.00  0.00     0.162 A 
ATOM      5  C   UNL     1      21.776  -9.789  21.649  1.00  0.00     0.128 A 
ATOM      6  C   UNL     1      22.370 -10.635  20.706  1.00  0.00     0.093 A 
ATOM      7  C   UNL     1      23.004 -10.114  19.571  1.00  0.00     0.136 A 
ATOM      8  C   UNL     1      23.042  -8.708  19.378  1.00  0.00     0.125 A 
ATOM      9  C   UNL     1      23.644  -8.097  18.265  1.00  0.00     0.078 A 
ATOM     10  C   UNL     1      23.638  -6.704  18.142  1.00  0.00     0.223 A 
ENDROOT
BRANCH   1  11
ATOM     11  C   UNL     1      23.010  -4.455  19.107  1.00  0.00     0.091 A 
ATOM     12  C   UNL     1      21.970  -3.765  18.460  1.00  0.00     0.068 A 
ATOM     13  C   UNL     1      21.971  -2.364  18.404  1.00  0.00     0.162 A 
ATOM     14  C   UNL     1      24.069  -3.723  19.666  1.00  0.00     0.068 A 
ATOM     15  C   UNL     1      23.025  -1.640  18.988  1.00  0.00     0.200 A 
ATOM     16  C   UNL     1      24.078  -2.326  19.616  1.00  0.00     0.162 A 
BRANCH  13  17
ATOM     17  O   UNL     1      20.931  -1.691  17.766  1.00  0.00    -0.504 OA
ATOM     18  H   UNL     1      21.068  -1.215  16.882  1.00  0.00     0.293 HD
ENDBRANCH  13  17
BRANCH  15  19
ATOM     19  O   UNL     1      23.039  -0.245  18.944  1.00  0.00    -0.502 OA
ATOM     20  H   UNL     1      23.311   0.318  19.741  1.00  0.00     0.293 HD
ENDBRANCH  15  19
BRANCH  16  21
ATOM     21  O   UNL     1      25.141  -1.636  20.196  1.00  0.00    -0.504 OA
ATOM     22  H   UNL     1      25.366  -1.720  21.180  1.00  0.00     0.293 HD
ENDBRANCH  16  21
ENDBRANCH   1  11
BRANCH  10  23
ATOM     23  O   UNL     1      24.191  -6.101  17.013  1.00  0.00    -0.500 OA
ATOM     24  H   UNL     1      24.944  -5.426  17.083  1.00  0.00     0.294 HD
ENDBRANCH  10  23
BRANCH   5  25
ATOM     25  O   UNL     1      21.146 -10.314  22.776  1.00  0.00    -0.507 OA
ATOM     26  H   UNL     1      21.071 -11.314  22.923  1.00  0.00     0.293 HD
ENDBRANCH   5  25
BRANCH   7  27
ATOM     27  O   UNL     1      23.576 -11.024  18.677  1.00  0.00    -0.507 OA
ATOM     28  H   UNL     1      24.478 -10.904  18.240  1.00  0.00     0.293 HD
ENDBRANCH   7  27
TORSDOF 7
ENDMDL
