MODEL 1
REMARK VINA RESULT:    -7.417      0.000      0.000
REMARK INTER + INTRA:         -12.282
REMARK INTER:                 -10.886
REMARK INTRA:                  -1.396
REMARK UNBOUND:                -1.396
REMARK SMILES O=c1c(O[C@@H]2O[C@H](CO)[C@@H](O)[C@H](O)[C@H]2O)c(-c2ccc(O)c(O)c2)oc2cc(O)cc(O)c12
REMARK SMILES IDX 4 1 3 2 16 3 25 4 2 5 26 6 1 7 33 8 27 9 31 10 28 11 30 12
REMARK SMILES IDX 17 13 18 14 19 15 20 16 24 17 22 18 21 19 23 21 32 23 29 25
REMARK SMILES IDX 5 27 14 28 6 29 12 30 7 31 10 32 15 33 13 35 8 37 9 38 11 40
REMARK H PARENT 21 20 23 22 32 24 29 26 15 34 13 36 9 39 11 41
REMARK Flexibility Score: inf
ROOT
ATOM      1  O   UNL     1       0.014  46.512  81.156  1.00  0.00    -0.454 OA
ENDROOT
BRANCH   1   2
ATOM      2  C   UNL     1       0.182  46.705  82.664  1.00  0.00     0.214 A 
ATOM      3  C   UNL     1       0.665  45.775  83.671  1.00  0.00     0.180 A 
ATOM      4  O   UNL     1       0.575  46.045  84.978  1.00  0.00    -0.452 OA
ATOM      5  C   UNL     1      -0.120  48.025  83.350  1.00  0.00     0.239 A 
ATOM      6  C   UNL     1       0.227  47.188  85.483  1.00  0.00     0.146 A 
ATOM      7  O   UNL     1      -0.387  49.068  82.669  1.00  0.00    -0.285 OA
ATOM      8  C   UNL     1      -0.376  48.117  84.718  1.00  0.00     0.111 A 
ATOM      9  C   UNL     1       0.738  47.651  86.730  1.00  0.00     0.094 A 
ATOM     10  C   UNL     1      -1.149  49.132  85.396  1.00  0.00     0.134 A 
ATOM     11  C   UNL     1       0.212  48.766  87.330  1.00  0.00     0.123 A 
ATOM     12  C   UNL     1      -0.949  49.306  86.784  1.00  0.00     0.093 A 
BRANCH   3  13
ATOM     13  C   UNL     1       1.475  44.586  83.506  1.00  0.00     0.025 A 
ATOM     14  C   UNL     1       2.748  44.556  84.090  1.00  0.00     0.016 A 
ATOM     15  C   UNL     1       3.523  43.374  84.040  1.00  0.00     0.051 A 
ATOM     16  C   UNL     1       3.060  42.248  83.370  1.00  0.00     0.157 A 
ATOM     17  C   UNL     1       1.089  43.502  82.624  1.00  0.00     0.062 A 
ATOM     18  C   UNL     1       1.888  42.381  82.621  1.00  0.00     0.158 A 
BRANCH  16  19
ATOM     19  O   UNL     1       3.334  40.946  83.813  1.00  0.00    -0.504 OA
ATOM     20  H   UNL     1       3.752  40.771  84.789  1.00  0.00     0.293 HD
ENDBRANCH  16  19
BRANCH  18  21
ATOM     21  O   UNL     1       1.678  41.408  81.604  1.00  0.00    -0.504 OA
ATOM     22  H   UNL     1       2.400  41.162  80.892  1.00  0.00     0.293 HD
ENDBRANCH  18  21
ENDBRANCH   3  13
BRANCH  10  23
ATOM     23  O   UNL     1      -2.243  49.764  84.816  1.00  0.00    -0.507 OA
ATOM     24  H   UNL     1      -2.123  50.744  84.481  1.00  0.00     0.293 HD
ENDBRANCH  10  23
BRANCH  11  25
ATOM     25  O   UNL     1       0.753  49.305  88.563  1.00  0.00    -0.508 OA
ATOM     26  H   UNL     1       0.228  50.025  89.069  1.00  0.00     0.293 HD
ENDBRANCH  11  25
ENDBRANCH   1   2
BRANCH   1  27
ATOM     27  C   UNL     1      -0.130  45.623  79.820  1.00  0.00     0.339 C 
ATOM     28  C   UNL     1      -1.143  44.360  79.507  1.00  0.00     0.214 C 
ATOM     29  O   UNL     1      -0.503  46.498  78.810  1.00  0.00    -0.332 OA
ATOM     30  C   UNL     1      -2.395  44.482  80.333  1.00  0.00     0.180 C 
ATOM     31  C   UNL     1      -1.756  47.017  79.167  1.00  0.00     0.179 C 
ATOM     32  C   UNL     1      -2.574  46.139  80.311  1.00  0.00     0.177 C 
BRANCH  28  33
ATOM     33  O   UNL     1      -1.524  44.321  78.122  1.00  0.00    -0.384 OA
ATOM     34  H   UNL     1      -0.728  44.469  77.570  1.00  0.00     0.211 HD
ENDBRANCH  28  33
BRANCH  30  35
ATOM     35  O   UNL     1      -2.248  43.586  81.471  1.00  0.00    -0.387 OA
ATOM     36  H   UNL     1      -1.325  43.849  81.818  1.00  0.00     0.211 HD
ENDBRANCH  30  35
BRANCH  31  37
ATOM     37  C   UNL     1      -1.541  48.619  79.245  1.00  0.00     0.191 C 
BRANCH  37  38
ATOM     38  O   UNL     1      -2.461  49.414  78.666  1.00  0.00    -0.394 OA
ATOM     39  H   UNL     1      -3.361  48.962  78.698  1.00  0.00     0.210 HD
ENDBRANCH  37  38
ENDBRANCH  31  37
BRANCH  32  40
ATOM     40  O   UNL     1      -3.892  46.653  80.503  1.00  0.00    -0.387 OA
ATOM     41  H   UNL     1      -4.277  46.310  81.416  1.00  0.00     0.211 HD
ENDBRANCH  32  40
ENDBRANCH   1  27
TORSDOF 12
ENDMDL
MODEL 2
REMARK VINA RESULT:    -7.355      1.846      6.146
REMARK INTER + INTRA:         -12.190
REMARK INTER:                 -10.290
REMARK INTRA:                  -1.900
REMARK UNBOUND:                -1.396
REMARK SMILES O=c1c(O[C@@H]2O[C@H](CO)[C@@H](O)[C@H](O)[C@H]2O)c(-c2ccc(O)c(O)c2)oc2cc(O)cc(O)c12
REMARK SMILES IDX 4 1 3 2 16 3 25 4 2 5 26 6 1 7 33 8 27 9 31 10 28 11 30 12
REMARK SMILES IDX 17 13 18 14 19 15 20 16 24 17 22 18 21 19 23 21 32 23 29 25
REMARK SMILES IDX 5 27 14 28 6 29 12 30 7 31 10 32 15 33 13 35 8 37 9 38 11 40
REMARK H PARENT 21 20 23 22 32 24 29 26 15 34 13 36 9 39 11 41
REMARK Flexibility Score: inf
ROOT
ATOM      1  O   UNL     1      -1.185  46.927  84.629  1.00  0.00    -0.454 OA
ENDROOT
BRANCH   1   2
ATOM      2  C   UNL     1      -0.032  45.984  84.283  1.00  0.00     0.214 A 
ATOM      3  C   UNL     1       0.167  45.153  83.107  1.00  0.00     0.180 A 
ATOM      4  O   UNL     1       1.147  44.244  83.047  1.00  0.00    -0.452 OA
ATOM      5  C   UNL     1       1.178  45.818  85.186  1.00  0.00     0.239 A 
ATOM      6  C   UNL     1       2.105  44.119  83.912  1.00  0.00     0.146 A 
ATOM      7  O   UNL     1       1.343  46.573  86.200  1.00  0.00    -0.285 OA
ATOM      8  C   UNL     1       2.013  44.704  85.121  1.00  0.00     0.111 A 
ATOM      9  C   UNL     1       3.404  43.663  83.543  1.00  0.00     0.094 A 
ATOM     10  C   UNL     1       2.834  44.165  86.180  1.00  0.00     0.134 A 
ATOM     11  C   UNL     1       4.336  43.357  84.501  1.00  0.00     0.123 A 
ATOM     12  C   UNL     1       3.911  43.321  85.827  1.00  0.00     0.093 A 
BRANCH   3  13
ATOM     13  C   UNL     1      -0.429  45.269  81.793  1.00  0.00     0.025 A 
ATOM     14  C   UNL     1       0.360  45.744  80.738  1.00  0.00     0.016 A 
ATOM     15  C   UNL     1      -0.157  45.769  79.422  1.00  0.00     0.051 A 
ATOM     16  C   UNL     1      -1.464  45.375  79.164  1.00  0.00     0.157 A 
ATOM     17  C   UNL     1      -1.848  45.073  81.567  1.00  0.00     0.062 A 
ATOM     18  C   UNL     1      -2.287  45.111  80.263  1.00  0.00     0.158 A 
BRANCH  16  19
ATOM     19  O   UNL     1      -1.830  44.716  77.981  1.00  0.00    -0.504 OA
ATOM     20  H   UNL     1      -2.857  44.459  77.786  1.00  0.00     0.293 HD
ENDBRANCH  16  19
BRANCH  18  21
ATOM     21  O   UNL     1      -3.689  45.163  80.025  1.00  0.00    -0.504 OA
ATOM     22  H   UNL     1      -4.108  45.138  79.071  1.00  0.00     0.293 HD
ENDBRANCH  18  21
ENDBRANCH   3  13
BRANCH  10  23
ATOM     23  O   UNL     1       2.475  44.227  87.523  1.00  0.00    -0.507 OA
ATOM     24  H   UNL     1       1.854  45.006  87.830  1.00  0.00     0.293 HD
ENDBRANCH  10  23
BRANCH  11  25
ATOM     25  O   UNL     1       5.688  42.958  84.161  1.00  0.00    -0.508 OA
ATOM     26  H   UNL     1       5.914  41.961  84.093  1.00  0.00     0.293 HD
ENDBRANCH  11  25
ENDBRANCH   1   2
BRANCH   1  27
ATOM     27  C   UNL     1      -2.189  47.669  85.649  1.00  0.00     0.339 C 
ATOM     28  C   UNL     1      -1.852  48.747  86.851  1.00  0.00     0.214 C 
ATOM     29  O   UNL     1      -3.047  48.428  84.866  1.00  0.00    -0.332 OA
ATOM     30  C   UNL     1      -0.590  49.502  86.532  1.00  0.00     0.180 C 
ATOM     31  C   UNL     1      -2.255  49.381  84.208  1.00  0.00     0.179 C 
ATOM     32  C   UNL     1      -0.760  49.631  84.879  1.00  0.00     0.177 C 
BRANCH  28  33
ATOM     33  O   UNL     1      -2.913  49.701  87.014  1.00  0.00    -0.384 OA
ATOM     34  H   UNL     1      -3.704  49.240  87.365  1.00  0.00     0.211 HD
ENDBRANCH  28  33
BRANCH  30  35
ATOM     35  O   UNL     1       0.483  48.889  87.302  1.00  0.00    -0.387 OA
ATOM     36  H   UNL     1       1.223  49.586  87.208  1.00  0.00     0.211 HD
ENDBRANCH  30  35
BRANCH  31  37
ATOM     37  C   UNL     1      -2.501  49.114  82.630  1.00  0.00     0.191 C 
BRANCH  37  38
ATOM     38  O   UNL     1      -1.500  48.569  81.913  1.00  0.00    -0.394 OA
ATOM     39  H   UNL     1      -1.866  48.219  81.041  1.00  0.00     0.210 HD
ENDBRANCH  37  38
ENDBRANCH  31  37
BRANCH  32  40
ATOM     40  O   UNL     1      -0.088  50.715  84.239  1.00  0.00    -0.387 OA
ATOM     41  H   UNL     1       0.688  51.063  84.853  1.00  0.00     0.211 HD
ENDBRANCH  32  40
ENDBRANCH   1  27
TORSDOF 12
ENDMDL
MODEL 3
REMARK VINA RESULT:    -7.285      1.951      6.170
REMARK INTER + INTRA:         -12.088
REMARK INTER:                 -10.513
REMARK INTRA:                  -1.576
REMARK UNBOUND:                -1.396
REMARK SMILES O=c1c(O[C@@H]2O[C@H](CO)[C@@H](O)[C@H](O)[C@H]2O)c(-c2ccc(O)c(O)c2)oc2cc(O)cc(O)c12
REMARK SMILES IDX 4 1 3 2 16 3 25 4 2 5 26 6 1 7 33 8 27 9 31 10 28 11 30 12
REMARK SMILES IDX 17 13 18 14 19 15 20 16 24 17 22 18 21 19 23 21 32 23 29 25
REMARK SMILES IDX 5 27 14 28 6 29 12 30 7 31 10 32 15 33 13 35 8 37 9 38 11 40
REMARK H PARENT 21 20 23 22 32 24 29 26 15 34 13 36 9 39 11 41
REMARK Flexibility Score: inf
ROOT
ATOM      1  O   UNL     1      -1.273  46.942  84.478  1.00  0.00    -0.454 OA
ENDROOT
BRANCH   1   2
ATOM      2  C   UNL     1      -0.969  46.098  83.239  1.00  0.00     0.214 A 
ATOM      3  C   UNL     1       0.237  45.369  82.886  1.00  0.00     0.180 A 
ATOM      4  O   UNL     1       0.403  44.830  81.672  1.00  0.00    -0.452 OA
ATOM      5  C   UNL     1      -1.999  45.860  82.149  1.00  0.00     0.239 A 
ATOM      6  C   UNL     1      -0.517  44.739  80.762  1.00  0.00     0.146 A 
ATOM      7  O   UNL     1      -3.206  46.239  82.298  1.00  0.00    -0.285 OA
ATOM      8  C   UNL     1      -1.645  45.469  80.858  1.00  0.00     0.111 A 
ATOM      9  C   UNL     1      -0.552  43.666  79.826  1.00  0.00     0.094 A 
ATOM     10  C   UNL     1      -2.389  45.697  79.642  1.00  0.00     0.134 A 
ATOM     11  C   UNL     1      -1.416  43.696  78.761  1.00  0.00     0.123 A 
ATOM     12  C   UNL     1      -2.106  44.881  78.522  1.00  0.00     0.093 A 
BRANCH   3  13
ATOM     13  C   UNL     1       1.311  44.907  83.740  1.00  0.00     0.025 A 
ATOM     14  C   UNL     1       2.288  44.064  83.193  1.00  0.00     0.016 A 
ATOM     15  C   UNL     1       3.407  43.680  83.968  1.00  0.00     0.051 A 
ATOM     16  C   UNL     1       3.529  44.086  85.291  1.00  0.00     0.157 A 
ATOM     17  C   UNL     1       1.320  45.145  85.170  1.00  0.00     0.062 A 
ATOM     18  C   UNL     1       2.438  44.745  85.867  1.00  0.00     0.158 A 
BRANCH  16  19
ATOM     19  O   UNL     1       4.770  44.379  85.875  1.00  0.00    -0.504 OA
ATOM     20  H   UNL     1       4.902  45.260  86.479  1.00  0.00     0.293 HD
ENDBRANCH  16  19
BRANCH  18  21
ATOM     21  O   UNL     1       2.381  44.743  87.288  1.00  0.00    -0.504 OA
ATOM     22  H   UNL     1       3.170  45.060  87.892  1.00  0.00     0.293 HD
ENDBRANCH  18  21
ENDBRANCH   3  13
BRANCH  10  23
ATOM     23  O   UNL     1      -3.178  46.824  79.436  1.00  0.00    -0.507 OA
ATOM     24  H   UNL     1      -3.114  47.306  78.513  1.00  0.00     0.293 HD
ENDBRANCH  10  23
BRANCH  11  25
ATOM     25  O   UNL     1      -1.528  42.591  77.829  1.00  0.00    -0.508 OA
ATOM     26  H   UNL     1      -1.577  41.633  78.189  1.00  0.00     0.293 HD
ENDBRANCH  11  25
ENDBRANCH   1   2
BRANCH   1  27
ATOM     27  C   UNL     1      -2.257  47.711  85.496  1.00  0.00     0.339 C 
ATOM     28  C   UNL     1      -1.890  48.603  86.834  1.00  0.00     0.214 C 
ATOM     29  O   UNL     1      -2.932  48.660  84.741  1.00  0.00    -0.332 OA
ATOM     30  C   UNL     1      -0.515  49.200  86.699  1.00  0.00     0.180 C 
ATOM     31  C   UNL     1      -1.965  49.553  84.256  1.00  0.00     0.179 C 
ATOM     32  C   UNL     1      -0.517  49.519  85.063  1.00  0.00     0.177 C 
BRANCH  28  33
ATOM     33  O   UNL     1      -2.826  49.677  87.023  1.00  0.00    -0.384 OA
ATOM     34  H   UNL     1      -2.867  49.898  87.978  1.00  0.00     0.211 HD
ENDBRANCH  28  33
BRANCH  30  35
ATOM     35  O   UNL     1       0.392  48.366  87.474  1.00  0.00    -0.387 OA
ATOM     36  H   UNL     1       0.786  47.767  86.748  1.00  0.00     0.211 HD
ENDBRANCH  30  35
BRANCH  31  37
ATOM     37  C   UNL     1      -2.099  49.485  82.645  1.00  0.00     0.191 C 
BRANCH  37  38
ATOM     38  O   UNL     1      -3.275  49.090  82.119  1.00  0.00    -0.394 OA
ATOM     39  H   UNL     1      -3.109  48.639  81.234  1.00  0.00     0.210 HD
ENDBRANCH  37  38
ENDBRANCH  31  37
BRANCH  32  40
ATOM     40  O   UNL     1       0.349  50.556  84.602  1.00  0.00    -0.387 OA
ATOM     41  H   UNL     1      -0.099  51.062  83.800  1.00  0.00     0.211 HD
ENDBRANCH  32  40
ENDBRANCH   1  27
TORSDOF 12
ENDMDL
MODEL 4
REMARK VINA RESULT:    -7.074      1.979      6.743
REMARK INTER + INTRA:         -11.778
REMARK INTER:                 -10.085
REMARK INTRA:                  -1.693
REMARK UNBOUND:                -1.396
REMARK SMILES O=c1c(O[C@@H]2O[C@H](CO)[C@@H](O)[C@H](O)[C@H]2O)c(-c2ccc(O)c(O)c2)oc2cc(O)cc(O)c12
REMARK SMILES IDX 4 1 3 2 16 3 25 4 2 5 26 6 1 7 33 8 27 9 31 10 28 11 30 12
REMARK SMILES IDX 17 13 18 14 19 15 20 16 24 17 22 18 21 19 23 21 32 23 29 25
REMARK SMILES IDX 5 27 14 28 6 29 12 30 7 31 10 32 15 33 13 35 8 37 9 38 11 40
REMARK H PARENT 21 20 23 22 32 24 29 26 15 34 13 36 9 39 11 41
REMARK Flexibility Score: inf
ROOT
ATOM      1  O   UNL     1       0.421  46.713  82.639  1.00  0.00    -0.454 OA
ENDROOT
BRANCH   1   2
ATOM      2  C   UNL     1       0.583  45.261  82.188  1.00  0.00     0.214 A 
ATOM      3  C   UNL     1       0.060  44.591  81.010  1.00  0.00     0.180 A 
ATOM      4  O   UNL     1       0.144  43.264  80.860  1.00  0.00    -0.452 OA
ATOM      5  C   UNL     1       1.423  44.261  82.963  1.00  0.00     0.239 A 
ATOM      6  C   UNL     1       0.826  42.467  81.623  1.00  0.00     0.146 A 
ATOM      7  O   UNL     1       2.144  44.638  83.945  1.00  0.00    -0.285 OA
ATOM      8  C   UNL     1       1.261  42.883  82.827  1.00  0.00     0.111 A 
ATOM      9  C   UNL     1       1.424  41.273  81.128  1.00  0.00     0.094 A 
ATOM     10  C   UNL     1       1.578  41.866  83.803  1.00  0.00     0.134 A 
ATOM     11  C   UNL     1       1.972  40.357  81.989  1.00  0.00     0.123 A 
ATOM     12  C   UNL     1       1.751  40.538  83.351  1.00  0.00     0.093 A 
BRANCH   3  13
ATOM     13  C   UNL     1      -0.405  45.162  79.763  1.00  0.00     0.025 A 
ATOM     14  C   UNL     1       0.046  46.438  79.400  1.00  0.00     0.016 A 
ATOM     15  C   UNL     1      -0.302  46.981  78.142  1.00  0.00     0.051 A 
ATOM     16  C   UNL     1      -1.133  46.285  77.272  1.00  0.00     0.157 A 
ATOM     17  C   UNL     1      -1.442  44.537  78.964  1.00  0.00     0.062 A 
ATOM     18  C   UNL     1      -1.734  45.117  77.750  1.00  0.00     0.158 A 
BRANCH  16  19
ATOM     19  O   UNL     1      -0.978  46.341  75.879  1.00  0.00    -0.504 OA
ATOM     20  H   UNL     1      -0.451  47.157  75.414  1.00  0.00     0.293 HD
ENDBRANCH  16  19
BRANCH  18  21
ATOM     21  O   UNL     1      -2.897  44.679  77.058  1.00  0.00    -0.504 OA
ATOM     22  H   UNL     1      -3.788  45.221  77.038  1.00  0.00     0.293 HD
ENDBRANCH  18  21
ENDBRANCH   3  13
BRANCH  10  23
ATOM     23  O   UNL     1       1.473  42.073  85.174  1.00  0.00    -0.507 OA
ATOM     24  H   UNL     1       2.058  42.822  85.604  1.00  0.00     0.293 HD
ENDBRANCH  10  23
BRANCH  11  25
ATOM     25  O   UNL     1       2.650  39.165  81.516  1.00  0.00    -0.508 OA
ATOM     26  H   UNL     1       3.476  39.262  80.918  1.00  0.00     0.293 HD
ENDBRANCH  11  25
ENDBRANCH   1   2
BRANCH   1  27
ATOM     27  C   UNL     1      -0.395  48.094  82.802  1.00  0.00     0.339 C 
ATOM     28  C   UNL     1      -2.024  48.355  82.792  1.00  0.00     0.214 C 
ATOM     29  O   UNL     1      -0.071  48.591  84.056  1.00  0.00    -0.332 OA
ATOM     30  C   UNL     1      -2.750  47.123  83.260  1.00  0.00     0.180 C 
ATOM     31  C   UNL     1      -0.536  47.656  84.994  1.00  0.00     0.179 C 
ATOM     32  C   UNL     1      -1.672  46.595  84.417  1.00  0.00     0.177 C 
BRANCH  28  33
ATOM     33  O   UNL     1      -2.388  49.443  83.656  1.00  0.00    -0.384 OA
ATOM     34  H   UNL     1      -2.151  49.209  84.578  1.00  0.00     0.211 HD
ENDBRANCH  28  33
BRANCH  30  35
ATOM     35  O   UNL     1      -3.238  46.434  82.074  1.00  0.00    -0.387 OA
ATOM     36  H   UNL     1      -2.943  47.072  81.334  1.00  0.00     0.211 HD
ENDBRANCH  30  35
BRANCH  31  37
ATOM     37  C   UNL     1       0.778  47.204  85.824  1.00  0.00     0.191 C 
BRANCH  37  38
ATOM     38  O   UNL     1       0.831  45.943  86.296  1.00  0.00    -0.394 OA
ATOM     39  H   UNL     1      -0.061  45.698  86.694  1.00  0.00     0.210 HD
ENDBRANCH  37  38
ENDBRANCH  31  37
BRANCH  32  40
ATOM     40  O   UNL     1      -2.194  45.784  85.469  1.00  0.00    -0.387 OA
ATOM     41  H   UNL     1      -2.555  44.882  85.076  1.00  0.00     0.211 HD
ENDBRANCH  32  40
ENDBRANCH   1  27
TORSDOF 12
ENDMDL
MODEL 5
REMARK VINA RESULT:    -7.054      1.853      6.161
REMARK INTER + INTRA:         -11.748
REMARK INTER:                  -9.681
REMARK INTRA:                  -2.067
REMARK UNBOUND:                -1.396
REMARK SMILES O=c1c(O[C@@H]2O[C@H](CO)[C@@H](O)[C@H](O)[C@H]2O)c(-c2ccc(O)c(O)c2)oc2cc(O)cc(O)c12
REMARK SMILES IDX 4 1 3 2 16 3 25 4 2 5 26 6 1 7 33 8 27 9 31 10 28 11 30 12
REMARK SMILES IDX 17 13 18 14 19 15 20 16 24 17 22 18 21 19 23 21 32 23 29 25
REMARK SMILES IDX 5 27 14 28 6 29 12 30 7 31 10 32 15 33 13 35 8 37 9 38 11 40
REMARK H PARENT 21 20 23 22 32 24 29 26 15 34 13 36 9 39 11 41
REMARK Flexibility Score: inf
ROOT
ATOM      1  O   UNL     1       0.001  47.311  82.830  1.00  0.00    -0.454 OA
ENDROOT
BRANCH   1   2
ATOM      2  C   UNL     1      -0.175  46.121  81.884  1.00  0.00     0.214 A 
ATOM      3  C   UNL     1       0.510  44.840  81.867  1.00  0.00     0.180 A 
ATOM      4  O   UNL     1       0.364  43.979  80.853  1.00  0.00    -0.452 OA
ATOM      5  C   UNL     1      -1.211  46.116  80.774  1.00  0.00     0.239 A 
ATOM      6  C   UNL     1      -0.501  44.093  79.893  1.00  0.00     0.146 A 
ATOM      7  O   UNL     1      -2.074  47.049  80.683  1.00  0.00    -0.285 OA
ATOM      8  C   UNL     1      -1.123  45.266  79.672  1.00  0.00     0.111 A 
ATOM      9  C   UNL     1      -1.078  42.957  79.256  1.00  0.00     0.094 A 
ATOM     10  C   UNL     1      -1.684  45.479  78.359  1.00  0.00     0.134 A 
ATOM     11  C   UNL     1      -1.838  43.103  78.124  1.00  0.00     0.123 A 
ATOM     12  C   UNL     1      -1.862  44.356  77.518  1.00  0.00     0.093 A 
BRANCH   3  13
ATOM     13  C   UNL     1       1.236  44.176  82.928  1.00  0.00     0.025 A 
ATOM     14  C   UNL     1       2.526  44.624  83.241  1.00  0.00     0.016 A 
ATOM     15  C   UNL     1       3.222  44.069  84.340  1.00  0.00     0.051 A 
ATOM     16  C   UNL     1       2.663  43.042  85.091  1.00  0.00     0.157 A 
ATOM     17  C   UNL     1       0.748  42.965  83.560  1.00  0.00     0.062 A 
ATOM     18  C   UNL     1       1.473  42.476  84.624  1.00  0.00     0.158 A 
BRANCH  16  19
ATOM     19  O   UNL     1       2.870  42.924  86.473  1.00  0.00    -0.504 OA
ATOM     20  H   UNL     1       2.702  43.759  87.130  1.00  0.00     0.293 HD
ENDBRANCH  16  19
BRANCH  18  21
ATOM     21  O   UNL     1       1.163  41.175  85.108  1.00  0.00    -0.504 OA
ATOM     22  H   UNL     1       0.391  40.591  84.722  1.00  0.00     0.293 HD
ENDBRANCH  18  21
ENDBRANCH   3  13
BRANCH  10  23
ATOM     23  O   UNL     1      -1.822  46.740  77.788  1.00  0.00    -0.507 OA
ATOM     24  H   UNL     1      -1.905  47.561  78.426  1.00  0.00     0.293 HD
ENDBRANCH  10  23
BRANCH  11  25
ATOM     25  O   UNL     1      -2.498  41.978  77.489  1.00  0.00    -0.508 OA
ATOM     26  H   UNL     1      -3.333  42.143  76.919  1.00  0.00     0.293 HD
ENDBRANCH  11  25
ENDBRANCH   1   2
BRANCH   1  27
ATOM     27  C   UNL     1      -0.378  48.768  83.404  1.00  0.00     0.339 C 
ATOM     28  C   UNL     1      -1.862  49.421  83.709  1.00  0.00     0.214 C 
ATOM     29  O   UNL     1       0.193  48.848  84.666  1.00  0.00    -0.332 OA
ATOM     30  C   UNL     1      -2.853  48.333  84.020  1.00  0.00     0.180 C 
ATOM     31  C   UNL     1      -0.419  47.859  85.450  1.00  0.00     0.179 C 
ATOM     32  C   UNL     1      -1.857  47.288  84.855  1.00  0.00     0.177 C 
BRANCH  28  33
ATOM     33  O   UNL     1      -1.821  50.321  84.827  1.00  0.00    -0.384 OA
ATOM     34  H   UNL     1      -0.887  50.452  85.096  1.00  0.00     0.211 HD
ENDBRANCH  28  33
BRANCH  30  35
ATOM     35  O   UNL     1      -3.627  48.097  82.809  1.00  0.00    -0.387 OA
ATOM     36  H   UNL     1      -3.847  49.051  82.521  1.00  0.00     0.211 HD
ENDBRANCH  30  35
BRANCH  31  37
ATOM     37  C   UNL     1       0.790  46.906  85.948  1.00  0.00     0.191 C 
BRANCH  37  38
ATOM     38  O   UNL     1       0.533  45.599  86.143  1.00  0.00    -0.394 OA
ATOM     39  H   UNL     1      -0.156  45.499  86.871  1.00  0.00     0.210 HD
ENDBRANCH  37  38
ENDBRANCH  31  37
BRANCH  32  40
ATOM     40  O   UNL     1      -2.479  46.402  85.784  1.00  0.00    -0.387 OA
ATOM     41  H   UNL     1      -2.011  46.482  86.719  1.00  0.00     0.211 HD
ENDBRANCH  32  40
ENDBRANCH   1  27
TORSDOF 12
ENDMDL
MODEL 6
REMARK VINA RESULT:    -6.947      1.611      2.256
REMARK INTER + INTRA:         -11.593
REMARK INTER:                  -9.946
REMARK INTRA:                  -1.647
REMARK UNBOUND:                -1.396
REMARK SMILES O=c1c(O[C@@H]2O[C@H](CO)[C@@H](O)[C@H](O)[C@H]2O)c(-c2ccc(O)c(O)c2)oc2cc(O)cc(O)c12
REMARK SMILES IDX 4 1 3 2 16 3 25 4 2 5 26 6 1 7 33 8 27 9 31 10 28 11 30 12
REMARK SMILES IDX 17 13 18 14 19 15 20 16 24 17 22 18 21 19 23 21 32 23 29 25
REMARK SMILES IDX 5 27 14 28 6 29 12 30 7 31 10 32 15 33 13 35 8 37 9 38 11 40
REMARK H PARENT 21 20 23 22 32 24 29 26 15 34 13 36 9 39 11 41
REMARK Flexibility Score: inf
ROOT
ATOM      1  O   UNL     1       0.559  44.772  81.774  1.00  0.00    -0.454 OA
ENDROOT
BRANCH   1   2
ATOM      2  C   UNL     1       0.686  45.484  83.122  1.00  0.00     0.214 A 
ATOM      3  C   UNL     1       1.425  45.097  84.311  1.00  0.00     0.180 A 
ATOM      4  O   UNL     1       1.280  45.746  85.472  1.00  0.00    -0.452 OA
ATOM      5  C   UNL     1       0.033  46.828  83.391  1.00  0.00     0.239 A 
ATOM      6  C   UNL     1       0.630  46.858  85.630  1.00  0.00     0.146 A 
ATOM      7  O   UNL     1      -0.528  47.481  82.451  1.00  0.00    -0.285 OA
ATOM      8  C   UNL     1      -0.220  47.291  84.682  1.00  0.00     0.111 A 
ATOM      9  C   UNL     1       1.006  47.820  86.611  1.00  0.00     0.094 A 
ATOM     10  C   UNL     1      -1.239  48.232  85.088  1.00  0.00     0.134 A 
ATOM     11  C   UNL     1       0.195  48.891  86.887  1.00  0.00     0.123 A 
ATOM     12  C   UNL     1      -1.079  48.897  86.325  1.00  0.00     0.093 A 
BRANCH   3  13
ATOM     13  C   UNL     1       2.536  44.177  84.440  1.00  0.00     0.025 A 
ATOM     14  C   UNL     1       2.592  43.069  83.584  1.00  0.00     0.016 A 
ATOM     15  C   UNL     1       3.715  42.210  83.610  1.00  0.00     0.051 A 
ATOM     16  C   UNL     1       4.749  42.419  84.514  1.00  0.00     0.157 A 
ATOM     17  C   UNL     1       3.494  44.267  85.525  1.00  0.00     0.062 A 
ATOM     18  C   UNL     1       4.563  43.400  85.492  1.00  0.00     0.158 A 
BRANCH  16  19
ATOM     19  O   UNL     1       6.089  42.148  84.197  1.00  0.00    -0.504 OA
ATOM     20  H   UNL     1       6.772  41.791  84.948  1.00  0.00     0.293 HD
ENDBRANCH  16  19
BRANCH  18  21
ATOM     21  O   UNL     1       5.382  43.297  86.650  1.00  0.00    -0.504 OA
ATOM     22  H   UNL     1       6.396  43.055  86.613  1.00  0.00     0.293 HD
ENDBRANCH  18  21
ENDBRANCH   3  13
BRANCH  10  23
ATOM     23  O   UNL     1      -2.475  48.328  84.458  1.00  0.00    -0.507 OA
ATOM     24  H   UNL     1      -2.707  49.217  83.964  1.00  0.00     0.293 HD
ENDBRANCH  10  23
BRANCH  11  25
ATOM     25  O   UNL     1       0.578  49.926  87.827  1.00  0.00    -0.508 OA
ATOM     26  H   UNL     1       1.054  50.765  87.483  1.00  0.00     0.293 HD
ENDBRANCH  11  25
ENDBRANCH   1   2
BRANCH   1  27
ATOM     27  C   UNL     1       0.234  43.503  80.835  1.00  0.00     0.339 C 
ATOM     28  C   UNL     1      -1.011  42.425  80.927  1.00  0.00     0.214 C 
ATOM     29  O   UNL     1       0.035  44.006  79.558  1.00  0.00    -0.332 OA
ATOM     30  C   UNL     1      -2.210  43.069  81.570  1.00  0.00     0.180 C 
ATOM     31  C   UNL     1      -1.089  44.843  79.624  1.00  0.00     0.179 C 
ATOM     32  C   UNL     1      -2.057  44.608  80.949  1.00  0.00     0.177 C 
BRANCH  28  33
ATOM     33  O   UNL     1      -1.401  41.960  79.624  1.00  0.00    -0.384 OA
ATOM     34  H   UNL     1      -2.328  41.643  79.665  1.00  0.00     0.211 HD
ENDBRANCH  28  33
BRANCH  30  35
ATOM     35  O   UNL     1      -2.235  42.635  82.960  1.00  0.00    -0.387 OA
ATOM     36  H   UNL     1      -1.860  43.456  83.436  1.00  0.00     0.211 HD
ENDBRANCH  30  35
BRANCH  31  37
ATOM     37  C   UNL     1      -0.561  46.295  79.141  1.00  0.00     0.191 C 
BRANCH  37  38
ATOM     38  O   UNL     1      -1.190  47.390  79.609  1.00  0.00    -0.394 OA
ATOM     39  H   UNL     1      -0.525  48.140  79.709  1.00  0.00     0.210 HD
ENDBRANCH  37  38
ENDBRANCH  31  37
BRANCH  32  40
ATOM     40  O   UNL     1      -3.246  45.393  80.858  1.00  0.00    -0.387 OA
ATOM     41  H   UNL     1      -3.989  44.854  80.350  1.00  0.00     0.211 HD
ENDBRANCH  32  40
ENDBRANCH   1  27
TORSDOF 12
ENDMDL
MODEL 7
REMARK VINA RESULT:    -6.927      1.989      7.308
REMARK INTER + INTRA:         -11.563
REMARK INTER:                 -10.089
REMARK INTRA:                  -1.474
REMARK UNBOUND:                -1.396
REMARK SMILES O=c1c(O[C@@H]2O[C@H](CO)[C@@H](O)[C@H](O)[C@H]2O)c(-c2ccc(O)c(O)c2)oc2cc(O)cc(O)c12
REMARK SMILES IDX 4 1 3 2 16 3 25 4 2 5 26 6 1 7 33 8 27 9 31 10 28 11 30 12
REMARK SMILES IDX 17 13 18 14 19 15 20 16 24 17 22 18 21 19 23 21 32 23 29 25
REMARK SMILES IDX 5 27 14 28 6 29 12 30 7 31 10 32 15 33 13 35 8 37 9 38 11 40
REMARK H PARENT 21 20 23 22 32 24 29 26 15 34 13 36 9 39 11 41
REMARK Flexibility Score: inf
ROOT
ATOM      1  O   UNL     1      -0.111  44.422  83.909  1.00  0.00    -0.454 OA
ENDROOT
BRANCH   1   2
ATOM      2  C   UNL     1      -0.320  45.297  82.672  1.00  0.00     0.214 A 
ATOM      3  C   UNL     1      -0.626  46.714  82.579  1.00  0.00     0.180 A 
ATOM      4  O   UNL     1      -0.959  47.286  81.416  1.00  0.00    -0.452 OA
ATOM      5  C   UNL     1      -0.175  44.753  81.262  1.00  0.00     0.239 A 
ATOM      6  C   UNL     1      -0.881  46.716  80.253  1.00  0.00     0.146 A 
ATOM      7  O   UNL     1       0.269  43.576  81.059  1.00  0.00    -0.285 OA
ATOM      8  C   UNL     1      -0.747  45.381  80.156  1.00  0.00     0.111 A 
ATOM      9  C   UNL     1      -0.602  47.454  79.066  1.00  0.00     0.094 A 
ATOM     10  C   UNL     1      -1.135  44.766  78.908  1.00  0.00     0.134 A 
ATOM     11  C   UNL     1      -0.715  46.864  77.834  1.00  0.00     0.123 A 
ATOM     12  C   UNL     1      -1.291  45.598  77.774  1.00  0.00     0.093 A 
BRANCH   3  13
ATOM     13  C   UNL     1      -0.432  47.760  83.562  1.00  0.00     0.025 A 
ATOM     14  C   UNL     1      -0.190  47.393  84.892  1.00  0.00     0.016 A 
ATOM     15  C   UNL     1       0.109  48.383  85.857  1.00  0.00     0.051 A 
ATOM     16  C   UNL     1       0.115  49.730  85.515  1.00  0.00     0.157 A 
ATOM     17  C   UNL     1      -0.647  49.160  83.255  1.00  0.00     0.062 A 
ATOM     18  C   UNL     1      -0.339  50.073  84.238  1.00  0.00     0.158 A 
BRANCH  16  19
ATOM     19  O   UNL     1       1.007  50.646  86.091  1.00  0.00    -0.504 OA
ATOM     20  H   UNL     1       1.825  51.053  85.522  1.00  0.00     0.293 HD
ENDBRANCH  16  19
BRANCH  18  21
ATOM     21  O   UNL     1      -0.758  51.421  84.061  1.00  0.00    -0.504 OA
ATOM     22  H   UNL     1      -0.151  52.158  83.644  1.00  0.00     0.293 HD
ENDBRANCH  18  21
ENDBRANCH   3  13
BRANCH  10  23
ATOM     23  O   UNL     1      -1.604  43.460  78.819  1.00  0.00    -0.507 OA
ATOM     24  H   UNL     1      -2.622  43.314  78.652  1.00  0.00     0.293 HD
ENDBRANCH  10  23
BRANCH  11  25
ATOM     25  O   UNL     1      -0.372  47.563  76.610  1.00  0.00    -0.508 OA
ATOM     26  H   UNL     1      -0.474  47.081  75.712  1.00  0.00     0.293 HD
ENDBRANCH  11  25
ENDBRANCH   1   2
BRANCH   1  27
ATOM     27  C   UNL     1      -0.448  43.172  84.869  1.00  0.00     0.339 C 
ATOM     28  C   UNL     1      -0.292  41.556  84.577  1.00  0.00     0.214 C 
ATOM     29  O   UNL     1       0.370  43.304  85.981  1.00  0.00    -0.332 OA
ATOM     30  C   UNL     1       0.799  41.313  83.570  1.00  0.00     0.180 C 
ATOM     31  C   UNL     1       1.692  43.203  85.524  1.00  0.00     0.179 C 
ATOM     32  C   UNL     1       1.863  42.512  84.027  1.00  0.00     0.177 C 
BRANCH  28  33
ATOM     33  O   UNL     1       0.038  40.834  85.775  1.00  0.00    -0.384 OA
ATOM     34  H   UNL     1       0.754  41.311  86.245  1.00  0.00     0.211 HD
ENDBRANCH  28  33
BRANCH  30  35
ATOM     35  O   UNL     1       0.155  41.096  82.282  1.00  0.00    -0.387 OA
ATOM     36  H   UNL     1      -0.812  40.930  82.565  1.00  0.00     0.211 HD
ENDBRANCH  30  35
BRANCH  31  37
ATOM     37  C   UNL     1       2.396  44.595  85.959  1.00  0.00     0.191 C 
BRANCH  37  38
ATOM     38  O   UNL     1       3.739  44.672  85.911  1.00  0.00    -0.394 OA
ATOM     39  H   UNL     1       4.117  43.770  85.668  1.00  0.00     0.210 HD
ENDBRANCH  37  38
ENDBRANCH  31  37
BRANCH  32  40
ATOM     40  O   UNL     1       3.240  42.315  83.709  1.00  0.00    -0.387 OA
ATOM     41  H   UNL     1       3.838  42.894  84.347  1.00  0.00     0.211 HD
ENDBRANCH  32  40
ENDBRANCH   1  27
TORSDOF 12
ENDMDL
MODEL 8
REMARK VINA RESULT:    -6.895      1.608      6.905
REMARK INTER + INTRA:         -11.516
REMARK INTER:                  -9.971
REMARK INTRA:                  -1.545
REMARK UNBOUND:                -1.396
REMARK SMILES O=c1c(O[C@@H]2O[C@H](CO)[C@@H](O)[C@H](O)[C@H]2O)c(-c2ccc(O)c(O)c2)oc2cc(O)cc(O)c12
REMARK SMILES IDX 4 1 3 2 16 3 25 4 2 5 26 6 1 7 33 8 27 9 31 10 28 11 30 12
REMARK SMILES IDX 17 13 18 14 19 15 20 16 24 17 22 18 21 19 23 21 32 23 29 25
REMARK SMILES IDX 5 27 14 28 6 29 12 30 7 31 10 32 15 33 13 35 8 37 9 38 11 40
REMARK H PARENT 21 20 23 22 32 24 29 26 15 34 13 36 9 39 11 41
REMARK Flexibility Score: inf
ROOT
ATOM      1  O   UNL     1       1.398  44.847  83.476  1.00  0.00    -0.454 OA
ENDROOT
BRANCH   1   2
ATOM      2  C   UNL     1       0.409  45.819  82.831  1.00  0.00     0.214 A 
ATOM      3  C   UNL     1      -0.437  46.828  83.445  1.00  0.00     0.180 A 
ATOM      4  O   UNL     1      -1.383  47.470  82.750  1.00  0.00    -0.452 OA
ATOM      5  C   UNL     1       0.203  45.884  81.327  1.00  0.00     0.239 A 
ATOM      6  C   UNL     1      -1.540  47.406  81.464  1.00  0.00     0.146 A 
ATOM      7  O   UNL     1       0.956  45.228  80.537  1.00  0.00    -0.285 OA
ATOM      8  C   UNL     1      -0.944  46.432  80.753  1.00  0.00     0.111 A 
ATOM      9  C   UNL     1      -2.048  48.502  80.709  1.00  0.00     0.094 A 
ATOM     10  C   UNL     1      -1.507  46.119  79.460  1.00  0.00     0.134 A 
ATOM     11  C   UNL     1      -2.383  48.345  79.388  1.00  0.00     0.123 A 
ATOM     12  C   UNL     1      -2.395  47.051  78.875  1.00  0.00     0.093 A 
BRANCH   3  13
ATOM     13  C   UNL     1      -0.307  47.468  84.737  1.00  0.00     0.025 A 
ATOM     14  C   UNL     1       0.801  47.152  85.534  1.00  0.00     0.016 A 
ATOM     15  C   UNL     1       1.016  47.835  86.754  1.00  0.00     0.051 A 
ATOM     16  C   UNL     1       0.110  48.788  87.203  1.00  0.00     0.157 A 
ATOM     17  C   UNL     1      -1.359  48.289  85.304  1.00  0.00     0.062 A 
ATOM     18  C   UNL     1      -1.087  48.926  86.494  1.00  0.00     0.158 A 
BRANCH  16  19
ATOM     19  O   UNL     1       0.512  49.931  87.910  1.00  0.00    -0.504 OA
ATOM     20  H   UNL     1      -0.214  50.581  88.368  1.00  0.00     0.293 HD
ENDBRANCH  16  19
BRANCH  18  21
ATOM     21  O   UNL     1      -2.165  49.537  87.192  1.00  0.00    -0.504 OA
ATOM     22  H   UNL     1      -2.732  50.318  86.797  1.00  0.00     0.293 HD
ENDBRANCH  18  21
ENDBRANCH   3  13
BRANCH  10  23
ATOM     23  O   UNL     1      -1.423  44.856  78.882  1.00  0.00    -0.507 OA
ATOM     24  H   UNL     1      -0.787  44.157  79.321  1.00  0.00     0.293 HD
ENDBRANCH  10  23
BRANCH  11  25
ATOM     25  O   UNL     1      -2.836  49.454  78.571  1.00  0.00    -0.508 OA
ATOM     26  H   UNL     1      -2.303  50.328  78.571  1.00  0.00     0.293 HD
ENDBRANCH  11  25
ENDBRANCH   1   2
BRANCH   1  27
ATOM     27  C   UNL     1       2.870  44.247  83.742  1.00  0.00     0.339 C 
ATOM     28  C   UNL     1       3.593  43.839  85.167  1.00  0.00     0.214 C 
ATOM     29  O   UNL     1       2.918  43.029  83.080  1.00  0.00    -0.332 OA
ATOM     30  C   UNL     1       2.554  43.458  86.186  1.00  0.00     0.180 C 
ATOM     31  C   UNL     1       1.958  42.204  83.684  1.00  0.00     0.179 C 
ATOM     32  C   UNL     1       1.459  42.696  85.186  1.00  0.00     0.177 C 
BRANCH  28  33
ATOM     33  O   UNL     1       4.487  42.726  85.004  1.00  0.00    -0.384 OA
ATOM     34  H   UNL     1       5.311  43.041  84.577  1.00  0.00     0.211 HD
ENDBRANCH  28  33
BRANCH  30  35
ATOM     35  O   UNL     1       2.360  44.612  87.054  1.00  0.00    -0.387 OA
ATOM     36  H   UNL     1       1.929  45.278  86.412  1.00  0.00     0.211 HD
ENDBRANCH  30  35
BRANCH  31  37
ATOM     37  C   UNL     1       0.945  41.792  82.490  1.00  0.00     0.191 C 
BRANCH  37  38
ATOM     38  O   UNL     1       0.992  42.496  81.343  1.00  0.00    -0.394 OA
ATOM     39  H   UNL     1       0.553  41.966  80.607  1.00  0.00     0.210 HD
ENDBRANCH  37  38
ENDBRANCH  31  37
BRANCH  32  40
ATOM     40  O   UNL     1       0.601  41.725  85.783  1.00  0.00    -0.387 OA
ATOM     41  H   UNL     1      -0.354  42.135  85.927  1.00  0.00     0.211 HD
ENDBRANCH  32  40
ENDBRANCH   1  27
TORSDOF 12
ENDMDL
MODEL 9
REMARK VINA RESULT:    -6.876      1.932      5.970
REMARK INTER + INTRA:         -11.488
REMARK INTER:                  -9.920
REMARK INTRA:                  -1.568
REMARK UNBOUND:                -1.396
REMARK SMILES O=c1c(O[C@@H]2O[C@H](CO)[C@@H](O)[C@H](O)[C@H]2O)c(-c2ccc(O)c(O)c2)oc2cc(O)cc(O)c12
REMARK SMILES IDX 4 1 3 2 16 3 25 4 2 5 26 6 1 7 33 8 27 9 31 10 28 11 30 12
REMARK SMILES IDX 17 13 18 14 19 15 20 16 24 17 22 18 21 19 23 21 32 23 29 25
REMARK SMILES IDX 5 27 14 28 6 29 12 30 7 31 10 32 15 33 13 35 8 37 9 38 11 40
REMARK H PARENT 21 20 23 22 32 24 29 26 15 34 13 36 9 39 11 41
REMARK Flexibility Score: inf
ROOT
ATOM      1  O   UNL     1       0.141  43.082  81.997  1.00  0.00    -0.454 OA
ENDROOT
BRANCH   1   2
ATOM      2  C   UNL     1      -0.148  44.561  82.257  1.00  0.00     0.214 A 
ATOM      3  C   UNL     1      -0.362  45.646  81.315  1.00  0.00     0.180 A 
ATOM      4  O   UNL     1      -0.421  46.922  81.713  1.00  0.00    -0.452 OA
ATOM      5  C   UNL     1      -0.305  45.120  83.661  1.00  0.00     0.239 A 
ATOM      6  C   UNL     1      -0.471  47.319  82.947  1.00  0.00     0.146 A 
ATOM      7  O   UNL     1      -0.345  44.344  84.671  1.00  0.00    -0.285 OA
ATOM      8  C   UNL     1      -0.153  46.476  83.947  1.00  0.00     0.111 A 
ATOM      9  C   UNL     1      -1.157  48.506  83.332  1.00  0.00     0.094 A 
ATOM     10  C   UNL     1       0.233  47.064  85.209  1.00  0.00     0.134 A 
ATOM     11  C   UNL     1      -1.033  49.003  84.604  1.00  0.00     0.123 A 
ATOM     12  C   UNL     1      -0.075  48.426  85.433  1.00  0.00     0.093 A 
BRANCH   3  13
ATOM     13  C   UNL     1      -0.753  45.584  79.922  1.00  0.00     0.025 A 
ATOM     14  C   UNL     1      -1.361  44.415  79.447  1.00  0.00     0.016 A 
ATOM     15  C   UNL     1      -1.851  44.359  78.121  1.00  0.00     0.051 A 
ATOM     16  C   UNL     1      -1.692  45.437  77.259  1.00  0.00     0.157 A 
ATOM     17  C   UNL     1      -0.387  46.614  78.969  1.00  0.00     0.062 A 
ATOM     18  C   UNL     1      -0.896  46.500  77.695  1.00  0.00     0.158 A 
BRANCH  16  19
ATOM     19  O   UNL     1      -2.653  45.776  76.295  1.00  0.00    -0.504 OA
ATOM     20  H   UNL     1      -3.663  45.411  76.370  1.00  0.00     0.293 HD
ENDBRANCH  16  19
BRANCH  18  21
ATOM     21  O   UNL     1      -0.370  47.349  76.682  1.00  0.00    -0.504 OA
ATOM     22  H   UNL     1       0.113  46.991  75.830  1.00  0.00     0.293 HD
ENDBRANCH  18  21
ENDBRANCH   3  13
BRANCH  10  23
ATOM     23  O   UNL     1       1.100  46.443  86.101  1.00  0.00    -0.507 OA
ATOM     24  H   UNL     1       1.766  47.042  86.635  1.00  0.00     0.293 HD
ENDBRANCH  10  23
BRANCH  11  25
ATOM     25  O   UNL     1      -1.772  50.169  85.051  1.00  0.00    -0.508 OA
ATOM     26  H   UNL     1      -2.617  50.041  85.615  1.00  0.00     0.293 HD
ENDBRANCH  11  25
ENDBRANCH   1   2
BRANCH   1  27
ATOM     27  C   UNL     1       1.010  41.862  81.401  1.00  0.00     0.339 C 
ATOM     28  C   UNL     1       2.503  41.324  81.848  1.00  0.00     0.214 C 
ATOM     29  O   UNL     1       0.259  40.714  81.607  1.00  0.00    -0.332 OA
ATOM     30  C   UNL     1       2.758  41.644  83.297  1.00  0.00     0.180 C 
ATOM     31  C   UNL     1       0.125  40.563  82.995  1.00  0.00     0.179 C 
ATOM     32  C   UNL     1       1.220  41.418  83.899  1.00  0.00     0.177 C 
BRANCH  28  33
ATOM     33  O   UNL     1       2.623  39.902  81.678  1.00  0.00    -0.384 OA
ATOM     34  H   UNL     1       1.837  39.468  82.070  1.00  0.00     0.211 HD
ENDBRANCH  28  33
BRANCH  30  35
ATOM     35  O   UNL     1       3.596  42.834  83.333  1.00  0.00    -0.387 OA
ATOM     36  H   UNL     1       4.074  42.773  82.433  1.00  0.00     0.211 HD
ENDBRANCH  30  35
BRANCH  31  37
ATOM     37  C   UNL     1      -1.470  40.572  83.268  1.00  0.00     0.191 C 
BRANCH  37  38
ATOM     38  O   UNL     1      -2.056  41.743  83.583  1.00  0.00    -0.394 OA
ATOM     39  H   UNL     1      -2.971  41.566  83.967  1.00  0.00     0.210 HD
ENDBRANCH  37  38
ENDBRANCH  31  37
BRANCH  32  40
ATOM     40  O   UNL     1       1.107  41.090  85.284  1.00  0.00    -0.387 OA
ATOM     41  H   UNL     1       1.920  40.495  85.575  1.00  0.00     0.211 HD
ENDBRANCH  32  40
ENDBRANCH   1  27
TORSDOF 12
ENDMDL
