MODEL 1
REMARK VINA RESULT:    -4.136      0.000      0.000
REMARK INTER + INTRA:          -7.243
REMARK INTER:                  -6.313
REMARK INTRA:                  -0.930
REMARK UNBOUND:                -0.930
REMARK SMILES CCCCCCCCCCC(=O)[O-]
REMARK SMILES IDX 7 1 8 2 9 3 10 4 11 5 12 6 13 7 6 8 5 9 4 10 3 11 2 12 1 13
REMARK H PARENT
REMARK Flexibility Score: inf
ROOT
ATOM      1  C   UNL     1     -26.785 -11.717  16.627  1.00  0.00     0.000 C 
ENDROOT
BRANCH   1   2
ATOM      2  C   UNL     1     -25.537 -12.203  17.386  1.00  0.00     0.000 C 
BRANCH   2   3
ATOM      3  C   UNL     1     -25.757 -13.546  18.104  1.00  0.00     0.006 C 
BRANCH   3   4
ATOM      4  C   UNL     1     -27.023 -14.262  17.617  1.00  0.00     0.053 C 
BRANCH   4   5
ATOM      5  C   UNL     1     -26.906 -15.749  17.757  1.00  0.00     0.041 C 
ATOM      6  O   UNL     1     -25.813 -16.324  17.512  1.00  0.00    -0.550 OA
ATOM      7  O   UNL     1     -28.013 -16.502  18.125  1.00  0.00    -0.550 OA
ENDBRANCH   4   5
ENDBRANCH   3   4
ENDBRANCH   2   3
ENDBRANCH   1   2
BRANCH   1   8
ATOM      8  C   UNL     1     -27.534 -10.545  17.285  1.00  0.00     0.000 C 
BRANCH   8   9
ATOM      9  C   UNL     1     -28.955 -10.921  17.740  1.00  0.00    -0.000 C 
BRANCH   9  10
ATOM     10  C   UNL     1     -29.576 -12.030  16.875  1.00  0.00    -0.000 C 
BRANCH  10  11
ATOM     11  C   UNL     1     -30.611 -12.869  17.646  1.00  0.00    -0.000 C 
BRANCH  11  12
ATOM     12  C   UNL     1     -30.701 -14.313  17.129  1.00  0.00    -0.003 C 
ATOM     13  C   UNL     1     -30.213 -14.458  15.687  1.00  0.00     0.004 C 
ENDBRANCH  11  12
ENDBRANCH  10  11
ENDBRANCH   9  10
ENDBRANCH   8   9
ENDBRANCH   1   8
TORSDOF 9
ENDMDL
MODEL 2
REMARK VINA RESULT:    -4.077      2.882      5.262
REMARK INTER + INTRA:          -7.153
REMARK INTER:                  -6.381
REMARK INTRA:                  -0.772
REMARK UNBOUND:                -0.930
REMARK SMILES CCCCCCCCCCC(=O)[O-]
REMARK SMILES IDX 7 1 8 2 9 3 10 4 11 5 12 6 13 7 6 8 5 9 4 10 3 11 2 12 1 13
REMARK H PARENT
REMARK Flexibility Score: inf
ROOT
ATOM      1  C   UNL     1     -29.507 -13.675  17.211  1.00  0.00     0.000 C 
ENDROOT
BRANCH   1   2
ATOM      2  C   UNL     1     -30.741 -14.490  17.642  1.00  0.00     0.000 C 
BRANCH   2   3
ATOM      3  C   UNL     1     -31.975 -13.612  17.910  1.00  0.00     0.006 C 
BRANCH   3   4
ATOM      4  C   UNL     1     -33.275 -14.285  17.449  1.00  0.00     0.053 C 
BRANCH   4   5
ATOM      5  C   UNL     1     -33.270 -14.544  15.974  1.00  0.00     0.041 C 
ATOM      6  O   UNL     1     -33.378 -13.587  15.162  1.00  0.00    -0.550 OA
ATOM      7  O   UNL     1     -33.179 -15.845  15.497  1.00  0.00    -0.550 OA
ENDBRANCH   4   5
ENDBRANCH   3   4
ENDBRANCH   2   3
ENDBRANCH   1   2
BRANCH   1   8
ATOM      8  C   UNL     1     -29.819 -12.321  16.548  1.00  0.00     0.000 C 
BRANCH   8   9
ATOM      9  C   UNL     1     -29.114 -11.140  17.236  1.00  0.00    -0.000 C 
BRANCH   9  10
ATOM     10  C   UNL     1     -27.783 -11.547  17.889  1.00  0.00    -0.000 C 
BRANCH  10  11
ATOM     11  C   UNL     1     -26.580 -11.346  16.951  1.00  0.00    -0.000 C 
BRANCH  11  12
ATOM     12  C   UNL     1     -25.407 -12.279  17.291  1.00  0.00    -0.003 C 
ATOM     13  C   UNL     1     -25.864 -13.667  17.740  1.00  0.00     0.004 C 
ENDBRANCH  11  12
ENDBRANCH  10  11
ENDBRANCH   9  10
ENDBRANCH   8   9
ENDBRANCH   1   8
TORSDOF 9
ENDMDL
MODEL 3
REMARK VINA RESULT:    -4.073      2.324      4.755
REMARK INTER + INTRA:          -7.147
REMARK INTER:                  -6.413
REMARK INTRA:                  -0.734
REMARK UNBOUND:                -0.930
REMARK SMILES CCCCCCCCCCC(=O)[O-]
REMARK SMILES IDX 7 1 8 2 9 3 10 4 11 5 12 6 13 7 6 8 5 9 4 10 3 11 2 12 1 13
REMARK H PARENT
REMARK Flexibility Score: inf
ROOT
ATOM      1  C   UNL     1     -29.534 -13.825  17.231  1.00  0.00     0.000 C 
ENDROOT
BRANCH   1   2
ATOM      2  C   UNL     1     -30.876 -14.531  17.496  1.00  0.00     0.000 C 
BRANCH   2   3
ATOM      3  C   UNL     1     -31.709 -14.734  16.219  1.00  0.00     0.006 C 
BRANCH   3   4
ATOM      4  C   UNL     1     -31.804 -16.212  15.819  1.00  0.00     0.053 C 
BRANCH   4   5
ATOM      5  C   UNL     1     -31.056 -16.491  14.551  1.00  0.00     0.041 C 
ATOM      6  O   UNL     1     -30.151 -15.706  14.164  1.00  0.00    -0.550 OA
ATOM      7  O   UNL     1     -31.382 -17.599  13.781  1.00  0.00    -0.550 OA
ENDBRANCH   4   5
ENDBRANCH   3   4
ENDBRANCH   2   3
ENDBRANCH   1   2
BRANCH   1   8
ATOM      8  C   UNL     1     -29.637 -12.496  16.463  1.00  0.00     0.000 C 
BRANCH   8   9
ATOM      9  C   UNL     1     -29.200 -11.283  17.303  1.00  0.00    -0.000 C 
BRANCH   9  10
ATOM     10  C   UNL     1     -27.781 -11.440  17.873  1.00  0.00    -0.000 C 
BRANCH  10  11
ATOM     11  C   UNL     1     -26.698 -11.379  16.782  1.00  0.00    -0.000 C 
BRANCH  11  12
ATOM     12  C   UNL     1     -25.496 -12.284  17.094  1.00  0.00    -0.003 C 
ATOM     13  C   UNL     1     -25.891 -13.556  17.845  1.00  0.00     0.004 C 
ENDBRANCH  11  12
ENDBRANCH  10  11
ENDBRANCH   9  10
ENDBRANCH   8   9
ENDBRANCH   1   8
TORSDOF 9
ENDMDL
MODEL 4
REMARK VINA RESULT:    -4.068      2.753      4.709
REMARK INTER + INTRA:          -7.139
REMARK INTER:                  -6.189
REMARK INTRA:                  -0.949
REMARK UNBOUND:                -0.930
REMARK SMILES CCCCCCCCCCC(=O)[O-]
REMARK SMILES IDX 7 1 8 2 9 3 10 4 11 5 12 6 13 7 6 8 5 9 4 10 3 11 2 12 1 13
REMARK H PARENT
REMARK Flexibility Score: inf
ROOT
ATOM      1  C   UNL     1     -29.101 -11.718  16.985  1.00  0.00     0.000 C 
ENDROOT
BRANCH   1   2
ATOM      2  C   UNL     1     -29.844 -13.037  17.268  1.00  0.00     0.000 C 
BRANCH   2   3
ATOM      3  C   UNL     1     -30.099 -13.866  15.997  1.00  0.00     0.006 C 
BRANCH   3   4
ATOM      4  C   UNL     1     -31.227 -14.887  16.190  1.00  0.00     0.053 C 
BRANCH   4   5
ATOM      5  C   UNL     1     -32.564 -14.220  16.295  1.00  0.00     0.041 C 
ATOM      6  O   UNL     1     -33.123 -14.092  17.416  1.00  0.00    -0.550 OA
ATOM      7  O   UNL     1     -33.208 -13.769  15.149  1.00  0.00    -0.550 OA
ENDBRANCH   4   5
ENDBRANCH   3   4
ENDBRANCH   2   3
ENDBRANCH   1   2
BRANCH   1   8
ATOM      8  C   UNL     1     -27.789 -11.528  17.766  1.00  0.00     0.000 C 
BRANCH   8   9
ATOM      9  C   UNL     1     -26.560 -11.389  16.850  1.00  0.00    -0.000 C 
BRANCH   9  10
ATOM     10  C   UNL     1     -25.561 -12.545  17.024  1.00  0.00    -0.000 C 
BRANCH  10  11
ATOM     11  C   UNL     1     -26.033 -13.581  18.059  1.00  0.00    -0.000 C 
BRANCH  11  12
ATOM     12  C   UNL     1     -26.163 -14.991  17.462  1.00  0.00    -0.003 C 
ATOM     13  C   UNL     1     -27.414 -15.726  17.945  1.00  0.00     0.004 C 
ENDBRANCH  11  12
ENDBRANCH  10  11
ENDBRANCH   9  10
ENDBRANCH   8   9
ENDBRANCH   1   8
TORSDOF 9
ENDMDL
MODEL 5
REMARK VINA RESULT:    -4.031      1.805      4.051
REMARK INTER + INTRA:          -7.083
REMARK INTER:                  -6.424
REMARK INTRA:                  -0.659
REMARK UNBOUND:                -0.930
REMARK SMILES CCCCCCCCCCC(=O)[O-]
REMARK SMILES IDX 7 1 8 2 9 3 10 4 11 5 12 6 13 7 6 8 5 9 4 10 3 11 2 12 1 13
REMARK H PARENT
REMARK Flexibility Score: inf
ROOT
ATOM      1  C   UNL     1     -26.635 -11.518  16.580  1.00  0.00     0.000 C 
ENDROOT
BRANCH   1   2
ATOM      2  C   UNL     1     -27.560 -10.610  17.413  1.00  0.00     0.000 C 
BRANCH   2   3
ATOM      3  C   UNL     1     -28.940 -11.237  17.673  1.00  0.00     0.006 C 
BRANCH   3   4
ATOM      4  C   UNL     1     -29.310 -12.282  16.612  1.00  0.00     0.053 C 
BRANCH   4   5
ATOM      5  C   UNL     1     -30.068 -13.429  17.207  1.00  0.00     0.041 C 
ATOM      6  O   UNL     1     -29.740 -14.614  16.937  1.00  0.00    -0.550 OA
ATOM      7  O   UNL     1     -31.159 -13.187  18.032  1.00  0.00    -0.550 OA
ENDBRANCH   4   5
ENDBRANCH   3   4
ENDBRANCH   2   3
ENDBRANCH   1   2
BRANCH   1   8
ATOM      8  C   UNL     1     -25.554 -12.260  17.385  1.00  0.00     0.000 C 
BRANCH   8   9
ATOM      9  C   UNL     1     -26.098 -13.494  18.125  1.00  0.00    -0.000 C 
BRANCH   9  10
ATOM     10  C   UNL     1     -25.826 -14.804  17.367  1.00  0.00    -0.000 C 
BRANCH  10  11
ATOM     11  C   UNL     1     -26.663 -15.979  17.900  1.00  0.00    -0.000 C 
BRANCH  11  12
ATOM     12  C   UNL     1     -26.819 -17.108  16.869  1.00  0.00    -0.003 C 
ATOM     13  C   UNL     1     -25.479 -17.707  16.439  1.00  0.00     0.004 C 
ENDBRANCH  11  12
ENDBRANCH  10  11
ENDBRANCH   9  10
ENDBRANCH   8   9
ENDBRANCH   1   8
TORSDOF 9
ENDMDL
MODEL 6
REMARK VINA RESULT:    -4.013      2.165      4.250
REMARK INTER + INTRA:          -7.054
REMARK INTER:                  -6.366
REMARK INTRA:                  -0.689
REMARK UNBOUND:                -0.930
REMARK SMILES CCCCCCCCCCC(=O)[O-]
REMARK SMILES IDX 7 1 8 2 9 3 10 4 11 5 12 6 13 7 6 8 5 9 4 10 3 11 2 12 1 13
REMARK H PARENT
REMARK Flexibility Score: inf
ROOT
ATOM      1  C   UNL     1     -29.033 -11.634  16.916  1.00  0.00     0.000 C 
ENDROOT
BRANCH   1   2
ATOM      2  C   UNL     1     -30.063 -12.600  17.531  1.00  0.00     0.000 C 
BRANCH   2   3
ATOM      3  C   UNL     1     -30.108 -13.962  16.819  1.00  0.00     0.006 C 
BRANCH   3   4
ATOM      4  C   UNL     1     -31.400 -14.152  16.014  1.00  0.00     0.053 C 
BRANCH   4   5
ATOM      5  C   UNL     1     -31.320 -15.347  15.114  1.00  0.00     0.041 C 
ATOM      6  O   UNL     1     -30.383 -15.452  14.280  1.00  0.00    -0.550 OA
ATOM      7  O   UNL     1     -32.301 -16.329  15.174  1.00  0.00    -0.550 OA
ENDBRANCH   4   5
ENDBRANCH   3   4
ENDBRANCH   2   3
ENDBRANCH   1   2
BRANCH   1   8
ATOM      8  C   UNL     1     -27.775 -11.392  17.769  1.00  0.00     0.000 C 
BRANCH   8   9
ATOM      9  C   UNL     1     -26.478 -11.402  16.941  1.00  0.00    -0.000 C 
BRANCH   9  10
ATOM     10  C   UNL     1     -25.597 -12.626  17.242  1.00  0.00    -0.000 C 
BRANCH  10  11
ATOM     11  C   UNL     1     -26.342 -13.705  18.046  1.00  0.00    -0.000 C 
BRANCH  11  12
ATOM     12  C   UNL     1     -25.973 -15.130  17.601  1.00  0.00    -0.003 C 
ATOM     13  C   UNL     1     -27.199 -15.992  17.297  1.00  0.00     0.004 C 
ENDBRANCH  11  12
ENDBRANCH  10  11
ENDBRANCH   9  10
ENDBRANCH   8   9
ENDBRANCH   1   8
TORSDOF 9
ENDMDL
MODEL 7
REMARK VINA RESULT:    -3.948      1.868      3.399
REMARK INTER + INTRA:          -6.956
REMARK INTER:                  -6.218
REMARK INTRA:                  -0.738
REMARK UNBOUND:                -0.930
REMARK SMILES CCCCCCCCCCC(=O)[O-]
REMARK SMILES IDX 7 1 8 2 9 3 10 4 11 5 12 6 13 7 6 8 5 9 4 10 3 11 2 12 1 13
REMARK H PARENT
REMARK Flexibility Score: inf
ROOT
ATOM      1  C   UNL     1     -29.668 -12.460  16.695  1.00  0.00     0.000 C 
ENDROOT
BRANCH   1   2
ATOM      2  C   UNL     1     -29.318 -11.136  17.398  1.00  0.00     0.000 C 
BRANCH   2   3
ATOM      3  C   UNL     1     -27.817 -11.000  17.706  1.00  0.00     0.006 C 
BRANCH   3   4
ATOM      4  C   UNL     1     -26.942 -11.639  16.620  1.00  0.00     0.053 C 
BRANCH   4   5
ATOM      5  C   UNL     1     -25.917 -12.560  17.208  1.00  0.00     0.041 C 
ATOM      6  O   UNL     1     -24.743 -12.153  17.413  1.00  0.00    -0.550 OA
ATOM      7  O   UNL     1     -26.249 -13.877  17.496  1.00  0.00    -0.550 OA
ENDBRANCH   4   5
ENDBRANCH   3   4
ENDBRANCH   2   3
ENDBRANCH   1   2
BRANCH   1   8
ATOM      8  C   UNL     1     -30.017 -13.626  17.637  1.00  0.00     0.000 C 
BRANCH   8   9
ATOM      9  C   UNL     1     -31.492 -14.054  17.540  1.00  0.00    -0.000 C 
BRANCH   9  10
ATOM     10  C   UNL     1     -32.079 -13.833  16.136  1.00  0.00    -0.000 C 
BRANCH  10  11
ATOM     11  C   UNL     1     -32.682 -15.116  15.540  1.00  0.00    -0.000 C 
BRANCH  11  12
ATOM     12  C   UNL     1     -31.610 -16.150  15.161  1.00  0.00    -0.003 C 
ATOM     13  C   UNL     1     -30.416 -15.528  14.438  1.00  0.00     0.004 C 
ENDBRANCH  11  12
ENDBRANCH  10  11
ENDBRANCH   9  10
ENDBRANCH   8   9
ENDBRANCH   1   8
TORSDOF 9
ENDMDL
MODEL 8
REMARK VINA RESULT:    -3.902      1.554      2.655
REMARK INTER + INTRA:          -6.886
REMARK INTER:                  -5.846
REMARK INTRA:                  -1.040
REMARK UNBOUND:                -0.930
REMARK SMILES CCCCCCCCCCC(=O)[O-]
REMARK SMILES IDX 7 1 8 2 9 3 10 4 11 5 12 6 13 7 6 8 5 9 4 10 3 11 2 12 1 13
REMARK H PARENT
REMARK Flexibility Score: inf
ROOT
ATOM      1  C   UNL     1     -26.176 -13.654  18.114  1.00  0.00     0.000 C 
ENDROOT
BRANCH   1   2
ATOM      2  C   UNL     1     -26.392 -15.042  17.484  1.00  0.00     0.000 C 
BRANCH   2   3
ATOM      3  C   UNL     1     -27.719 -15.693  17.908  1.00  0.00     0.006 C 
BRANCH   3   4
ATOM      4  C   UNL     1     -28.497 -16.254  16.711  1.00  0.00     0.053 C 
BRANCH   4   5
ATOM      5  C   UNL     1     -28.109 -17.671  16.415  1.00  0.00     0.041 C 
ATOM      6  O   UNL     1     -28.367 -18.585  17.243  1.00  0.00    -0.550 OA
ATOM      7  O   UNL     1     -27.433 -17.976  15.241  1.00  0.00    -0.550 OA
ENDBRANCH   4   5
ENDBRANCH   3   4
ENDBRANCH   2   3
ENDBRANCH   1   2
BRANCH   1   8
ATOM      8  C   UNL     1     -25.637 -12.578  17.155  1.00  0.00     0.000 C 
BRANCH   8   9
ATOM      9  C   UNL     1     -26.653 -11.456  16.881  1.00  0.00    -0.000 C 
BRANCH   9  10
ATOM     10  C   UNL     1     -27.840 -11.484  17.858  1.00  0.00    -0.000 C 
BRANCH  10  11
ATOM     11  C   UNL     1     -29.196 -11.357  17.143  1.00  0.00    -0.000 C 
BRANCH  11  12
ATOM     12  C   UNL     1     -29.697 -12.700  16.590  1.00  0.00    -0.003 C 
ATOM     13  C   UNL     1     -30.714 -13.378  17.508  1.00  0.00     0.004 C 
ENDBRANCH  11  12
ENDBRANCH  10  11
ENDBRANCH   9  10
ENDBRANCH   8   9
ENDBRANCH   1   8
TORSDOF 9
ENDMDL
MODEL 9
REMARK VINA RESULT:    -3.902      2.124      3.949
REMARK INTER + INTRA:          -6.885
REMARK INTER:                  -5.970
REMARK INTRA:                  -0.915
REMARK UNBOUND:                -0.930
REMARK SMILES CCCCCCCCCCC(=O)[O-]
REMARK SMILES IDX 7 1 8 2 9 3 10 4 11 5 12 6 13 7 6 8 5 9 4 10 3 11 2 12 1 13
REMARK H PARENT
REMARK Flexibility Score: inf
ROOT
ATOM      1  C   UNL     1     -26.495 -14.946  17.411  1.00  0.00     0.000 C 
ENDROOT
BRANCH   1   2
ATOM      2  C   UNL     1     -27.912 -15.417  17.785  1.00  0.00     0.000 C 
BRANCH   2   3
ATOM      3  C   UNL     1     -28.599 -16.206  16.656  1.00  0.00     0.006 C 
BRANCH   3   4
ATOM      4  C   UNL     1     -30.112 -16.333  16.877  1.00  0.00     0.053 C 
BRANCH   4   5
ATOM      5  C   UNL     1     -30.885 -15.868  15.681  1.00  0.00     0.041 C 
ATOM      6  O   UNL     1     -32.091 -16.200  15.537  1.00  0.00    -0.550 OA
ATOM      7  O   UNL     1     -30.263 -15.097  14.707  1.00  0.00    -0.550 OA
ENDBRANCH   4   5
ENDBRANCH   3   4
ENDBRANCH   2   3
ENDBRANCH   1   2
BRANCH   1   8
ATOM      8  C   UNL     1     -26.039 -13.645  18.096  1.00  0.00     0.000 C 
BRANCH   8   9
ATOM      9  C   UNL     1     -25.667 -12.538  17.093  1.00  0.00    -0.000 C 
BRANCH   9  10
ATOM     10  C   UNL     1     -26.881 -11.694  16.671  1.00  0.00    -0.000 C 
BRANCH  10  11
ATOM     11  C   UNL     1     -27.838 -11.411  17.842  1.00  0.00    -0.000 C 
BRANCH  11  12
ATOM     12  C   UNL     1     -29.292 -11.221  17.380  1.00  0.00    -0.003 C 
ATOM     13  C   UNL     1     -30.073 -12.535  17.327  1.00  0.00     0.004 C 
ENDBRANCH  11  12
ENDBRANCH  10  11
ENDBRANCH   9  10
ENDBRANCH   8   9
ENDBRANCH   1   8
TORSDOF 9
ENDMDL
