MODEL 1
REMARK VINA RESULT:    12.683      0.000      0.000
REMARK INTER + INTRA:          19.012
REMARK INTER:                  17.873
REMARK INTRA:                   1.139
REMARK UNBOUND:                 1.139
REMARK SMILES C[C@H](CO)CCC(=O)[C@@H](C)[C@@H]1C(=O)C[C@@H]2[C@@H]3CC=C4C[C@@H](O)CC[C@@]4(C)[C@@H]3CC[C@@]21C
REMARK SMILES IDX 6 1 5 2 2 3 1 4 3 5 4 6 7 8 8 9 9 10 10 11 11 12 12 13 30 14
REMARK SMILES IDX 13 15 14 16 15 17 29 18 31 19 16 20 28 21 27 22 17 23 25 24
REMARK SMILES IDX 18 25 19 26 24 27 26 28 20 29 23 30 21 31 22 32
REMARK H PARENT 4 7 22 33
REMARK Flexibility Score: inf
ROOT
ATOM      1  C   UNL     1       9.298 -34.761  12.875  1.00  0.00     0.076 C 
ENDROOT
BRANCH   1   2
ATOM      2  C   UNL     1      10.734 -34.234  13.063  1.00  0.00     0.013 C 
BRANCH   2   3
ATOM      3  C   UNL     1      10.837 -32.792  13.616  1.00  0.00     0.012 C 
ATOM      4  C   UNL     1       9.929 -31.797  12.876  1.00  0.00     0.010 C 
BRANCH   3   5
ATOM      5  C   UNL     1      12.286 -32.276  13.729  1.00  0.00     0.159 C 
BRANCH   5   6
ATOM      6  O   UNL     1      12.328 -30.953  14.198  1.00  0.00    -0.396 OA
ATOM      7  H   UNL     1      11.534 -30.501  13.812  1.00  0.00     0.210 HD
ENDBRANCH   5   6
ENDBRANCH   3   5
ENDBRANCH   2   3
ENDBRANCH   1   2
BRANCH   1   8
ATOM      8  C   UNL     1       9.119 -36.074  13.599  1.00  0.00     0.136 C 
ATOM      9  O   UNL     1      10.108 -36.658  14.024  1.00  0.00    -0.299 OA
BRANCH   8  10
ATOM     10  C   UNL     1       7.739 -36.666  13.834  1.00  0.00     0.064 C 
ATOM     11  C   UNL     1       7.893 -38.115  14.371  1.00  0.00     0.017 C 
BRANCH  10  12
ATOM     12  C   UNL     1       6.870 -35.683  14.702  1.00  0.00     0.072 C 
ATOM     13  C   UNL     1       6.341 -34.458  14.020  1.00  0.00     0.137 C 
ATOM     14  C   UNL     1       7.480 -35.116  16.027  1.00  0.00    -0.019 C 
ATOM     15  O   UNL     1       5.914 -34.443  12.875  1.00  0.00    -0.299 OA
ATOM     16  C   UNL     1       6.247 -33.282  14.927  1.00  0.00     0.080 C 
ATOM     17  C   UNL     1       6.549 -33.897  16.306  1.00  0.00     0.007 C 
ATOM     18  C   UNL     1       8.987 -34.682  15.883  1.00  0.00     0.008 C 
ATOM     19  C   UNL     1       7.349 -36.157  17.165  1.00  0.00     0.012 C 
ATOM     20  C   UNL     1       7.039 -32.930  17.425  1.00  0.00     0.001 C 
ATOM     21  C   UNL     1       9.302 -33.226  16.261  1.00  0.00     0.005 C 
ATOM     22  C   UNL     1       8.593 -32.790  17.557  1.00  0.00     0.003 C 
ATOM     23  C   UNL     1       6.308 -31.576  17.401  1.00  0.00     0.031 C 
ATOM     24  C   UNL     1       9.099 -31.389  18.117  1.00  0.00    -0.008 C 
ATOM     25  C   UNL     1       6.718 -30.783  18.605  1.00  0.00    -0.027 C 
ATOM     26  C   UNL     1       8.004 -30.764  19.014  1.00  0.00    -0.065 C 
ATOM     27  C   UNL     1      10.454 -31.601  18.886  1.00  0.00     0.014 C 
ATOM     28  C   UNL     1       9.385 -30.372  16.977  1.00  0.00     0.016 C 
ATOM     29  C   UNL     1       8.260 -30.222  20.413  1.00  0.00     0.063 C 
ATOM     30  C   UNL     1      10.291 -31.697  20.401  1.00  0.00     0.033 C 
ATOM     31  C   UNL     1       9.702 -30.385  20.912  1.00  0.00     0.118 C 
BRANCH  31  32
ATOM     32  O   UNL     1       9.728 -30.384  22.317  1.00  0.00    -0.393 OA
ATOM     33  H   UNL     1      10.604 -29.996  22.584  1.00  0.00     0.210 HD
ENDBRANCH  31  32
ENDBRANCH  10  12
ENDBRANCH   8  10
ENDBRANCH   1   8
TORSDOF 8
ENDMDL
MODEL 2
REMARK VINA RESULT:    15.413      2.260      4.427
REMARK INTER + INTRA:          22.859
REMARK INTER:                  17.938
REMARK INTRA:                   4.921
REMARK UNBOUND:                 1.139
REMARK SMILES C[C@H](CO)CCC(=O)[C@@H](C)[C@@H]1C(=O)C[C@@H]2[C@@H]3CC=C4C[C@@H](O)CC[C@@]4(C)[C@@H]3CC[C@@]21C
REMARK SMILES IDX 6 1 5 2 2 3 1 4 3 5 4 6 7 8 8 9 9 10 10 11 11 12 12 13 30 14
REMARK SMILES IDX 13 15 14 16 15 17 29 18 31 19 16 20 28 21 27 22 17 23 25 24
REMARK SMILES IDX 18 25 19 26 24 27 26 28 20 29 23 30 21 31 22 32
REMARK H PARENT 4 7 22 33
REMARK Flexibility Score: inf
ROOT
ATOM      1  C   UNL     1       7.871 -37.377  16.358  1.00  0.00     0.076 C 
ENDROOT
BRANCH   1   2
ATOM      2  C   UNL     1       7.234 -37.960  17.634  1.00  0.00     0.013 C 
BRANCH   2   3
ATOM      3  C   UNL     1       7.566 -37.200  18.941  1.00  0.00     0.012 C 
ATOM      4  C   UNL     1       8.288 -35.865  18.694  1.00  0.00     0.010 C 
BRANCH   3   5
ATOM      5  C   UNL     1       8.296 -38.064  19.990  1.00  0.00     0.159 C 
BRANCH   5   6
ATOM      6  O   UNL     1       9.659 -37.739  20.069  1.00  0.00    -0.396 OA
ATOM      7  H   UNL     1      10.029 -37.889  19.161  1.00  0.00     0.210 HD
ENDBRANCH   5   6
ENDBRANCH   3   5
ENDBRANCH   2   3
ENDBRANCH   1   2
BRANCH   1   8
ATOM      8  C   UNL     1       6.960 -37.582  15.172  1.00  0.00     0.136 C 
ATOM      9  O   UNL     1       5.875 -38.125  15.342  1.00  0.00    -0.299 OA
BRANCH   8  10
ATOM     10  C   UNL     1       7.349 -37.105  13.783  1.00  0.00     0.064 C 
ATOM     11  C   UNL     1       6.088 -37.099  12.876  1.00  0.00     0.017 C 
BRANCH  10  12
ATOM     12  C   UNL     1       8.151 -35.754  13.881  1.00  0.00     0.072 C 
ATOM     13  C   UNL     1       9.557 -35.833  14.395  1.00  0.00     0.137 C 
ATOM     14  C   UNL     1       7.536 -34.577  14.708  1.00  0.00    -0.019 C 
ATOM     15  O   UNL     1      10.339 -36.728  14.112  1.00  0.00    -0.299 OA
ATOM     16  C   UNL     1       9.960 -34.629  15.170  1.00  0.00     0.080 C 
ATOM     17  C   UNL     1       8.781 -33.667  14.934  1.00  0.00     0.007 C 
ATOM     18  C   UNL     1       6.894 -35.041  16.068  1.00  0.00     0.008 C 
ATOM     19  C   UNL     1       6.476 -33.827  13.865  1.00  0.00     0.012 C 
ATOM     20  C   UNL     1       8.584 -32.516  15.966  1.00  0.00     0.001 C 
ATOM     21  C   UNL     1       7.438 -34.355  17.332  1.00  0.00     0.005 C 
ATOM     22  C   UNL     1       7.607 -32.836  17.147  1.00  0.00     0.003 C 
ATOM     23  C   UNL     1       9.916 -31.900  16.429  1.00  0.00     0.031 C 
ATOM     24  C   UNL     1       7.914 -32.061  18.503  1.00  0.00    -0.008 C 
ATOM     25  C   UNL     1       9.625 -30.701  17.280  1.00  0.00    -0.027 C 
ATOM     26  C   UNL     1       8.626 -30.724  18.187  1.00  0.00    -0.065 C 
ATOM     27  C   UNL     1       6.570 -31.852  19.291  1.00  0.00     0.014 C 
ATOM     28  C   UNL     1       8.861 -32.868  19.437  1.00  0.00     0.016 C 
ATOM     29  C   UNL     1       8.193 -29.378  18.749  1.00  0.00     0.063 C 
ATOM     30  C   UNL     1       5.959 -30.466  19.104  1.00  0.00     0.033 C 
ATOM     31  C   UNL     1       6.940 -29.424  19.634  1.00  0.00     0.118 C 
BRANCH  31  32
ATOM     32  O   UNL     1       6.315 -28.165  19.648  1.00  0.00    -0.393 OA
ATOM     33  H   UNL     1       5.343 -28.330  19.511  1.00  0.00     0.210 HD
ENDBRANCH  31  32
ENDBRANCH  10  12
ENDBRANCH   8  10
ENDBRANCH   1   8
TORSDOF 8
ENDMDL
