MODEL 1
REMARK VINA RESULT:    -3.286      0.000      0.000
REMARK INTER + INTRA:          -6.118
REMARK INTER:                  -5.303
REMARK INTRA:                  -0.816
REMARK UNBOUND:                -0.816
REMARK SMILES CCCCCCCCCCCCO
REMARK SMILES IDX 7 1 6 2 5 3 4 4 3 5 2 6 1 7 8 8 9 9 10 10 11 11 12 12 13 13
REMARK H PARENT 13 14
REMARK Flexibility Score: inf
ROOT
ATOM      1  C   UNL     1     170.469 172.908 162.409  1.00  0.00     0.000 C 
ENDROOT
BRANCH   1   2
ATOM      2  C   UNL     1     169.597 174.056 162.931  1.00  0.00    -0.000 C 
BRANCH   2   3
ATOM      3  C   UNL     1     168.543 173.541 163.919  1.00  0.00    -0.000 C 
BRANCH   3   4
ATOM      4  C   UNL     1     167.167 173.435 163.251  1.00  0.00    -0.000 C 
BRANCH   4   5
ATOM      5  C   UNL     1     166.817 171.970 162.945  1.00  0.00    -0.000 C 
BRANCH   5   6
ATOM      6  C   UNL     1     166.367 171.763 161.491  1.00  0.00    -0.003 C 
ATOM      7  C   UNL     1     167.502 171.294 160.582  1.00  0.00     0.004 C 
ENDBRANCH   5   6
ENDBRANCH   4   5
ENDBRANCH   3   4
ENDBRANCH   2   3
ENDBRANCH   1   2
BRANCH   1   8
ATOM      8  C   UNL     1     170.819 171.927 163.533  1.00  0.00     0.000 C 
BRANCH   8   9
ATOM      9  C   UNL     1     172.292 171.505 163.459  1.00  0.00     0.000 C 
BRANCH   9  10
ATOM     10  C   UNL     1     172.965 172.075 162.206  1.00  0.00     0.002 C 
BRANCH  10  11
ATOM     11  C   UNL     1     174.432 171.637 162.122  1.00  0.00     0.028 C 
BRANCH  11  12
ATOM     12  C   UNL     1     174.709 170.878 160.825  1.00  0.00     0.156 C 
BRANCH  12  13
ATOM     13  O   UNL     1     175.844 170.073 160.988  1.00  0.00    -0.396 OA
ATOM     14  H   UNL     1     176.468 170.328 160.261  1.00  0.00     0.210 HD
ENDBRANCH  12  13
ENDBRANCH  11  12
ENDBRANCH  10  11
ENDBRANCH   9  10
ENDBRANCH   8   9
ENDBRANCH   1   8
TORSDOF 11
ENDMDL
MODEL 2
REMARK VINA RESULT:    -3.250     10.514     12.428
REMARK INTER + INTRA:          -6.061
REMARK INTER:                  -5.101
REMARK INTRA:                  -0.960
REMARK UNBOUND:                -0.816
REMARK SMILES CCCCCCCCCCCCO
REMARK SMILES IDX 7 1 6 2 5 3 4 4 3 5 2 6 1 7 8 8 9 9 10 10 11 11 12 12 13 13
REMARK H PARENT 13 14
REMARK Flexibility Score: inf
ROOT
ATOM      1  C   UNL     1     163.755 178.405 164.584  1.00  0.00     0.000 C 
ENDROOT
BRANCH   1   2
ATOM      2  C   UNL     1     163.987 179.056 165.953  1.00  0.00    -0.000 C 
BRANCH   2   3
ATOM      3  C   UNL     1     163.790 178.040 167.086  1.00  0.00    -0.000 C 
BRANCH   3   4
ATOM      4  C   UNL     1     164.527 178.482 168.355  1.00  0.00    -0.000 C 
BRANCH   4   5
ATOM      5  C   UNL     1     163.540 178.722 169.508  1.00  0.00    -0.000 C 
BRANCH   5   6
ATOM      6  C   UNL     1     162.074 178.638 169.056  1.00  0.00    -0.003 C 
ATOM      7  C   UNL     1     161.193 177.878 170.046  1.00  0.00     0.004 C 
ENDBRANCH   5   6
ENDBRANCH   4   5
ENDBRANCH   3   4
ENDBRANCH   2   3
ENDBRANCH   1   2
BRANCH   1   8
ATOM      8  C   UNL     1     162.374 177.743 164.517  1.00  0.00     0.000 C 
BRANCH   8   9
ATOM      9  C   UNL     1     161.257 178.790 164.607  1.00  0.00     0.000 C 
BRANCH   9  10
ATOM     10  C   UNL     1     160.021 178.218 165.309  1.00  0.00     0.002 C 
BRANCH  10  11
ATOM     11  C   UNL     1     160.389 176.999 166.164  1.00  0.00     0.028 C 
BRANCH  11  12
ATOM     12  C   UNL     1     159.209 176.036 166.290  1.00  0.00     0.156 C 
BRANCH  12  13
ATOM     13  O   UNL     1     159.645 174.837 166.867  1.00  0.00    -0.396 OA
ATOM     14  H   UNL     1     159.081 174.698 167.672  1.00  0.00     0.210 HD
ENDBRANCH  12  13
ENDBRANCH  11  12
ENDBRANCH  10  11
ENDBRANCH   9  10
ENDBRANCH   8   9
ENDBRANCH   1   8
TORSDOF 11
ENDMDL
MODEL 3
REMARK VINA RESULT:    -3.241     12.647     14.042
REMARK INTER + INTRA:          -6.046
REMARK INTER:                  -4.986
REMARK INTRA:                  -1.060
REMARK UNBOUND:                -0.816
REMARK SMILES CCCCCCCCCCCCO
REMARK SMILES IDX 7 1 6 2 5 3 4 4 3 5 2 6 1 7 8 8 9 9 10 10 11 11 12 12 13 13
REMARK H PARENT 13 14
REMARK Flexibility Score: inf
ROOT
ATOM      1  C   UNL     1     177.621 162.036 166.812  1.00  0.00     0.000 C 
ENDROOT
BRANCH   1   2
ATOM      2  C   UNL     1     177.663 163.505 167.249  1.00  0.00    -0.000 C 
BRANCH   2   3
ATOM      3  C   UNL     1     177.619 163.627 168.777  1.00  0.00    -0.000 C 
BRANCH   3   4
ATOM      4  C   UNL     1     176.434 162.847 169.358  1.00  0.00    -0.000 C 
BRANCH   4   5
ATOM      5  C   UNL     1     176.894 161.904 170.480  1.00  0.00    -0.000 C 
BRANCH   5   6
ATOM      6  C   UNL     1     178.413 161.672 170.470  1.00  0.00    -0.003 C 
ATOM      7  C   UNL     1     178.793 160.254 170.044  1.00  0.00     0.004 C 
ENDBRANCH   5   6
ENDBRANCH   4   5
ENDBRANCH   3   4
ENDBRANCH   2   3
ENDBRANCH   1   2
BRANCH   1   8
ATOM      8  C   UNL     1     179.018 161.535 166.431  1.00  0.00     0.000 C 
BRANCH   8   9
ATOM      9  C   UNL     1     179.010 160.885 165.041  1.00  0.00     0.000 C 
BRANCH   9  10
ATOM     10  C   UNL     1     178.789 161.931 163.944  1.00  0.00     0.002 C 
BRANCH  10  11
ATOM     11  C   UNL     1     177.726 161.463 162.943  1.00  0.00     0.028 C 
BRANCH  11  12
ATOM     12  C   UNL     1     176.846 160.368 163.544  1.00  0.00     0.156 C 
BRANCH  12  13
ATOM     13  O   UNL     1     175.644 160.929 163.994  1.00  0.00    -0.396 OA
ATOM     14  H   UNL     1     175.581 161.822 163.567  1.00  0.00     0.210 HD
ENDBRANCH  12  13
ENDBRANCH  11  12
ENDBRANCH  10  11
ENDBRANCH   9  10
ENDBRANCH   8   9
ENDBRANCH   1   8
TORSDOF 11
ENDMDL
MODEL 4
REMARK VINA RESULT:    -3.193      0.926      1.675
REMARK INTER + INTRA:          -5.969
REMARK INTER:                  -5.270
REMARK INTRA:                  -0.699
REMARK UNBOUND:                -0.816
REMARK SMILES CCCCCCCCCCCCO
REMARK SMILES IDX 7 1 6 2 5 3 4 4 3 5 2 6 1 7 8 8 9 9 10 10 11 11 12 12 13 13
REMARK H PARENT 13 14
REMARK Flexibility Score: inf
ROOT
ATOM      1  C   UNL     1     170.540 172.292 161.720  1.00  0.00     0.000 C 
ENDROOT
BRANCH   1   2
ATOM      2  C   UNL     1     170.436 172.361 163.249  1.00  0.00    -0.000 C 
BRANCH   2   3
ATOM      3  C   UNL     1     169.849 173.704 163.700  1.00  0.00    -0.000 C 
BRANCH   3   4
ATOM      4  C   UNL     1     168.393 173.544 164.155  1.00  0.00    -0.000 C 
BRANCH   4   5
ATOM      5  C   UNL     1     167.421 174.028 163.068  1.00  0.00    -0.000 C 
BRANCH   5   6
ATOM      6  C   UNL     1     166.219 173.089 162.891  1.00  0.00    -0.003 C 
ATOM      7  C   UNL     1     166.630 171.658 162.547  1.00  0.00     0.004 C 
ENDBRANCH   5   6
ENDBRANCH   4   5
ENDBRANCH   3   4
ENDBRANCH   2   3
ENDBRANCH   1   2
BRANCH   1   8
ATOM      8  C   UNL     1     171.898 171.729 161.286  1.00  0.00     0.000 C 
BRANCH   8   9
ATOM      9  C   UNL     1     172.840 171.576 162.487  1.00  0.00     0.000 C 
BRANCH   9  10
ATOM     10  C   UNL     1     174.274 171.289 162.030  1.00  0.00     0.002 C 
BRANCH  10  11
ATOM     11  C   UNL     1     174.341 171.111 160.508  1.00  0.00     0.028 C 
BRANCH  11  12
ATOM     12  C   UNL     1     175.752 170.735 160.058  1.00  0.00     0.156 C 
BRANCH  12  13
ATOM     13  O   UNL     1     176.368 169.960 161.049  1.00  0.00    -0.396 OA
ATOM     14  H   UNL     1     175.746 169.958 161.822  1.00  0.00     0.210 HD
ENDBRANCH  12  13
ENDBRANCH  11  12
ENDBRANCH  10  11
ENDBRANCH   9  10
ENDBRANCH   8   9
ENDBRANCH   1   8
TORSDOF 11
ENDMDL
MODEL 5
REMARK VINA RESULT:    -3.168      2.971      4.280
REMARK INTER + INTRA:          -5.929
REMARK INTER:                  -4.389
REMARK INTRA:                  -1.540
REMARK UNBOUND:                -0.816
REMARK SMILES CCCCCCCCCCCCO
REMARK SMILES IDX 7 1 6 2 5 3 4 4 3 5 2 6 1 7 8 8 9 9 10 10 11 11 12 12 13 13
REMARK H PARENT 13 14
REMARK Flexibility Score: inf
ROOT
ATOM      1  C   UNL     1     167.133 171.903 160.078  1.00  0.00     0.000 C 
ENDROOT
BRANCH   1   2
ATOM      2  C   UNL     1     166.269 171.136 161.086  1.00  0.00    -0.000 C 
BRANCH   2   3
ATOM      3  C   UNL     1     166.553 171.601 162.520  1.00  0.00    -0.000 C 
BRANCH   3   4
ATOM      4  C   UNL     1     165.835 172.922 162.822  1.00  0.00    -0.000 C 
BRANCH   4   5
ATOM      5  C   UNL     1     166.846 174.039 163.124  1.00  0.00    -0.000 C 
BRANCH   5   6
ATOM      6  C   UNL     1     166.767 175.194 162.113  1.00  0.00    -0.003 C 
ATOM      7  C   UNL     1     168.052 176.018 162.054  1.00  0.00     0.004 C 
ENDBRANCH   5   6
ENDBRANCH   4   5
ENDBRANCH   3   4
ENDBRANCH   2   3
ENDBRANCH   1   2
BRANCH   1   8
ATOM      8  C   UNL     1     168.625 171.709 160.371  1.00  0.00     0.000 C 
BRANCH   8   9
ATOM      9  C   UNL     1     169.422 172.975 160.032  1.00  0.00     0.000 C 
BRANCH   9  10
ATOM     10  C   UNL     1     170.415 173.317 161.148  1.00  0.00     0.002 C 
BRANCH  10  11
ATOM     11  C   UNL     1     170.135 172.486 162.407  1.00  0.00     0.028 C 
BRANCH  11  12
ATOM     12  C   UNL     1     170.925 173.014 163.604  1.00  0.00     0.156 C 
BRANCH  12  13
ATOM     13  O   UNL     1     170.735 174.397 163.714  1.00  0.00    -0.396 OA
ATOM     14  H   UNL     1     171.599 174.815 163.458  1.00  0.00     0.210 HD
ENDBRANCH  12  13
ENDBRANCH  11  12
ENDBRANCH  10  11
ENDBRANCH   9  10
ENDBRANCH   8   9
ENDBRANCH   1   8
TORSDOF 11
ENDMDL
MODEL 6
REMARK VINA RESULT:    -3.158      1.864      2.069
REMARK INTER + INTRA:          -5.913
REMARK INTER:                  -4.920
REMARK INTRA:                  -0.992
REMARK UNBOUND:                -0.816
REMARK SMILES CCCCCCCCCCCCO
REMARK SMILES IDX 7 1 6 2 5 3 4 4 3 5 2 6 1 7 8 8 9 9 10 10 11 11 12 12 13 13
REMARK H PARENT 13 14
REMARK Flexibility Score: inf
ROOT
ATOM      1  C   UNL     1     169.854 173.614 163.562  1.00  0.00     0.000 C 
ENDROOT
BRANCH   1   2
ATOM      2  C   UNL     1     168.435 173.464 164.123  1.00  0.00    -0.000 C 
BRANCH   2   3
ATOM      3  C   UNL     1     167.413 174.186 163.237  1.00  0.00    -0.000 C 
BRANCH   3   4
ATOM      4  C   UNL     1     166.228 173.271 162.905  1.00  0.00    -0.000 C 
BRANCH   4   5
ATOM      5  C   UNL     1     166.675 171.804 162.815  1.00  0.00    -0.000 C 
BRANCH   5   6
ATOM      6  C   UNL     1     166.701 171.283 161.370  1.00  0.00    -0.003 C 
ATOM      7  C   UNL     1     167.984 171.655 160.629  1.00  0.00     0.004 C 
ENDBRANCH   5   6
ENDBRANCH   4   5
ENDBRANCH   3   4
ENDBRANCH   2   3
ENDBRANCH   1   2
BRANCH   1   8
ATOM      8  C   UNL     1     170.556 172.255 163.469  1.00  0.00     0.000 C 
BRANCH   8   9
ATOM      9  C   UNL     1     172.042 172.376 163.830  1.00  0.00     0.000 C 
BRANCH   9  10
ATOM     10  C   UNL     1     172.920 172.301 162.577  1.00  0.00     0.002 C 
BRANCH  10  11
ATOM     11  C   UNL     1     172.164 171.653 161.411  1.00  0.00     0.028 C 
BRANCH  11  12
ATOM     12  C   UNL     1     172.182 172.549 160.174  1.00  0.00     0.156 C 
BRANCH  12  13
ATOM     13  O   UNL     1     171.955 173.877 160.556  1.00  0.00    -0.396 OA
ATOM     14  H   UNL     1     172.817 174.209 160.920  1.00  0.00     0.210 HD
ENDBRANCH  12  13
ENDBRANCH  11  12
ENDBRANCH  10  11
ENDBRANCH   9  10
ENDBRANCH   8   9
ENDBRANCH   1   8
TORSDOF 11
ENDMDL
MODEL 7
REMARK VINA RESULT:    -3.146      2.624      3.923
REMARK INTER + INTRA:          -5.893
REMARK INTER:                  -4.397
REMARK INTRA:                  -1.496
REMARK UNBOUND:                -0.816
REMARK SMILES CCCCCCCCCCCCO
REMARK SMILES IDX 7 1 6 2 5 3 4 4 3 5 2 6 1 7 8 8 9 9 10 10 11 11 12 12 13 13
REMARK H PARENT 13 14
REMARK Flexibility Score: inf
ROOT
ATOM      1  C   UNL     1     167.245 175.014 161.544  1.00  0.00     0.000 C 
ENDROOT
BRANCH   1   2
ATOM      2  C   UNL     1     165.995 175.203 162.411  1.00  0.00    -0.000 C 
BRANCH   2   3
ATOM      3  C   UNL     1     164.837 174.333 161.907  1.00  0.00    -0.000 C 
BRANCH   3   4
ATOM      4  C   UNL     1     164.995 172.882 162.375  1.00  0.00    -0.000 C 
BRANCH   4   5
ATOM      5  C   UNL     1     165.169 171.934 161.178  1.00  0.00    -0.000 C 
BRANCH   5   6
ATOM      6  C   UNL     1     166.485 171.143 161.238  1.00  0.00    -0.003 C 
ATOM      7  C   UNL     1     167.486 171.577 160.169  1.00  0.00     0.004 C 
ENDBRANCH   5   6
ENDBRANCH   4   5
ENDBRANCH   3   4
ENDBRANCH   2   3
ENDBRANCH   1   2
BRANCH   1   8
ATOM      8  C   UNL     1     168.493 174.819 162.414  1.00  0.00     0.000 C 
BRANCH   8   9
ATOM      9  C   UNL     1     168.173 173.977 163.655  1.00  0.00     0.000 C 
BRANCH   9  10
ATOM     10  C   UNL     1     168.842 172.600 163.573  1.00  0.00     0.002 C 
BRANCH  10  11
ATOM     11  C   UNL     1     170.104 172.652 162.704  1.00  0.00     0.028 C 
BRANCH  11  12
ATOM     12  C   UNL     1     171.365 172.481 163.551  1.00  0.00     0.156 C 
BRANCH  12  13
ATOM     13  O   UNL     1     171.682 173.699 164.166  1.00  0.00    -0.396 OA
ATOM     14  H   UNL     1     170.863 174.257 164.109  1.00  0.00     0.210 HD
ENDBRANCH  12  13
ENDBRANCH  11  12
ENDBRANCH  10  11
ENDBRANCH   9  10
ENDBRANCH   8   9
ENDBRANCH   1   8
TORSDOF 11
ENDMDL
MODEL 8
REMARK VINA RESULT:    -3.117     12.203     14.768
REMARK INTER + INTRA:          -5.846
REMARK INTER:                  -5.498
REMARK INTRA:                  -0.348
REMARK UNBOUND:                -0.816
REMARK SMILES CCCCCCCCCCCCO
REMARK SMILES IDX 7 1 6 2 5 3 4 4 3 5 2 6 1 7 8 8 9 9 10 10 11 11 12 12 13 13
REMARK H PARENT 13 14
REMARK Flexibility Score: inf
ROOT
ATOM      1  C   UNL     1     160.466 162.006 163.099  1.00  0.00     0.000 C 
ENDROOT
BRANCH   1   2
ATOM      2  C   UNL     1     160.036 161.655 164.528  1.00  0.00    -0.000 C 
BRANCH   2   3
ATOM      3  C   UNL     1     161.238 161.219 165.374  1.00  0.00    -0.000 C 
BRANCH   3   4
ATOM      4  C   UNL     1     160.836 161.015 166.839  1.00  0.00    -0.000 C 
BRANCH   4   5
ATOM      5  C   UNL     1     161.855 161.670 167.785  1.00  0.00    -0.000 C 
BRANCH   5   6
ATOM      6  C   UNL     1     161.184 162.476 168.908  1.00  0.00    -0.003 C 
ATOM      7  C   UNL     1     160.512 161.588 169.954  1.00  0.00     0.004 C 
ENDBRANCH   5   6
ENDBRANCH   4   5
ENDBRANCH   3   4
ENDBRANCH   2   3
ENDBRANCH   1   2
BRANCH   1   8
ATOM      8  C   UNL     1     159.437 162.920 162.424  1.00  0.00     0.000 C 
BRANCH   8   9
ATOM      9  C   UNL     1     160.068 163.695 161.260  1.00  0.00     0.000 C 
BRANCH   9  10
ATOM     10  C   UNL     1     159.341 165.023 161.025  1.00  0.00     0.002 C 
BRANCH  10  11
ATOM     11  C   UNL     1     159.257 165.842 162.318  1.00  0.00     0.028 C 
BRANCH  11  12
ATOM     12  C   UNL     1     159.819 167.249 162.119  1.00  0.00     0.156 C 
BRANCH  12  13
ATOM     13  O   UNL     1     160.749 167.236 161.072  1.00  0.00    -0.396 OA
ATOM     14  H   UNL     1     160.734 168.147 160.680  1.00  0.00     0.210 HD
ENDBRANCH  12  13
ENDBRANCH  11  12
ENDBRANCH  10  11
ENDBRANCH   9  10
ENDBRANCH   8   9
ENDBRANCH   1   8
TORSDOF 11
ENDMDL
MODEL 9
REMARK VINA RESULT:    -3.109      1.302      1.967
REMARK INTER + INTRA:          -5.834
REMARK INTER:                  -4.994
REMARK INTRA:                  -0.840
REMARK UNBOUND:                -0.816
REMARK SMILES CCCCCCCCCCCCO
REMARK SMILES IDX 7 1 6 2 5 3 4 4 3 5 2 6 1 7 8 8 9 9 10 10 11 11 12 12 13 13
REMARK H PARENT 13 14
REMARK Flexibility Score: inf
ROOT
ATOM      1  C   UNL     1     170.087 173.381 162.001  1.00  0.00     0.000 C 
ENDROOT
BRANCH   1   2
ATOM      2  C   UNL     1     169.988 173.736 163.489  1.00  0.00    -0.000 C 
BRANCH   2   3
ATOM      3  C   UNL     1     168.678 173.214 164.094  1.00  0.00    -0.000 C 
BRANCH   3   4
ATOM      4  C   UNL     1     167.608 173.027 163.011  1.00  0.00    -0.000 C 
BRANCH   4   5
ATOM      5  C   UNL     1     166.506 174.090 163.139  1.00  0.00    -0.000 C 
BRANCH   5   6
ATOM      6  C   UNL     1     166.488 175.066 161.953  1.00  0.00    -0.003 C 
ATOM      7  C   UNL     1     167.542 176.165 162.074  1.00  0.00     0.004 C 
ENDBRANCH   5   6
ENDBRANCH   4   5
ENDBRANCH   3   4
ENDBRANCH   2   3
ENDBRANCH   1   2
BRANCH   1   8
ATOM      8  C   UNL     1     171.342 172.548 161.717  1.00  0.00     0.000 C 
BRANCH   8   9
ATOM      9  C   UNL     1     171.822 171.825 162.982  1.00  0.00     0.000 C 
BRANCH   9  10
ATOM     10  C   UNL     1     173.239 171.272 162.796  1.00  0.00     0.002 C 
BRANCH  10  11
ATOM     11  C   UNL     1     174.100 172.231 161.966  1.00  0.00     0.028 C 
BRANCH  11  12
ATOM     12  C   UNL     1     174.819 171.492 160.838  1.00  0.00     0.156 C 
BRANCH  12  13
ATOM     13  O   UNL     1     175.318 170.276 161.321  1.00  0.00    -0.396 OA
ATOM     14  H   UNL     1     175.585 169.752 160.522  1.00  0.00     0.210 HD
ENDBRANCH  12  13
ENDBRANCH  11  12
ENDBRANCH  10  11
ENDBRANCH   9  10
ENDBRANCH   8   9
ENDBRANCH   1   8
TORSDOF 11
ENDMDL
