MODEL 1
REMARK VINA RESULT:    -6.294      0.000      0.000
REMARK INTER + INTRA:          -7.895
REMARK INTER:                  -7.582
REMARK INTRA:                  -0.313
REMARK UNBOUND:                -0.313
REMARK SMILES Oc1cc(O)c2c(c1)O[C@@H](c1ccc(O)c(O)c1)[C@@H](O)C2
REMARK SMILES IDX 21 1 19 2 10 3 9 4 7 5 8 6 2 7 3 8 4 9 6 10 20 11 11 13
REMARK SMILES IDX 18 14 12 15 16 16 13 17 14 18 17 19 15 21 5 23 1 25
REMARK H PARENT 20 12 17 20 15 22 5 24 1 26
REMARK Flexibility Score: inf
ROOT
ATOM      1  C   UNL     1       9.734 -17.025   8.164  1.00  0.00     0.079 C 
ATOM      2  C   UNL     1      11.253 -16.765   8.162  1.00  0.00     0.164 C 
ATOM      3  C   UNL     1      11.761 -16.709   6.711  1.00  0.00     0.232 C 
ATOM      4  O   UNL     1      11.059 -15.698   5.990  1.00  0.00    -0.482 OA
ATOM      5  C   UNL     1       9.688 -15.478   6.163  1.00  0.00     0.131 A 
ATOM      6  C   UNL     1       9.024 -14.610   5.292  1.00  0.00     0.093 A 
ATOM      7  C   UNL     1       7.651 -14.386   5.433  1.00  0.00     0.122 A 
ATOM      8  C   UNL     1       6.940 -15.039   6.441  1.00  0.00     0.092 A 
ATOM      9  C   UNL     1       7.589 -15.913   7.323  1.00  0.00     0.126 A 
ATOM     10  C   UNL     1       8.986 -16.110   7.214  1.00  0.00     0.039 A 
ENDROOT
BRANCH   2  11
ATOM     11  O   UNL     1      11.530 -15.551   8.813  1.00  0.00    -0.389 OA
ATOM     12  H   UNL     1      11.665 -15.765   9.774  1.00  0.00     0.211 HD
ENDBRANCH   2  11
BRANCH   3  13
ATOM     13  C   UNL     1      13.252 -16.463   6.656  1.00  0.00    -0.001 A 
ATOM     14  C   UNL     1      13.795 -15.498   5.789  1.00  0.00     0.057 A 
ATOM     15  C   UNL     1      14.109 -17.159   7.525  1.00  0.00     0.012 A 
ATOM     16  C   UNL     1      15.172 -15.251   5.769  1.00  0.00     0.157 A 
ATOM     17  C   UNL     1      15.484 -16.915   7.508  1.00  0.00     0.050 A 
ATOM     18  C   UNL     1      16.023 -15.965   6.631  1.00  0.00     0.157 A 
BRANCH  16  19
ATOM     19  O   UNL     1      15.677 -14.294   4.890  1.00  0.00    -0.504 OA
ATOM     20  H   UNL     1      15.471 -14.311   3.899  1.00  0.00     0.293 HD
ENDBRANCH  16  19
BRANCH  18  21
ATOM     21  O   UNL     1      17.395 -15.724   6.616  1.00  0.00    -0.504 OA
ATOM     22  H   UNL     1      18.049 -16.348   7.074  1.00  0.00     0.293 HD
ENDBRANCH  18  21
ENDBRANCH   3  13
BRANCH   9  23
ATOM     23  O   UNL     1       6.815 -16.572   8.282  1.00  0.00    -0.507 OA
ATOM     24  H   UNL     1       6.856 -17.570   8.438  1.00  0.00     0.293 HD
ENDBRANCH   9  23
BRANCH   7  25
ATOM     25  O   UNL     1       6.981 -13.521   4.570  1.00  0.00    -0.508 OA
ATOM     26  H   UNL     1       6.142 -13.031   4.858  1.00  0.00     0.293 HD
ENDBRANCH   7  25
TORSDOF 6
ENDMDL
MODEL 2
REMARK VINA RESULT:    -6.190      3.184      8.621
REMARK INTER + INTRA:          -7.769
REMARK INTER:                  -7.377
REMARK INTRA:                  -0.392
REMARK UNBOUND:                -0.313
REMARK SMILES Oc1cc(O)c2c(c1)O[C@@H](c1ccc(O)c(O)c1)[C@@H](O)C2
REMARK SMILES IDX 21 1 19 2 10 3 9 4 7 5 8 6 2 7 3 8 4 9 6 10 20 11 11 13
REMARK SMILES IDX 18 14 12 15 16 16 13 17 14 18 17 19 15 21 5 23 1 25
REMARK H PARENT 20 12 17 20 15 22 5 24 1 26
REMARK Flexibility Score: inf
ROOT
ATOM      1  C   UNL     1       7.053 -13.682   5.758  1.00  0.00     0.079 C 
ATOM      2  C   UNL     1       5.918 -13.878   6.782  1.00  0.00     0.164 C 
ATOM      3  C   UNL     1       5.599 -15.378   6.910  1.00  0.00     0.232 C 
ATOM      4  O   UNL     1       6.773 -16.093   7.291  1.00  0.00    -0.482 OA
ATOM      5  C   UNL     1       8.034 -15.783   6.770  1.00  0.00     0.131 A 
ATOM      6  C   UNL     1       9.107 -16.638   7.031  1.00  0.00     0.093 A 
ATOM      7  C   UNL     1      10.374 -16.360   6.509  1.00  0.00     0.122 A 
ATOM      8  C   UNL     1      10.564 -15.227   5.714  1.00  0.00     0.092 A 
ATOM      9  C   UNL     1       9.501 -14.358   5.442  1.00  0.00     0.126 A 
ATOM     10  C   UNL     1       8.227 -14.610   6.005  1.00  0.00     0.039 A 
ENDROOT
BRANCH   2  11
ATOM     11  O   UNL     1       6.307 -13.364   8.031  1.00  0.00    -0.389 OA
ATOM     12  H   UNL     1       5.659 -12.647   8.260  1.00  0.00     0.211 HD
ENDBRANCH   2  11
BRANCH   3  13
ATOM     13  C   UNL     1       4.483 -15.623   7.900  1.00  0.00    -0.001 A 
ATOM     14  C   UNL     1       4.712 -16.345   9.085  1.00  0.00     0.057 A 
ATOM     15  C   UNL     1       3.212 -15.071   7.673  1.00  0.00     0.012 A 
ATOM     16  C   UNL     1       3.683 -16.538  10.014  1.00  0.00     0.157 A 
ATOM     17  C   UNL     1       2.182 -15.262   8.597  1.00  0.00     0.050 A 
ATOM     18  C   UNL     1       2.410 -15.996   9.768  1.00  0.00     0.157 A 
BRANCH  16  19
ATOM     19  O   UNL     1       3.944 -17.267  11.173  1.00  0.00    -0.504 OA
ATOM     20  H   UNL     1       3.491 -17.058  12.054  1.00  0.00     0.293 HD
ENDBRANCH  16  19
BRANCH  18  21
ATOM     21  O   UNL     1       1.380 -16.185  10.688  1.00  0.00    -0.504 OA
ATOM     22  H   UNL     1       1.554 -16.575  11.607  1.00  0.00     0.293 HD
ENDBRANCH  18  21
ENDBRANCH   3  13
BRANCH   9  23
ATOM     23  O   UNL     1       9.743 -13.267   4.604  1.00  0.00    -0.507 OA
ATOM     24  H   UNL     1      10.030 -12.359   4.942  1.00  0.00     0.293 HD
ENDBRANCH   9  23
BRANCH   7  25
ATOM     25  O   UNL     1      11.450 -17.208   6.765  1.00  0.00    -0.508 OA
ATOM     26  H   UNL     1      11.342 -18.045   7.325  1.00  0.00     0.293 HD
ENDBRANCH   7  25
TORSDOF 6
ENDMDL
MODEL 3
REMARK VINA RESULT:    -6.162      6.428      9.435
REMARK INTER + INTRA:          -7.735
REMARK INTER:                  -7.677
REMARK INTRA:                  -0.059
REMARK UNBOUND:                -0.313
REMARK SMILES Oc1cc(O)c2c(c1)O[C@@H](c1ccc(O)c(O)c1)[C@@H](O)C2
REMARK SMILES IDX 21 1 19 2 10 3 9 4 7 5 8 6 2 7 3 8 4 9 6 10 20 11 11 13
REMARK SMILES IDX 18 14 12 15 16 16 13 17 14 18 17 19 15 21 5 23 1 25
REMARK H PARENT 20 12 17 20 15 22 5 24 1 26
REMARK Flexibility Score: inf
ROOT
ATOM      1  C   UNL     1      11.560 -15.200  14.633  1.00  0.00     0.079 C 
ATOM      2  C   UNL     1      10.301 -14.324  14.773  1.00  0.00     0.164 C 
ATOM      3  C   UNL     1      10.164 -13.422  13.535  1.00  0.00     0.232 C 
ATOM      4  O   UNL     1      10.113 -14.222  12.354  1.00  0.00    -0.482 OA
ATOM      5  C   UNL     1      10.912 -15.360  12.193  1.00  0.00     0.131 A 
ATOM      6  C   UNL     1      10.958 -15.987  10.945  1.00  0.00     0.093 A 
ATOM      7  C   UNL     1      11.761 -17.115  10.753  1.00  0.00     0.122 A 
ATOM      8  C   UNL     1      12.527 -17.611  11.810  1.00  0.00     0.092 A 
ATOM      9  C   UNL     1      12.493 -16.996  13.067  1.00  0.00     0.126 A 
ATOM     10  C   UNL     1      11.649 -15.881  13.281  1.00  0.00     0.039 A 
ENDROOT
BRANCH   2  11
ATOM     11  O   UNL     1       9.163 -15.140  14.898  1.00  0.00    -0.389 OA
ATOM     12  H   UNL     1       8.514 -14.834  14.212  1.00  0.00     0.211 HD
ENDBRANCH   2  11
BRANCH   3  13
ATOM     13  C   UNL     1       8.943 -12.535  13.628  1.00  0.00    -0.001 A 
ATOM     14  C   UNL     1       8.364 -12.229  14.873  1.00  0.00     0.057 A 
ATOM     15  C   UNL     1       8.410 -11.953  12.466  1.00  0.00     0.012 A 
ATOM     16  C   UNL     1       7.256 -11.378  14.955  1.00  0.00     0.157 A 
ATOM     17  C   UNL     1       7.303 -11.104  12.544  1.00  0.00     0.050 A 
ATOM     18  C   UNL     1       6.720 -10.815  13.785  1.00  0.00     0.157 A 
BRANCH  16  19
ATOM     19  O   UNL     1       6.703 -11.104  16.205  1.00  0.00    -0.504 OA
ATOM     20  H   UNL     1       6.790 -10.196  16.645  1.00  0.00     0.293 HD
ENDBRANCH  16  19
BRANCH  18  21
ATOM     21  O   UNL     1       5.615  -9.968  13.859  1.00  0.00    -0.504 OA
ATOM     22  H   UNL     1       5.036  -9.923  14.689  1.00  0.00     0.293 HD
ENDBRANCH  18  21
ENDBRANCH   3  13
BRANCH   9  23
ATOM     23  O   UNL     1      13.317 -17.510  14.072  1.00  0.00    -0.507 OA
ATOM     24  H   UNL     1      12.969 -17.836  14.964  1.00  0.00     0.293 HD
ENDBRANCH   9  23
BRANCH   7  25
ATOM     25  O   UNL     1      11.811 -17.747   9.512  1.00  0.00    -0.508 OA
ATOM     26  H   UNL     1      11.171 -17.502   8.767  1.00  0.00     0.293 HD
ENDBRANCH   7  25
TORSDOF 6
ENDMDL
MODEL 4
REMARK VINA RESULT:    -6.151      4.978      5.954
REMARK INTER + INTRA:          -7.723
REMARK INTER:                  -7.333
REMARK INTRA:                  -0.389
REMARK UNBOUND:                -0.313
REMARK SMILES Oc1cc(O)c2c(c1)O[C@@H](c1ccc(O)c(O)c1)[C@@H](O)C2
REMARK SMILES IDX 21 1 19 2 10 3 9 4 7 5 8 6 2 7 3 8 4 9 6 10 20 11 11 13
REMARK SMILES IDX 18 14 12 15 16 16 13 17 14 18 17 19 15 21 5 23 1 25
REMARK H PARENT 20 12 17 20 15 22 5 24 1 26
REMARK Flexibility Score: inf
ROOT
ATOM      1  C   UNL     1       4.904 -15.610  10.411  1.00  0.00     0.079 C 
ATOM      2  C   UNL     1       6.126 -15.469  11.339  1.00  0.00     0.164 C 
ATOM      3  C   UNL     1       7.387 -15.949  10.601  1.00  0.00     0.232 C 
ATOM      4  O   UNL     1       7.559 -15.202   9.397  1.00  0.00    -0.482 OA
ATOM      5  C   UNL     1       6.477 -14.846   8.584  1.00  0.00     0.131 A 
ATOM      6  C   UNL     1       6.726 -14.287   7.327  1.00  0.00     0.093 A 
ATOM      7  C   UNL     1       5.664 -13.937   6.488  1.00  0.00     0.122 A 
ATOM      8  C   UNL     1       4.349 -14.155   6.905  1.00  0.00     0.092 A 
ATOM      9  C   UNL     1       4.080 -14.714   8.161  1.00  0.00     0.126 A 
ATOM     10  C   UNL     1       5.149 -15.029   9.033  1.00  0.00     0.039 A 
ENDROOT
BRANCH   2  11
ATOM     11  O   UNL     1       6.280 -14.126  11.725  1.00  0.00    -0.389 OA
ATOM     12  H   UNL     1       6.226 -14.105  12.717  1.00  0.00     0.211 HD
ENDBRANCH   2  11
BRANCH   3  13
ATOM     13  C   UNL     1       8.616 -15.837  11.475  1.00  0.00    -0.001 A 
ATOM     14  C   UNL     1       9.699 -15.021  11.100  1.00  0.00     0.057 A 
ATOM     15  C   UNL     1       8.660 -16.505  12.709  1.00  0.00     0.012 A 
ATOM     16  C   UNL     1      10.818 -14.894  11.931  1.00  0.00     0.157 A 
ATOM     17  C   UNL     1       9.776 -16.381  13.541  1.00  0.00     0.050 A 
ATOM     18  C   UNL     1      10.859 -15.580  13.157  1.00  0.00     0.157 A 
BRANCH  16  19
ATOM     19  O   UNL     1      11.876 -14.083  11.524  1.00  0.00    -0.504 OA
ATOM     20  H   UNL     1      11.782 -13.079  11.438  1.00  0.00     0.293 HD
ENDBRANCH  16  19
BRANCH  18  21
ATOM     21  O   UNL     1      11.970 -15.460  13.989  1.00  0.00    -0.504 OA
ATOM     22  H   UNL     1      12.096 -16.058  14.797  1.00  0.00     0.293 HD
ENDBRANCH  18  21
ENDBRANCH   3  13
BRANCH   9  23
ATOM     23  O   UNL     1       2.746 -14.950   8.502  1.00  0.00    -0.507 OA
ATOM     24  H   UNL     1       2.118 -14.227   8.826  1.00  0.00     0.293 HD
ENDBRANCH   9  23
BRANCH   7  25
ATOM     25  O   UNL     1       5.903 -13.379   5.235  1.00  0.00    -0.508 OA
ATOM     26  H   UNL     1       6.073 -12.387   5.121  1.00  0.00     0.293 HD
ENDBRANCH   7  25
TORSDOF 6
ENDMDL
MODEL 5
REMARK VINA RESULT:    -6.135      4.154      7.414
REMARK INTER + INTRA:          -7.703
REMARK INTER:                  -7.484
REMARK INTRA:                  -0.220
REMARK UNBOUND:                -0.313
REMARK SMILES Oc1cc(O)c2c(c1)O[C@@H](c1ccc(O)c(O)c1)[C@@H](O)C2
REMARK SMILES IDX 21 1 19 2 10 3 9 4 7 5 8 6 2 7 3 8 4 9 6 10 20 11 11 13
REMARK SMILES IDX 18 14 12 15 16 16 13 17 14 18 17 19 15 21 5 23 1 25
REMARK H PARENT 20 12 17 20 15 22 5 24 1 26
REMARK Flexibility Score: inf
ROOT
ATOM      1  C   UNL     1       2.882 -14.363   8.391  1.00  0.00     0.079 C 
ATOM      2  C   UNL     1       4.110 -14.544   7.477  1.00  0.00     0.164 C 
ATOM      3  C   UNL     1       5.319 -14.974   8.325  1.00  0.00     0.232 C 
ATOM      4  O   UNL     1       5.014 -16.176   9.032  1.00  0.00    -0.482 OA
ATOM      5  C   UNL     1       3.758 -16.401   9.606  1.00  0.00     0.131 A 
ATOM      6  C   UNL     1       3.583 -17.503  10.446  1.00  0.00     0.093 A 
ATOM      7  C   UNL     1       2.343 -17.742  11.046  1.00  0.00     0.122 A 
ATOM      8  C   UNL     1       1.278 -16.869  10.812  1.00  0.00     0.092 A 
ATOM      9  C   UNL     1       1.435 -15.758   9.973  1.00  0.00     0.126 A 
ATOM     10  C   UNL     1       2.675 -15.536   9.328  1.00  0.00     0.039 A 
ENDROOT
BRANCH   2  11
ATOM     11  O   UNL     1       3.838 -15.519   6.501  1.00  0.00    -0.389 OA
ATOM     12  H   UNL     1       3.704 -16.377   6.984  1.00  0.00     0.211 HD
ENDBRANCH   2  11
BRANCH   3  13
ATOM     13  C   UNL     1       6.554 -15.159   7.472  1.00  0.00    -0.001 A 
ATOM     14  C   UNL     1       6.795 -14.335   6.358  1.00  0.00     0.057 A 
ATOM     15  C   UNL     1       7.512 -16.122   7.828  1.00  0.00     0.012 A 
ATOM     16  C   UNL     1       7.957 -14.488   5.594  1.00  0.00     0.157 A 
ATOM     17  C   UNL     1       8.674 -16.278   7.067  1.00  0.00     0.050 A 
ATOM     18  C   UNL     1       8.901 -15.467   5.949  1.00  0.00     0.157 A 
BRANCH  16  19
ATOM     19  O   UNL     1       8.158 -13.660   4.491  1.00  0.00    -0.504 OA
ATOM     20  H   UNL     1       9.084 -13.418   4.160  1.00  0.00     0.293 HD
ENDBRANCH  16  19
BRANCH  18  21
ATOM     21  O   UNL     1      10.061 -15.626   5.192  1.00  0.00    -0.504 OA
ATOM     22  H   UNL     1      10.802 -14.935   5.205  1.00  0.00     0.293 HD
ENDBRANCH  18  21
ENDBRANCH   3  13
BRANCH   9  23
ATOM     23  O   UNL     1       0.347 -14.896   9.815  1.00  0.00    -0.507 OA
ATOM     24  H   UNL     1      -0.269 -14.920   9.014  1.00  0.00     0.293 HD
ENDBRANCH   9  23
BRANCH   7  25
ATOM     25  O   UNL     1       2.158 -18.840  11.884  1.00  0.00    -0.508 OA
ATOM     26  H   UNL     1       1.584 -18.780  12.716  1.00  0.00     0.293 HD
ENDBRANCH   7  25
TORSDOF 6
ENDMDL
MODEL 6
REMARK VINA RESULT:    -6.097      3.975      8.730
REMARK INTER + INTRA:          -7.658
REMARK INTER:                  -7.406
REMARK INTRA:                  -0.252
REMARK UNBOUND:                -0.313
REMARK SMILES Oc1cc(O)c2c(c1)O[C@@H](c1ccc(O)c(O)c1)[C@@H](O)C2
REMARK SMILES IDX 21 1 19 2 10 3 9 4 7 5 8 6 2 7 3 8 4 9 6 10 20 11 11 13
REMARK SMILES IDX 18 14 12 15 16 16 13 17 14 18 17 19 15 21 5 23 1 25
REMARK H PARENT 20 12 17 20 15 22 5 24 1 26
REMARK Flexibility Score: inf
ROOT
ATOM      1  C   UNL     1       4.799 -14.456   6.734  1.00  0.00     0.079 C 
ATOM      2  C   UNL     1       4.308 -14.862   8.137  1.00  0.00     0.164 C 
ATOM      3  C   UNL     1       4.720 -16.317   8.421  1.00  0.00     0.232 C 
ATOM      4  O   UNL     1       6.136 -16.452   8.306  1.00  0.00    -0.482 OA
ATOM      5  C   UNL     1       6.865 -15.798   7.307  1.00  0.00     0.131 A 
ATOM      6  C   UNL     1       8.212 -16.121   7.127  1.00  0.00     0.093 A 
ATOM      7  C   UNL     1       8.960 -15.495   6.126  1.00  0.00     0.122 A 
ATOM      8  C   UNL     1       8.354 -14.549   5.295  1.00  0.00     0.092 A 
ATOM      9  C   UNL     1       7.005 -14.212   5.460  1.00  0.00     0.126 A 
ATOM     10  C   UNL     1       6.255 -14.810   6.501  1.00  0.00     0.039 A 
ENDROOT
BRANCH   2  11
ATOM     11  O   UNL     1       4.867 -14.009   9.104  1.00  0.00    -0.389 OA
ATOM     12  H   UNL     1       5.852 -14.039   8.977  1.00  0.00     0.211 HD
ENDBRANCH   2  11
BRANCH   3  13
ATOM     13  C   UNL     1       4.253 -16.766   9.788  1.00  0.00    -0.001 A 
ATOM     14  C   UNL     1       5.101 -16.684  10.906  1.00  0.00     0.057 A 
ATOM     15  C   UNL     1       2.934 -17.216   9.963  1.00  0.00     0.012 A 
ATOM     16  C   UNL     1       4.650 -17.068  12.174  1.00  0.00     0.157 A 
ATOM     17  C   UNL     1       2.480 -17.601  11.227  1.00  0.00     0.050 A 
ATOM     18  C   UNL     1       3.334 -17.533  12.336  1.00  0.00     0.157 A 
BRANCH  16  19
ATOM     19  O   UNL     1       5.522 -16.981  13.258  1.00  0.00    -0.504 OA
ATOM     20  H   UNL     1       5.267 -17.311  14.182  1.00  0.00     0.293 HD
ENDBRANCH  16  19
BRANCH  18  21
ATOM     21  O   UNL     1       2.879 -17.919  13.595  1.00  0.00    -0.504 OA
ATOM     22  H   UNL     1       2.435 -18.817  13.747  1.00  0.00     0.293 HD
ENDBRANCH  18  21
ENDBRANCH   3  13
BRANCH   9  23
ATOM     23  O   UNL     1       6.444 -13.294   4.570  1.00  0.00    -0.507 OA
ATOM     24  H   UNL     1       6.518 -12.292   4.684  1.00  0.00     0.293 HD
ENDBRANCH   9  23
BRANCH   7  25
ATOM     25  O   UNL     1      10.305 -15.810   5.940  1.00  0.00    -0.508 OA
ATOM     26  H   UNL     1      10.945 -15.876   6.722  1.00  0.00     0.293 HD
ENDBRANCH   7  25
TORSDOF 6
ENDMDL
MODEL 7
REMARK VINA RESULT:    -6.066      5.260      8.524
REMARK INTER + INTRA:          -7.620
REMARK INTER:                  -7.313
REMARK INTRA:                  -0.306
REMARK UNBOUND:                -0.313
REMARK SMILES Oc1cc(O)c2c(c1)O[C@@H](c1ccc(O)c(O)c1)[C@@H](O)C2
REMARK SMILES IDX 21 1 19 2 10 3 9 4 7 5 8 6 2 7 3 8 4 9 6 10 20 11 11 13
REMARK SMILES IDX 18 14 12 15 16 16 13 17 14 18 17 19 15 21 5 23 1 25
REMARK H PARENT 20 12 17 20 15 22 5 24 1 26
REMARK Flexibility Score: inf
ROOT
ATOM      1  C   UNL     1       3.756 -17.602  10.617  1.00  0.00     0.079 C 
ATOM      2  C   UNL     1       4.753 -16.754   9.803  1.00  0.00     0.164 C 
ATOM      3  C   UNL     1       4.100 -16.330   8.477  1.00  0.00     0.232 C 
ATOM      4  O   UNL     1       2.895 -15.610   8.737  1.00  0.00    -0.482 OA
ATOM      5  C   UNL     1       2.013 -15.983   9.757  1.00  0.00     0.131 A 
ATOM      6  C   UNL     1       0.764 -15.362   9.837  1.00  0.00     0.093 A 
ATOM      7  C   UNL     1      -0.143 -15.727  10.836  1.00  0.00     0.122 A 
ATOM      8  C   UNL     1       0.198 -16.725  11.752  1.00  0.00     0.092 A 
ATOM      9  C   UNL     1       1.445 -17.359  11.688  1.00  0.00     0.126 A 
ATOM     10  C   UNL     1       2.385 -16.962  10.707  1.00  0.00     0.039 A 
ENDROOT
BRANCH   2  11
ATOM     11  O   UNL     1       5.124 -15.616  10.540  1.00  0.00    -0.389 OA
ATOM     12  H   UNL     1       4.424 -14.929  10.378  1.00  0.00     0.211 HD
ENDBRANCH   2  11
BRANCH   3  13
ATOM     13  C   UNL     1       5.044 -15.500   7.637  1.00  0.00    -0.001 A 
ATOM     14  C   UNL     1       6.394 -15.864   7.491  1.00  0.00     0.057 A 
ATOM     15  C   UNL     1       4.559 -14.382   6.937  1.00  0.00     0.012 A 
ATOM     16  C   UNL     1       7.254 -15.110   6.683  1.00  0.00     0.157 A 
ATOM     17  C   UNL     1       5.414 -13.627   6.130  1.00  0.00     0.050 A 
ATOM     18  C   UNL     1       6.762 -13.984   6.001  1.00  0.00     0.157 A 
BRANCH  16  19
ATOM     19  O   UNL     1       8.589 -15.496   6.569  1.00  0.00    -0.504 OA
ATOM     20  H   UNL     1       8.857 -16.423   6.264  1.00  0.00     0.293 HD
ENDBRANCH  16  19
BRANCH  18  21
ATOM     21  O   UNL     1       7.613 -13.228   5.196  1.00  0.00    -0.504 OA
ATOM     22  H   UNL     1       7.376 -12.285   4.913  1.00  0.00     0.293 HD
ENDBRANCH  18  21
ENDBRANCH   3  13
BRANCH   9  23
ATOM     23  O   UNL     1       1.710 -18.381  12.603  1.00  0.00    -0.507 OA
ATOM     24  H   UNL     1       1.881 -18.216  13.586  1.00  0.00     0.293 HD
ENDBRANCH   9  23
BRANCH   7  25
ATOM     25  O   UNL     1      -1.390 -15.112  10.923  1.00  0.00    -0.508 OA
ATOM     26  H   UNL     1      -2.178 -15.434  10.375  1.00  0.00     0.293 HD
ENDBRANCH   7  25
TORSDOF 6
ENDMDL
MODEL 8
REMARK VINA RESULT:    -6.065      1.830      7.072
REMARK INTER + INTRA:          -7.619
REMARK INTER:                  -7.612
REMARK INTRA:                  -0.007
REMARK UNBOUND:                -0.313
REMARK SMILES Oc1cc(O)c2c(c1)O[C@@H](c1ccc(O)c(O)c1)[C@@H](O)C2
REMARK SMILES IDX 21 1 19 2 10 3 9 4 7 5 8 6 2 7 3 8 4 9 6 10 20 11 11 13
REMARK SMILES IDX 18 14 12 15 16 16 13 17 14 18 17 19 15 21 5 23 1 25
REMARK H PARENT 20 12 17 20 15 22 5 24 1 26
REMARK Flexibility Score: inf
ROOT
ATOM      1  C   UNL     1      12.185 -16.596   6.124  1.00  0.00     0.079 C 
ATOM      2  C   UNL     1      10.869 -15.800   6.025  1.00  0.00     0.164 C 
ATOM      3  C   UNL     1       9.873 -16.325   7.073  1.00  0.00     0.232 C 
ATOM      4  O   UNL     1      10.445 -16.226   8.377  1.00  0.00    -0.482 OA
ATOM      5  C   UNL     1      11.792 -16.514   8.621  1.00  0.00     0.131 A 
ATOM      6  C   UNL     1      12.243 -16.587   9.942  1.00  0.00     0.093 A 
ATOM      7  C   UNL     1      13.581 -16.889  10.214  1.00  0.00     0.122 A 
ATOM      8  C   UNL     1      14.467 -17.127   9.161  1.00  0.00     0.092 A 
ATOM      9  C   UNL     1      14.034 -17.058   7.831  1.00  0.00     0.126 A 
ATOM     10  C   UNL     1      12.691 -16.709   7.549  1.00  0.00     0.039 A 
ENDROOT
BRANCH   2  11
ATOM     11  O   UNL     1      11.120 -14.435   6.245  1.00  0.00    -0.389 OA
ATOM     12  H   UNL     1      10.977 -14.269   7.214  1.00  0.00     0.211 HD
ENDBRANCH   2  11
BRANCH   3  13
ATOM     13  C   UNL     1       8.560 -15.578   7.011  1.00  0.00    -0.001 A 
ATOM     14  C   UNL     1       8.202 -14.837   5.871  1.00  0.00     0.057 A 
ATOM     15  C   UNL     1       7.651 -15.672   8.077  1.00  0.00     0.012 A 
ATOM     16  C   UNL     1       6.969 -14.177   5.806  1.00  0.00     0.157 A 
ATOM     17  C   UNL     1       6.419 -15.014   8.016  1.00  0.00     0.050 A 
ATOM     18  C   UNL     1       6.074 -14.264   6.885  1.00  0.00     0.157 A 
BRANCH  16  19
ATOM     19  O   UNL     1       6.652 -13.445   4.663  1.00  0.00    -0.504 OA
ATOM     20  H   UNL     1       6.445 -13.890   3.778  1.00  0.00     0.293 HD
ENDBRANCH  16  19
BRANCH  18  21
ATOM     21  O   UNL     1       4.845 -13.608   6.828  1.00  0.00    -0.504 OA
ATOM     22  H   UNL     1       4.651 -12.794   7.398  1.00  0.00     0.293 HD
ENDBRANCH  18  21
ENDBRANCH   3  13
BRANCH   9  23
ATOM     23  O   UNL     1      14.956 -17.352   6.824  1.00  0.00    -0.507 OA
ATOM     24  H   UNL     1      14.826 -17.085   5.857  1.00  0.00     0.293 HD
ENDBRANCH   9  23
BRANCH   7  25
ATOM     25  O   UNL     1      14.039 -16.962  11.528  1.00  0.00    -0.508 OA
ATOM     26  H   UNL     1      14.856 -16.446  11.833  1.00  0.00     0.293 HD
ENDBRANCH   7  25
TORSDOF 6
ENDMDL
MODEL 9
REMARK VINA RESULT:    -6.037      4.077      9.155
REMARK INTER + INTRA:          -7.586
REMARK INTER:                  -7.203
REMARK INTRA:                  -0.383
REMARK UNBOUND:                -0.313
REMARK SMILES Oc1cc(O)c2c(c1)O[C@@H](c1ccc(O)c(O)c1)[C@@H](O)C2
REMARK SMILES IDX 21 1 19 2 10 3 9 4 7 5 8 6 2 7 3 8 4 9 6 10 20 11 11 13
REMARK SMILES IDX 18 14 12 15 16 16 13 17 14 18 17 19 15 21 5 23 1 25
REMARK H PARENT 20 12 17 20 15 22 5 24 1 26
REMARK Flexibility Score: inf
ROOT
ATOM      1  C   UNL     1       4.632 -14.428   6.699  1.00  0.00     0.079 C 
ATOM      2  C   UNL     1       4.073 -14.838   8.076  1.00  0.00     0.164 C 
ATOM      3  C   UNL     1       4.447 -16.302   8.364  1.00  0.00     0.232 C 
ATOM      4  O   UNL     1       5.864 -16.461   8.310  1.00  0.00    -0.482 OA
ATOM      5  C   UNL     1       6.648 -15.811   7.350  1.00  0.00     0.131 A 
ATOM      6  C   UNL     1       7.996 -16.156   7.226  1.00  0.00     0.093 A 
ATOM      7  C   UNL     1       8.797 -15.534   6.264  1.00  0.00     0.122 A 
ATOM      8  C   UNL     1       8.244 -14.570   5.417  1.00  0.00     0.092 A 
ATOM      9  C   UNL     1       6.895 -14.212   5.526  1.00  0.00     0.126 A 
ATOM     10  C   UNL     1       6.090 -14.805   6.527  1.00  0.00     0.039 A 
ENDROOT
BRANCH   2  11
ATOM     11  O   UNL     1       4.603 -14.003   9.074  1.00  0.00    -0.389 OA
ATOM     12  H   UNL     1       4.181 -13.111   8.956  1.00  0.00     0.211 HD
ENDBRANCH   2  11
BRANCH   3  13
ATOM     13  C   UNL     1       3.913 -16.755   9.705  1.00  0.00    -0.001 A 
ATOM     14  C   UNL     1       2.530 -16.878   9.929  1.00  0.00     0.057 A 
ATOM     15  C   UNL     1       4.805 -17.122  10.726  1.00  0.00     0.012 A 
ATOM     16  C   UNL     1       2.044 -17.332  11.160  1.00  0.00     0.157 A 
ATOM     17  C   UNL     1       4.324 -17.575  11.956  1.00  0.00     0.050 A 
ATOM     18  C   UNL     1       2.945 -17.680  12.181  1.00  0.00     0.157 A 
BRANCH  16  19
ATOM     19  O   UNL     1       0.667 -17.432  11.350  1.00  0.00    -0.504 OA
ATOM     20  H   UNL     1       0.226 -18.293  11.649  1.00  0.00     0.293 HD
ENDBRANCH  16  19
BRANCH  18  21
ATOM     21  O   UNL     1       2.469 -18.131  13.411  1.00  0.00    -0.504 OA
ATOM     22  H   UNL     1       1.583 -17.813  13.786  1.00  0.00     0.293 HD
ENDBRANCH  18  21
ENDBRANCH   3  13
BRANCH   9  23
ATOM     23  O   UNL     1       6.389 -13.276   4.620  1.00  0.00    -0.507 OA
ATOM     24  H   UNL     1       5.763 -13.517   3.864  1.00  0.00     0.293 HD
ENDBRANCH   9  23
BRANCH   7  25
ATOM     25  O   UNL     1      10.143 -15.871   6.135  1.00  0.00    -0.508 OA
ATOM     26  H   UNL     1      10.436 -16.826   5.972  1.00  0.00     0.293 HD
ENDBRANCH   7  25
TORSDOF 6
ENDMDL
