MODEL 1
REMARK VINA RESULT:    -6.091      0.000      0.000
REMARK INTER + INTRA:          -7.592
REMARK INTER:                  -7.337
REMARK INTRA:                  -0.254
REMARK UNBOUND:                -0.254
REMARK SMILES O=c1c(O)c(-c2ccc(O)cc2O)oc2cc(O)cc(O)c12
REMARK SMILES IDX 5 1 3 2 2 3 1 4 22 5 20 6 19 7 17 8 16 9 15 10 14 11 6 12
REMARK SMILES IDX 8 13 7 14 9 15 11 16 12 17 10 18 13 20 4 22 21 24 18 26
REMARK H PARENT 10 19 13 21 4 23 21 25 18 27
REMARK Flexibility Score: inf
ROOT
ATOM      1  C   UNL     1      -2.348 -17.890 -22.453  1.00  0.00     0.184 A 
ATOM      2  C   UNL     1      -3.217 -16.887 -21.998  1.00  0.00     0.208 A 
ATOM      3  C   UNL     1      -4.371 -17.256 -21.287  1.00  0.00     0.238 A 
ATOM      4  O   UNL     1      -5.176 -16.356 -20.935  1.00  0.00    -0.285 OA
ATOM      5  C   UNL     1      -4.623 -18.623 -21.017  1.00  0.00     0.111 A 
ATOM      6  C   UNL     1      -5.739 -19.110 -20.272  1.00  0.00     0.134 A 
ATOM      7  C   UNL     1      -5.954 -20.490 -20.172  1.00  0.00     0.093 A 
ATOM      8  C   UNL     1      -5.060 -21.400 -20.733  1.00  0.00     0.123 A 
ATOM      9  C   UNL     1      -3.934 -20.937 -21.413  1.00  0.00     0.094 A 
ATOM     10  C   UNL     1      -3.712 -19.566 -21.563  1.00  0.00     0.146 A 
ATOM     11  O   UNL     1      -2.636 -19.167 -22.230  1.00  0.00    -0.451 OA
ENDROOT
BRANCH   1  12
ATOM     12  C   UNL     1      -1.107 -17.560 -23.186  1.00  0.00     0.063 A 
ATOM     13  C   UNL     1       0.165 -17.617 -25.260  1.00  0.00     0.047 A 
ATOM     14  C   UNL     1      -0.972 -17.963 -24.527  1.00  0.00     0.020 A 
ATOM     15  C   UNL     1       1.179 -16.860 -24.670  1.00  0.00     0.119 A 
ATOM     16  C   UNL     1       1.054 -16.452 -23.336  1.00  0.00     0.093 A 
ATOM     17  C   UNL     1      -0.076 -16.801 -22.586  1.00  0.00     0.130 A 
BRANCH  15  18
ATOM     18  O   UNL     1       2.304 -16.518 -25.415  1.00  0.00    -0.508 OA
ATOM     19  H   UNL     1       2.362 -15.637 -25.913  1.00  0.00     0.293 HD
ENDBRANCH  15  18
BRANCH  17  20
ATOM     20  O   UNL     1      -0.131 -16.399 -21.249  1.00  0.00    -0.507 OA
ATOM     21  H   UNL     1       0.497 -16.755 -20.540  1.00  0.00     0.293 HD
ENDBRANCH  17  20
ENDBRANCH   1  12
BRANCH   2  22
ATOM     22  O   UNL     1      -2.940 -15.545 -22.276  1.00  0.00    -0.502 OA
ATOM     23  H   UNL     1      -3.555 -14.793 -21.988  1.00  0.00     0.293 HD
ENDBRANCH   2  22
BRANCH   6  24
ATOM     24  O   UNL     1      -6.645 -18.287 -19.594  1.00  0.00    -0.507 OA
ATOM     25  H   UNL     1      -7.110 -17.489 -19.998  1.00  0.00     0.293 HD
ENDBRANCH   6  24
BRANCH   8  26
ATOM     26  O   UNL     1      -5.297 -22.767 -20.599  1.00  0.00    -0.508 OA
ATOM     27  H   UNL     1      -4.944 -23.291 -19.807  1.00  0.00     0.293 HD
ENDBRANCH   8  26
TORSDOF 6
ENDMDL
MODEL 2
REMARK VINA RESULT:    -5.984      1.996      2.931
REMARK INTER + INTRA:          -7.463
REMARK INTER:                  -7.108
REMARK INTRA:                  -0.354
REMARK UNBOUND:                -0.254
REMARK SMILES O=c1c(O)c(-c2ccc(O)cc2O)oc2cc(O)cc(O)c12
REMARK SMILES IDX 5 1 3 2 2 3 1 4 22 5 20 6 19 7 17 8 16 9 15 10 14 11 6 12
REMARK SMILES IDX 8 13 7 14 9 15 11 16 12 17 10 18 13 20 4 22 21 24 18 26
REMARK H PARENT 10 19 13 21 4 23 21 25 18 27
REMARK Flexibility Score: inf
ROOT
ATOM      1  C   UNL     1      -1.365 -17.433 -24.256  1.00  0.00     0.184 A 
ATOM      2  C   UNL     1      -2.097 -16.242 -24.368  1.00  0.00     0.208 A 
ATOM      3  C   UNL     1      -3.036 -15.923 -23.374  1.00  0.00     0.238 A 
ATOM      4  O   UNL     1      -3.732 -14.884 -23.512  1.00  0.00    -0.285 OA
ATOM      5  C   UNL     1      -3.209 -16.789 -22.266  1.00  0.00     0.111 A 
ATOM      6  C   UNL     1      -4.103 -16.547 -21.180  1.00  0.00     0.134 A 
ATOM      7  C   UNL     1      -4.281 -17.531 -20.200  1.00  0.00     0.093 A 
ATOM      8  C   UNL     1      -3.552 -18.718 -20.231  1.00  0.00     0.123 A 
ATOM      9  C   UNL     1      -2.632 -18.940 -21.255  1.00  0.00     0.094 A 
ATOM     10  C   UNL     1      -2.459 -17.994 -22.269  1.00  0.00     0.146 A 
ATOM     11  O   UNL     1      -1.583 -18.251 -23.233  1.00  0.00    -0.451 OA
ENDROOT
BRANCH   1  12
ATOM     12  C   UNL     1      -0.347 -17.809 -25.259  1.00  0.00     0.063 A 
ATOM     13  C   UNL     1       0.247 -19.073 -27.253  1.00  0.00     0.047 A 
ATOM     14  C   UNL     1      -0.676 -18.741 -26.260  1.00  0.00     0.020 A 
ATOM     15  C   UNL     1       1.509 -18.476 -27.267  1.00  0.00     0.119 A 
ATOM     16  C   UNL     1       1.849 -17.545 -26.277  1.00  0.00     0.093 A 
ATOM     17  C   UNL     1       0.935 -17.212 -25.269  1.00  0.00     0.130 A 
BRANCH  15  18
ATOM     18  O   UNL     1       2.418 -18.813 -28.267  1.00  0.00    -0.508 OA
ATOM     19  H   UNL     1       3.414 -18.852 -28.086  1.00  0.00     0.293 HD
ENDBRANCH  15  18
BRANCH  17  20
ATOM     20  O   UNL     1       1.339 -16.305 -24.286  1.00  0.00    -0.507 OA
ATOM     21  H   UNL     1       0.693 -15.854 -23.652  1.00  0.00     0.293 HD
ENDBRANCH  17  20
ENDBRANCH   1  12
BRANCH   2  22
ATOM     22  O   UNL     1      -1.903 -15.405 -25.471  1.00  0.00    -0.502 OA
ATOM     23  H   UNL     1      -2.619 -15.258 -26.173  1.00  0.00     0.293 HD
ENDBRANCH   2  22
BRANCH   6  24
ATOM     24  O   UNL     1      -4.815 -15.356 -21.004  1.00  0.00    -0.507 OA
ATOM     25  H   UNL     1      -5.820 -15.288 -20.958  1.00  0.00     0.293 HD
ENDBRANCH   6  24
BRANCH   8  26
ATOM     26  O   UNL     1      -3.743 -19.668 -19.229  1.00  0.00    -0.508 OA
ATOM     27  H   UNL     1      -3.924 -19.398 -18.270  1.00  0.00     0.293 HD
ENDBRANCH   8  26
TORSDOF 6
ENDMDL
MODEL 3
REMARK VINA RESULT:    -5.927      1.462      1.946
REMARK INTER + INTRA:          -7.394
REMARK INTER:                  -6.981
REMARK INTRA:                  -0.413
REMARK UNBOUND:                -0.254
REMARK SMILES O=c1c(O)c(-c2ccc(O)cc2O)oc2cc(O)cc(O)c12
REMARK SMILES IDX 5 1 3 2 2 3 1 4 22 5 20 6 19 7 17 8 16 9 15 10 14 11 6 12
REMARK SMILES IDX 8 13 7 14 9 15 11 16 12 17 10 18 13 20 4 22 21 24 18 26
REMARK H PARENT 10 19 13 21 4 23 21 25 18 27
REMARK Flexibility Score: inf
ROOT
ATOM      1  C   UNL     1      -1.797 -17.378 -22.949  1.00  0.00     0.184 A 
ATOM      2  C   UNL     1      -2.256 -16.355 -22.107  1.00  0.00     0.208 A 
ATOM      3  C   UNL     1      -3.112 -16.682 -21.043  1.00  0.00     0.238 A 
ATOM      4  O   UNL     1      -3.569 -15.752 -20.329  1.00  0.00    -0.285 OA
ATOM      5  C   UNL     1      -3.473 -18.033 -20.819  1.00  0.00     0.111 A 
ATOM      6  C   UNL     1      -4.301 -18.484 -19.749  1.00  0.00     0.134 A 
ATOM      7  C   UNL     1      -4.692 -19.828 -19.697  1.00  0.00     0.093 A 
ATOM      8  C   UNL     1      -4.233 -20.748 -20.638  1.00  0.00     0.123 A 
ATOM      9  C   UNL     1      -3.375 -20.330 -21.655  1.00  0.00     0.094 A 
ATOM     10  C   UNL     1      -2.998 -18.989 -21.756  1.00  0.00     0.146 A 
ATOM     11  O   UNL     1      -2.192 -18.630 -22.748  1.00  0.00    -0.451 OA
ENDROOT
BRANCH   1  12
ATOM     12  C   UNL     1      -0.876 -17.097 -24.071  1.00  0.00     0.063 A 
ATOM     13  C   UNL     1       1.398 -17.049 -24.939  1.00  0.00     0.047 A 
ATOM     14  C   UNL     1       0.509 -17.254 -23.882  1.00  0.00     0.020 A 
ATOM     15  C   UNL     1       0.918 -16.692 -26.201  1.00  0.00     0.119 A 
ATOM     16  C   UNL     1      -0.458 -16.536 -26.403  1.00  0.00     0.093 A 
ATOM     17  C   UNL     1      -1.360 -16.728 -25.348  1.00  0.00     0.130 A 
BRANCH  15  18
ATOM     18  O   UNL     1       1.816 -16.497 -27.247  1.00  0.00    -0.508 OA
ATOM     19  H   UNL     1       2.372 -15.652 -27.318  1.00  0.00     0.293 HD
ENDBRANCH  15  18
BRANCH  17  20
ATOM     20  O   UNL     1      -2.719 -16.522 -25.596  1.00  0.00    -0.507 OA
ATOM     21  H   UNL     1      -3.398 -16.372 -24.860  1.00  0.00     0.293 HD
ENDBRANCH  17  20
ENDBRANCH   1  12
BRANCH   2  22
ATOM     22  O   UNL     1      -1.881 -15.030 -22.350  1.00  0.00    -0.502 OA
ATOM     23  H   UNL     1      -1.236 -14.776 -23.088  1.00  0.00     0.293 HD
ENDBRANCH   2  22
BRANCH   6  24
ATOM     24  O   UNL     1      -4.743 -17.667 -18.704  1.00  0.00    -0.507 OA
ATOM     25  H   UNL     1      -5.079 -18.001 -17.814  1.00  0.00     0.293 HD
ENDBRANCH   6  24
BRANCH   8  26
ATOM     26  O   UNL     1      -4.629 -22.081 -20.546  1.00  0.00    -0.508 OA
ATOM     27  H   UNL     1      -5.161 -22.528 -21.283  1.00  0.00     0.293 HD
ENDBRANCH   8  26
TORSDOF 6
ENDMDL
MODEL 4
REMARK VINA RESULT:    -5.803      1.841      6.744
REMARK INTER + INTRA:          -7.245
REMARK INTER:                  -6.875
REMARK INTRA:                  -0.370
REMARK UNBOUND:                -0.254
REMARK SMILES O=c1c(O)c(-c2ccc(O)cc2O)oc2cc(O)cc(O)c12
REMARK SMILES IDX 5 1 3 2 2 3 1 4 22 5 20 6 19 7 17 8 16 9 15 10 14 11 6 12
REMARK SMILES IDX 8 13 7 14 9 15 11 16 12 17 10 18 13 20 4 22 21 24 18 26
REMARK H PARENT 10 19 13 21 4 23 21 25 18 27
REMARK Flexibility Score: inf
ROOT
ATOM      1  C   UNL     1      -1.579 -17.606 -22.873  1.00  0.00     0.184 A 
ATOM      2  C   UNL     1      -0.463 -16.835 -22.516  1.00  0.00     0.208 A 
ATOM      3  C   UNL     1       0.610 -16.732 -23.417  1.00  0.00     0.238 A 
ATOM      4  O   UNL     1       1.633 -16.090 -23.066  1.00  0.00    -0.285 OA
ATOM      5  C   UNL     1       0.537 -17.379 -24.675  1.00  0.00     0.111 A 
ATOM      6  C   UNL     1       1.546 -17.311 -25.681  1.00  0.00     0.134 A 
ATOM      7  C   UNL     1       1.422 -18.090 -26.838  1.00  0.00     0.093 A 
ATOM      8  C   UNL     1       0.297 -18.884 -27.054  1.00  0.00     0.123 A 
ATOM      9  C   UNL     1      -0.724 -18.913 -26.104  1.00  0.00     0.094 A 
ATOM     10  C   UNL     1      -0.612 -18.176 -24.922  1.00  0.00     0.146 A 
ATOM     11  O   UNL     1      -1.600 -18.243 -24.037  1.00  0.00    -0.451 OA
ENDROOT
BRANCH   1  12
ATOM     12  C   UNL     1      -2.747 -17.731 -21.975  1.00  0.00     0.063 A 
ATOM     13  C   UNL     1      -3.729 -18.661 -19.951  1.00  0.00     0.047 A 
ATOM     14  C   UNL     1      -2.661 -18.566 -20.846  1.00  0.00     0.020 A 
ATOM     15  C   UNL     1      -4.893 -17.920 -20.165  1.00  0.00     0.119 A 
ATOM     16  C   UNL     1      -4.990 -17.085 -21.284  1.00  0.00     0.093 A 
ATOM     17  C   UNL     1      -3.930 -16.989 -22.196  1.00  0.00     0.130 A 
BRANCH  15  18
ATOM     18  O   UNL     1      -5.947 -18.021 -19.260  1.00  0.00    -0.508 OA
ATOM     19  H   UNL     1      -6.831 -17.553 -19.423  1.00  0.00     0.293 HD
ENDBRANCH  15  18
BRANCH  17  20
ATOM     20  O   UNL     1      -4.095 -16.169 -23.314  1.00  0.00    -0.507 OA
ATOM     21  H   UNL     1      -4.969 -15.710 -23.539  1.00  0.00     0.293 HD
ENDBRANCH  17  20
ENDBRANCH   1  12
BRANCH   2  22
ATOM     22  O   UNL     1      -0.419 -16.205 -21.269  1.00  0.00    -0.502 OA
ATOM     23  H   UNL     1      -0.000 -16.640 -20.456  1.00  0.00     0.293 HD
ENDBRANCH   2  22
BRANCH   6  24
ATOM     24  O   UNL     1       2.669 -16.481 -25.607  1.00  0.00    -0.507 OA
ATOM     25  H   UNL     1       3.609 -16.762 -25.840  1.00  0.00     0.293 HD
ENDBRANCH   6  24
BRANCH   8  26
ATOM     26  O   UNL     1       0.199 -19.634 -28.225  1.00  0.00    -0.508 OA
ATOM     27  H   UNL     1      -0.651 -20.128 -28.468  1.00  0.00     0.293 HD
ENDBRANCH   8  26
TORSDOF 6
ENDMDL
MODEL 5
REMARK VINA RESULT:    -5.531      1.550      6.619
REMARK INTER + INTRA:          -6.917
REMARK INTER:                  -6.515
REMARK INTRA:                  -0.402
REMARK UNBOUND:                -0.254
REMARK SMILES O=c1c(O)c(-c2ccc(O)cc2O)oc2cc(O)cc(O)c12
REMARK SMILES IDX 5 1 3 2 2 3 1 4 22 5 20 6 19 7 17 8 16 9 15 10 14 11 6 12
REMARK SMILES IDX 8 13 7 14 9 15 11 16 12 17 10 18 13 20 4 22 21 24 18 26
REMARK H PARENT 10 19 13 21 4 23 21 25 18 27
REMARK Flexibility Score: inf
ROOT
ATOM      1  C   UNL     1      -2.631 -18.256 -21.963  1.00  0.00     0.184 A 
ATOM      2  C   UNL     1      -1.927 -17.411 -21.092  1.00  0.00     0.208 A 
ATOM      3  C   UNL     1      -0.767 -16.769 -21.555  1.00  0.00     0.238 A 
ATOM      4  O   UNL     1      -0.108 -16.061 -20.751  1.00  0.00    -0.285 OA
ATOM      5  C   UNL     1      -0.343 -16.961 -22.893  1.00  0.00     0.111 A 
ATOM      6  C   UNL     1       0.794 -16.331 -23.481  1.00  0.00     0.134 A 
ATOM      7  C   UNL     1       1.190 -16.689 -24.776  1.00  0.00     0.093 A 
ATOM      8  C   UNL     1       0.454 -17.604 -25.526  1.00  0.00     0.123 A 
ATOM      9  C   UNL     1      -0.694 -18.182 -24.983  1.00  0.00     0.094 A 
ATOM     10  C   UNL     1      -1.093 -17.874 -23.681  1.00  0.00     0.146 A 
ATOM     11  O   UNL     1      -2.183 -18.458 -23.197  1.00  0.00    -0.451 OA
ENDROOT
BRANCH   1  12
ATOM     12  C   UNL     1      -3.871 -18.939 -21.539  1.00  0.00     0.063 A 
ATOM     13  C   UNL     1      -6.276 -18.854 -21.170  1.00  0.00     0.047 A 
ATOM     14  C   UNL     1      -5.080 -18.220 -21.513  1.00  0.00     0.020 A 
ATOM     15  C   UNL     1      -6.285 -20.214 -20.854  1.00  0.00     0.119 A 
ATOM     16  C   UNL     1      -5.088 -20.941 -20.878  1.00  0.00     0.093 A 
ATOM     17  C   UNL     1      -3.880 -20.315 -21.211  1.00  0.00     0.130 A 
BRANCH  15  18
ATOM     18  O   UNL     1      -7.486 -20.834 -20.519  1.00  0.00    -0.508 OA
ATOM     19  H   UNL     1      -7.899 -21.544 -21.113  1.00  0.00     0.293 HD
ENDBRANCH  15  18
BRANCH  17  20
ATOM     20  O   UNL     1      -2.711 -21.079 -21.183  1.00  0.00    -0.507 OA
ATOM     21  H   UNL     1      -2.048 -21.102 -21.947  1.00  0.00     0.293 HD
ENDBRANCH  17  20
ENDBRANCH   1  12
BRANCH   2  22
ATOM     22  O   UNL     1      -2.371 -17.238 -19.778  1.00  0.00    -0.502 OA
ATOM     23  H   UNL     1      -1.833 -16.728 -19.087  1.00  0.00     0.293 HD
ENDBRANCH   2  22
BRANCH   6  24
ATOM     24  O   UNL     1       1.549 -15.336 -22.852  1.00  0.00    -0.507 OA
ATOM     25  H   UNL     1       1.400 -15.011 -21.909  1.00  0.00     0.293 HD
ENDBRANCH   6  24
BRANCH   8  26
ATOM     26  O   UNL     1       0.868 -17.924 -26.818  1.00  0.00    -0.508 OA
ATOM     27  H   UNL     1       0.208 -17.998 -27.583  1.00  0.00     0.293 HD
ENDBRANCH   8  26
TORSDOF 6
ENDMDL
MODEL 6
REMARK VINA RESULT:    -4.921      4.023      7.515
REMARK INTER + INTRA:          -6.182
REMARK INTER:                  -5.765
REMARK INTRA:                  -0.417
REMARK UNBOUND:                -0.254
REMARK SMILES O=c1c(O)c(-c2ccc(O)cc2O)oc2cc(O)cc(O)c12
REMARK SMILES IDX 5 1 3 2 2 3 1 4 22 5 20 6 19 7 17 8 16 9 15 10 14 11 6 12
REMARK SMILES IDX 8 13 7 14 9 15 11 16 12 17 10 18 13 20 4 22 21 24 18 26
REMARK H PARENT 10 19 13 21 4 23 21 25 18 27
REMARK Flexibility Score: inf
ROOT
ATOM      1  C   UNL     1      -6.304 -20.125 -20.281  1.00  0.00     0.184 A 
ATOM      2  C   UNL     1      -5.187 -19.337 -19.965  1.00  0.00     0.208 A 
ATOM      3  C   UNL     1      -4.969 -18.146 -20.677  1.00  0.00     0.238 A 
ATOM      4  O   UNL     1      -3.934 -17.476 -20.430  1.00  0.00    -0.285 OA
ATOM      5  C   UNL     1      -5.890 -17.746 -21.677  1.00  0.00     0.111 A 
ATOM      6  C   UNL     1      -5.791 -16.540 -22.434  1.00  0.00     0.134 A 
ATOM      7  C   UNL     1      -6.691 -16.307 -23.481  1.00  0.00     0.093 A 
ATOM      8  C   UNL     1      -7.723 -17.202 -23.757  1.00  0.00     0.123 A 
ATOM      9  C   UNL     1      -7.864 -18.356 -22.986  1.00  0.00     0.094 A 
ATOM     10  C   UNL     1      -6.960 -18.636 -21.958  1.00  0.00     0.146 A 
ATOM     11  O   UNL     1      -7.122 -19.752 -21.258  1.00  0.00    -0.451 OA
ENDROOT
BRANCH   1  12
ATOM     12  C   UNL     1      -6.596 -21.376 -19.550  1.00  0.00     0.063 A 
ATOM     13  C   UNL     1      -7.779 -22.510 -17.751  1.00  0.00     0.047 A 
ATOM     14  C   UNL     1      -7.442 -21.336 -18.427  1.00  0.00     0.020 A 
ATOM     15  C   UNL     1      -7.284 -23.740 -18.188  1.00  0.00     0.119 A 
ATOM     16  C   UNL     1      -6.443 -23.793 -19.306  1.00  0.00     0.093 A 
ATOM     17  C   UNL     1      -6.088 -22.621 -19.987  1.00  0.00     0.130 A 
BRANCH  15  18
ATOM     18  O   UNL     1      -7.634 -24.904 -17.507  1.00  0.00    -0.508 OA
ATOM     19  H   UNL     1      -8.042 -25.697 -17.988  1.00  0.00     0.293 HD
ENDBRANCH  15  18
BRANCH  17  20
ATOM     20  O   UNL     1      -5.216 -22.728 -21.074  1.00  0.00    -0.507 OA
ATOM     21  H   UNL     1      -5.374 -23.361 -21.847  1.00  0.00     0.293 HD
ENDBRANCH  17  20
ENDBRANCH   1  12
BRANCH   2  22
ATOM     22  O   UNL     1      -4.297 -19.755 -18.971  1.00  0.00    -0.502 OA
ATOM     23  H   UNL     1      -3.621 -20.494 -19.124  1.00  0.00     0.293 HD
ENDBRANCH   2  22
BRANCH   6  24
ATOM     24  O   UNL     1      -4.853 -15.535 -22.183  1.00  0.00    -0.507 OA
ATOM     25  H   UNL     1      -3.903 -15.696 -21.884  1.00  0.00     0.293 HD
ENDBRANCH   6  24
BRANCH   8  26
ATOM     26  O   UNL     1      -8.610 -16.929 -24.797  1.00  0.00    -0.508 OA
ATOM     27  H   UNL     1      -8.845 -15.979 -25.057  1.00  0.00     0.293 HD
ENDBRANCH   8  26
TORSDOF 6
ENDMDL
MODEL 7
REMARK VINA RESULT:    -4.844      2.818      7.654
REMARK INTER + INTRA:          -6.090
REMARK INTER:                  -5.727
REMARK INTRA:                  -0.362
REMARK UNBOUND:                -0.254
REMARK SMILES O=c1c(O)c(-c2ccc(O)cc2O)oc2cc(O)cc(O)c12
REMARK SMILES IDX 5 1 3 2 2 3 1 4 22 5 20 6 19 7 17 8 16 9 15 10 14 11 6 12
REMARK SMILES IDX 8 13 7 14 9 15 11 16 12 17 10 18 13 20 4 22 21 24 18 26
REMARK H PARENT 10 19 13 21 4 23 21 25 18 27
REMARK Flexibility Score: inf
ROOT
ATOM      1  C   UNL     1      -6.308 -20.338 -19.986  1.00  0.00     0.184 A 
ATOM      2  C   UNL     1      -7.264 -19.619 -20.720  1.00  0.00     0.208 A 
ATOM      3  C   UNL     1      -6.852 -18.503 -21.466  1.00  0.00     0.238 A 
ATOM      4  O   UNL     1      -7.723 -17.828 -22.072  1.00  0.00    -0.285 OA
ATOM      5  C   UNL     1      -5.483 -18.140 -21.491  1.00  0.00     0.111 A 
ATOM      6  C   UNL     1      -4.946 -17.053 -22.244  1.00  0.00     0.134 A 
ATOM      7  C   UNL     1      -3.597 -16.710 -22.097  1.00  0.00     0.093 A 
ATOM      8  C   UNL     1      -2.750 -17.454 -21.276  1.00  0.00     0.123 A 
ATOM      9  C   UNL     1      -3.251 -18.554 -20.580  1.00  0.00     0.094 A 
ATOM     10  C   UNL     1      -4.601 -18.899 -20.676  1.00  0.00     0.146 A 
ATOM     11  O   UNL     1      -5.040 -19.945 -19.986  1.00  0.00    -0.451 OA
ENDROOT
BRANCH   1  12
ATOM     12  C   UNL     1      -6.679 -21.534 -19.201  1.00  0.00     0.063 A 
ATOM     13  C   UNL     1      -7.848 -22.494 -17.293  1.00  0.00     0.047 A 
ATOM     14  C   UNL     1      -7.435 -21.378 -18.025  1.00  0.00     0.020 A 
ATOM     15  C   UNL     1      -7.518 -23.779 -17.727  1.00  0.00     0.119 A 
ATOM     16  C   UNL     1      -6.767 -23.947 -18.897  1.00  0.00     0.093 A 
ATOM     17  C   UNL     1      -6.339 -22.836 -19.634  1.00  0.00     0.130 A 
BRANCH  15  18
ATOM     18  O   UNL     1      -7.941 -24.883 -16.989  1.00  0.00    -0.508 OA
ATOM     19  H   UNL     1      -8.882 -25.249 -17.078  1.00  0.00     0.293 HD
ENDBRANCH  15  18
BRANCH  17  20
ATOM     20  O   UNL     1      -5.561 -23.060 -20.773  1.00  0.00    -0.507 OA
ATOM     21  H   UNL     1      -5.018 -23.903 -20.914  1.00  0.00     0.293 HD
ENDBRANCH  17  20
ENDBRANCH   1  12
BRANCH   2  22
ATOM     22  O   UNL     1      -8.607 -20.003 -20.679  1.00  0.00    -0.502 OA
ATOM     23  H   UNL     1      -9.313 -19.571 -21.265  1.00  0.00     0.293 HD
ENDBRANCH   2  22
BRANCH   6  24
ATOM     24  O   UNL     1      -5.683 -16.300 -23.163  1.00  0.00    -0.507 OA
ATOM     25  H   UNL     1      -6.607 -16.537 -23.492  1.00  0.00     0.293 HD
ENDBRANCH   6  24
BRANCH   8  26
ATOM     26  O   UNL     1      -1.408 -17.094 -21.166  1.00  0.00    -0.508 OA
ATOM     27  H   UNL     1      -0.909 -17.171 -20.288  1.00  0.00     0.293 HD
ENDBRANCH   8  26
TORSDOF 6
ENDMDL
MODEL 8
REMARK VINA RESULT:    -4.763      3.804      8.708
REMARK INTER + INTRA:          -5.991
REMARK INTER:                  -5.590
REMARK INTRA:                  -0.401
REMARK UNBOUND:                -0.254
REMARK SMILES O=c1c(O)c(-c2ccc(O)cc2O)oc2cc(O)cc(O)c12
REMARK SMILES IDX 5 1 3 2 2 3 1 4 22 5 20 6 19 7 17 8 16 9 15 10 14 11 6 12
REMARK SMILES IDX 8 13 7 14 9 15 11 16 12 17 10 18 13 20 4 22 21 24 18 26
REMARK H PARENT 10 19 13 21 4 23 21 25 18 27
REMARK Flexibility Score: inf
ROOT
ATOM      1  C   UNL     1      -6.861 -21.142 -19.347  1.00  0.00     0.184 A 
ATOM      2  C   UNL     1      -5.771 -21.480 -20.164  1.00  0.00     0.208 A 
ATOM      3  C   UNL     1      -5.168 -20.479 -20.944  1.00  0.00     0.238 A 
ATOM      4  O   UNL     1      -4.232 -20.802 -21.720  1.00  0.00    -0.285 OA
ATOM      5  C   UNL     1      -5.646 -19.148 -20.872  1.00  0.00     0.111 A 
ATOM      6  C   UNL     1      -5.086 -18.046 -21.586  1.00  0.00     0.134 A 
ATOM      7  C   UNL     1      -5.717 -16.797 -21.534  1.00  0.00     0.093 A 
ATOM      8  C   UNL     1      -6.847 -16.594 -20.743  1.00  0.00     0.123 A 
ATOM      9  C   UNL     1      -7.368 -17.649 -19.994  1.00  0.00     0.094 A 
ATOM     10  C   UNL     1      -6.784 -18.916 -20.055  1.00  0.00     0.146 A 
ATOM     11  O   UNL     1      -7.321 -19.897 -19.338  1.00  0.00    -0.451 OA
ENDROOT
BRANCH   1  12
ATOM     12  C   UNL     1      -7.520 -22.148 -18.488  1.00  0.00     0.063 A 
ATOM     13  C   UNL     1      -7.810 -23.137 -16.283  1.00  0.00     0.047 A 
ATOM     14  C   UNL     1      -7.164 -22.235 -17.131  1.00  0.00     0.020 A 
ATOM     15  C   UNL     1      -8.824 -23.960 -16.776  1.00  0.00     0.119 A 
ATOM     16  C   UNL     1      -9.189 -23.882 -18.125  1.00  0.00     0.093 A 
ATOM     17  C   UNL     1      -8.542 -22.988 -18.988  1.00  0.00     0.130 A 
BRANCH  15  18
ATOM     18  O   UNL     1      -9.463 -24.852 -15.917  1.00  0.00    -0.508 OA
ATOM     19  H   UNL     1      -9.789 -25.756 -16.240  1.00  0.00     0.293 HD
ENDBRANCH  15  18
BRANCH  17  20
ATOM     20  O   UNL     1      -8.921 -22.978 -20.332  1.00  0.00    -0.507 OA
ATOM     21  H   UNL     1      -8.295 -22.707 -21.080  1.00  0.00     0.293 HD
ENDBRANCH  17  20
ENDBRANCH   1  12
BRANCH   2  22
ATOM     22  O   UNL     1      -5.319 -22.802 -20.213  1.00  0.00    -0.502 OA
ATOM     23  H   UNL     1      -4.644 -23.120 -20.898  1.00  0.00     0.293 HD
ENDBRANCH   2  22
BRANCH   6  24
ATOM     24  O   UNL     1      -3.908 -18.118 -22.335  1.00  0.00    -0.507 OA
ATOM     25  H   UNL     1      -3.833 -18.530 -23.253  1.00  0.00     0.293 HD
ENDBRANCH   6  24
BRANCH   8  26
ATOM     26  O   UNL     1      -7.438 -15.332 -20.702  1.00  0.00    -0.508 OA
ATOM     27  H   UNL     1      -8.040 -15.054 -19.936  1.00  0.00     0.293 HD
ENDBRANCH   8  26
TORSDOF 6
ENDMDL
MODEL 9
REMARK VINA RESULT:    -4.708      2.028      6.913
REMARK INTER + INTRA:          -5.926
REMARK INTER:                  -5.509
REMARK INTRA:                  -0.417
REMARK UNBOUND:                -0.254
REMARK SMILES O=c1c(O)c(-c2ccc(O)cc2O)oc2cc(O)cc(O)c12
REMARK SMILES IDX 5 1 3 2 2 3 1 4 22 5 20 6 19 7 17 8 16 9 15 10 14 11 6 12
REMARK SMILES IDX 8 13 7 14 9 15 11 16 12 17 10 18 13 20 4 22 21 24 18 26
REMARK H PARENT 10 19 13 21 4 23 21 25 18 27
REMARK Flexibility Score: inf
ROOT
ATOM      1  C   UNL     1      -1.572 -17.228 -22.031  1.00  0.00     0.184 A 
ATOM      2  C   UNL     1      -0.978 -17.109 -23.296  1.00  0.00     0.208 A 
ATOM      3  C   UNL     1       0.318 -16.577 -23.392  1.00  0.00     0.238 A 
ATOM      4  O   UNL     1       0.821 -16.417 -24.534  1.00  0.00    -0.285 OA
ATOM      5  C   UNL     1       1.012 -16.198 -22.217  1.00  0.00     0.111 A 
ATOM      6  C   UNL     1       2.344 -15.685 -22.192  1.00  0.00     0.134 A 
ATOM      7  C   UNL     1       2.885 -15.228 -20.985  1.00  0.00     0.093 A 
ATOM      8  C   UNL     1       2.170 -15.325 -19.792  1.00  0.00     0.123 A 
ATOM      9  C   UNL     1       0.890 -15.879 -19.795  1.00  0.00     0.094 A 
ATOM     10  C   UNL     1       0.307 -16.309 -20.990  1.00  0.00     0.146 A 
ATOM     11  O   UNL     1      -0.919 -16.817 -20.950  1.00  0.00    -0.451 OA
ENDROOT
BRANCH   1  12
ATOM     12  C   UNL     1      -2.925 -17.802 -21.866  1.00  0.00     0.063 A 
ATOM     13  C   UNL     1      -4.324 -19.737 -21.394  1.00  0.00     0.047 A 
ATOM     14  C   UNL     1      -3.063 -19.178 -21.609  1.00  0.00     0.020 A 
ATOM     15  C   UNL     1      -5.464 -18.931 -21.425  1.00  0.00     0.119 A 
ATOM     16  C   UNL     1      -5.339 -17.560 -21.677  1.00  0.00     0.093 A 
ATOM     17  C   UNL     1      -4.081 -16.988 -21.905  1.00  0.00     0.130 A 
BRANCH  15  18
ATOM     18  O   UNL     1      -6.715 -19.502 -21.203  1.00  0.00    -0.508 OA
ATOM     19  H   UNL     1      -7.015 -19.775 -20.274  1.00  0.00     0.293 HD
ENDBRANCH  15  18
BRANCH  17  20
ATOM     20  O   UNL     1      -4.018 -15.622 -22.189  1.00  0.00    -0.507 OA
ATOM     21  H   UNL     1      -4.650 -14.944 -21.781  1.00  0.00     0.293 HD
ENDBRANCH  17  20
ENDBRANCH   1  12
BRANCH   2  22
ATOM     22  O   UNL     1      -1.686 -17.495 -24.438  1.00  0.00    -0.502 OA
ATOM     23  H   UNL     1      -2.444 -18.166 -24.406  1.00  0.00     0.293 HD
ENDBRANCH   2  22
BRANCH   6  24
ATOM     24  O   UNL     1       3.180 -15.627 -23.312  1.00  0.00    -0.507 OA
ATOM     25  H   UNL     1       3.106 -14.944 -24.050  1.00  0.00     0.293 HD
ENDBRANCH   6  24
BRANCH   8  26
ATOM     26  O   UNL     1       2.747 -14.875 -18.606  1.00  0.00    -0.508 OA
ATOM     27  H   UNL     1       2.914 -13.890 -18.438  1.00  0.00     0.293 HD
ENDBRANCH   8  26
TORSDOF 6
ENDMDL
