MODEL 1
REMARK VINA RESULT:    -3.927      0.000      0.000
REMARK INTER + INTRA:          -8.801
REMARK INTER:                  -6.797
REMARK INTRA:                  -2.005
REMARK UNBOUND:                -2.005
REMARK SMILES OC[C@@H]1O[C@@H](O[C@@H]2[C@@H](O)[C@H](O)[C@H](O[C@H]3[C@H](O)[C@H](O)[C@@H](O)O[C@@H]3CO)O[C@@H]2CO)[C@@H](O)[C@H](O)[C@H]1O
REMARK SMILES IDX 7 1 26 2 25 3 12 4 10 5 8 6 6 7 5 8 3 9 33 10 4 11 31 12
REMARK SMILES IDX 29 13 2 14 1 15 34 17 32 19 30 21 27 23 28 24 9 26 11 28
REMARK SMILES IDX 13 30 14 31 22 32 15 33 21 34 17 35 19 36 23 37 24 38 16 40
REMARK SMILES IDX 18 42 20 44
REMARK H PARENT 1 16 34 18 32 20 30 22 28 25 9 27 11 29 24 39 16 41 18 43
REMARK H PARENT 20 45
REMARK Flexibility Score: inf
ROOT
ATOM      1  C   UNL     1      21.546  25.269  45.725  1.00  0.00     0.184 C 
ATOM      2  C   UNL     1      20.053  25.154  45.306  1.00  0.00     0.178 C 
ATOM      3  O   UNL     1      19.600  26.154  44.396  1.00  0.00    -0.341 OA
ATOM      4  C   UNL     1      19.841  27.496  44.814  1.00  0.00     0.282 C 
ATOM      5  C   UNL     1      21.352  27.700  45.060  1.00  0.00     0.202 C 
ATOM      6  C   UNL     1      21.908  26.737  46.124  1.00  0.00     0.180 C 
ENDROOT
BRANCH   1   7
ATOM      7  O   UNL     1      21.780  24.208  46.659  1.00  0.00    -0.341 OA
BRANCH   7   8
ATOM      8  C   UNL     1      23.014  24.137  47.353  1.00  0.00     0.282 C 
ATOM      9  C   UNL     1      24.185  22.304  48.377  1.00  0.00     0.178 C 
ATOM     10  C   UNL     1      25.049  23.392  49.063  1.00  0.00     0.177 C 
ATOM     11  O   UNL     1      23.499  22.797  47.232  1.00  0.00    -0.341 OA
ATOM     12  C   UNL     1      24.109  24.497  49.615  1.00  0.00     0.179 C 
ATOM     13  C   UNL     1      22.772  24.593  48.815  1.00  0.00     0.202 C 
BRANCH   9  14
ATOM     14  C   UNL     1      24.948  21.016  48.000  1.00  0.00     0.191 C 
BRANCH  14  15
ATOM     15  O   UNL     1      25.449  20.335  49.128  1.00  0.00    -0.394 OA
ATOM     16  H   UNL     1      24.702  19.772  49.475  1.00  0.00     0.210 HD
ENDBRANCH  14  15
ENDBRANCH   9  14
BRANCH  10  17
ATOM     17  O   UNL     1      25.791  22.833  50.109  1.00  0.00    -0.387 OA
ATOM     18  H   UNL     1      25.140  22.562  50.808  1.00  0.00     0.211 HD
ENDBRANCH  10  17
BRANCH  12  19
ATOM     19  O   UNL     1      24.769  25.740  49.634  1.00  0.00    -0.387 OA
ATOM     20  H   UNL     1      24.103  26.434  49.398  1.00  0.00     0.211 HD
ENDBRANCH  12  19
BRANCH  13  21
ATOM     21  O   UNL     1      21.748  23.802  49.371  1.00  0.00    -0.385 OA
ATOM     22  H   UNL     1      21.532  23.057  48.734  1.00  0.00     0.211 HD
ENDBRANCH  13  21
ENDBRANCH   7   8
ENDBRANCH   1   7
BRANCH   2  23
ATOM     23  C   UNL     1      19.095  24.961  46.500  1.00  0.00     0.191 C 
BRANCH  23  24
ATOM     24  O   UNL     1      17.757  24.997  46.086  1.00  0.00    -0.394 OA
ATOM     25  H   UNL     1      17.381  25.859  46.414  1.00  0.00     0.210 HD
ENDBRANCH  23  24
ENDBRANCH   2  23
BRANCH   6  26
ATOM     26  O   UNL     1      23.307  26.905  46.116  1.00  0.00    -0.387 OA
ATOM     27  H   UNL     1      23.519  27.710  46.665  1.00  0.00     0.211 HD
ENDBRANCH   6  26
BRANCH   5  28
ATOM     28  O   UNL     1      21.652  29.059  45.306  1.00  0.00    -0.385 OA
ATOM     29  H   UNL     1      21.474  29.588  44.485  1.00  0.00     0.211 HD
ENDBRANCH   5  28
BRANCH   4  30
ATOM     30  O   UNL     1      19.004  27.829  45.916  1.00  0.00    -0.341 OA
BRANCH  30  31
ATOM     31  C   UNL     1      17.807  28.564  45.646  1.00  0.00     0.184 C 
ATOM     32  C   UNL     1      17.596  29.524  46.851  1.00  0.00     0.178 C 
ATOM     33  C   UNL     1      16.537  27.677  45.439  1.00  0.00     0.180 C 
ATOM     34  O   UNL     1      16.399  30.273  46.716  1.00  0.00    -0.342 OA
ATOM     35  C   UNL     1      15.226  28.488  45.574  1.00  0.00     0.201 C 
ATOM     36  C   UNL     1      15.260  29.431  46.789  1.00  0.00     0.279 C 
BRANCH  32  37
ATOM     37  C   UNL     1      18.766  30.538  46.990  1.00  0.00     0.191 C 
BRANCH  37  38
ATOM     38  O   UNL     1      19.328  30.835  45.742  1.00  0.00    -0.394 OA
ATOM     39  H   UNL     1      19.270  31.821  45.627  1.00  0.00     0.210 HD
ENDBRANCH  37  38
ENDBRANCH  32  37
BRANCH  33  40
ATOM     40  O   UNL     1      16.541  27.107  44.159  1.00  0.00    -0.387 OA
ATOM     41  H   UNL     1      17.077  26.274  44.216  1.00  0.00     0.211 HD
ENDBRANCH  33  40
BRANCH  35  42
ATOM     42  O   UNL     1      14.945  29.208  44.400  1.00  0.00    -0.385 OA
ATOM     43  H   UNL     1      15.807  29.494  44.000  1.00  0.00     0.211 HD
ENDBRANCH  35  42
BRANCH  36  44
ATOM     44  O   UNL     1      15.199  28.775  48.040  1.00  0.00    -0.366 OA
ATOM     45  H   UNL     1      14.970  29.448  48.749  1.00  0.00     0.213 HD
ENDBRANCH  36  44
ENDBRANCH  30  31
ENDBRANCH   4  30
TORSDOF 18
ENDMDL
MODEL 2
REMARK VINA RESULT:    -3.733      1.602      3.180
REMARK INTER + INTRA:          -8.466
REMARK INTER:                  -7.158
REMARK INTRA:                  -1.308
REMARK UNBOUND:                -2.005
REMARK SMILES OC[C@@H]1O[C@@H](O[C@@H]2[C@@H](O)[C@H](O)[C@H](O[C@H]3[C@H](O)[C@H](O)[C@@H](O)O[C@@H]3CO)O[C@@H]2CO)[C@@H](O)[C@H](O)[C@H]1O
REMARK SMILES IDX 7 1 26 2 25 3 12 4 10 5 8 6 6 7 5 8 3 9 33 10 4 11 31 12
REMARK SMILES IDX 29 13 2 14 1 15 34 17 32 19 30 21 27 23 28 24 9 26 11 28
REMARK SMILES IDX 13 30 14 31 22 32 15 33 21 34 17 35 19 36 23 37 24 38 16 40
REMARK SMILES IDX 18 42 20 44
REMARK H PARENT 1 16 34 18 32 20 30 22 28 25 9 27 11 29 24 39 16 41 18 43
REMARK H PARENT 20 45
REMARK Flexibility Score: inf
ROOT
ATOM      1  C   UNL     1      20.662  26.052  45.022  1.00  0.00     0.184 C 
ATOM      2  C   UNL     1      19.113  25.912  45.011  1.00  0.00     0.178 C 
ATOM      3  O   UNL     1      18.400  27.095  44.657  1.00  0.00    -0.341 OA
ATOM      4  C   UNL     1      18.735  28.248  45.426  1.00  0.00     0.282 C 
ATOM      5  C   UNL     1      20.249  28.530  45.307  1.00  0.00     0.202 C 
ATOM      6  C   UNL     1      21.106  27.344  45.784  1.00  0.00     0.180 C 
ENDROOT
BRANCH   1   7
ATOM      7  O   UNL     1      21.173  24.780  45.437  1.00  0.00    -0.341 OA
BRANCH   7   8
ATOM      8  C   UNL     1      21.483  24.554  46.802  1.00  0.00     0.282 C 
ATOM      9  C   UNL     1      23.485  24.915  48.082  1.00  0.00     0.178 C 
ATOM     10  C   UNL     1      22.817  24.025  49.160  1.00  0.00     0.177 C 
ATOM     11  O   UNL     1      22.544  25.445  47.155  1.00  0.00    -0.341 OA
ATOM     12  C   UNL     1      22.207  22.779  48.465  1.00  0.00     0.179 C 
ATOM     13  C   UNL     1      21.831  23.054  46.975  1.00  0.00     0.202 C 
BRANCH   9  14
ATOM     14  C   UNL     1      24.354  26.063  48.640  1.00  0.00     0.191 C 
BRANCH  14  15
ATOM     15  O   UNL     1      23.995  26.423  49.954  1.00  0.00    -0.394 OA
ATOM     16  H   UNL     1      23.452  27.257  49.882  1.00  0.00     0.210 HD
ENDBRANCH  14  15
ENDBRANCH   9  14
BRANCH  10  17
ATOM     17  O   UNL     1      23.762  23.625  50.112  1.00  0.00    -0.387 OA
ATOM     18  H   UNL     1      24.088  24.453  50.554  1.00  0.00     0.211 HD
ENDBRANCH  10  17
BRANCH  12  19
ATOM     19  O   UNL     1      21.090  22.312  49.184  1.00  0.00    -0.387 OA
ATOM     20  H   UNL     1      21.234  22.539  50.137  1.00  0.00     0.211 HD
ENDBRANCH  12  19
BRANCH  13  21
ATOM     21  O   UNL     1      22.870  22.725  46.083  1.00  0.00    -0.385 OA
ATOM     22  H   UNL     1      22.631  23.064  45.169  1.00  0.00     0.211 HD
ENDBRANCH  13  21
ENDBRANCH   7   8
ENDBRANCH   1   7
BRANCH   2  23
ATOM     23  C   UNL     1      18.551  25.238  46.280  1.00  0.00     0.191 C 
BRANCH  23  24
ATOM     24  O   UNL     1      17.150  25.275  46.294  1.00  0.00    -0.394 OA
ATOM     25  H   UNL     1      16.839  24.362  46.048  1.00  0.00     0.210 HD
ENDBRANCH  23  24
ENDBRANCH   2  23
BRANCH   6  26
ATOM     26  O   UNL     1      22.438  27.661  45.454  1.00  0.00    -0.387 OA
ATOM     27  H   UNL     1      23.032  27.189  46.102  1.00  0.00     0.211 HD
ENDBRANCH   6  26
BRANCH   5  28
ATOM     28  O   UNL     1      20.590  29.761  45.910  1.00  0.00    -0.385 OA
ATOM     29  H   UNL     1      21.486  30.046  45.592  1.00  0.00     0.211 HD
ENDBRANCH   5  28
BRANCH   4  30
ATOM     30  O   UNL     1      18.255  28.112  46.759  1.00  0.00    -0.341 OA
BRANCH  30  31
ATOM     31  C   UNL     1      17.461  29.175  47.293  1.00  0.00     0.184 C 
ATOM     32  C   UNL     1      16.208  29.294  46.378  1.00  0.00     0.178 C 
ATOM     33  C   UNL     1      18.196  30.552  47.377  1.00  0.00     0.180 C 
ATOM     34  O   UNL     1      15.366  30.360  46.785  1.00  0.00    -0.342 OA
ATOM     35  C   UNL     1      17.210  31.733  47.546  1.00  0.00     0.201 C 
ATOM     36  C   UNL     1      16.004  31.612  46.598  1.00  0.00     0.279 C 
BRANCH  32  37
ATOM     37  C   UNL     1      15.356  27.993  46.400  1.00  0.00     0.191 C 
BRANCH  37  38
ATOM     38  O   UNL     1      15.526  27.258  45.220  1.00  0.00    -0.394 OA
ATOM     39  H   UNL     1      14.630  26.917  44.960  1.00  0.00     0.210 HD
ENDBRANCH  37  38
ENDBRANCH  32  37
BRANCH  33  40
ATOM     40  O   UNL     1      19.065  30.577  48.475  1.00  0.00    -0.387 OA
ATOM     41  H   UNL     1      18.662  31.185  49.147  1.00  0.00     0.211 HD
ENDBRANCH  33  40
BRANCH  35  42
ATOM     42  O   UNL     1      16.779  31.855  48.878  1.00  0.00    -0.385 OA
ATOM     43  H   UNL     1      16.864  32.808  49.144  1.00  0.00     0.211 HD
ENDBRANCH  35  42
BRANCH  36  44
ATOM     44  O   UNL     1      16.309  31.823  45.234  1.00  0.00    -0.366 OA
ATOM     45  H   UNL     1      17.292  32.004  45.145  1.00  0.00     0.213 HD
ENDBRANCH  36  44
ENDBRANCH  30  31
ENDBRANCH   4  30
TORSDOF 18
ENDMDL
MODEL 3
REMARK VINA RESULT:    -3.237      1.531      2.313
REMARK INTER + INTRA:          -7.607
REMARK INTER:                  -6.138
REMARK INTRA:                  -1.469
REMARK UNBOUND:                -2.005
REMARK SMILES OC[C@@H]1O[C@@H](O[C@@H]2[C@@H](O)[C@H](O)[C@H](O[C@H]3[C@H](O)[C@H](O)[C@@H](O)O[C@@H]3CO)O[C@@H]2CO)[C@@H](O)[C@H](O)[C@H]1O
REMARK SMILES IDX 7 1 26 2 25 3 12 4 10 5 8 6 6 7 5 8 3 9 33 10 4 11 31 12
REMARK SMILES IDX 29 13 2 14 1 15 34 17 32 19 30 21 27 23 28 24 9 26 11 28
REMARK SMILES IDX 13 30 14 31 22 32 15 33 21 34 17 35 19 36 23 37 24 38 16 40
REMARK SMILES IDX 18 42 20 44
REMARK H PARENT 1 16 34 18 32 20 30 22 28 25 9 27 11 29 24 39 16 41 18 43
REMARK H PARENT 20 45
REMARK Flexibility Score: inf
ROOT
ATOM      1  C   UNL     1      20.760  25.836  44.925  1.00  0.00     0.184 C 
ATOM      2  C   UNL     1      19.211  25.804  44.779  1.00  0.00     0.178 C 
ATOM      3  O   UNL     1      18.620  27.015  44.314  1.00  0.00    -0.341 OA
ATOM      4  C   UNL     1      18.971  28.177  45.061  1.00  0.00     0.282 C 
ATOM      5  C   UNL     1      20.506  28.347  45.068  1.00  0.00     0.202 C 
ATOM      6  C   UNL     1      21.228  27.129  45.670  1.00  0.00     0.180 C 
ENDROOT
BRANCH   1   7
ATOM      7  O   UNL     1      21.138  24.553  45.436  1.00  0.00    -0.341 OA
BRANCH   7   8
ATOM      8  C   UNL     1      21.473  24.410  46.807  1.00  0.00     0.282 C 
ATOM      9  C   UNL     1      23.496  24.848  48.027  1.00  0.00     0.178 C 
ATOM     10  C   UNL     1      22.849  24.023  49.168  1.00  0.00     0.177 C 
ATOM     11  O   UNL     1      22.539  25.320  47.087  1.00  0.00    -0.341 OA
ATOM     12  C   UNL     1      22.229  22.737  48.560  1.00  0.00     0.179 C 
ATOM     13  C   UNL     1      21.825  22.922  47.063  1.00  0.00     0.202 C 
BRANCH   9  14
ATOM     14  C   UNL     1      24.373  26.026  48.500  1.00  0.00     0.191 C 
BRANCH  14  15
ATOM     15  O   UNL     1      24.147  26.362  49.850  1.00  0.00    -0.394 OA
ATOM     16  H   UNL     1      24.113  25.502  50.355  1.00  0.00     0.210 HD
ENDBRANCH  14  15
ENDBRANCH   9  14
BRANCH  10  17
ATOM     17  O   UNL     1      23.811  23.681  50.125  1.00  0.00    -0.387 OA
ATOM     18  H   UNL     1      24.592  24.274  49.967  1.00  0.00     0.211 HD
ENDBRANCH  10  17
BRANCH  12  19
ATOM     19  O   UNL     1      21.125  22.314  49.325  1.00  0.00    -0.387 OA
ATOM     20  H   UNL     1      21.199  22.743  50.215  1.00  0.00     0.211 HD
ENDBRANCH  12  19
BRANCH  13  21
ATOM     21  O   UNL     1      22.849  22.542  46.173  1.00  0.00    -0.385 OA
ATOM     22  H   UNL     1      22.929  23.237  45.455  1.00  0.00     0.211 HD
ENDBRANCH  13  21
ENDBRANCH   7   8
ENDBRANCH   1   7
BRANCH   2  23
ATOM     23  C   UNL     1      18.493  25.231  46.019  1.00  0.00     0.191 C 
BRANCH  23  24
ATOM     24  O   UNL     1      17.102  25.351  45.898  1.00  0.00    -0.394 OA
ATOM     25  H   UNL     1      16.928  26.237  45.477  1.00  0.00     0.210 HD
ENDBRANCH  23  24
ENDBRANCH   2  23
BRANCH   6  26
ATOM     26  O   UNL     1      22.604  27.337  45.448  1.00  0.00    -0.387 OA
ATOM     27  H   UNL     1      23.081  26.494  45.686  1.00  0.00     0.211 HD
ENDBRANCH   6  26
BRANCH   5  28
ATOM     28  O   UNL     1      20.882  29.580  45.648  1.00  0.00    -0.385 OA
ATOM     29  H   UNL     1      21.832  29.768  45.431  1.00  0.00     0.211 HD
ENDBRANCH   5  28
BRANCH   4  30
ATOM     30  O   UNL     1      18.367  28.139  46.350  1.00  0.00    -0.341 OA
BRANCH  30  31
ATOM     31  C   UNL     1      17.177  28.905  46.552  1.00  0.00     0.184 C 
ATOM     32  C   UNL     1      17.247  29.456  48.005  1.00  0.00     0.178 C 
ATOM     33  C   UNL     1      15.850  28.106  46.346  1.00  0.00     0.180 C 
ATOM     34  O   UNL     1      16.084  30.197  48.337  1.00  0.00    -0.342 OA
ATOM     35  C   UNL     1      14.630  28.824  46.972  1.00  0.00     0.201 C 
ATOM     36  C   UNL     1      14.942  29.358  48.381  1.00  0.00     0.279 C 
BRANCH  32  37
ATOM     37  C   UNL     1      18.470  30.396  48.205  1.00  0.00     0.191 C 
BRANCH  37  38
ATOM     38  O   UNL     1      18.770  31.092  47.027  1.00  0.00    -0.394 OA
ATOM     39  H   UNL     1      18.761  30.428  46.289  1.00  0.00     0.210 HD
ENDBRANCH  37  38
ENDBRANCH  32  37
BRANCH  33  40
ATOM     40  O   UNL     1      15.581  27.948  44.980  1.00  0.00    -0.387 OA
ATOM     41  H   UNL     1      16.445  27.740  44.539  1.00  0.00     0.211 HD
ENDBRANCH  33  40
BRANCH  35  42
ATOM     42  O   UNL     1      14.163  29.860  46.145  1.00  0.00    -0.385 OA
ATOM     43  H   UNL     1      13.229  30.067  46.407  1.00  0.00     0.211 HD
ENDBRANCH  35  42
BRANCH  36  44
ATOM     44  O   UNL     1      15.091  28.356  49.367  1.00  0.00    -0.366 OA
ATOM     45  H   UNL     1      15.978  28.477  49.822  1.00  0.00     0.213 HD
ENDBRANCH  36  44
ENDBRANCH  30  31
ENDBRANCH   4  30
TORSDOF 18
ENDMDL
MODEL 4
REMARK VINA RESULT:    -3.145      1.468      8.498
REMARK INTER + INTRA:          -7.449
REMARK INTER:                  -5.814
REMARK INTRA:                  -1.635
REMARK UNBOUND:                -2.005
REMARK SMILES OC[C@@H]1O[C@@H](O[C@@H]2[C@@H](O)[C@H](O)[C@H](O[C@H]3[C@H](O)[C@H](O)[C@@H](O)O[C@@H]3CO)O[C@@H]2CO)[C@@H](O)[C@H](O)[C@H]1O
REMARK SMILES IDX 7 1 26 2 25 3 12 4 10 5 8 6 6 7 5 8 3 9 33 10 4 11 31 12
REMARK SMILES IDX 29 13 2 14 1 15 34 17 32 19 30 21 27 23 28 24 9 26 11 28
REMARK SMILES IDX 13 30 14 31 22 32 15 33 21 34 17 35 19 36 23 37 24 38 16 40
REMARK SMILES IDX 18 42 20 44
REMARK H PARENT 1 16 34 18 32 20 30 22 28 25 9 27 11 29 24 39 16 41 18 43
REMARK H PARENT 20 45
REMARK Flexibility Score: inf
ROOT
ATOM      1  C   UNL     1      19.885  26.999  45.248  1.00  0.00     0.184 C 
ATOM      2  C   UNL     1      21.421  26.838  45.066  1.00  0.00     0.178 C 
ATOM      3  O   UNL     1      21.888  25.491  45.015  1.00  0.00    -0.341 OA
ATOM      4  C   UNL     1      21.483  24.676  46.113  1.00  0.00     0.282 C 
ATOM      5  C   UNL     1      19.942  24.662  46.209  1.00  0.00     0.202 C 
ATOM      6  C   UNL     1      19.352  26.072  46.389  1.00  0.00     0.180 C 
ENDROOT
BRANCH   1   7
ATOM      7  O   UNL     1      19.639  28.408  45.314  1.00  0.00    -0.341 OA
BRANCH   7   8
ATOM      8  C   UNL     1      18.648  28.912  46.195  1.00  0.00     0.282 C 
ATOM      9  C   UNL     1      16.323  29.434  45.880  1.00  0.00     0.178 C 
ATOM     10  C   UNL     1      16.428  30.183  47.231  1.00  0.00     0.177 C 
ATOM     11  O   UNL     1      17.375  28.493  45.697  1.00  0.00    -0.341 OA
ATOM     12  C   UNL     1      17.723  31.039  47.225  1.00  0.00     0.179 C 
ATOM     13  C   UNL     1      18.820  30.450  46.284  1.00  0.00     0.202 C 
BRANCH   9  14
ATOM     14  C   UNL     1      14.968  28.739  45.630  1.00  0.00     0.191 C 
BRANCH  14  15
ATOM     15  O   UNL     1      15.062  27.334  45.684  1.00  0.00    -0.394 OA
ATOM     16  H   UNL     1      14.324  26.977  45.116  1.00  0.00     0.210 HD
ENDBRANCH  14  15
ENDBRANCH   9  14
BRANCH  10  17
ATOM     17  O   UNL     1      15.313  31.007  47.417  1.00  0.00    -0.387 OA
ATOM     18  H   UNL     1      15.409  31.763  46.779  1.00  0.00     0.211 HD
ENDBRANCH  10  17
BRANCH  12  19
ATOM     19  O   UNL     1      18.218  31.192  48.534  1.00  0.00    -0.387 OA
ATOM     20  H   UNL     1      17.865  32.048  48.888  1.00  0.00     0.211 HD
ENDBRANCH  12  19
BRANCH  13  21
ATOM     21  O   UNL     1      18.764  30.986  44.982  1.00  0.00    -0.385 OA
ATOM     22  H   UNL     1      19.668  31.350  44.743  1.00  0.00     0.211 HD
ENDBRANCH  13  21
ENDBRANCH   7   8
ENDBRANCH   1   7
BRANCH   2  23
ATOM     23  C   UNL     1      22.247  27.715  46.030  1.00  0.00     0.191 C 
BRANCH  23  24
ATOM     24  O   UNL     1      23.616  27.439  45.919  1.00  0.00    -0.394 OA
ATOM     25  H   UNL     1      24.074  27.985  46.615  1.00  0.00     0.210 HD
ENDBRANCH  23  24
ENDBRANCH   2  23
BRANCH   6  26
ATOM     26  O   UNL     1      17.954  25.932  46.279  1.00  0.00    -0.387 OA
ATOM     27  H   UNL     1      17.538  26.772  46.619  1.00  0.00     0.211 HD
ENDBRANCH   6  26
BRANCH   5  28
ATOM     28  O   UNL     1      19.498  23.729  47.173  1.00  0.00    -0.385 OA
ATOM     29  H   UNL     1      20.186  23.636  47.882  1.00  0.00     0.211 HD
ENDBRANCH   5  28
BRANCH   4  30
ATOM     30  O   UNL     1      22.154  25.079  47.303  1.00  0.00    -0.341 OA
BRANCH  30  31
ATOM     31  C   UNL     1      22.723  24.057  48.125  1.00  0.00     0.184 C 
ATOM     32  C   UNL     1      24.141  24.553  48.529  1.00  0.00     0.178 C 
ATOM     33  C   UNL     1      22.821  22.655  47.441  1.00  0.00     0.180 C 
ATOM     34  O   UNL     1      24.826  23.588  49.311  1.00  0.00    -0.342 OA
ATOM     35  C   UNL     1      23.802  21.711  48.176  1.00  0.00     0.201 C 
ATOM     36  C   UNL     1      25.112  22.426  48.551  1.00  0.00     0.279 C 
BRANCH  32  37
ATOM     37  C   UNL     1      24.075  25.865  49.361  1.00  0.00     0.191 C 
BRANCH  37  38
ATOM     38  O   UNL     1      24.440  26.974  48.586  1.00  0.00    -0.394 OA
ATOM     39  H   UNL     1      25.273  27.342  48.983  1.00  0.00     0.210 HD
ENDBRANCH  37  38
ENDBRANCH  32  37
BRANCH  33  40
ATOM     40  O   UNL     1      21.569  22.027  47.432  1.00  0.00    -0.387 OA
ATOM     41  H   UNL     1      21.001  22.525  46.789  1.00  0.00     0.211 HD
ENDBRANCH  33  40
BRANCH  35  42
ATOM     42  O   UNL     1      23.209  21.140  49.315  1.00  0.00    -0.385 OA
ATOM     43  H   UNL     1      22.359  21.621  49.493  1.00  0.00     0.211 HD
ENDBRANCH  35  42
BRANCH  36  44
ATOM     44  O   UNL     1      25.945  22.736  47.452  1.00  0.00    -0.366 OA
ATOM     45  H   UNL     1      26.555  23.490  47.710  1.00  0.00     0.213 HD
ENDBRANCH  36  44
ENDBRANCH  30  31
ENDBRANCH   4  30
TORSDOF 18
ENDMDL
MODEL 5
REMARK VINA RESULT:    -2.626     12.437     14.981
REMARK INTER + INTRA:          -6.550
REMARK INTER:                  -5.896
REMARK INTRA:                  -0.653
REMARK UNBOUND:                -2.005
REMARK SMILES OC[C@@H]1O[C@@H](O[C@@H]2[C@@H](O)[C@H](O)[C@H](O[C@H]3[C@H](O)[C@H](O)[C@@H](O)O[C@@H]3CO)O[C@@H]2CO)[C@@H](O)[C@H](O)[C@H]1O
REMARK SMILES IDX 7 1 26 2 25 3 12 4 10 5 8 6 6 7 5 8 3 9 33 10 4 11 31 12
REMARK SMILES IDX 29 13 2 14 1 15 34 17 32 19 30 21 27 23 28 24 9 26 11 28
REMARK SMILES IDX 13 30 14 31 22 32 15 33 21 34 17 35 19 36 23 37 24 38 16 40
REMARK SMILES IDX 18 42 20 44
REMARK H PARENT 1 16 34 18 32 20 30 22 28 25 9 27 11 29 24 39 16 41 18 43
REMARK H PARENT 20 45
REMARK Flexibility Score: inf
ROOT
ATOM      1  C   UNL     1      19.146  29.142  30.345  1.00  0.00     0.184 C 
ATOM      2  C   UNL     1      17.676  28.954  29.875  1.00  0.00     0.178 C 
ATOM      3  O   UNL     1      16.844  30.105  30.007  1.00  0.00    -0.341 OA
ATOM      4  C   UNL     1      16.823  30.680  31.312  1.00  0.00     0.282 C 
ATOM      5  C   UNL     1      18.258  31.056  31.738  1.00  0.00     0.202 C 
ATOM      6  C   UNL     1      19.205  29.843  31.742  1.00  0.00     0.180 C 
ENDROOT
BRANCH   1   7
ATOM      7  O   UNL     1      19.786  27.874  30.167  1.00  0.00    -0.341 OA
BRANCH   7   8
ATOM      8  C   UNL     1      19.576  26.837  31.112  1.00  0.00     0.282 C 
ATOM      9  C   UNL     1      20.935  25.986  32.902  1.00  0.00     0.178 C 
ATOM     10  C   UNL     1      19.959  24.784  32.916  1.00  0.00     0.177 C 
ATOM     11  O   UNL     1      20.383  27.127  32.256  1.00  0.00    -0.341 OA
ATOM     12  C   UNL     1      19.715  24.326  31.453  1.00  0.00     0.179 C 
ATOM     13  C   UNL     1      19.908  25.487  30.428  1.00  0.00     0.202 C 
BRANCH   9  14
ATOM     14  C   UNL     1      21.475  26.396  34.289  1.00  0.00     0.191 C 
BRANCH  14  15
ATOM     15  O   UNL     1      20.795  27.506  34.828  1.00  0.00    -0.394 OA
ATOM     16  H   UNL     1      20.002  27.665  34.244  1.00  0.00     0.210 HD
ENDBRANCH  14  15
ENDBRANCH   9  14
BRANCH  10  17
ATOM     17  O   UNL     1      20.499  23.729  33.661  1.00  0.00    -0.387 OA
ATOM     18  H   UNL     1      19.731  23.208  34.013  1.00  0.00     0.211 HD
ENDBRANCH  10  17
BRANCH  12  19
ATOM     19  O   UNL     1      18.435  23.754  31.324  1.00  0.00    -0.387 OA
ATOM     20  H   UNL     1      18.294  23.161  32.105  1.00  0.00     0.211 HD
ENDBRANCH  12  19
BRANCH  13  21
ATOM     21  O   UNL     1      21.220  25.550  29.918  1.00  0.00    -0.385 OA
ATOM     22  H   UNL     1      21.257  26.255  29.206  1.00  0.00     0.211 HD
ENDBRANCH  13  21
ENDBRANCH   7   8
ENDBRANCH   1   7
BRANCH   2  23
ATOM     23  C   UNL     1      17.013  27.677  30.434  1.00  0.00     0.191 C 
BRANCH  23  24
ATOM     24  O   UNL     1      15.616  27.781  30.411  1.00  0.00    -0.394 OA
ATOM     25  H   UNL     1      15.388  28.650  30.842  1.00  0.00     0.210 HD
ENDBRANCH  23  24
ENDBRANCH   2  23
BRANCH   6  26
ATOM     26  O   UNL     1      20.500  30.353  31.968  1.00  0.00    -0.387 OA
ATOM     27  H   UNL     1      21.089  29.587  32.215  1.00  0.00     0.211 HD
ENDBRANCH   6  26
BRANCH   5  28
ATOM     28  O   UNL     1      18.258  31.786  32.948  1.00  0.00    -0.385 OA
ATOM     29  H   UNL     1      18.346  32.755  32.747  1.00  0.00     0.211 HD
ENDBRANCH   5  28
BRANCH   4  30
ATOM     30  O   UNL     1      16.132  29.826  32.218  1.00  0.00    -0.341 OA
BRANCH  30  31
ATOM     31  C   UNL     1      15.845  30.333  33.524  1.00  0.00     0.184 C 
ATOM     32  C   UNL     1      16.225  29.209  34.529  1.00  0.00     0.178 C 
ATOM     33  C   UNL     1      14.357  30.762  33.738  1.00  0.00     0.180 C 
ATOM     34  O   UNL     1      15.931  29.584  35.865  1.00  0.00    -0.342 OA
ATOM     35  C   UNL     1      13.994  30.894  35.237  1.00  0.00     0.201 C 
ATOM     36  C   UNL     1      14.533  29.713  36.062  1.00  0.00     0.279 C 
BRANCH  32  37
ATOM     37  C   UNL     1      17.741  28.869  34.464  1.00  0.00     0.191 C 
BRANCH  37  38
ATOM     38  O   UNL     1      17.944  27.524  34.129  1.00  0.00    -0.394 OA
ATOM     39  H   UNL     1      18.884  27.441  33.820  1.00  0.00     0.210 HD
ENDBRANCH  37  38
ENDBRANCH  32  37
BRANCH  33  40
ATOM     40  O   UNL     1      14.116  32.006  33.142  1.00  0.00    -0.387 OA
ATOM     41  H   UNL     1      14.480  32.695  33.756  1.00  0.00     0.211 HD
ENDBRANCH  33  40
BRANCH  35  42
ATOM     42  O   UNL     1      14.448  32.114  35.769  1.00  0.00    -0.385 OA
ATOM     43  H   UNL     1      15.372  32.267  35.442  1.00  0.00     0.211 HD
ENDBRANCH  35  42
BRANCH  36  44
ATOM     44  O   UNL     1      13.876  28.484  35.823  1.00  0.00    -0.366 OA
ATOM     45  H   UNL     1      14.232  27.796  36.461  1.00  0.00     0.213 HD
ENDBRANCH  36  44
ENDBRANCH  30  31
ENDBRANCH   4  30
TORSDOF 18
ENDMDL
MODEL 6
REMARK VINA RESULT:    -2.471      1.738      3.135
REMARK INTER + INTRA:          -6.281
REMARK INTER:                  -4.403
REMARK INTRA:                  -1.877
REMARK UNBOUND:                -2.005
REMARK SMILES OC[C@@H]1O[C@@H](O[C@@H]2[C@@H](O)[C@H](O)[C@H](O[C@H]3[C@H](O)[C@H](O)[C@@H](O)O[C@@H]3CO)O[C@@H]2CO)[C@@H](O)[C@H](O)[C@H]1O
REMARK SMILES IDX 7 1 26 2 25 3 12 4 10 5 8 6 6 7 5 8 3 9 33 10 4 11 31 12
REMARK SMILES IDX 29 13 2 14 1 15 34 17 32 19 30 21 27 23 28 24 9 26 11 28
REMARK SMILES IDX 13 30 14 31 22 32 15 33 21 34 17 35 19 36 23 37 24 38 16 40
REMARK SMILES IDX 18 42 20 44
REMARK H PARENT 1 16 34 18 32 20 30 22 28 25 9 27 11 29 24 39 16 41 18 43
REMARK H PARENT 20 45
REMARK Flexibility Score: inf
ROOT
ATOM      1  C   UNL     1      19.640  25.383  45.019  1.00  0.00     0.184 C 
ATOM      2  C   UNL     1      18.927  26.218  46.120  1.00  0.00     0.178 C 
ATOM      3  O   UNL     1      17.531  26.421  45.919  1.00  0.00    -0.341 OA
ATOM      4  C   UNL     1      17.184  26.972  44.650  1.00  0.00     0.282 C 
ATOM      5  C   UNL     1      17.718  26.061  43.524  1.00  0.00     0.202 C 
ATOM      6  C   UNL     1      19.245  25.881  43.590  1.00  0.00     0.180 C 
ENDROOT
BRANCH   1   7
ATOM      7  O   UNL     1      21.023  25.334  45.390  1.00  0.00    -0.341 OA
BRANCH   7   8
ATOM      8  C   UNL     1      21.390  24.929  46.698  1.00  0.00     0.282 C 
ATOM      9  C   UNL     1      23.464  25.059  47.905  1.00  0.00     0.178 C 
ATOM     10  C   UNL     1      22.815  24.064  48.898  1.00  0.00     0.177 C 
ATOM     11  O   UNL     1      22.502  25.732  47.101  1.00  0.00    -0.341 OA
ATOM     12  C   UNL     1      22.122  22.936  48.089  1.00  0.00     0.179 C 
ATOM     13  C   UNL     1      21.685  23.407  46.667  1.00  0.00     0.202 C 
BRANCH   9  14
ATOM     14  C   UNL     1      24.405  26.097  48.553  1.00  0.00     0.191 C 
BRANCH  14  15
ATOM     15  O   UNL     1      24.090  26.343  49.904  1.00  0.00    -0.394 OA
ATOM     16  H   UNL     1      23.194  26.782  49.913  1.00  0.00     0.210 HD
ENDBRANCH  14  15
ENDBRANCH   9  14
BRANCH  10  17
ATOM     17  O   UNL     1      23.787  23.516  49.742  1.00  0.00    -0.387 OA
ATOM     18  H   UNL     1      23.768  24.048  50.580  1.00  0.00     0.211 HD
ENDBRANCH  10  17
BRANCH  12  19
ATOM     19  O   UNL     1      21.023  22.421  48.803  1.00  0.00    -0.387 OA
ATOM     20  H   UNL     1      21.045  22.820  49.710  1.00  0.00     0.211 HD
ENDBRANCH  12  19
BRANCH  13  21
ATOM     21  O   UNL     1      22.665  23.159  45.686  1.00  0.00    -0.385 OA
ATOM     22  H   UNL     1      23.412  22.632  46.100  1.00  0.00     0.211 HD
ENDBRANCH  13  21
ENDBRANCH   7   8
ENDBRANCH   1   7
BRANCH   2  23
ATOM     23  C   UNL     1      19.671  27.522  46.477  1.00  0.00     0.191 C 
BRANCH  23  24
ATOM     24  O   UNL     1      20.320  28.056  45.357  1.00  0.00    -0.394 OA
ATOM     25  H   UNL     1      19.720  28.761  44.989  1.00  0.00     0.210 HD
ENDBRANCH  23  24
ENDBRANCH   2  23
BRANCH   6  26
ATOM     26  O   UNL     1      19.569  24.898  42.633  1.00  0.00    -0.387 OA
ATOM     27  H   UNL     1      20.213  24.264  43.056  1.00  0.00     0.211 HD
ENDBRANCH   6  26
BRANCH   5  28
ATOM     28  O   UNL     1      17.246  26.479  42.259  1.00  0.00    -0.385 OA
ATOM     29  H   UNL     1      17.261  27.471  42.215  1.00  0.00     0.211 HD
ENDBRANCH   5  28
BRANCH   4  30
ATOM     30  O   UNL     1      17.600  28.331  44.570  1.00  0.00    -0.341 OA
BRANCH  30  31
ATOM     31  C   UNL     1      16.588  29.341  44.597  1.00  0.00     0.184 C 
ATOM     32  C   UNL     1      16.681  30.023  45.992  1.00  0.00     0.178 C 
ATOM     33  C   UNL     1      15.138  28.810  44.356  1.00  0.00     0.180 C 
ATOM     34  O   UNL     1      15.682  31.017  46.152  1.00  0.00    -0.342 OA
ATOM     35  C   UNL     1      14.060  29.825  44.806  1.00  0.00     0.201 C 
ATOM     36  C   UNL     1      14.388  30.437  46.179  1.00  0.00     0.279 C 
BRANCH  32  37
ATOM     37  C   UNL     1      18.060  30.712  46.204  1.00  0.00     0.191 C 
BRANCH  37  38
ATOM     38  O   UNL     1      18.821  30.691  45.028  1.00  0.00    -0.394 OA
ATOM     39  H   UNL     1      19.419  31.484  45.057  1.00  0.00     0.210 HD
ENDBRANCH  37  38
ENDBRANCH  32  37
BRANCH  33  40
ATOM     40  O   UNL     1      14.929  28.560  42.994  1.00  0.00    -0.387 OA
ATOM     41  H   UNL     1      15.824  28.494  42.572  1.00  0.00     0.211 HD
ENDBRANCH  33  40
BRANCH  35  42
ATOM     42  O   UNL     1      13.875  30.836  43.847  1.00  0.00    -0.385 OA
ATOM     43  H   UNL     1      13.638  31.674  44.325  1.00  0.00     0.211 HD
ENDBRANCH  35  42
BRANCH  36  44
ATOM     44  O   UNL     1      14.260  29.541  47.264  1.00  0.00    -0.366 OA
ATOM     45  H   UNL     1      15.082  28.967  47.310  1.00  0.00     0.213 HD
ENDBRANCH  36  44
ENDBRANCH  30  31
ENDBRANCH   4  30
TORSDOF 18
ENDMDL
MODEL 7
REMARK VINA RESULT:    -2.310     12.597     16.269
REMARK INTER + INTRA:          -6.003
REMARK INTER:                  -5.228
REMARK INTRA:                  -0.775
REMARK UNBOUND:                -2.005
REMARK SMILES OC[C@@H]1O[C@@H](O[C@@H]2[C@@H](O)[C@H](O)[C@H](O[C@H]3[C@H](O)[C@H](O)[C@@H](O)O[C@@H]3CO)O[C@@H]2CO)[C@@H](O)[C@H](O)[C@H]1O
REMARK SMILES IDX 7 1 26 2 25 3 12 4 10 5 8 6 6 7 5 8 3 9 33 10 4 11 31 12
REMARK SMILES IDX 29 13 2 14 1 15 34 17 32 19 30 21 27 23 28 24 9 26 11 28
REMARK SMILES IDX 13 30 14 31 22 32 15 33 21 34 17 35 19 36 23 37 24 38 16 40
REMARK SMILES IDX 18 42 20 44
REMARK H PARENT 1 16 34 18 32 20 30 22 28 25 9 27 11 29 24 39 16 41 18 43
REMARK H PARENT 20 45
REMARK Flexibility Score: inf
ROOT
ATOM      1  C   UNL     1      16.215  30.917  31.585  1.00  0.00     0.184 C 
ATOM      2  C   UNL     1      17.680  31.234  31.169  1.00  0.00     0.178 C 
ATOM      3  O   UNL     1      18.188  30.451  30.091  1.00  0.00    -0.341 OA
ATOM      4  C   UNL     1      18.074  29.041  30.270  1.00  0.00     0.282 C 
ATOM      5  C   UNL     1      16.594  28.665  30.500  1.00  0.00     0.202 C 
ATOM      6  C   UNL     1      15.991  29.375  31.725  1.00  0.00     0.180 C 
ENDROOT
BRANCH   1   7
ATOM      7  O   UNL     1      15.922  31.774  32.694  1.00  0.00    -0.341 OA
BRANCH   7   8
ATOM      8  C   UNL     1      16.255  31.366  34.010  1.00  0.00     0.282 C 
ATOM      9  C   UNL     1      16.593  29.197  34.989  1.00  0.00     0.178 C 
ATOM     10  C   UNL     1      16.496  29.925  36.352  1.00  0.00     0.177 C 
ATOM     11  O   UNL     1      16.885  30.086  33.917  1.00  0.00    -0.341 OA
ATOM     12  C   UNL     1      15.288  30.899  36.310  1.00  0.00     0.179 C 
ATOM     13  C   UNL     1      14.959  31.374  34.860  1.00  0.00     0.202 C 
BRANCH   9  14
ATOM     14  C   UNL     1      17.586  28.015  34.958  1.00  0.00     0.191 C 
BRANCH  14  15
ATOM     15  O   UNL     1      18.456  28.069  33.851  1.00  0.00    -0.394 OA
ATOM     16  H   UNL     1      17.886  27.991  33.036  1.00  0.00     0.210 HD
ENDBRANCH  14  15
ENDBRANCH   9  14
BRANCH  10  17
ATOM     17  O   UNL     1      16.325  28.999  37.387  1.00  0.00    -0.387 OA
ATOM     18  H   UNL     1      16.153  29.523  38.212  1.00  0.00     0.211 HD
ENDBRANCH  10  17
BRANCH  12  19
ATOM     19  O   UNL     1      15.514  32.001  37.157  1.00  0.00    -0.387 OA
ATOM     20  H   UNL     1      15.750  32.773  36.583  1.00  0.00     0.211 HD
ENDBRANCH  12  19
BRANCH  13  21
ATOM     21  O   UNL     1      13.999  30.561  34.226  1.00  0.00    -0.385 OA
ATOM     22  H   UNL     1      13.979  30.785  33.248  1.00  0.00     0.211 HD
ENDBRANCH  13  21
ENDBRANCH   7   8
ENDBRANCH   1   7
BRANCH   2  23
ATOM     23  C   UNL     1      18.654  31.301  32.364  1.00  0.00     0.191 C 
BRANCH  23  24
ATOM     24  O   UNL     1      19.750  32.125  32.077  1.00  0.00    -0.394 OA
ATOM     25  H   UNL     1      19.392  32.914  31.586  1.00  0.00     0.210 HD
ENDBRANCH  23  24
ENDBRANCH   2  23
BRANCH   6  26
ATOM     26  O   UNL     1      14.611  29.088  31.709  1.00  0.00    -0.387 OA
ATOM     27  H   UNL     1      14.278  29.257  30.784  1.00  0.00     0.211 HD
ENDBRANCH   6  26
BRANCH   5  28
ATOM     28  O   UNL     1      16.417  27.263  30.508  1.00  0.00    -0.385 OA
ATOM     29  H   UNL     1      16.789  26.889  31.349  1.00  0.00     0.211 HD
ENDBRANCH   5  28
BRANCH   4  30
ATOM     30  O   UNL     1      18.969  28.596  31.285  1.00  0.00    -0.341 OA
BRANCH  30  31
ATOM     31  C   UNL     1      20.289  28.217  30.888  1.00  0.00     0.184 C 
ATOM     32  C   UNL     1      20.588  26.859  31.586  1.00  0.00     0.178 C 
ATOM     33  C   UNL     1      21.398  29.259  31.247  1.00  0.00     0.180 C 
ATOM     34  O   UNL     1      21.902  26.407  31.304  1.00  0.00    -0.342 OA
ATOM     35  C   UNL     1      22.818  28.646  31.196  1.00  0.00     0.201 C 
ATOM     36  C   UNL     1      22.871  27.267  31.878  1.00  0.00     0.279 C 
BRANCH  32  37
ATOM     37  C   UNL     1      19.603  25.747  31.124  1.00  0.00     0.191 C 
BRANCH  37  38
ATOM     38  O   UNL     1      18.437  25.750  31.901  1.00  0.00    -0.394 OA
ATOM     39  H   UNL     1      18.301  24.819  32.221  1.00  0.00     0.210 HD
ENDBRANCH  37  38
ENDBRANCH  32  37
BRANCH  33  40
ATOM     40  O   UNL     1      21.375  30.328  30.343  1.00  0.00    -0.387 OA
ATOM     41  H   UNL     1      21.829  30.017  29.518  1.00  0.00     0.211 HD
ENDBRANCH  33  40
BRANCH  35  42
ATOM     42  O   UNL     1      23.292  28.560  29.875  1.00  0.00    -0.385 OA
ATOM     43  H   UNL     1      23.148  27.631  29.556  1.00  0.00     0.211 HD
ENDBRANCH  35  42
BRANCH  36  44
ATOM     44  O   UNL     1      22.739  27.306  33.285  1.00  0.00    -0.366 OA
ATOM     45  H   UNL     1      23.178  28.141  33.629  1.00  0.00     0.213 HD
ENDBRANCH  36  44
ENDBRANCH  30  31
ENDBRANCH   4  30
TORSDOF 18
ENDMDL
MODEL 8
REMARK VINA RESULT:    -2.257      3.647      7.639
REMARK INTER + INTRA:          -5.910
REMARK INTER:                  -5.422
REMARK INTRA:                  -0.489
REMARK UNBOUND:                -2.005
REMARK SMILES OC[C@@H]1O[C@@H](O[C@@H]2[C@@H](O)[C@H](O)[C@H](O[C@H]3[C@H](O)[C@H](O)[C@@H](O)O[C@@H]3CO)O[C@@H]2CO)[C@@H](O)[C@H](O)[C@H]1O
REMARK SMILES IDX 7 1 26 2 25 3 12 4 10 5 8 6 6 7 5 8 3 9 33 10 4 11 31 12
REMARK SMILES IDX 29 13 2 14 1 15 34 17 32 19 30 21 27 23 28 24 9 26 11 28
REMARK SMILES IDX 13 30 14 31 22 32 15 33 21 34 17 35 19 36 23 37 24 38 16 40
REMARK SMILES IDX 18 42 20 44
REMARK H PARENT 1 16 34 18 32 20 30 22 28 25 9 27 11 29 24 39 16 41 18 43
REMARK H PARENT 20 45
REMARK Flexibility Score: inf
ROOT
ATOM      1  C   UNL     1      18.532  31.165  45.880  1.00  0.00     0.184 C 
ATOM      2  C   UNL     1      18.747  31.232  47.419  1.00  0.00     0.178 C 
ATOM      3  O   UNL     1      19.772  32.125  47.850  1.00  0.00    -0.341 OA
ATOM      4  C   UNL     1      21.041  31.921  47.233  1.00  0.00     0.282 C 
ATOM      5  C   UNL     1      20.898  32.035  45.700  1.00  0.00     0.202 C 
ATOM      6  C   UNL     1      19.895  31.019  45.127  1.00  0.00     0.180 C 
ENDROOT
BRANCH   1   7
ATOM      7  O   UNL     1      17.502  30.194  45.665  1.00  0.00    -0.341 OA
BRANCH   7   8
ATOM      8  C   UNL     1      17.784  28.814  45.835  1.00  0.00     0.282 C 
ATOM      9  C   UNL     1      18.513  27.116  44.299  1.00  0.00     0.178 C 
ATOM     10  C   UNL     1      18.111  26.108  45.404  1.00  0.00     0.177 C 
ATOM     11  O   UNL     1      18.699  28.432  44.806  1.00  0.00    -0.341 OA
ATOM     12  C   UNL     1      16.721  26.513  45.964  1.00  0.00     0.179 C 
ATOM     13  C   UNL     1      16.441  28.041  45.809  1.00  0.00     0.202 C 
BRANCH   9  14
ATOM     14  C   UNL     1      19.749  26.707  43.471  1.00  0.00     0.191 C 
BRANCH  14  15
ATOM     15  O   UNL     1      20.526  25.720  44.110  1.00  0.00    -0.394 OA
ATOM     16  H   UNL     1      21.337  26.181  44.464  1.00  0.00     0.210 HD
ENDBRANCH  14  15
ENDBRANCH   9  14
BRANCH  10  17
ATOM     17  O   UNL     1      18.054  24.811  44.881  1.00  0.00    -0.387 OA
ATOM     18  H   UNL     1      18.800  24.304  45.296  1.00  0.00     0.211 HD
ENDBRANCH  10  17
BRANCH  12  19
ATOM     19  O   UNL     1      16.598  26.117  47.310  1.00  0.00    -0.387 OA
ATOM     20  H   UNL     1      16.533  26.940  47.857  1.00  0.00     0.211 HD
ENDBRANCH  12  19
BRANCH  13  21
ATOM     21  O   UNL     1      15.765  28.351  44.613  1.00  0.00    -0.385 OA
ATOM     22  H   UNL     1      15.962  29.303  44.367  1.00  0.00     0.211 HD
ENDBRANCH  13  21
ENDBRANCH   7   8
ENDBRANCH   1   7
BRANCH   2  23
ATOM     23  C   UNL     1      18.853  29.843  48.084  1.00  0.00     0.191 C 
BRANCH  23  24
ATOM     24  O   UNL     1      17.647  29.484  48.699  1.00  0.00    -0.394 OA
ATOM     25  H   UNL     1      17.061  29.115  47.983  1.00  0.00     0.210 HD
ENDBRANCH  23  24
ENDBRANCH   2  23
BRANCH   6  26
ATOM     26  O   UNL     1      19.728  31.352  43.768  1.00  0.00    -0.387 OA
ATOM     27  H   UNL     1      18.869  31.852  43.681  1.00  0.00     0.211 HD
ENDBRANCH   6  26
BRANCH   5  28
ATOM     28  O   UNL     1      22.161  32.012  45.065  1.00  0.00    -0.385 OA
ATOM     29  H   UNL     1      22.561  32.920  45.098  1.00  0.00     0.211 HD
ENDBRANCH   5  28
BRANCH   4  30
ATOM     30  O   UNL     1      21.625  30.705  47.691  1.00  0.00    -0.341 OA
BRANCH  30  31
ATOM     31  C   UNL     1      23.008  30.725  48.052  1.00  0.00     0.184 C 
ATOM     32  C   UNL     1      23.634  29.421  47.477  1.00  0.00     0.178 C 
ATOM     33  C   UNL     1      23.275  30.814  49.589  1.00  0.00     0.180 C 
ATOM     34  O   UNL     1      25.005  29.307  47.821  1.00  0.00    -0.342 OA
ATOM     35  C   UNL     1      24.723  30.410  49.958  1.00  0.00     0.201 C 
ATOM     36  C   UNL     1      25.167  29.135  49.219  1.00  0.00     0.279 C 
BRANCH  32  37
ATOM     37  C   UNL     1      23.537  29.373  45.926  1.00  0.00     0.191 C 
BRANCH  37  38
ATOM     38  O   UNL     1      22.329  28.797  45.512  1.00  0.00    -0.394 OA
ATOM     39  H   UNL     1      21.917  29.424  44.861  1.00  0.00     0.210 HD
ENDBRANCH  37  38
ENDBRANCH  32  37
BRANCH  33  40
ATOM     40  O   UNL     1      23.082  32.124  50.044  1.00  0.00    -0.387 OA
ATOM     41  H   UNL     1      23.176  32.103  51.031  1.00  0.00     0.211 HD
ENDBRANCH  33  40
BRANCH  35  42
ATOM     42  O   UNL     1      25.626  31.459  49.716  1.00  0.00    -0.385 OA
ATOM     43  H   UNL     1      25.501  32.143  50.425  1.00  0.00     0.211 HD
ENDBRANCH  35  42
BRANCH  36  44
ATOM     44  O   UNL     1      24.529  27.952  49.658  1.00  0.00    -0.366 OA
ATOM     45  H   UNL     1      23.535  28.081  49.605  1.00  0.00     0.213 HD
ENDBRANCH  36  44
ENDBRANCH  30  31
ENDBRANCH   4  30
TORSDOF 18
ENDMDL
