MODEL 1
REMARK VINA RESULT:    -5.017      0.000      0.000
REMARK INTER + INTRA:          -5.899
REMARK INTER:                  -5.603
REMARK INTRA:                  -0.296
REMARK UNBOUND:                -0.296
REMARK SMILES CC(=O)c1ccc(O)cc1O
REMARK SMILES IDX 4 1 10 2 9 3 7 4 6 5 5 6 2 7 1 8 3 9 11 10 8 12
REMARK H PARENT 11 11 8 13
REMARK Flexibility Score: inf
ROOT
ATOM      1  C   UNL     1     -13.076   6.166 -16.164  1.00  0.00     0.059 A 
ATOM      2  C   UNL     1     -11.879   6.346 -15.426  1.00  0.00     0.130 A 
ATOM      3  C   UNL     1     -11.025   5.258 -15.211  1.00  0.00     0.093 A 
ATOM      4  C   UNL     1     -11.322   4.001 -15.746  1.00  0.00     0.119 A 
ATOM      5  C   UNL     1     -12.486   3.826 -16.499  1.00  0.00     0.047 A 
ATOM      6  C   UNL     1     -13.356   4.898 -16.706  1.00  0.00     0.019 A 
ENDROOT
BRANCH   1   7
ATOM      7  C   UNL     1     -14.057   7.261 -16.349  1.00  0.00     0.163 C 
ATOM      8  C   UNL     1     -14.967   7.293 -17.538  1.00  0.00     0.093 C 
ATOM      9  O   UNL     1     -14.193   8.141 -15.457  1.00  0.00    -0.294 OA
ENDBRANCH   1   7
BRANCH   2  10
ATOM     10  O   UNL     1     -11.492   7.589 -14.919  1.00  0.00    -0.507 OA
ATOM     11  H   UNL     1     -11.691   8.465 -15.382  1.00  0.00     0.293 HD
ENDBRANCH   2  10
BRANCH   4  12
ATOM     12  O   UNL     1     -10.451   2.937 -15.524  1.00  0.00    -0.508 OA
ATOM     13  H   UNL     1     -10.487   2.391 -14.672  1.00  0.00     0.293 HD
ENDBRANCH   4  12
TORSDOF 3
ENDMDL
MODEL 2
REMARK VINA RESULT:    -4.678      1.545      2.574
REMARK INTER + INTRA:          -5.521
REMARK INTER:                  -5.218
REMARK INTRA:                  -0.303
REMARK UNBOUND:                -0.296
REMARK SMILES CC(=O)c1ccc(O)cc1O
REMARK SMILES IDX 4 1 10 2 9 3 7 4 6 5 5 6 2 7 1 8 3 9 11 10 8 12
REMARK H PARENT 11 11 8 13
REMARK Flexibility Score: inf
ROOT
ATOM      1  C   UNL     1     -12.583   7.082 -15.565  1.00  0.00     0.059 A 
ATOM      2  C   UNL     1     -13.353   6.535 -16.623  1.00  0.00     0.130 A 
ATOM      3  C   UNL     1     -13.043   5.265 -17.123  1.00  0.00     0.093 A 
ATOM      4  C   UNL     1     -12.004   4.514 -16.569  1.00  0.00     0.119 A 
ATOM      5  C   UNL     1     -11.260   5.036 -15.506  1.00  0.00     0.047 A 
ATOM      6  C   UNL     1     -11.547   6.309 -15.009  1.00  0.00     0.019 A 
ENDROOT
BRANCH   1   7
ATOM      7  C   UNL     1     -12.812   8.454 -15.054  1.00  0.00     0.163 C 
ATOM      8  C   UNL     1     -11.666   9.370 -14.755  1.00  0.00     0.093 C 
ATOM      9  O   UNL     1     -13.987   8.895 -14.941  1.00  0.00    -0.294 OA
ENDBRANCH   1   7
BRANCH   2  10
ATOM     10  O   UNL     1     -14.445   7.207 -17.178  1.00  0.00    -0.507 OA
ATOM     11  H   UNL     1     -15.399   6.885 -17.089  1.00  0.00     0.293 HD
ENDBRANCH   2  10
BRANCH   4  12
ATOM     12  O   UNL     1     -11.721   3.249 -17.080  1.00  0.00    -0.508 OA
ATOM     13  H   UNL     1     -10.921   3.087 -17.680  1.00  0.00     0.293 HD
ENDBRANCH   4  12
TORSDOF 3
ENDMDL
MODEL 3
REMARK VINA RESULT:    -4.604      6.232      6.623
REMARK INTER + INTRA:          -5.438
REMARK INTER:                  -5.135
REMARK INTRA:                  -0.303
REMARK UNBOUND:                -0.296
REMARK SMILES CC(=O)c1ccc(O)cc1O
REMARK SMILES IDX 4 1 10 2 9 3 7 4 6 5 5 6 2 7 1 8 3 9 11 10 8 12
REMARK H PARENT 11 11 8 13
REMARK Flexibility Score: inf
ROOT
ATOM      1  C   UNL     1     -17.357   2.969 -13.259  1.00  0.00     0.059 A 
ATOM      2  C   UNL     1     -17.628   3.231 -11.892  1.00  0.00     0.130 A 
ATOM      3  C   UNL     1     -16.682   2.888 -10.918  1.00  0.00     0.093 A 
ATOM      4  C   UNL     1     -15.458   2.319 -11.282  1.00  0.00     0.119 A 
ATOM      5  C   UNL     1     -15.175   2.085 -12.631  1.00  0.00     0.047 A 
ATOM      6  C   UNL     1     -16.116   2.407 -13.611  1.00  0.00     0.019 A 
ENDROOT
BRANCH   1   7
ATOM      7  C   UNL     1     -18.355   3.234 -14.322  1.00  0.00     0.163 C 
ATOM      8  C   UNL     1     -17.964   3.907 -15.601  1.00  0.00     0.093 C 
ATOM      9  O   UNL     1     -19.538   2.817 -14.193  1.00  0.00    -0.294 OA
ENDBRANCH   1   7
BRANCH   2  10
ATOM     10  O   UNL     1     -18.803   3.855 -11.468  1.00  0.00    -0.507 OA
ATOM     11  H   UNL     1     -19.699   3.715 -11.915  1.00  0.00     0.293 HD
ENDBRANCH   2  10
BRANCH   4  12
ATOM     12  O   UNL     1     -14.531   1.994 -10.294  1.00  0.00    -0.508 OA
ATOM     13  H   UNL     1     -14.661   2.279  -9.331  1.00  0.00     0.293 HD
ENDBRANCH   4  12
TORSDOF 3
ENDMDL
MODEL 4
REMARK VINA RESULT:    -4.531      6.079      7.448
REMARK INTER + INTRA:          -5.356
REMARK INTER:                  -5.046
REMARK INTRA:                  -0.310
REMARK UNBOUND:                -0.296
REMARK SMILES CC(=O)c1ccc(O)cc1O
REMARK SMILES IDX 4 1 10 2 9 3 7 4 6 5 5 6 2 7 1 8 3 9 11 10 8 12
REMARK H PARENT 11 11 8 13
REMARK Flexibility Score: inf
ROOT
ATOM      1  C   UNL     1     -15.686   2.407 -11.916  1.00  0.00     0.059 A 
ATOM      2  C   UNL     1     -15.991   2.234 -13.289  1.00  0.00     0.130 A 
ATOM      3  C   UNL     1     -17.258   2.586 -13.770  1.00  0.00     0.093 A 
ATOM      4  C   UNL     1     -18.217   3.137 -12.916  1.00  0.00     0.119 A 
ATOM      5  C   UNL     1     -17.911   3.336 -11.566  1.00  0.00     0.047 A 
ATOM      6  C   UNL     1     -16.658   2.974 -11.070  1.00  0.00     0.019 A 
ENDROOT
BRANCH   1   7
ATOM      7  C   UNL     1     -14.392   1.974 -11.337  1.00  0.00     0.163 C 
ATOM      8  C   UNL     1     -14.341   1.092 -10.127  1.00  0.00     0.093 C 
ATOM      9  O   UNL     1     -13.313   2.280 -11.911  1.00  0.00    -0.294 OA
ENDBRANCH   1   7
BRANCH   2  10
ATOM     10  O   UNL     1     -15.057   1.749 -14.208  1.00  0.00    -0.507 OA
ATOM     11  H   UNL     1     -15.208   0.922 -14.770  1.00  0.00     0.293 HD
ENDBRANCH   2  10
BRANCH   4  12
ATOM     12  O   UNL     1     -19.468   3.485 -13.420  1.00  0.00    -0.508 OA
ATOM     13  H   UNL     1     -20.207   3.825 -12.816  1.00  0.00     0.293 HD
ENDBRANCH   4  12
TORSDOF 3
ENDMDL
MODEL 5
REMARK VINA RESULT:    -4.481      1.486      3.873
REMARK INTER + INTRA:          -5.301
REMARK INTER:                  -5.169
REMARK INTRA:                  -0.132
REMARK UNBOUND:                -0.296
REMARK SMILES CC(=O)c1ccc(O)cc1O
REMARK SMILES IDX 4 1 10 2 9 3 7 4 6 5 5 6 2 7 1 8 3 9 11 10 8 12
REMARK H PARENT 11 11 8 13
REMARK Flexibility Score: inf
ROOT
ATOM      1  C   UNL     1     -12.681   5.283 -16.296  1.00  0.00     0.059 A 
ATOM      2  C   UNL     1     -11.729   5.848 -15.411  1.00  0.00     0.130 A 
ATOM      3  C   UNL     1     -11.886   7.167 -14.971  1.00  0.00     0.093 A 
ATOM      4  C   UNL     1     -12.991   7.925 -15.367  1.00  0.00     0.119 A 
ATOM      5  C   UNL     1     -13.949   7.363 -16.217  1.00  0.00     0.047 A 
ATOM      6  C   UNL     1     -13.796   6.054 -16.678  1.00  0.00     0.019 A 
ENDROOT
BRANCH   1   7
ATOM      7  C   UNL     1     -12.520   3.922 -16.860  1.00  0.00     0.163 C 
ATOM      8  C   UNL     1     -13.020   2.716 -16.128  1.00  0.00     0.093 C 
ATOM      9  O   UNL     1     -12.029   3.773 -18.011  1.00  0.00    -0.294 OA
ENDBRANCH   1   7
BRANCH   2  10
ATOM     10  O   UNL     1     -10.637   5.124 -14.927  1.00  0.00    -0.507 OA
ATOM     11  H   UNL     1      -9.846   5.553 -14.465  1.00  0.00     0.293 HD
ENDBRANCH   2  10
BRANCH   4  12
ATOM     12  O   UNL     1     -13.128   9.233 -14.908  1.00  0.00    -0.508 OA
ATOM     13  H   UNL     1     -12.993   9.469 -13.933  1.00  0.00     0.293 HD
ENDBRANCH   4  12
TORSDOF 3
ENDMDL
MODEL 6
REMARK VINA RESULT:    -4.479      1.728      4.447
REMARK INTER + INTRA:          -5.298
REMARK INTER:                  -5.064
REMARK INTRA:                  -0.234
REMARK UNBOUND:                -0.296
REMARK SMILES CC(=O)c1ccc(O)cc1O
REMARK SMILES IDX 4 1 10 2 9 3 7 4 6 5 5 6 2 7 1 8 3 9 11 10 8 12
REMARK H PARENT 11 11 8 13
REMARK Flexibility Score: inf
ROOT
ATOM      1  C   UNL     1     -11.416   5.350 -15.375  1.00  0.00     0.059 A 
ATOM      2  C   UNL     1     -11.967   4.660 -16.484  1.00  0.00     0.130 A 
ATOM      3  C   UNL     1     -12.980   5.259 -17.241  1.00  0.00     0.093 A 
ATOM      4  C   UNL     1     -13.433   6.545 -16.937  1.00  0.00     0.119 A 
ATOM      5  C   UNL     1     -12.872   7.242 -15.862  1.00  0.00     0.047 A 
ATOM      6  C   UNL     1     -11.873   6.650 -15.087  1.00  0.00     0.019 A 
ENDROOT
BRANCH   1   7
ATOM      7  C   UNL     1     -10.402   4.731 -14.489  1.00  0.00     0.163 C 
ATOM      8  C   UNL     1      -9.737   5.520 -13.404  1.00  0.00     0.093 C 
ATOM      9  O   UNL     1     -10.147   3.501 -14.588  1.00  0.00    -0.294 OA
ENDBRANCH   1   7
BRANCH   2  10
ATOM     10  O   UNL     1     -11.515   3.399 -16.880  1.00  0.00    -0.507 OA
ATOM     11  H   UNL     1     -12.135   2.638 -17.123  1.00  0.00     0.293 HD
ENDBRANCH   2  10
BRANCH   4  12
ATOM     12  O   UNL     1     -14.438   7.122 -17.711  1.00  0.00    -0.508 OA
ATOM     13  H   UNL     1     -14.896   6.607 -18.453  1.00  0.00     0.293 HD
ENDBRANCH   4  12
TORSDOF 3
ENDMDL
MODEL 7
REMARK VINA RESULT:    -4.267      1.511      3.929
REMARK INTER + INTRA:          -5.062
REMARK INTER:                  -4.849
REMARK INTRA:                  -0.212
REMARK UNBOUND:                -0.296
REMARK SMILES CC(=O)c1ccc(O)cc1O
REMARK SMILES IDX 4 1 10 2 9 3 7 4 6 5 5 6 2 7 1 8 3 9 11 10 8 12
REMARK H PARENT 11 11 8 13
REMARK Flexibility Score: inf
ROOT
ATOM      1  C   UNL     1     -11.569   5.474 -15.246  1.00  0.00     0.059 A 
ATOM      2  C   UNL     1     -11.913   6.837 -15.054  1.00  0.00     0.130 A 
ATOM      3  C   UNL     1     -12.881   7.431 -15.872  1.00  0.00     0.093 A 
ATOM      4  C   UNL     1     -13.539   6.687 -16.855  1.00  0.00     0.119 A 
ATOM      5  C   UNL     1     -13.225   5.335 -17.029  1.00  0.00     0.047 A 
ATOM      6  C   UNL     1     -12.249   4.734 -16.232  1.00  0.00     0.019 A 
ENDROOT
BRANCH   1   7
ATOM      7  C   UNL     1     -10.493   4.818 -14.467  1.00  0.00     0.163 C 
ATOM      8  C   UNL     1     -10.170   3.369 -14.661  1.00  0.00     0.093 C 
ATOM      9  O   UNL     1      -9.779   5.499 -13.684  1.00  0.00    -0.294 OA
ENDBRANCH   1   7
BRANCH   2  10
ATOM     10  O   UNL     1     -11.339   7.618 -14.049  1.00  0.00    -0.507 OA
ATOM     11  H   UNL     1     -10.987   8.553 -14.205  1.00  0.00     0.293 HD
ENDBRANCH   2  10
BRANCH   4  12
ATOM     12  O   UNL     1     -14.504   7.300 -17.651  1.00  0.00    -0.508 OA
ATOM     13  H   UNL     1     -14.665   8.299 -17.614  1.00  0.00     0.293 HD
ENDBRANCH   4  12
TORSDOF 3
ENDMDL
MODEL 8
REMARK VINA RESULT:    -4.233     11.981     13.925
REMARK INTER + INTRA:          -5.024
REMARK INTER:                  -4.715
REMARK INTRA:                  -0.309
REMARK UNBOUND:                -0.296
REMARK SMILES CC(=O)c1ccc(O)cc1O
REMARK SMILES IDX 4 1 10 2 9 3 7 4 6 5 5 6 2 7 1 8 3 9 11 10 8 12
REMARK H PARENT 11 11 8 13
REMARK Flexibility Score: inf
ROOT
ATOM      1  C   UNL     1     -24.875   8.110 -22.545  1.00  0.00     0.059 A 
ATOM      2  C   UNL     1     -23.684   7.538 -22.031  1.00  0.00     0.130 A 
ATOM      3  C   UNL     1     -22.576   8.354 -21.775  1.00  0.00     0.093 A 
ATOM      4  C   UNL     1     -22.640   9.733 -21.988  1.00  0.00     0.119 A 
ATOM      5  C   UNL     1     -23.822  10.306 -22.468  1.00  0.00     0.047 A 
ATOM      6  C   UNL     1     -24.929   9.503 -22.744  1.00  0.00     0.019 A 
ENDROOT
BRANCH   1   7
ATOM      7  C   UNL     1     -26.048   7.284 -22.914  1.00  0.00     0.163 C 
ATOM      8  C   UNL     1     -26.735   7.458 -24.234  1.00  0.00     0.093 C 
ATOM      9  O   UNL     1     -26.434   6.362 -22.147  1.00  0.00    -0.294 OA
ENDBRANCH   1   7
BRANCH   2  10
ATOM     10  O   UNL     1     -23.575   6.177 -21.735  1.00  0.00    -0.507 OA
ATOM     11  H   UNL     1     -24.060   5.735 -20.967  1.00  0.00     0.293 HD
ENDBRANCH   2  10
BRANCH   4  12
ATOM     12  O   UNL     1     -21.526  10.524 -21.718  1.00  0.00    -0.508 OA
ATOM     13  H   UNL     1     -20.678  10.129 -21.329  1.00  0.00     0.293 HD
ENDBRANCH   4  12
TORSDOF 3
ENDMDL
MODEL 9
REMARK VINA RESULT:    -4.231      2.536      3.726
REMARK INTER + INTRA:          -5.022
REMARK INTER:                  -4.713
REMARK INTRA:                  -0.309
REMARK UNBOUND:                -0.296
REMARK SMILES CC(=O)c1ccc(O)cc1O
REMARK SMILES IDX 4 1 10 2 9 3 7 4 6 5 5 6 2 7 1 8 3 9 11 10 8 12
REMARK H PARENT 11 11 8 13
REMARK Flexibility Score: inf
ROOT
ATOM      1  C   UNL     1     -11.647   4.377 -14.666  1.00  0.00     0.059 A 
ATOM      2  C   UNL     1     -11.881   4.210 -16.054  1.00  0.00     0.130 A 
ATOM      3  C   UNL     1     -12.544   3.066 -16.514  1.00  0.00     0.093 A 
ATOM      4  C   UNL     1     -13.009   2.101 -15.617  1.00  0.00     0.119 A 
ATOM      5  C   UNL     1     -12.807   2.275 -14.244  1.00  0.00     0.047 A 
ATOM      6  C   UNL     1     -12.132   3.402 -13.773  1.00  0.00     0.019 A 
ENDROOT
BRANCH   1   7
ATOM      7  C   UNL     1     -10.878   5.524 -14.131  1.00  0.00     0.163 C 
ATOM      8  C   UNL     1      -9.661   5.313 -13.283  1.00  0.00     0.093 C 
ATOM      9  O   UNL     1     -11.195   6.700 -14.454  1.00  0.00    -0.294 OA
ENDBRANCH   1   7
BRANCH   2  10
ATOM     10  O   UNL     1     -11.499   5.166 -16.997  1.00  0.00    -0.507 OA
ATOM     11  H   UNL     1     -10.615   5.656 -16.966  1.00  0.00     0.293 HD
ENDBRANCH   2  10
BRANCH   4  12
ATOM     12  O   UNL     1     -13.673   0.975 -16.101  1.00  0.00    -0.508 OA
ATOM     13  H   UNL     1     -13.225   0.067 -16.129  1.00  0.00     0.293 HD
ENDBRANCH   4  12
TORSDOF 3
ENDMDL
