MODEL 1
REMARK VINA RESULT:    -4.319      0.000      0.000
REMARK INTER + INTRA:         -10.242
REMARK INTER:                  -8.106
REMARK INTRA:                  -2.136
REMARK UNBOUND:                -2.136
REMARK SMILES CCCCCCCCC=CCCCCCCCC(=O)[O-]
REMARK SMILES IDX 10 1 9 2 11 3 12 4 13 5 14 6 15 7 16 8 17 9 18 10 19 11
REMARK SMILES IDX 20 12 8 13 7 14 6 15 5 16 4 17 3 18 2 19 1 20
REMARK H PARENT
REMARK Flexibility Score: inf
ROOT
ATOM      1  C   UNL     1       3.174  25.860 112.232  1.00  0.00    -0.031 C 
ATOM      2  C   UNL     1       3.995  24.878 112.655  1.00  0.00    -0.031 C 
ENDROOT
BRANCH   1   3
ATOM      3  C   UNL     1       3.105  26.398 110.822  1.00  0.00     0.027 C 
BRANCH   3   4
ATOM      4  C   UNL     1       3.328  27.920 110.781  1.00  0.00     0.004 C 
BRANCH   4   5
ATOM      5  C   UNL     1       3.063  28.639 112.117  1.00  0.00     0.000 C 
BRANCH   5   6
ATOM      6  C   UNL     1       4.283  29.437 112.612  1.00  0.00     0.000 C 
BRANCH   6   7
ATOM      7  C   UNL     1       4.807  28.933 113.966  1.00  0.00     0.000 C 
BRANCH   7   8
ATOM      8  C   UNL     1       5.598  30.004 114.734  1.00  0.00     0.006 C 
BRANCH   8   9
ATOM      9  C   UNL     1       6.029  31.139 113.800  1.00  0.00     0.053 C 
BRANCH   9  10
ATOM     10  C   UNL     1       7.372  31.663 114.198  1.00  0.00     0.041 C 
ATOM     11  O   UNL     1       8.289  31.775 113.342  1.00  0.00    -0.550 OA
ATOM     12  O   UNL     1       7.598  32.073 115.506  1.00  0.00    -0.550 OA
ENDBRANCH   9  10
ENDBRANCH   8   9
ENDBRANCH   7   8
ENDBRANCH   6   7
ENDBRANCH   5   6
ENDBRANCH   4   5
ENDBRANCH   3   4
ENDBRANCH   1   3
BRANCH   2  13
ATOM     13  C   UNL     1       5.019  24.166 111.802  1.00  0.00     0.027 C 
BRANCH  13  14
ATOM     14  C   UNL     1       6.456  24.649 112.056  1.00  0.00     0.004 C 
BRANCH  14  15
ATOM     15  C   UNL     1       6.521  26.162 112.339  1.00  0.00     0.000 C 
BRANCH  15  16
ATOM     16  C   UNL     1       7.093  26.962 111.159  1.00  0.00     0.000 C 
BRANCH  16  17
ATOM     17  C   UNL     1       7.220  26.121 109.878  1.00  0.00    -0.000 C 
BRANCH  17  18
ATOM     18  C   UNL     1       6.259  26.577 108.765  1.00  0.00    -0.000 C 
BRANCH  18  19
ATOM     19  C   UNL     1       6.767  26.344 107.330  1.00  0.00    -0.003 C 
ATOM     20  C   UNL     1       8.159  25.717 107.283  1.00  0.00     0.004 C 
ENDBRANCH  18  19
ENDBRANCH  17  18
ENDBRANCH  16  17
ENDBRANCH  15  16
ENDBRANCH  14  15
ENDBRANCH  13  14
ENDBRANCH   2  13
TORSDOF 15
ENDMDL
MODEL 2
REMARK VINA RESULT:    -4.096      1.324      2.053
REMARK INTER + INTRA:          -9.824
REMARK INTER:                  -7.611
REMARK INTRA:                  -2.212
REMARK UNBOUND:                -2.136
REMARK SMILES CCCCCCCCC=CCCCCCCCC(=O)[O-]
REMARK SMILES IDX 10 1 9 2 11 3 12 4 13 5 14 6 15 7 16 8 17 9 18 10 19 11
REMARK SMILES IDX 20 12 8 13 7 14 6 15 5 16 4 17 3 18 2 19 1 20
REMARK H PARENT
REMARK Flexibility Score: inf
ROOT
ATOM      1  C   UNL     1       4.131  27.772 111.106  1.00  0.00    -0.031 C 
ATOM      2  C   UNL     1       4.624  27.079 112.151  1.00  0.00    -0.031 C 
ENDROOT
BRANCH   1   3
ATOM      3  C   UNL     1       2.823  27.488 110.405  1.00  0.00     0.027 C 
BRANCH   3   4
ATOM      4  C   UNL     1       1.979  28.764 110.235  1.00  0.00     0.004 C 
BRANCH   4   5
ATOM      5  C   UNL     1       2.623  30.037 110.816  1.00  0.00     0.000 C 
BRANCH   5   6
ATOM      6  C   UNL     1       1.983  30.471 112.147  1.00  0.00     0.000 C 
BRANCH   6   7
ATOM      7  C   UNL     1       2.985  30.467 113.313  1.00  0.00     0.000 C 
BRANCH   7   8
ATOM      8  C   UNL     1       4.215  31.346 113.043  1.00  0.00     0.006 C 
BRANCH   8   9
ATOM      9  C   UNL     1       5.509  30.588 113.355  1.00  0.00     0.053 C 
BRANCH   9  10
ATOM     10  C   UNL     1       6.581  31.535 113.791  1.00  0.00     0.041 C 
ATOM     11  O   UNL     1       6.375  32.331 114.744  1.00  0.00    -0.550 OA
ATOM     12  O   UNL     1       7.825  31.507 113.174  1.00  0.00    -0.550 OA
ENDBRANCH   9  10
ENDBRANCH   8   9
ENDBRANCH   7   8
ENDBRANCH   6   7
ENDBRANCH   5   6
ENDBRANCH   4   5
ENDBRANCH   3   4
ENDBRANCH   1   3
BRANCH   2  13
ATOM     13  C   UNL     1       3.973  25.872 112.786  1.00  0.00     0.027 C 
BRANCH  13  14
ATOM     14  C   UNL     1       4.435  24.543 112.168  1.00  0.00     0.004 C 
BRANCH  14  15
ATOM     15  C   UNL     1       5.916  24.245 112.467  1.00  0.00     0.000 C 
BRANCH  15  16
ATOM     16  C   UNL     1       6.803  24.329 111.216  1.00  0.00     0.000 C 
BRANCH  16  17
ATOM     17  C   UNL     1       7.944  25.350 111.365  1.00  0.00    -0.000 C 
BRANCH  17  18
ATOM     18  C   UNL     1       7.871  26.485 110.327  1.00  0.00    -0.000 C 
BRANCH  18  19
ATOM     19  C   UNL     1       6.979  26.193 109.106  1.00  0.00    -0.003 C 
ATOM     20  C   UNL     1       7.767  25.698 107.894  1.00  0.00     0.004 C 
ENDBRANCH  18  19
ENDBRANCH  17  18
ENDBRANCH  16  17
ENDBRANCH  15  16
ENDBRANCH  14  15
ENDBRANCH  13  14
ENDBRANCH   2  13
TORSDOF 15
ENDMDL
MODEL 3
REMARK VINA RESULT:    -4.077      3.576      5.951
REMARK INTER + INTRA:          -9.788
REMARK INTER:                  -7.006
REMARK INTRA:                  -2.782
REMARK UNBOUND:                -2.136
REMARK SMILES CCCCCCCCC=CCCCCCCCC(=O)[O-]
REMARK SMILES IDX 10 1 9 2 11 3 12 4 13 5 14 6 15 7 16 8 17 9 18 10 19 11
REMARK SMILES IDX 20 12 8 13 7 14 6 15 5 16 4 17 3 18 2 19 1 20
REMARK H PARENT
REMARK Flexibility Score: inf
ROOT
ATOM      1  C   UNL     1       0.588  24.886 113.439  1.00  0.00    -0.031 C 
ATOM      2  C   UNL     1       0.219  23.679 113.911  1.00  0.00    -0.031 C 
ENDROOT
BRANCH   1   3
ATOM      3  C   UNL     1       1.491  25.867 114.150  1.00  0.00     0.027 C 
BRANCH   3   4
ATOM      4  C   UNL     1       2.619  26.372 113.233  1.00  0.00     0.004 C 
BRANCH   4   5
ATOM      5  C   UNL     1       2.554  25.838 111.789  1.00  0.00     0.000 C 
BRANCH   5   6
ATOM      6  C   UNL     1       3.861  26.072 111.012  1.00  0.00     0.000 C 
BRANCH   6   7
ATOM      7  C   UNL     1       4.673  27.255 111.564  1.00  0.00     0.000 C 
BRANCH   7   8
ATOM      8  C   UNL     1       6.131  26.883 111.872  1.00  0.00     0.006 C 
BRANCH   8   9
ATOM      9  C   UNL     1       6.662  25.864 110.859  1.00  0.00     0.053 C 
BRANCH   9  10
ATOM     10  C   UNL     1       7.765  25.053 111.459  1.00  0.00     0.041 C 
ATOM     11  O   UNL     1       7.511  23.960 112.032  1.00  0.00    -0.550 OA
ATOM     12  O   UNL     1       9.082  25.480 111.345  1.00  0.00    -0.550 OA
ENDBRANCH   9  10
ENDBRANCH   8   9
ENDBRANCH   7   8
ENDBRANCH   6   7
ENDBRANCH   5   6
ENDBRANCH   4   5
ENDBRANCH   3   4
ENDBRANCH   1   3
BRANCH   2  13
ATOM     13  C   UNL     1       0.613  23.107 115.253  1.00  0.00     0.027 C 
BRANCH  13  14
ATOM     14  C   UNL     1       1.223  21.700 115.151  1.00  0.00     0.004 C 
BRANCH  14  15
ATOM     15  C   UNL     1       1.876  21.445 113.780  1.00  0.00     0.000 C 
BRANCH  15  16
ATOM     16  C   UNL     1       3.410  21.504 113.832  1.00  0.00     0.000 C 
BRANCH  16  17
ATOM     17  C   UNL     1       3.958  22.924 113.609  1.00  0.00    -0.000 C 
BRANCH  17  18
ATOM     18  C   UNL     1       4.444  23.589 114.910  1.00  0.00    -0.000 C 
BRANCH  18  19
ATOM     19  C   UNL     1       5.556  24.637 114.729  1.00  0.00    -0.003 C 
ATOM     20  C   UNL     1       5.360  25.874 115.604  1.00  0.00     0.004 C 
ENDBRANCH  18  19
ENDBRANCH  17  18
ENDBRANCH  16  17
ENDBRANCH  15  16
ENDBRANCH  14  15
ENDBRANCH  13  14
ENDBRANCH   2  13
TORSDOF 15
ENDMDL
MODEL 4
REMARK VINA RESULT:    -4.050      3.727      6.142
REMARK INTER + INTRA:          -9.737
REMARK INTER:                  -7.668
REMARK INTRA:                  -2.069
REMARK UNBOUND:                -2.136
REMARK SMILES CCCCCCCCC=CCCCCCCCC(=O)[O-]
REMARK SMILES IDX 10 1 9 2 11 3 12 4 13 5 14 6 15 7 16 8 17 9 18 10 19 11
REMARK SMILES IDX 20 12 8 13 7 14 6 15 5 16 4 17 3 18 2 19 1 20
REMARK H PARENT
REMARK Flexibility Score: inf
ROOT
ATOM      1  C   UNL     1       3.356  21.704 113.754  1.00  0.00    -0.031 C 
ATOM      2  C   UNL     1       2.037  21.429 113.776  1.00  0.00    -0.031 C 
ENDROOT
BRANCH   1   3
ATOM      3  C   UNL     1       4.165  22.210 114.926  1.00  0.00     0.027 C 
BRANCH   3   4
ATOM      4  C   UNL     1       4.602  23.673 114.727  1.00  0.00     0.004 C 
BRANCH   4   5
ATOM      5  C   UNL     1       4.896  24.057 113.265  1.00  0.00     0.000 C 
BRANCH   5   6
ATOM      6  C   UNL     1       5.719  25.353 113.147  1.00  0.00     0.000 C 
BRANCH   6   7
ATOM      7  C   UNL     1       7.193  25.087 112.804  1.00  0.00     0.000 C 
BRANCH   7   8
ATOM      8  C   UNL     1       7.429  24.901 111.298  1.00  0.00     0.006 C 
BRANCH   8   9
ATOM      9  C   UNL     1       7.475  26.253 110.580  1.00  0.00     0.053 C 
BRANCH   9  10
ATOM     10  C   UNL     1       7.255  26.076 109.112  1.00  0.00     0.041 C 
ATOM     11  O   UNL     1       6.596  26.928 108.460  1.00  0.00    -0.550 OA
ATOM     12  O   UNL     1       7.819  24.991 108.452  1.00  0.00    -0.550 OA
ENDBRANCH   9  10
ENDBRANCH   8   9
ENDBRANCH   7   8
ENDBRANCH   6   7
ENDBRANCH   5   6
ENDBRANCH   4   5
ENDBRANCH   3   4
ENDBRANCH   1   3
BRANCH   2  13
ATOM     13  C   UNL     1       1.124  21.611 114.966  1.00  0.00     0.027 C 
BRANCH  13  14
ATOM     14  C   UNL     1       0.511  23.019 115.044  1.00  0.00     0.004 C 
BRANCH  14  15
ATOM     15  C   UNL     1       0.441  23.701 113.665  1.00  0.00     0.000 C 
BRANCH  15  16
ATOM     16  C   UNL     1       1.039  25.116 113.672  1.00  0.00     0.000 C 
BRANCH  16  17
ATOM     17  C   UNL     1       1.815  25.439 112.383  1.00  0.00    -0.000 C 
BRANCH  17  18
ATOM     18  C   UNL     1       1.947  26.951 112.128  1.00  0.00    -0.000 C 
BRANCH  18  19
ATOM     19  C   UNL     1       2.599  27.329 110.785  1.00  0.00    -0.003 C 
ATOM     20  C   UNL     1       3.678  26.342 110.344  1.00  0.00     0.004 C 
ENDBRANCH  18  19
ENDBRANCH  17  18
ENDBRANCH  16  17
ENDBRANCH  15  16
ENDBRANCH  14  15
ENDBRANCH  13  14
ENDBRANCH   2  13
TORSDOF 15
ENDMDL
MODEL 5
REMARK VINA RESULT:    -4.044      3.358      6.233
REMARK INTER + INTRA:          -9.726
REMARK INTER:                  -7.090
REMARK INTRA:                  -2.636
REMARK UNBOUND:                -2.136
REMARK SMILES CCCCCCCCC=CCCCCCCCC(=O)[O-]
REMARK SMILES IDX 10 1 9 2 11 3 12 4 13 5 14 6 15 7 16 8 17 9 18 10 19 11
REMARK SMILES IDX 20 12 8 13 7 14 6 15 5 16 4 17 3 18 2 19 1 20
REMARK H PARENT
REMARK Flexibility Score: inf
ROOT
ATOM      1  C   UNL     1       1.522  21.920 115.321  1.00  0.00    -0.031 C 
ATOM      2  C   UNL     1       0.440  22.651 115.652  1.00  0.00    -0.031 C 
ENDROOT
BRANCH   1   3
ATOM      3  C   UNL     1       1.974  21.612 113.912  1.00  0.00     0.027 C 
BRANCH   3   4
ATOM      4  C   UNL     1       3.430  22.048 113.672  1.00  0.00     0.004 C 
BRANCH   4   5
ATOM      5  C   UNL     1       3.869  23.281 114.484  1.00  0.00     0.000 C 
BRANCH   5   6
ATOM      6  C   UNL     1       5.003  24.068 113.802  1.00  0.00     0.000 C 
BRANCH   6   7
ATOM      7  C   UNL     1       5.090  23.787 112.293  1.00  0.00     0.000 C 
BRANCH   7   8
ATOM      8  C   UNL     1       6.351  24.383 111.650  1.00  0.00     0.006 C 
BRANCH   8   9
ATOM      9  C   UNL     1       6.634  25.786 112.197  1.00  0.00     0.053 C 
BRANCH   9  10
ATOM     10  C   UNL     1       6.706  26.779 111.081  1.00  0.00     0.041 C 
ATOM     11  O   UNL     1       7.670  27.587 111.011  1.00  0.00    -0.550 OA
ATOM     12  O   UNL     1       5.732  26.783 110.091  1.00  0.00    -0.550 OA
ENDBRANCH   9  10
ENDBRANCH   8   9
ENDBRANCH   7   8
ENDBRANCH   6   7
ENDBRANCH   5   6
ENDBRANCH   4   5
ENDBRANCH   3   4
ENDBRANCH   1   3
BRANCH   2  13
ATOM     13  C   UNL     1      -0.535  23.264 114.674  1.00  0.00     0.027 C 
BRANCH  13  14
ATOM     14  C   UNL     1      -0.716  24.778 114.873  1.00  0.00     0.004 C 
BRANCH  14  15
ATOM     15  C   UNL     1       0.589  25.558 114.630  1.00  0.00     0.000 C 
BRANCH  15  16
ATOM     16  C   UNL     1       1.138  25.366 113.207  1.00  0.00     0.000 C 
BRANCH  16  17
ATOM     17  C   UNL     1       1.509  26.697 112.530  1.00  0.00    -0.000 C 
BRANCH  17  18
ATOM     18  C   UNL     1       3.019  26.829 112.259  1.00  0.00    -0.000 C 
BRANCH  18  19
ATOM     19  C   UNL     1       3.711  27.996 112.987  1.00  0.00    -0.003 C 
ATOM     20  C   UNL     1       4.156  27.638 114.404  1.00  0.00     0.004 C 
ENDBRANCH  18  19
ENDBRANCH  17  18
ENDBRANCH  16  17
ENDBRANCH  15  16
ENDBRANCH  14  15
ENDBRANCH  13  14
ENDBRANCH   2  13
TORSDOF 15
ENDMDL
MODEL 6
REMARK VINA RESULT:    -4.024      3.476      6.026
REMARK INTER + INTRA:          -9.689
REMARK INTER:                  -6.693
REMARK INTRA:                  -2.996
REMARK UNBOUND:                -2.136
REMARK SMILES CCCCCCCCC=CCCCCCCCC(=O)[O-]
REMARK SMILES IDX 10 1 9 2 11 3 12 4 13 5 14 6 15 7 16 8 17 9 18 10 19 11
REMARK SMILES IDX 20 12 8 13 7 14 6 15 5 16 4 17 3 18 2 19 1 20
REMARK H PARENT
REMARK Flexibility Score: inf
ROOT
ATOM      1  C   UNL     1       0.396  23.291 114.587  1.00  0.00    -0.031 C 
ATOM      2  C   UNL     1       1.049  22.142 114.850  1.00  0.00    -0.031 C 
ENDROOT
BRANCH   1   3
ATOM      3  C   UNL     1       0.426  24.035 113.272  1.00  0.00     0.027 C 
BRANCH   3   4
ATOM      4  C   UNL     1       1.088  25.417 113.414  1.00  0.00     0.004 C 
BRANCH   4   5
ATOM      5  C   UNL     1       2.148  25.729 112.341  1.00  0.00     0.000 C 
BRANCH   5   6
ATOM      6  C   UNL     1       2.888  27.052 112.605  1.00  0.00     0.000 C 
BRANCH   6   7
ATOM      7  C   UNL     1       4.415  26.906 112.501  1.00  0.00     0.000 C 
BRANCH   7   8
ATOM      8  C   UNL     1       4.901  26.762 111.051  1.00  0.00     0.006 C 
BRANCH   8   9
ATOM      9  C   UNL     1       6.061  25.766 110.960  1.00  0.00     0.053 C 
BRANCH   9  10
ATOM     10  C   UNL     1       7.369  26.465 111.146  1.00  0.00     0.041 C 
ATOM     11  O   UNL     1       7.438  27.719 111.054  1.00  0.00    -0.550 OA
ATOM     12  O   UNL     1       8.507  25.735 111.467  1.00  0.00    -0.550 OA
ENDBRANCH   9  10
ENDBRANCH   8   9
ENDBRANCH   7   8
ENDBRANCH   6   7
ENDBRANCH   5   6
ENDBRANCH   4   5
ENDBRANCH   3   4
ENDBRANCH   1   3
BRANCH   2  13
ATOM     13  C   UNL     1       1.957  21.412 113.888  1.00  0.00     0.027 C 
BRANCH  13  14
ATOM     14  C   UNL     1       3.449  21.654 114.167  1.00  0.00     0.004 C 
BRANCH  14  15
ATOM     15  C   UNL     1       4.019  22.808 113.322  1.00  0.00     0.000 C 
BRANCH  15  16
ATOM     16  C   UNL     1       4.757  23.857 114.170  1.00  0.00     0.000 C 
BRANCH  16  17
ATOM     17  C   UNL     1       4.224  23.936 115.610  1.00  0.00    -0.000 C 
BRANCH  17  18
ATOM     18  C   UNL     1       3.875  25.373 116.040  1.00  0.00    -0.000 C 
BRANCH  18  19
ATOM     19  C   UNL     1       2.517  25.530 116.748  1.00  0.00    -0.003 C 
ATOM     20  C   UNL     1       2.262  24.449 117.797  1.00  0.00     0.004 C 
ENDBRANCH  18  19
ENDBRANCH  17  18
ENDBRANCH  16  17
ENDBRANCH  15  16
ENDBRANCH  14  15
ENDBRANCH  13  14
ENDBRANCH   2  13
TORSDOF 15
ENDMDL
MODEL 7
REMARK VINA RESULT:    -4.009      3.464      6.592
REMARK INTER + INTRA:          -9.661
REMARK INTER:                  -7.204
REMARK INTRA:                  -2.456
REMARK UNBOUND:                -2.136
REMARK SMILES CCCCCCCCC=CCCCCCCCC(=O)[O-]
REMARK SMILES IDX 10 1 9 2 11 3 12 4 13 5 14 6 15 7 16 8 17 9 18 10 19 11
REMARK SMILES IDX 20 12 8 13 7 14 6 15 5 16 4 17 3 18 2 19 1 20
REMARK H PARENT
REMARK Flexibility Score: inf
ROOT
ATOM      1  C   UNL     1       2.142  27.981 110.288  1.00  0.00    -0.031 C 
ATOM      2  C   UNL     1       1.829  29.259 110.580  1.00  0.00    -0.031 C 
ENDROOT
BRANCH   1   3
ATOM      3  C   UNL     1       3.543  27.430 110.153  1.00  0.00     0.027 C 
BRANCH   3   4
ATOM      4  C   UNL     1       3.625  25.963 110.610  1.00  0.00     0.004 C 
BRANCH   4   5
ATOM      5  C   UNL     1       4.959  25.578 111.278  1.00  0.00     0.000 C 
BRANCH   5   6
ATOM      6  C   UNL     1       5.937  26.761 111.375  1.00  0.00     0.000 C 
BRANCH   6   7
ATOM      7  C   UNL     1       7.394  26.345 111.117  1.00  0.00     0.000 C 
BRANCH   7   8
ATOM      8  C   UNL     1       7.553  25.490 109.851  1.00  0.00     0.006 C 
BRANCH   8   9
ATOM      9  C   UNL     1       7.094  26.260 108.609  1.00  0.00     0.053 C 
BRANCH   9  10
ATOM     10  C   UNL     1       7.900  25.860 107.415  1.00  0.00     0.041 C 
ATOM     11  O   UNL     1       9.148  25.716 107.510  1.00  0.00    -0.550 OA
ATOM     12  O   UNL     1       7.268  25.599 106.206  1.00  0.00    -0.550 OA
ENDBRANCH   9  10
ENDBRANCH   8   9
ENDBRANCH   7   8
ENDBRANCH   6   7
ENDBRANCH   5   6
ENDBRANCH   4   5
ENDBRANCH   3   4
ENDBRANCH   1   3
BRANCH   2  13
ATOM     13  C   UNL     1       2.823  30.377 110.790  1.00  0.00     0.027 C 
BRANCH  13  14
ATOM     14  C   UNL     1       3.327  30.470 112.239  1.00  0.00     0.004 C 
BRANCH  14  15
ATOM     15  C   UNL     1       2.181  30.364 113.263  1.00  0.00     0.000 C 
BRANCH  15  16
ATOM     16  C   UNL     1       2.599  29.630 114.547  1.00  0.00     0.000 C 
BRANCH  16  17
ATOM     17  C   UNL     1       3.810  28.706 114.335  1.00  0.00    -0.000 C 
BRANCH  17  18
ATOM     18  C   UNL     1       3.408  27.246 114.058  1.00  0.00    -0.000 C 
BRANCH  18  19
ATOM     19  C   UNL     1       1.973  26.876 114.476  1.00  0.00    -0.003 C 
ATOM     20  C   UNL     1       1.128  26.351 113.317  1.00  0.00     0.004 C 
ENDBRANCH  18  19
ENDBRANCH  17  18
ENDBRANCH  16  17
ENDBRANCH  15  16
ENDBRANCH  14  15
ENDBRANCH  13  14
ENDBRANCH   2  13
TORSDOF 15
ENDMDL
MODEL 8
REMARK VINA RESULT:    -3.967      2.637      5.845
REMARK INTER + INTRA:          -9.581
REMARK INTER:                  -7.088
REMARK INTRA:                  -2.493
REMARK UNBOUND:                -2.136
REMARK SMILES CCCCCCCCC=CCCCCCCCC(=O)[O-]
REMARK SMILES IDX 10 1 9 2 11 3 12 4 13 5 14 6 15 7 16 8 17 9 18 10 19 11
REMARK SMILES IDX 20 12 8 13 7 14 6 15 5 16 4 17 3 18 2 19 1 20
REMARK H PARENT
REMARK Flexibility Score: inf
ROOT
ATOM      1  C   UNL     1       1.376  25.674 113.450  1.00  0.00    -0.031 C 
ATOM      2  C   UNL     1       1.690  26.641 112.564  1.00  0.00    -0.031 C 
ENDROOT
BRANCH   1   3
ATOM      3  C   UNL     1       1.761  24.218 113.329  1.00  0.00     0.027 C 
BRANCH   3   4
ATOM      4  C   UNL     1       3.130  23.935 113.972  1.00  0.00     0.004 C 
BRANCH   4   5
ATOM      5  C   UNL     1       4.065  23.057 113.120  1.00  0.00     0.000 C 
BRANCH   5   6
ATOM      6  C   UNL     1       4.985  23.884 112.204  1.00  0.00     0.000 C 
BRANCH   6   7
ATOM      7  C   UNL     1       5.667  25.045 112.946  1.00  0.00     0.000 C 
BRANCH   7   8
ATOM      8  C   UNL     1       7.138  25.226 112.544  1.00  0.00     0.006 C 
BRANCH   8   9
ATOM      9  C   UNL     1       7.300  25.168 111.021  1.00  0.00     0.053 C 
BRANCH   9  10
ATOM     10  C   UNL     1       7.102  26.524 110.421  1.00  0.00     0.041 C 
ATOM     11  O   UNL     1       6.480  26.652 109.334  1.00  0.00    -0.550 OA
ATOM     12  O   UNL     1       7.564  27.652 111.087  1.00  0.00    -0.550 OA
ENDBRANCH   9  10
ENDBRANCH   8   9
ENDBRANCH   7   8
ENDBRANCH   6   7
ENDBRANCH   5   6
ENDBRANCH   4   5
ENDBRANCH   3   4
ENDBRANCH   1   3
BRANCH   2  13
ATOM     13  C   UNL     1       2.451  26.434 111.276  1.00  0.00     0.027 C 
BRANCH  13  14
ATOM     14  C   UNL     1       3.498  27.528 111.013  1.00  0.00     0.004 C 
BRANCH  14  15
ATOM     15  C   UNL     1       4.005  28.175 112.315  1.00  0.00     0.000 C 
BRANCH  15  16
ATOM     16  C   UNL     1       3.776  29.694 112.351  1.00  0.00     0.000 C 
BRANCH  16  17
ATOM     17  C   UNL     1       2.573  30.093 113.223  1.00  0.00    -0.000 C 
BRANCH  17  18
ATOM     18  C   UNL     1       1.482  30.837 112.432  1.00  0.00    -0.000 C 
BRANCH  18  19
ATOM     19  C   UNL     1       0.686  29.965 111.444  1.00  0.00    -0.003 C 
ATOM     20  C   UNL     1      -0.825  30.165 111.553  1.00  0.00     0.004 C 
ENDBRANCH  18  19
ENDBRANCH  17  18
ENDBRANCH  16  17
ENDBRANCH  15  16
ENDBRANCH  14  15
ENDBRANCH  13  14
ENDBRANCH   2  13
TORSDOF 15
ENDMDL
MODEL 9
REMARK VINA RESULT:    -3.965      3.736      6.492
REMARK INTER + INTRA:          -9.579
REMARK INTER:                  -7.013
REMARK INTRA:                  -2.566
REMARK UNBOUND:                -2.136
REMARK SMILES CCCCCCCCC=CCCCCCCCC(=O)[O-]
REMARK SMILES IDX 10 1 9 2 11 3 12 4 13 5 14 6 15 7 16 8 17 9 18 10 19 11
REMARK SMILES IDX 20 12 8 13 7 14 6 15 5 16 4 17 3 18 2 19 1 20
REMARK H PARENT
REMARK Flexibility Score: inf
ROOT
ATOM      1  C   UNL     1       2.241  26.278 114.238  1.00  0.00    -0.031 C 
ATOM      2  C   UNL     1       3.160  25.352 114.572  1.00  0.00    -0.031 C 
ENDROOT
BRANCH   1   3
ATOM      3  C   UNL     1       1.390  26.258 112.989  1.00  0.00     0.027 C 
BRANCH   3   4
ATOM      4  C   UNL     1       1.569  27.538 112.156  1.00  0.00     0.004 C 
BRANCH   4   5
ATOM      5  C   UNL     1       2.939  27.661 111.462  1.00  0.00     0.000 C 
BRANCH   5   6
ATOM      6  C   UNL     1       3.282  26.428 110.607  1.00  0.00     0.000 C 
BRANCH   6   7
ATOM      7  C   UNL     1       4.709  25.913 110.861  1.00  0.00     0.000 C 
BRANCH   7   8
ATOM      8  C   UNL     1       5.581  26.926 111.617  1.00  0.00     0.006 C 
BRANCH   8   9
ATOM      9  C   UNL     1       6.425  26.229 112.689  1.00  0.00     0.053 C 
BRANCH   9  10
ATOM     10  C   UNL     1       7.483  25.383 112.055  1.00  0.00     0.041 C 
ATOM     11  O   UNL     1       8.384  25.914 111.353  1.00  0.00    -0.550 OA
ATOM     12  O   UNL     1       7.502  24.012 112.277  1.00  0.00    -0.550 OA
ENDBRANCH   9  10
ENDBRANCH   8   9
ENDBRANCH   7   8
ENDBRANCH   6   7
ENDBRANCH   5   6
ENDBRANCH   4   5
ENDBRANCH   3   4
ENDBRANCH   1   3
BRANCH   2  13
ATOM     13  C   UNL     1       3.530  24.146 113.741  1.00  0.00     0.027 C 
BRANCH  13  14
ATOM     14  C   UNL     1       3.635  22.854 114.567  1.00  0.00     0.004 C 
BRANCH  14  15
ATOM     15  C   UNL     1       3.331  21.599 113.728  1.00  0.00     0.000 C 
BRANCH  15  16
ATOM     16  C   UNL     1       2.005  20.929 114.121  1.00  0.00     0.000 C 
BRANCH  16  17
ATOM     17  C   UNL     1       1.447  21.454 115.455  1.00  0.00    -0.000 C 
BRANCH  17  18
ATOM     18  C   UNL     1       0.070  22.125 115.303  1.00  0.00    -0.000 C 
BRANCH  18  19
ATOM     19  C   UNL     1       0.040  23.630 115.623  1.00  0.00    -0.003 C 
ATOM     20  C   UNL     1      -1.147  24.353 114.989  1.00  0.00     0.004 C 
ENDBRANCH  18  19
ENDBRANCH  17  18
ENDBRANCH  16  17
ENDBRANCH  15  16
ENDBRANCH  14  15
ENDBRANCH  13  14
ENDBRANCH   2  13
TORSDOF 15
ENDMDL
