MODEL 1
REMARK VINA RESULT:    -5.381      0.000      0.000
REMARK INTER + INTRA:          -6.404
REMARK INTER:                  -6.482
REMARK INTRA:                   0.078
REMARK UNBOUND:                 0.078
REMARK SMILES OCCc1ccc(O)c(O)c1
REMARK SMILES IDX 3 1 4 2 5 3 6 4 7 5 11 6 9 7 8 8 10 10 2 12 1 13
REMARK H PARENT 8 9 10 11 1 14
REMARK Flexibility Score: inf
ROOT
ATOM      1  C   UNL     1      28.944  28.150  45.424  1.00  0.00     0.064 C 
ENDROOT
BRANCH   1   2
ATOM      2  C   UNL     1      28.066  26.927  45.491  1.00  0.00    -0.042 A 
ATOM      3  C   UNL     1      28.537  25.752  46.099  1.00  0.00     0.008 A 
ATOM      4  C   UNL     1      27.735  24.608  46.138  1.00  0.00     0.050 A 
ATOM      5  C   UNL     1      26.457  24.622  45.563  1.00  0.00     0.157 A 
ATOM      6  C   UNL     1      26.790  26.936  44.907  1.00  0.00     0.054 A 
ATOM      7  C   UNL     1      25.984  25.787  44.945  1.00  0.00     0.157 A 
BRANCH   5   8
ATOM      8  O   UNL     1      25.654  23.485  45.599  1.00  0.00    -0.504 OA
ATOM      9  H   UNL     1      25.428  22.969  44.756  1.00  0.00     0.293 HD
ENDBRANCH   5   8
BRANCH   7  10
ATOM     10  O   UNL     1      24.715  25.797  44.370  1.00  0.00    -0.504 OA
ATOM     11  H   UNL     1      24.569  26.094  43.411  1.00  0.00     0.293 HD
ENDBRANCH   7  10
ENDBRANCH   1   2
BRANCH   1  12
ATOM     12  C   UNL     1      28.700  29.074  46.616  1.00  0.00     0.161 C 
BRANCH  12  13
ATOM     13  O   UNL     1      27.385  29.554  46.594  1.00  0.00    -0.396 OA
ATOM     14  H   UNL     1      27.286  30.045  45.737  1.00  0.00     0.210 HD
ENDBRANCH  12  13
ENDBRANCH   1  12
TORSDOF 5
ENDMDL
MODEL 2
REMARK VINA RESULT:    -5.239      2.039      3.236
REMARK INTER + INTRA:          -6.233
REMARK INTER:                  -6.144
REMARK INTRA:                  -0.089
REMARK UNBOUND:                 0.078
REMARK SMILES OCCc1ccc(O)c(O)c1
REMARK SMILES IDX 3 1 4 2 5 3 6 4 7 5 11 6 9 7 8 8 10 10 2 12 1 13
REMARK H PARENT 8 9 10 11 1 14
REMARK Flexibility Score: inf
ROOT
ATOM      1  C   UNL     1      30.169  26.014  46.541  1.00  0.00     0.064 C 
ENDROOT
BRANCH   1   2
ATOM      2  C   UNL     1      28.781  26.010  45.955  1.00  0.00    -0.042 A 
ATOM      3  C   UNL     1      28.259  27.174  45.369  1.00  0.00     0.008 A 
ATOM      4  C   UNL     1      26.961  27.181  44.849  1.00  0.00     0.050 A 
ATOM      5  C   UNL     1      26.168  26.027  44.917  1.00  0.00     0.157 A 
ATOM      6  C   UNL     1      27.980  24.859  46.032  1.00  0.00     0.054 A 
ATOM      7  C   UNL     1      26.678  24.865  45.511  1.00  0.00     0.157 A 
BRANCH   5   8
ATOM      8  O   UNL     1      24.874  26.029  44.401  1.00  0.00    -0.504 OA
ATOM      9  H   UNL     1      24.329  26.882  44.341  1.00  0.00     0.293 HD
ENDBRANCH   5   8
BRANCH   7  10
ATOM     10  O   UNL     1      25.884  23.722  45.582  1.00  0.00    -0.504 OA
ATOM     11  H   UNL     1      25.086  23.667  46.205  1.00  0.00     0.293 HD
ENDBRANCH   7  10
ENDBRANCH   1   2
BRANCH   1  12
ATOM     12  C   UNL     1      30.772  24.609  46.548  1.00  0.00     0.161 C 
BRANCH  12  13
ATOM     13  O   UNL     1      31.112  24.237  47.854  1.00  0.00    -0.396 OA
ATOM     14  H   UNL     1      31.625  24.998  48.233  1.00  0.00     0.210 HD
ENDBRANCH  12  13
ENDBRANCH   1  12
TORSDOF 5
ENDMDL
MODEL 3
REMARK VINA RESULT:    -4.983      2.077      4.667
REMARK INTER + INTRA:          -5.925
REMARK INTER:                  -5.859
REMARK INTRA:                  -0.065
REMARK UNBOUND:                 0.078
REMARK SMILES OCCc1ccc(O)c(O)c1
REMARK SMILES IDX 3 1 4 2 5 3 6 4 7 5 11 6 9 7 8 8 10 10 2 12 1 13
REMARK H PARENT 8 9 10 11 1 14
REMARK Flexibility Score: inf
ROOT
ATOM      1  C   UNL     1      25.898  24.167  45.796  1.00  0.00     0.064 C 
ENDROOT
BRANCH   1   2
ATOM      2  C   UNL     1      26.831  25.336  45.612  1.00  0.00    -0.042 A 
ATOM      3  C   UNL     1      26.347  26.649  45.723  1.00  0.00     0.008 A 
ATOM      4  C   UNL     1      27.204  27.736  45.526  1.00  0.00     0.050 A 
ATOM      5  C   UNL     1      28.552  27.522  45.206  1.00  0.00     0.157 A 
ATOM      6  C   UNL     1      28.179  25.125  45.281  1.00  0.00     0.054 A 
ATOM      7  C   UNL     1      29.040  26.215  45.082  1.00  0.00     0.157 A 
BRANCH   5   8
ATOM      8  O   UNL     1      29.410  28.602  45.009  1.00  0.00    -0.504 OA
ATOM      9  H   UNL     1      29.507  29.335  45.702  1.00  0.00     0.293 HD
ENDBRANCH   5   8
BRANCH   7  10
ATOM     10  O   UNL     1      30.379  26.006  44.760  1.00  0.00    -0.504 OA
ATOM     11  H   UNL     1      30.904  26.678  44.212  1.00  0.00     0.293 HD
ENDBRANCH   7  10
ENDBRANCH   1   2
BRANCH   1  12
ATOM     12  C   UNL     1      26.602  22.999  46.486  1.00  0.00     0.161 C 
BRANCH  12  13
ATOM     13  O   UNL     1      25.861  22.578  47.597  1.00  0.00    -0.396 OA
ATOM     14  H   UNL     1      26.508  22.495  48.345  1.00  0.00     0.210 HD
ENDBRANCH  12  13
ENDBRANCH   1  12
TORSDOF 5
ENDMDL
MODEL 4
REMARK VINA RESULT:    -4.970      1.586      4.290
REMARK INTER + INTRA:          -5.909
REMARK INTER:                  -5.875
REMARK INTRA:                  -0.034
REMARK UNBOUND:                 0.078
REMARK SMILES OCCc1ccc(O)c(O)c1
REMARK SMILES IDX 3 1 4 2 5 3 6 4 7 5 11 6 9 7 8 8 10 10 2 12 1 13
REMARK H PARENT 8 9 10 11 1 14
REMARK Flexibility Score: inf
ROOT
ATOM      1  C   UNL     1      25.465  24.937  45.353  1.00  0.00     0.064 C 
ENDROOT
BRANCH   1   2
ATOM      2  C   UNL     1      26.675  25.832  45.424  1.00  0.00    -0.042 A 
ATOM      3  C   UNL     1      27.947  25.325  45.114  1.00  0.00     0.008 A 
ATOM      4  C   UNL     1      29.075  26.145  45.205  1.00  0.00     0.050 A 
ATOM      5  C   UNL     1      28.945  27.479  45.616  1.00  0.00     0.157 A 
ATOM      6  C   UNL     1      26.549  27.165  45.846  1.00  0.00     0.054 A 
ATOM      7  C   UNL     1      27.681  27.989  45.939  1.00  0.00     0.157 A 
BRANCH   5   8
ATOM      8  O   UNL     1      30.066  28.300  45.709  1.00  0.00    -0.504 OA
ATOM      9  H   UNL     1      30.822  28.243  45.036  1.00  0.00     0.293 HD
ENDBRANCH   5   8
BRANCH   7  10
ATOM     10  O   UNL     1      27.556  29.314  46.352  1.00  0.00    -0.504 OA
ATOM     11  H   UNL     1      27.144  29.554  47.246  1.00  0.00     0.293 HD
ENDBRANCH   7  10
ENDBRANCH   1   2
BRANCH   1  12
ATOM     12  C   UNL     1      25.808  23.505  45.765  1.00  0.00     0.161 C 
BRANCH  12  13
ATOM     13  O   UNL     1      26.098  23.454  47.134  1.00  0.00    -0.396 OA
ATOM     14  H   UNL     1      26.957  22.964  47.216  1.00  0.00     0.210 HD
ENDBRANCH  12  13
ENDBRANCH   1  12
TORSDOF 5
ENDMDL
MODEL 5
REMARK VINA RESULT:    -4.862      8.643     10.109
REMARK INTER + INTRA:          -5.778
REMARK INTER:                  -5.711
REMARK INTRA:                  -0.067
REMARK UNBOUND:                 0.078
REMARK SMILES OCCc1ccc(O)c(O)c1
REMARK SMILES IDX 3 1 4 2 5 3 6 4 7 5 11 6 9 7 8 8 10 10 2 12 1 13
REMARK H PARENT 8 9 10 11 1 14
REMARK Flexibility Score: inf
ROOT
ATOM      1  C   UNL     1      18.990  25.678  40.239  1.00  0.00     0.064 C 
ENDROOT
BRANCH   1   2
ATOM      2  C   UNL     1      19.436  24.384  39.608  1.00  0.00    -0.042 A 
ATOM      3  C   UNL     1      19.006  24.045  38.316  1.00  0.00     0.008 A 
ATOM      4  C   UNL     1      19.396  22.833  37.739  1.00  0.00     0.050 A 
ATOM      5  C   UNL     1      20.213  21.943  38.450  1.00  0.00     0.157 A 
ATOM      6  C   UNL     1      20.246  23.487  40.323  1.00  0.00     0.054 A 
ATOM      7  C   UNL     1      20.637  22.270  39.744  1.00  0.00     0.157 A 
BRANCH   5   8
ATOM      8  O   UNL     1      20.604  20.734  37.879  1.00  0.00    -0.504 OA
ATOM      9  H   UNL     1      20.160  19.860  38.134  1.00  0.00     0.293 HD
ENDBRANCH   5   8
BRANCH   7  10
ATOM     10  O   UNL     1      21.445  21.382  40.451  1.00  0.00    -0.504 OA
ATOM     11  H   UNL     1      21.475  20.394  40.222  1.00  0.00     0.293 HD
ENDBRANCH   7  10
ENDBRANCH   1   2
BRANCH   1  12
ATOM     12  C   UNL     1      20.096  26.284  41.103  1.00  0.00     0.161 C 
BRANCH  12  13
ATOM     13  O   UNL     1      19.543  27.140  42.064  1.00  0.00    -0.396 OA
ATOM     14  H   UNL     1      20.265  27.322  42.719  1.00  0.00     0.210 HD
ENDBRANCH  12  13
ENDBRANCH   1  12
TORSDOF 5
ENDMDL
MODEL 6
REMARK VINA RESULT:    -4.665      9.171     10.307
REMARK INTER + INTRA:          -5.541
REMARK INTER:                  -5.478
REMARK INTRA:                  -0.063
REMARK UNBOUND:                 0.078
REMARK SMILES OCCc1ccc(O)c(O)c1
REMARK SMILES IDX 3 1 4 2 5 3 6 4 7 5 11 6 9 7 8 8 10 10 2 12 1 13
REMARK H PARENT 8 9 10 11 1 14
REMARK Flexibility Score: inf
ROOT
ATOM      1  C   UNL     1      20.081  25.381  40.691  1.00  0.00     0.064 C 
ENDROOT
BRANCH   1   2
ATOM      2  C   UNL     1      20.087  24.116  39.872  1.00  0.00    -0.042 A 
ATOM      3  C   UNL     1      20.596  22.926  40.414  1.00  0.00     0.008 A 
ATOM      4  C   UNL     1      20.628  21.758  39.647  1.00  0.00     0.050 A 
ATOM      5  C   UNL     1      20.160  21.770  38.326  1.00  0.00     0.157 A 
ATOM      6  C   UNL     1      19.628  24.128  38.544  1.00  0.00     0.054 A 
ATOM      7  C   UNL     1      19.661  22.956  37.773  1.00  0.00     0.157 A 
BRANCH   5   8
ATOM      8  O   UNL     1      20.190  20.609  37.556  1.00  0.00    -0.504 OA
ATOM      9  H   UNL     1      19.469  19.900  37.638  1.00  0.00     0.293 HD
ENDBRANCH   5   8
BRANCH   7  10
ATOM     10  O   UNL     1      19.201  22.966  36.458  1.00  0.00    -0.504 OA
ATOM     11  H   UNL     1      19.732  22.539  35.707  1.00  0.00     0.293 HD
ENDBRANCH   7  10
ENDBRANCH   1   2
BRANCH   1  12
ATOM     12  C   UNL     1      18.938  26.306  40.276  1.00  0.00     0.161 C 
BRANCH  12  13
ATOM     13  O   UNL     1      18.919  27.446  41.089  1.00  0.00    -0.396 OA
ATOM     14  H   UNL     1      17.978  27.560  41.383  1.00  0.00     0.210 HD
ENDBRANCH  12  13
ENDBRANCH   1  12
TORSDOF 5
ENDMDL
MODEL 7
REMARK VINA RESULT:    -4.664      8.935     10.241
REMARK INTER + INTRA:          -5.540
REMARK INTER:                  -5.488
REMARK INTRA:                  -0.052
REMARK UNBOUND:                 0.078
REMARK SMILES OCCc1ccc(O)c(O)c1
REMARK SMILES IDX 3 1 4 2 5 3 6 4 7 5 11 6 9 7 8 8 10 10 2 12 1 13
REMARK H PARENT 8 9 10 11 1 14
REMARK Flexibility Score: inf
ROOT
ATOM      1  C   UNL     1      20.475  22.241  39.909  1.00  0.00     0.064 C 
ENDROOT
BRANCH   1   2
ATOM      2  C   UNL     1      19.956  23.517  40.520  1.00  0.00    -0.042 A 
ATOM      3  C   UNL     1      18.872  23.484  41.411  1.00  0.00     0.008 A 
ATOM      4  C   UNL     1      18.371  24.668  41.957  1.00  0.00     0.050 A 
ATOM      5  C   UNL     1      18.942  25.901  41.613  1.00  0.00     0.157 A 
ATOM      6  C   UNL     1      20.520  24.754  40.168  1.00  0.00     0.054 A 
ATOM      7  C   UNL     1      20.017  25.944  40.715  1.00  0.00     0.157 A 
BRANCH   5   8
ATOM      8  O   UNL     1      18.447  27.085  42.155  1.00  0.00    -0.504 OA
ATOM      9  H   UNL     1      18.627  27.983  41.720  1.00  0.00     0.293 HD
ENDBRANCH   5   8
BRANCH   7  10
ATOM     10  O   UNL     1      20.580  27.171  40.371  1.00  0.00    -0.504 OA
ATOM     11  H   UNL     1      20.710  27.907  41.056  1.00  0.00     0.293 HD
ENDBRANCH   7  10
ENDBRANCH   1   2
BRANCH   1  12
ATOM     12  C   UNL     1      20.023  22.098  38.456  1.00  0.00     0.161 C 
BRANCH  12  13
ATOM     13  O   UNL     1      20.754  21.087  37.820  1.00  0.00    -0.396 OA
ATOM     14  H   UNL     1      21.502  21.542  37.352  1.00  0.00     0.210 HD
ENDBRANCH  12  13
ENDBRANCH   1  12
TORSDOF 5
ENDMDL
MODEL 8
REMARK VINA RESULT:    -4.644      2.458      3.812
REMARK INTER + INTRA:          -5.516
REMARK INTER:                  -5.460
REMARK INTRA:                  -0.056
REMARK UNBOUND:                 0.078
REMARK SMILES OCCc1ccc(O)c(O)c1
REMARK SMILES IDX 3 1 4 2 5 3 6 4 7 5 11 6 9 7 8 8 10 10 2 12 1 13
REMARK H PARENT 8 9 10 11 1 14
REMARK Flexibility Score: inf
ROOT
ATOM      1  C   UNL     1      30.696  25.261  46.563  1.00  0.00     0.064 C 
ENDROOT
BRANCH   1   2
ATOM      2  C   UNL     1      29.388  25.794  46.036  1.00  0.00    -0.042 A 
ATOM      3  C   UNL     1      28.481  24.934  45.397  1.00  0.00     0.008 A 
ATOM      4  C   UNL     1      27.280  25.432  44.884  1.00  0.00     0.050 A 
ATOM      5  C   UNL     1      26.977  26.796  44.995  1.00  0.00     0.157 A 
ATOM      6  C   UNL     1      29.087  27.162  46.138  1.00  0.00     0.054 A 
ATOM      7  C   UNL     1      27.882  27.662  45.622  1.00  0.00     0.157 A 
BRANCH   5   8
ATOM      8  O   UNL     1      25.781  27.296  44.485  1.00  0.00    -0.504 OA
ATOM      9  H   UNL     1      25.693  28.263  44.193  1.00  0.00     0.293 HD
ENDBRANCH   5   8
BRANCH   7  10
ATOM     10  O   UNL     1      27.579  29.018  45.727  1.00  0.00    -0.504 OA
ATOM     11  H   UNL     1      26.624  29.343  45.831  1.00  0.00     0.293 HD
ENDBRANCH   7  10
ENDBRANCH   1   2
BRANCH   1  12
ATOM     12  C   UNL     1      30.473  24.086  47.515  1.00  0.00     0.161 C 
BRANCH  12  13
ATOM     13  O   UNL     1      31.695  23.659  48.048  1.00  0.00    -0.396 OA
ATOM     14  H   UNL     1      32.293  23.499  47.273  1.00  0.00     0.210 HD
ENDBRANCH  12  13
ENDBRANCH   1  12
TORSDOF 5
ENDMDL
MODEL 9
REMARK VINA RESULT:    -4.616      9.762     11.141
REMARK INTER + INTRA:          -5.482
REMARK INTER:                  -5.372
REMARK INTRA:                  -0.110
REMARK UNBOUND:                 0.078
REMARK SMILES OCCc1ccc(O)c(O)c1
REMARK SMILES IDX 3 1 4 2 5 3 6 4 7 5 11 6 9 7 8 8 10 10 2 12 1 13
REMARK H PARENT 8 9 10 11 1 14
REMARK Flexibility Score: inf
ROOT
ATOM      1  C   UNL     1      17.936  24.795  40.968  1.00  0.00     0.064 C 
ENDROOT
BRANCH   1   2
ATOM      2  C   UNL     1      18.716  23.837  40.104  1.00  0.00    -0.042 A 
ATOM      3  C   UNL     1      18.354  23.642  38.762  1.00  0.00     0.008 A 
ATOM      4  C   UNL     1      19.058  22.734  37.966  1.00  0.00     0.050 A 
ATOM      5  C   UNL     1      20.125  22.004  38.506  1.00  0.00     0.157 A 
ATOM      6  C   UNL     1      19.779  23.097  40.645  1.00  0.00     0.054 A 
ATOM      7  C   UNL     1      20.486  22.184  39.848  1.00  0.00     0.157 A 
BRANCH   5   8
ATOM      8  O   UNL     1      20.830  21.097  37.717  1.00  0.00    -0.504 OA
ATOM      9  H   UNL     1      21.814  21.229  37.509  1.00  0.00     0.293 HD
ENDBRANCH   5   8
BRANCH   7  10
ATOM     10  O   UNL     1      21.545  21.453  40.383  1.00  0.00    -0.504 OA
ATOM     11  H   UNL     1      22.502  21.612  40.088  1.00  0.00     0.293 HD
ENDBRANCH   7  10
ENDBRANCH   1   2
BRANCH   1  12
ATOM     12  C   UNL     1      16.430  24.578  40.817  1.00  0.00     0.161 C 
BRANCH  12  13
ATOM     13  O   UNL     1      16.022  23.480  41.584  1.00  0.00    -0.396 OA
ATOM     14  H   UNL     1      16.334  23.659  42.509  1.00  0.00     0.210 HD
ENDBRANCH  12  13
ENDBRANCH   1  12
TORSDOF 5
ENDMDL
