MODEL 1
REMARK VINA RESULT:    29.961      0.000      0.000
REMARK INTER + INTRA:          35.369
REMARK INTER:                  35.215
REMARK INTRA:                   0.154
REMARK UNBOUND:                 0.154
REMARK SMILES O=c1c(O)c(-c2ccc(O)cc2)oc2cc(O)cc(O)c12
REMARK SMILES IDX 5 1 3 2 2 3 1 4 21 5 19 6 18 7 16 8 15 9 14 10 13 11 6 12
REMARK SMILES IDX 7 13 8 14 9 15 12 16 11 17 10 18 4 20 20 22 17 24
REMARK H PARENT 10 19 4 21 20 23 17 25
REMARK Flexibility Score: inf
ROOT
ATOM      1  C   UNL     1       2.531  -1.252   0.913  1.00  0.00     0.180 A 
ATOM      2  C   UNL     1       1.670  -0.815   1.935  1.00  0.00     0.208 A 
ATOM      3  C   UNL     1       0.283  -0.875   1.730  1.00  0.00     0.238 A 
ATOM      4  O   UNL     1      -0.483  -0.533   2.669  1.00  0.00    -0.285 OA
ATOM      5  C   UNL     1      -0.227  -1.356   0.499  1.00  0.00     0.111 A 
ATOM      6  C   UNL     1      -1.614  -1.422   0.168  1.00  0.00     0.134 A 
ATOM      7  C   UNL     1      -2.009  -2.037  -1.027  1.00  0.00     0.093 A 
ATOM      8  C   UNL     1      -1.064  -2.528  -1.931  1.00  0.00     0.123 A 
ATOM      9  C   UNL     1       0.293  -2.414  -1.643  1.00  0.00     0.094 A 
ATOM     10  C   UNL     1       0.717  -1.839  -0.443  1.00  0.00     0.146 A 
ATOM     11  O   UNL     1       2.021  -1.759  -0.204  1.00  0.00    -0.452 OA
ENDROOT
BRANCH   1  12
ATOM     12  C   UNL     1       4.004  -1.197   1.046  1.00  0.00     0.021 A 
ATOM     13  C   UNL     1       4.820  -0.768  -0.017  1.00  0.00     0.016 A 
ATOM     14  C   UNL     1       6.211  -0.749   0.123  1.00  0.00     0.047 A 
ATOM     15  C   UNL     1       6.805  -1.169   1.320  1.00  0.00     0.115 A 
ATOM     16  C   UNL     1       4.609  -1.638   2.235  1.00  0.00     0.016 A 
ATOM     17  C   UNL     1       6.000  -1.616   2.373  1.00  0.00     0.047 A 
BRANCH  15  18
ATOM     18  O   UNL     1       8.189  -1.152   1.471  1.00  0.00    -0.508 OA
ATOM     19  H   UNL     1       8.647  -0.493   2.091  1.00  0.00     0.293 HD
ENDBRANCH  15  18
ENDBRANCH   1  12
BRANCH   2  20
ATOM     20  O   UNL     1       2.194  -0.366   3.150  1.00  0.00    -0.502 OA
ATOM     21  H   UNL     1       3.160  -0.075   3.253  1.00  0.00     0.293 HD
ENDBRANCH   2  20
BRANCH   6  22
ATOM     22  O   UNL     1      -2.632  -0.880   0.957  1.00  0.00    -0.507 OA
ATOM     23  H   UNL     1      -2.615   0.044   1.362  1.00  0.00     0.293 HD
ENDBRANCH   6  22
BRANCH   8  24
ATOM     24  O   UNL     1      -1.466  -3.125  -3.125  1.00  0.00    -0.508 OA
ATOM     25  H   UNL     1      -0.913  -3.850  -3.568  1.00  0.00     0.293 HD
ENDBRANCH   8  24
TORSDOF 5
ENDMDL
MODEL 2
REMARK VINA RESULT:    30.483      0.068      1.059
REMARK INTER + INTRA:          35.983
REMARK INTER:                  35.806
REMARK INTRA:                   0.178
REMARK UNBOUND:                 0.154
REMARK SMILES O=c1c(O)c(-c2ccc(O)cc2)oc2cc(O)cc(O)c12
REMARK SMILES IDX 5 1 3 2 2 3 1 4 21 5 19 6 18 7 16 8 15 9 14 10 13 11 6 12
REMARK SMILES IDX 7 13 8 14 9 15 12 16 11 17 10 18 4 20 20 22 17 24
REMARK H PARENT 10 19 4 21 20 23 17 25
REMARK Flexibility Score: inf
ROOT
ATOM      1  C   UNL     1       2.501  -1.312   0.963  1.00  0.00     0.180 A 
ATOM      2  C   UNL     1       1.634  -0.860   1.974  1.00  0.00     0.208 A 
ATOM      3  C   UNL     1       0.249  -0.898   1.751  1.00  0.00     0.238 A 
ATOM      4  O   UNL     1      -0.523  -0.544   2.680  1.00  0.00    -0.285 OA
ATOM      5  C   UNL     1      -0.253  -1.372   0.514  1.00  0.00     0.111 A 
ATOM      6  C   UNL     1      -1.637  -1.417   0.165  1.00  0.00     0.134 A 
ATOM      7  C   UNL     1      -2.026  -2.026  -1.034  1.00  0.00     0.093 A 
ATOM      8  C   UNL     1      -1.077  -2.533  -1.926  1.00  0.00     0.123 A 
ATOM      9  C   UNL     1       0.278  -2.440  -1.621  1.00  0.00     0.094 A 
ATOM     10  C   UNL     1       0.696  -1.871  -0.416  1.00  0.00     0.146 A 
ATOM     11  O   UNL     1       1.997  -1.811  -0.160  1.00  0.00    -0.452 OA
ENDROOT
BRANCH   1  12
ATOM     12  C   UNL     1       3.973  -1.280   1.115  1.00  0.00     0.021 A 
ATOM     13  C   UNL     1       4.592  -1.626   2.330  1.00  0.00     0.016 A 
ATOM     14  C   UNL     1       5.983  -1.564   2.458  1.00  0.00     0.047 A 
ATOM     15  C   UNL     1       6.772  -1.145   1.379  1.00  0.00     0.115 A 
ATOM     16  C   UNL     1       4.770  -0.839   0.045  1.00  0.00     0.016 A 
ATOM     17  C   UNL     1       6.161  -0.780   0.175  1.00  0.00     0.047 A 
BRANCH  15  18
ATOM     18  O   UNL     1       8.158  -1.081   1.494  1.00  0.00    -0.508 OA
ATOM     19  H   UNL     1       8.749  -0.905   0.689  1.00  0.00     0.293 HD
ENDBRANCH  15  18
ENDBRANCH   1  12
BRANCH   2  20
ATOM     20  O   UNL     1       2.150  -0.418   3.195  1.00  0.00    -0.502 OA
ATOM     21  H   UNL     1       2.307  -1.043   3.978  1.00  0.00     0.293 HD
ENDBRANCH   2  20
BRANCH   6  22
ATOM     22  O   UNL     1      -2.656  -0.858   0.941  1.00  0.00    -0.507 OA
ATOM     23  H   UNL     1      -3.635  -1.085   0.853  1.00  0.00     0.293 HD
ENDBRANCH   6  22
BRANCH   8  24
ATOM     24  O   UNL     1      -1.473  -3.124  -3.125  1.00  0.00    -0.508 OA
ATOM     25  H   UNL     1      -2.119  -2.663  -3.755  1.00  0.00     0.293 HD
ENDBRANCH   8  24
TORSDOF 5
ENDMDL
