MODEL 1
REMARK VINA RESULT:    -4.562      0.000      0.000
REMARK INTER + INTRA:          -6.695
REMARK INTER:                  -6.162
REMARK INTRA:                  -0.533
REMARK UNBOUND:                -0.533
REMARK SMILES CCCCCCCC(=O)[O-]
REMARK SMILES IDX 5 1 6 2 7 3 8 4 9 5 10 6 4 7 3 8 2 9 1 10
REMARK H PARENT
REMARK Flexibility Score: inf
ROOT
ATOM      1  C   UNL     1      18.587  -2.796  -3.592  1.00  0.00     0.000 C 
ENDROOT
BRANCH   1   2
ATOM      2  C   UNL     1      18.296  -1.537  -2.751  1.00  0.00     0.006 C 
BRANCH   2   3
ATOM      3  C   UNL     1      16.800  -1.190  -2.635  1.00  0.00     0.053 C 
BRANCH   3   4
ATOM      4  C   UNL     1      16.258  -0.547  -3.877  1.00  0.00     0.041 C 
ATOM      5  O   UNL     1      15.081  -0.786  -4.255  1.00  0.00    -0.550 OA
ATOM      6  O   UNL     1      17.068   0.286  -4.640  1.00  0.00    -0.550 OA
ENDBRANCH   3   4
ENDBRANCH   2   3
ENDBRANCH   1   2
BRANCH   1   7
ATOM      7  C   UNL     1      19.645  -2.616  -4.694  1.00  0.00     0.000 C 
BRANCH   7   8
ATOM      8  C   UNL     1      19.031  -2.261  -6.059  1.00  0.00    -0.000 C 
BRANCH   8   9
ATOM      9  C   UNL     1      19.677  -1.017  -6.688  1.00  0.00    -0.003 C 
ATOM     10  C   UNL     1      20.616  -0.293  -5.722  1.00  0.00     0.004 C 
ENDBRANCH   8   9
ENDBRANCH   7   8
ENDBRANCH   1   7
TORSDOF 6
ENDMDL
MODEL 2
REMARK VINA RESULT:    -4.508      1.335      2.740
REMARK INTER + INTRA:          -6.622
REMARK INTER:                  -6.085
REMARK INTRA:                  -0.538
REMARK UNBOUND:                -0.533
REMARK SMILES CCCCCCCC(=O)[O-]
REMARK SMILES IDX 5 1 6 2 7 3 8 4 9 5 10 6 4 7 3 8 2 9 1 10
REMARK H PARENT
REMARK Flexibility Score: inf
ROOT
ATOM      1  C   UNL     1      18.388  -0.584  -6.806  1.00  0.00     0.000 C 
ENDROOT
BRANCH   1   2
ATOM      2  C   UNL     1      16.930  -0.504  -6.314  1.00  0.00     0.006 C 
BRANCH   2   3
ATOM      3  C   UNL     1      16.766   0.180  -4.943  1.00  0.00     0.053 C 
BRANCH   3   4
ATOM      4  C   UNL     1      15.854  -0.576  -4.025  1.00  0.00     0.041 C 
ATOM      5  O   UNL     1      14.656  -0.786  -4.351  1.00  0.00    -0.550 OA
ATOM      6  O   UNL     1      16.317  -1.016  -2.790  1.00  0.00    -0.550 OA
ENDBRANCH   3   4
ENDBRANCH   2   3
ENDBRANCH   1   2
BRANCH   1   7
ATOM      7  C   UNL     1      19.167  -1.828  -6.344  1.00  0.00     0.000 C 
BRANCH   7   8
ATOM      8  C   UNL     1      20.119  -1.536  -5.172  1.00  0.00    -0.000 C 
BRANCH   8   9
ATOM      9  C   UNL     1      19.521  -1.941  -3.816  1.00  0.00    -0.003 C 
ATOM     10  C   UNL     1      18.825  -3.302  -3.865  1.00  0.00     0.004 C 
ENDBRANCH   8   9
ENDBRANCH   7   8
ENDBRANCH   1   7
TORSDOF 6
ENDMDL
MODEL 3
REMARK VINA RESULT:    -4.421      1.717      3.173
REMARK INTER + INTRA:          -6.505
REMARK INTER:                  -5.976
REMARK INTRA:                  -0.529
REMARK UNBOUND:                -0.533
REMARK SMILES CCCCCCCC(=O)[O-]
REMARK SMILES IDX 5 1 6 2 7 3 8 4 9 5 10 6 4 7 3 8 2 9 1 10
REMARK H PARENT
REMARK Flexibility Score: inf
ROOT
ATOM      1  C   UNL     1      19.027  -2.196  -6.391  1.00  0.00     0.000 C 
ENDROOT
BRANCH   1   2
ATOM      2  C   UNL     1      19.754  -2.370  -5.044  1.00  0.00     0.006 C 
BRANCH   2   3
ATOM      3  C   UNL     1      18.841  -2.828  -3.891  1.00  0.00     0.053 C 
BRANCH   3   4
ATOM      4  C   UNL     1      18.190  -1.681  -3.178  1.00  0.00     0.041 C 
ATOM      5  O   UNL     1      17.071  -1.832  -2.621  1.00  0.00    -0.550 OA
ATOM      6  O   UNL     1      18.801  -0.433  -3.164  1.00  0.00    -0.550 OA
ENDBRANCH   3   4
ENDBRANCH   2   3
ENDBRANCH   1   2
BRANCH   1   7
ATOM      7  C   UNL     1      18.534  -0.769  -6.689  1.00  0.00     0.000 C 
BRANCH   7   8
ATOM      8  C   UNL     1      17.003  -0.636  -6.604  1.00  0.00    -0.000 C 
BRANCH   8   9
ATOM      9  C   UNL     1      16.565   0.561  -5.747  1.00  0.00    -0.003 C 
ATOM     10  C   UNL     1      15.418   0.213  -4.796  1.00  0.00     0.004 C 
ENDBRANCH   8   9
ENDBRANCH   7   8
ENDBRANCH   1   7
TORSDOF 6
ENDMDL
MODEL 4
REMARK VINA RESULT:    -4.363      1.279      3.112
REMARK INTER + INTRA:          -6.427
REMARK INTER:                  -5.876
REMARK INTRA:                  -0.551
REMARK UNBOUND:                -0.533
REMARK SMILES CCCCCCCC(=O)[O-]
REMARK SMILES IDX 5 1 6 2 7 3 8 4 9 5 10 6 4 7 3 8 2 9 1 10
REMARK H PARENT
REMARK Flexibility Score: inf
ROOT
ATOM      1  C   UNL     1      18.960  -2.162  -6.315  1.00  0.00     0.000 C 
ENDROOT
BRANCH   1   2
ATOM      2  C   UNL     1      18.379  -0.818  -6.798  1.00  0.00     0.006 C 
BRANCH   2   3
ATOM      3  C   UNL     1      16.874  -0.648  -6.518  1.00  0.00     0.053 C 
BRANCH   3   4
ATOM      4  C   UNL     1      16.600   0.275  -5.369  1.00  0.00     0.041 C 
ATOM      5  O   UNL     1      17.460   1.125  -5.018  1.00  0.00    -0.550 OA
ATOM      6  O   UNL     1      15.410   0.170  -4.659  1.00  0.00    -0.550 OA
ENDBRANCH   3   4
ENDBRANCH   2   3
ENDBRANCH   1   2
BRANCH   1   7
ATOM      7  C   UNL     1      19.771  -2.093  -5.009  1.00  0.00     0.000 C 
BRANCH   7   8
ATOM      8  C   UNL     1      19.157  -2.938  -3.880  1.00  0.00    -0.000 C 
BRANCH   8   9
ATOM      9  C   UNL     1      17.852  -2.335  -3.338  1.00  0.00    -0.003 C 
ATOM     10  C   UNL     1      18.098  -1.252  -2.286  1.00  0.00     0.004 C 
ENDBRANCH   8   9
ENDBRANCH   7   8
ENDBRANCH   1   7
TORSDOF 6
ENDMDL
MODEL 5
REMARK VINA RESULT:    -4.348      1.422      1.999
REMARK INTER + INTRA:          -6.406
REMARK INTER:                  -5.968
REMARK INTRA:                  -0.438
REMARK UNBOUND:                -0.533
REMARK SMILES CCCCCCCC(=O)[O-]
REMARK SMILES IDX 5 1 6 2 7 3 8 4 9 5 10 6 4 7 3 8 2 9 1 10
REMARK H PARENT
REMARK Flexibility Score: inf
ROOT
ATOM      1  C   UNL     1      19.359  -2.631  -4.900  1.00  0.00     0.000 C 
ENDROOT
BRANCH   1   2
ATOM      2  C   UNL     1      18.672  -2.283  -3.565  1.00  0.00     0.006 C 
BRANCH   2   3
ATOM      3  C   UNL     1      18.012  -0.892  -3.542  1.00  0.00     0.053 C 
BRANCH   3   4
ATOM      4  C   UNL     1      16.574  -0.942  -3.118  1.00  0.00     0.041 C 
ATOM      5  O   UNL     1      15.656  -0.882  -3.977  1.00  0.00    -0.550 OA
ATOM      6  O   UNL     1      16.248  -1.014  -1.769  1.00  0.00    -0.550 OA
ENDBRANCH   3   4
ENDBRANCH   2   3
ENDBRANCH   1   2
BRANCH   1   7
ATOM      7  C   UNL     1      18.741  -1.972  -6.145  1.00  0.00     0.000 C 
BRANCH   7   8
ATOM      8  C   UNL     1      19.614  -0.844  -6.720  1.00  0.00    -0.000 C 
BRANCH   8   9
ATOM      9  C   UNL     1      18.782   0.351  -7.210  1.00  0.00    -0.003 C 
ATOM     10  C   UNL     1      17.281   0.147  -6.998  1.00  0.00     0.004 C 
ENDBRANCH   8   9
ENDBRANCH   7   8
ENDBRANCH   1   7
TORSDOF 6
ENDMDL
MODEL 6
REMARK VINA RESULT:    -4.306      1.789      2.865
REMARK INTER + INTRA:          -6.349
REMARK INTER:                  -5.764
REMARK INTRA:                  -0.585
REMARK UNBOUND:                -0.533
REMARK SMILES CCCCCCCC(=O)[O-]
REMARK SMILES IDX 5 1 6 2 7 3 8 4 9 5 10 6 4 7 3 8 2 9 1 10
REMARK H PARENT
REMARK Flexibility Score: inf
ROOT
ATOM      1  C   UNL     1      16.333  -1.084  -3.402  1.00  0.00     0.000 C 
ENDROOT
BRANCH   1   2
ATOM      2  C   UNL     1      15.746  -0.239  -4.549  1.00  0.00     0.006 C 
BRANCH   2   3
ATOM      3  C   UNL     1      16.789   0.603  -5.308  1.00  0.00     0.053 C 
BRANCH   3   4
ATOM      4  C   UNL     1      17.139   0.022  -6.645  1.00  0.00     0.041 C 
ATOM      5  O   UNL     1      17.130  -1.225  -6.818  1.00  0.00    -0.550 OA
ATOM      6  O   UNL     1      17.514   0.857  -7.691  1.00  0.00    -0.550 OA
ENDBRANCH   3   4
ENDBRANCH   2   3
ENDBRANCH   1   2
BRANCH   1   7
ATOM      7  C   UNL     1      17.865  -1.029  -3.268  1.00  0.00     0.000 C 
BRANCH   7   8
ATOM      8  C   UNL     1      18.532  -2.399  -3.474  1.00  0.00    -0.000 C 
BRANCH   8   9
ATOM      9  C   UNL     1      19.632  -2.361  -4.546  1.00  0.00    -0.003 C 
ATOM     10  C   UNL     1      20.258  -0.973  -4.695  1.00  0.00     0.004 C 
ENDBRANCH   8   9
ENDBRANCH   7   8
ENDBRANCH   1   7
TORSDOF 6
ENDMDL
MODEL 7
REMARK VINA RESULT:    -4.275      1.564      3.784
REMARK INTER + INTRA:          -6.307
REMARK INTER:                  -5.800
REMARK INTRA:                  -0.508
REMARK UNBOUND:                -0.533
REMARK SMILES CCCCCCCC(=O)[O-]
REMARK SMILES IDX 5 1 6 2 7 3 8 4 9 5 10 6 4 7 3 8 2 9 1 10
REMARK H PARENT
REMARK Flexibility Score: inf
ROOT
ATOM      1  C   UNL     1      19.682  -2.362  -4.734  1.00  0.00     0.000 C 
ENDROOT
BRANCH   1   2
ATOM      2  C   UNL     1      19.160  -2.243  -6.180  1.00  0.00     0.006 C 
BRANCH   2   3
ATOM      3  C   UNL     1      19.567  -0.938  -6.890  1.00  0.00     0.053 C 
BRANCH   3   4
ATOM      4  C   UNL     1      18.621   0.191  -6.610  1.00  0.00     0.041 C 
ATOM      5  O   UNL     1      18.854   0.997  -5.672  1.00  0.00    -0.550 OA
ATOM      6  O   UNL     1      17.460   0.330  -7.362  1.00  0.00    -0.550 OA
ENDBRANCH   3   4
ENDBRANCH   2   3
ENDBRANCH   1   2
BRANCH   1   7
ATOM      7  C   UNL     1      18.614  -2.694  -3.678  1.00  0.00     0.000 C 
BRANCH   7   8
ATOM      8  C   UNL     1      18.314  -1.513  -2.739  1.00  0.00    -0.000 C 
BRANCH   8   9
ATOM      9  C   UNL     1      16.814  -1.191  -2.662  1.00  0.00    -0.003 C 
ATOM     10  C   UNL     1      16.225  -0.806  -4.019  1.00  0.00     0.004 C 
ENDBRANCH   8   9
ENDBRANCH   7   8
ENDBRANCH   1   7
TORSDOF 6
ENDMDL
MODEL 8
REMARK VINA RESULT:    -4.257      9.868     11.225
REMARK INTER + INTRA:          -6.283
REMARK INTER:                  -5.800
REMARK INTRA:                  -0.483
REMARK UNBOUND:                -0.533
REMARK SMILES CCCCCCCC(=O)[O-]
REMARK SMILES IDX 5 1 6 2 7 3 8 4 9 5 10 6 4 7 3 8 2 9 1 10
REMARK H PARENT
REMARK Flexibility Score: inf
ROOT
ATOM      1  C   UNL     1      26.814  -7.345  -6.278  1.00  0.00     0.000 C 
ENDROOT
BRANCH   1   2
ATOM      2  C   UNL     1      26.510  -5.849  -6.492  1.00  0.00     0.006 C 
BRANCH   2   3
ATOM      3  C   UNL     1      26.406  -5.036  -5.188  1.00  0.00     0.053 C 
BRANCH   3   4
ATOM      4  C   UNL     1      27.383  -3.899  -5.136  1.00  0.00     0.041 C 
ATOM      5  O   UNL     1      26.983  -2.727  -4.912  1.00  0.00    -0.550 OA
ATOM      6  O   UNL     1      28.733  -4.129  -5.376  1.00  0.00    -0.550 OA
ENDBRANCH   3   4
ENDBRANCH   2   3
ENDBRANCH   1   2
BRANCH   1   7
ATOM      7  C   UNL     1      28.189  -7.812  -6.787  1.00  0.00     0.000 C 
BRANCH   7   8
ATOM      8  C   UNL     1      29.026  -8.504  -5.698  1.00  0.00    -0.000 C 
BRANCH   8   9
ATOM      9  C   UNL     1      29.706  -7.501  -4.754  1.00  0.00    -0.003 C 
ATOM     10  C   UNL     1      28.908  -7.267  -3.471  1.00  0.00     0.004 C 
ENDBRANCH   8   9
ENDBRANCH   7   8
ENDBRANCH   1   7
TORSDOF 6
ENDMDL
MODEL 9
REMARK VINA RESULT:    -4.204     10.000     11.340
REMARK INTER + INTRA:          -6.212
REMARK INTER:                  -5.710
REMARK INTRA:                  -0.502
REMARK UNBOUND:                -0.533
REMARK SMILES CCCCCCCC(=O)[O-]
REMARK SMILES IDX 5 1 6 2 7 3 8 4 9 5 10 6 4 7 3 8 2 9 1 10
REMARK H PARENT
REMARK Flexibility Score: inf
ROOT
ATOM      1  C   UNL     1      26.400  -5.987  -3.996  1.00  0.00     0.000 C 
ENDROOT
BRANCH   1   2
ATOM      2  C   UNL     1      27.697  -6.818  -3.973  1.00  0.00     0.006 C 
BRANCH   2   3
ATOM      3  C   UNL     1      28.570  -6.656  -5.231  1.00  0.00     0.053 C 
BRANCH   3   4
ATOM      4  C   UNL     1      28.477  -7.834  -6.155  1.00  0.00     0.041 C 
ATOM      5  O   UNL     1      27.688  -7.811  -7.136  1.00  0.00    -0.550 OA
ATOM      6  O   UNL     1      29.233  -8.974  -5.909  1.00  0.00    -0.550 OA
ENDBRANCH   3   4
ENDBRANCH   2   3
ENDBRANCH   1   2
BRANCH   1   7
ATOM      7  C   UNL     1      26.318  -4.933  -5.114  1.00  0.00     0.000 C 
BRANCH   7   8
ATOM      8  C   UNL     1      26.653  -3.514  -4.623  1.00  0.00    -0.000 C 
BRANCH   8   9
ATOM      9  C   UNL     1      27.741  -2.841  -5.473  1.00  0.00    -0.003 C 
ATOM     10  C   UNL     1      29.133  -2.966  -4.850  1.00  0.00     0.004 C 
ENDBRANCH   8   9
ENDBRANCH   7   8
ENDBRANCH   1   7
TORSDOF 6
ENDMDL
