MODEL 1
REMARK VINA RESULT:    -7.521      0.000      0.000
REMARK INTER + INTRA:          -7.826
REMARK INTER:                  -8.181
REMARK INTRA:                   0.355
REMARK UNBOUND:                 0.355
REMARK SMILES CC1(C)CC[C@@]2(C(=O)[O-])CC[C@@]3(C)C(=CC[C@H]4[C@@]5(C)CC[C@H](O)C(C)(C)[C@H]5CC[C@]43C)[C@@H]2C1
REMARK SMILES IDX 6 1 5 2 10 3 32 4 4 5 11 6 14 7 33 8 2 9 12 10 15 11 1 12
REMARK SMILES IDX 3 13 13 14 30 15 16 16 17 17 29 18 31 19 18 20 28 21 27 22
REMARK SMILES IDX 20 23 19 24 24 25 21 26 22 27 25 28 26 29 7 30 8 31 9 32
REMARK SMILES IDX 23 33
REMARK H PARENT 23 34
REMARK Flexibility Score: inf
ROOT
ATOM      1  C   UNL     1      92.334   4.627 -27.510  1.00  0.00     0.017 C 
ATOM      2  C   UNL     1      91.865   5.649 -28.578  1.00  0.00     0.014 C 
ATOM      3  C   UNL     1      93.193   5.377 -26.436  1.00  0.00     0.014 C 
ATOM      4  C   UNL     1      91.076   4.039 -26.787  1.00  0.00     0.028 C 
ATOM      5  C   UNL     1      90.822   5.069 -29.552  1.00  0.00     0.007 C 
ATOM      6  C   UNL     1      93.538   4.519 -25.180  1.00  0.00     0.013 C 
ATOM      7  C   UNL     1      91.550   3.128 -25.653  1.00  0.00    -0.064 C 
ATOM      8  C   UNL     1      90.001   3.460 -27.744  1.00  0.00     0.015 C 
ATOM      9  C   UNL     1      89.572   4.472 -28.845  1.00  0.00    -0.035 C 
ATOM     10  C   UNL     1      92.302   3.819 -24.498  1.00  0.00    -0.006 C 
ATOM     11  C   UNL     1      91.832   1.844 -25.946  1.00  0.00    -0.027 C 
ATOM     12  C   UNL     1      88.691   5.598 -28.252  1.00  0.00     0.011 C 
ATOM     13  C   UNL     1      88.725   3.724 -29.898  1.00  0.00     0.011 C 
ATOM     14  C   UNL     1      91.421   4.968 -23.894  1.00  0.00     0.017 C 
ATOM     15  C   UNL     1      92.696   2.756 -23.308  1.00  0.00    -0.020 C 
ATOM     16  C   UNL     1      93.011   1.168 -25.332  1.00  0.00     0.032 C 
ATOM     17  C   UNL     1      92.942   1.263 -23.802  1.00  0.00     0.006 C 
ATOM     18  C   UNL     1      93.956   3.254 -22.573  1.00  0.00     0.008 C 
ATOM     19  C   UNL     1      91.529   2.679 -22.258  1.00  0.00     0.012 C 
ATOM     20  C   UNL     1      94.077   0.389 -23.068  1.00  0.00    -0.025 C 
ATOM     21  C   UNL     1      94.398   2.392 -21.393  1.00  0.00     0.005 C 
ATOM     22  C   UNL     1      94.279   0.838 -21.558  1.00  0.00     0.003 C 
ATOM     23  C   UNL     1      95.455   0.469 -23.806  1.00  0.00     0.010 C 
ATOM     24  C   UNL     1      93.565  -1.094 -23.130  1.00  0.00     0.012 C 
ATOM     25  C   UNL     1      95.462   0.097 -20.784  1.00  0.00    -0.006 C 
ATOM     26  C   UNL     1      96.616  -0.240 -23.081  1.00  0.00     0.033 C 
ATOM     27  C   UNL     1      96.779   0.217 -21.617  1.00  0.00     0.120 C 
ATOM     28  C   UNL     1      95.692   0.742 -19.381  1.00  0.00     0.014 C 
ATOM     29  C   UNL     1      95.115  -1.392 -20.481  1.00  0.00     0.014 C 
ENDROOT
BRANCH   1  30
ATOM     30  C   UNL     1      93.202   3.565 -28.197  1.00  0.00     0.048 C 
ATOM     31  O   UNL     1      94.408   3.410 -27.862  1.00  0.00    -0.550 OA
ATOM     32  O   UNL     1      92.724   2.816 -29.263  1.00  0.00    -0.550 OA
ENDBRANCH   1  30
BRANCH  27  33
ATOM     33  O   UNL     1      97.848  -0.458 -20.996  1.00  0.00    -0.393 OA
ATOM     34  H   UNL     1      98.428  -0.842 -21.704  1.00  0.00     0.210 HD
ENDBRANCH  27  33
TORSDOF 2
ENDMDL
MODEL 2
REMARK VINA RESULT:    -7.143      1.168      1.297
REMARK INTER + INTRA:          -7.415
REMARK INTER:                  -7.697
REMARK INTRA:                   0.282
REMARK UNBOUND:                 0.355
REMARK SMILES CC1(C)CC[C@@]2(C(=O)[O-])CC[C@@]3(C)C(=CC[C@H]4[C@@]5(C)CC[C@H](O)C(C)(C)[C@H]5CC[C@]43C)[C@@H]2C1
REMARK SMILES IDX 6 1 5 2 10 3 32 4 4 5 11 6 14 7 33 8 2 9 12 10 15 11 1 12
REMARK SMILES IDX 3 13 13 14 30 15 16 16 17 17 29 18 31 19 18 20 28 21 27 22
REMARK SMILES IDX 20 23 19 24 24 25 21 26 22 27 25 28 26 29 7 30 8 31 9 32
REMARK SMILES IDX 23 33
REMARK H PARENT 23 34
REMARK Flexibility Score: inf
ROOT
ATOM      1  C   UNL     1      92.138   4.931 -26.536  1.00  0.00     0.017 C 
ATOM      2  C   UNL     1      91.770   6.009 -27.588  1.00  0.00     0.014 C 
ATOM      3  C   UNL     1      92.499   5.643 -25.188  1.00  0.00     0.014 C 
ATOM      4  C   UNL     1      90.884   4.029 -26.277  1.00  0.00     0.028 C 
ATOM      5  C   UNL     1      91.173   5.415 -28.878  1.00  0.00     0.007 C 
ATOM      6  C   UNL     1      92.666   4.673 -23.977  1.00  0.00     0.013 C 
ATOM      7  C   UNL     1      91.216   3.050 -25.150  1.00  0.00    -0.064 C 
ATOM      8  C   UNL     1      90.253   3.428 -27.560  1.00  0.00     0.015 C 
ATOM      9  C   UNL     1      89.933   4.509 -28.633  1.00  0.00    -0.035 C 
ATOM     10  C   UNL     1      91.467   3.672 -23.762  1.00  0.00    -0.006 C 
ATOM     11  C   UNL     1      91.830   1.895 -25.472  1.00  0.00    -0.027 C 
ATOM     12  C   UNL     1      88.709   5.360 -28.217  1.00  0.00     0.011 C 
ATOM     13  C   UNL     1      89.578   3.798 -29.957  1.00  0.00     0.011 C 
ATOM     14  C   UNL     1      90.235   4.544 -23.333  1.00  0.00     0.017 C 
ATOM     15  C   UNL     1      91.741   2.522 -22.621  1.00  0.00    -0.020 C 
ATOM     16  C   UNL     1      92.915   1.346 -24.609  1.00  0.00     0.032 C 
ATOM     17  C   UNL     1      92.419   1.190 -23.166  1.00  0.00     0.006 C 
ATOM     18  C   UNL     1      92.623   3.112 -21.502  1.00  0.00     0.008 C 
ATOM     19  C   UNL     1      90.377   2.084 -21.974  1.00  0.00     0.012 C 
ATOM     20  C   UNL     1      93.472   0.422 -22.221  1.00  0.00    -0.025 C 
ATOM     21  C   UNL     1      92.902   2.166 -20.336  1.00  0.00     0.005 C 
ATOM     22  C   UNL     1      93.162   0.660 -20.681  1.00  0.00     0.003 C 
ATOM     23  C   UNL     1      94.949   0.853 -22.509  1.00  0.00     0.010 C 
ATOM     24  C   UNL     1      93.319  -1.099 -22.577  1.00  0.00     0.012 C 
ATOM     25  C   UNL     1      94.220   0.024 -19.671  1.00  0.00    -0.006 C 
ATOM     26  C   UNL     1      95.994   0.253 -21.548  1.00  0.00     0.033 C 
ATOM     27  C   UNL     1      95.658   0.498 -20.064  1.00  0.00     0.120 C 
ATOM     28  C   UNL     1      93.924   0.474 -18.206  1.00  0.00     0.014 C 
ATOM     29  C   UNL     1      94.126  -1.532 -19.632  1.00  0.00     0.014 C 
ENDROOT
BRANCH   1  30
ATOM     30  C   UNL     1      93.362   4.155 -27.039  1.00  0.00     0.048 C 
ATOM     31  O   UNL     1      94.487   4.312 -26.492  1.00  0.00    -0.550 OA
ATOM     32  O   UNL     1      93.293   3.338 -28.159  1.00  0.00    -0.550 OA
ENDBRANCH   1  30
BRANCH  27  33
ATOM     33  O   UNL     1      96.638  -0.070 -19.226  1.00  0.00    -0.393 OA
ATOM     34  H   UNL     1      97.009   0.648 -18.650  1.00  0.00     0.210 HD
ENDBRANCH  27  33
TORSDOF 2
ENDMDL
MODEL 3
REMARK VINA RESULT:    -6.900      2.889      7.718
REMARK INTER + INTRA:          -7.150
REMARK INTER:                  -7.426
REMARK INTRA:                   0.275
REMARK UNBOUND:                 0.355
REMARK SMILES CC1(C)CC[C@@]2(C(=O)[O-])CC[C@@]3(C)C(=CC[C@H]4[C@@]5(C)CC[C@H](O)C(C)(C)[C@H]5CC[C@]43C)[C@@H]2C1
REMARK SMILES IDX 6 1 5 2 10 3 32 4 4 5 11 6 14 7 33 8 2 9 12 10 15 11 1 12
REMARK SMILES IDX 3 13 13 14 30 15 16 16 17 17 29 18 31 19 18 20 28 21 27 22
REMARK SMILES IDX 20 23 19 24 24 25 21 26 22 27 25 28 26 29 7 30 8 31 9 32
REMARK SMILES IDX 23 33
REMARK H PARENT 23 34
REMARK Flexibility Score: inf
ROOT
ATOM      1  C   UNL     1      94.733   0.059 -22.264  1.00  0.00     0.017 C 
ATOM      2  C   UNL     1      95.963  -0.660 -21.652  1.00  0.00     0.014 C 
ATOM      3  C   UNL     1      93.899   0.705 -21.106  1.00  0.00     0.014 C 
ATOM      4  C   UNL     1      95.233   1.215 -23.193  1.00  0.00     0.028 C 
ATOM      5  C   UNL     1      96.976  -1.131 -22.713  1.00  0.00     0.007 C 
ATOM      6  C   UNL     1      92.760   1.655 -21.591  1.00  0.00     0.013 C 
ATOM      7  C   UNL     1      94.017   1.997 -23.692  1.00  0.00    -0.064 C 
ATOM      8  C   UNL     1      96.266   0.773 -24.263  1.00  0.00     0.015 C 
ATOM      9  C   UNL     1      97.474   0.007 -23.650  1.00  0.00    -0.035 C 
ATOM     10  C   UNL     1      93.214   2.759 -22.620  1.00  0.00    -0.006 C 
ATOM     11  C   UNL     1      93.383   1.550 -24.793  1.00  0.00    -0.027 C 
ATOM     12  C   UNL     1      98.414   0.970 -22.886  1.00  0.00     0.011 C 
ATOM     13  C   UNL     1      98.289  -0.626 -24.798  1.00  0.00     0.011 C 
ATOM     14  C   UNL     1      94.159   3.734 -21.833  1.00  0.00     0.017 C 
ATOM     15  C   UNL     1      91.979   3.618 -23.282  1.00  0.00    -0.020 C 
ATOM     16  C   UNL     1      91.894   1.574 -24.873  1.00  0.00     0.032 C 
ATOM     17  C   UNL     1      91.371   2.994 -24.613  1.00  0.00     0.006 C 
ATOM     18  C   UNL     1      90.851   3.776 -22.242  1.00  0.00     0.008 C 
ATOM     19  C   UNL     1      92.481   5.057 -23.666  1.00  0.00     0.012 C 
ATOM     20  C   UNL     1      89.790   3.136 -24.876  1.00  0.00    -0.025 C 
ATOM     21  C   UNL     1      89.663   4.616 -22.704  1.00  0.00     0.005 C 
ATOM     22  C   UNL     1      89.196   4.440 -24.189  1.00  0.00     0.003 C 
ATOM     23  C   UNL     1      88.990   1.890 -24.365  1.00  0.00     0.010 C 
ATOM     24  C   UNL     1      89.633   3.223 -26.435  1.00  0.00     0.012 C 
ATOM     25  C   UNL     1      87.613   4.606 -24.306  1.00  0.00    -0.006 C 
ATOM     26  C   UNL     1      87.458   2.023 -24.467  1.00  0.00     0.033 C 
ATOM     27  C   UNL     1      86.918   3.302 -23.796  1.00  0.00     0.120 C 
ATOM     28  C   UNL     1      87.119   5.810 -23.445  1.00  0.00     0.014 C 
ATOM     29  C   UNL     1      87.170   4.953 -25.760  1.00  0.00     0.014 C 
ENDROOT
BRANCH   1  30
ATOM     30  C   UNL     1      93.867  -0.982 -22.987  1.00  0.00     0.048 C 
ATOM     31  O   UNL     1      92.770  -1.357 -22.491  1.00  0.00    -0.550 OA
ATOM     32  O   UNL     1      94.304  -1.609 -24.145  1.00  0.00    -0.550 OA
ENDBRANCH   1  30
BRANCH  27  33
ATOM     33  O   UNL     1      85.517   3.380 -23.916  1.00  0.00    -0.393 OA
ATOM     34  H   UNL     1      85.282   3.312 -24.878  1.00  0.00     0.210 HD
ENDBRANCH  27  33
TORSDOF 2
ENDMDL
MODEL 4
REMARK VINA RESULT:    -6.745      1.362      1.984
REMARK INTER + INTRA:          -6.981
REMARK INTER:                  -7.296
REMARK INTRA:                   0.315
REMARK UNBOUND:                 0.355
REMARK SMILES CC1(C)CC[C@@]2(C(=O)[O-])CC[C@@]3(C)C(=CC[C@H]4[C@@]5(C)CC[C@H](O)C(C)(C)[C@H]5CC[C@]43C)[C@@H]2C1
REMARK SMILES IDX 6 1 5 2 10 3 32 4 4 5 11 6 14 7 33 8 2 9 12 10 15 11 1 12
REMARK SMILES IDX 3 13 13 14 30 15 16 16 17 17 29 18 31 19 18 20 28 21 27 22
REMARK SMILES IDX 20 23 19 24 24 25 21 26 22 27 25 28 26 29 7 30 8 31 9 32
REMARK SMILES IDX 23 33
REMARK H PARENT 23 34
REMARK Flexibility Score: inf
ROOT
ATOM      1  C   UNL     1      92.509   4.457 -25.467  1.00  0.00     0.017 C 
ATOM      2  C   UNL     1      91.736   5.631 -26.124  1.00  0.00     0.014 C 
ATOM      3  C   UNL     1      93.043   4.924 -24.070  1.00  0.00     0.014 C 
ATOM      4  C   UNL     1      91.516   3.272 -25.224  1.00  0.00     0.028 C 
ATOM      5  C   UNL     1      90.970   5.213 -27.393  1.00  0.00     0.007 C 
ATOM      6  C   UNL     1      93.641   3.777 -23.198  1.00  0.00     0.013 C 
ATOM      7  C   UNL     1      92.254   2.169 -24.464  1.00  0.00    -0.064 C 
ATOM      8  C   UNL     1      90.718   2.838 -26.483  1.00  0.00     0.015 C 
ATOM      9  C   UNL     1      89.987   4.028 -27.168  1.00  0.00    -0.035 C 
ATOM     10  C   UNL     1      92.707   2.518 -23.033  1.00  0.00    -0.006 C 
ATOM     11  C   UNL     1      92.961   1.271 -25.176  1.00  0.00    -0.027 C 
ATOM     12  C   UNL     1      88.765   4.485 -26.334  1.00  0.00     0.011 C 
ATOM     13  C   UNL     1      89.463   3.559 -28.543  1.00  0.00     0.011 C 
ATOM     14  C   UNL     1      91.477   2.989 -22.180  1.00  0.00     0.017 C 
ATOM     15  C   UNL     1      93.421   1.237 -22.291  1.00  0.00    -0.020 C 
ATOM     16  C   UNL     1      94.291   0.798 -24.693  1.00  0.00     0.032 C 
ATOM     17  C   UNL     1      94.169   0.231 -23.272  1.00  0.00     0.006 C 
ATOM     18  C   UNL     1      94.424   1.749 -21.238  1.00  0.00     0.008 C 
ATOM     19  C   UNL     1      92.333   0.385 -21.542  1.00  0.00     0.012 C 
ATOM     20  C   UNL     1      95.523  -0.474 -22.761  1.00  0.00    -0.025 C 
ATOM     21  C   UNL     1      95.114   0.658 -20.423  1.00  0.00     0.005 C 
ATOM     22  C   UNL     1      95.536  -0.645 -21.182  1.00  0.00     0.003 C 
ATOM     23  C   UNL     1      96.803   0.318 -23.192  1.00  0.00     0.010 C 
ATOM     24  C   UNL     1      95.549  -1.879 -23.460  1.00  0.00     0.012 C 
ATOM     25  C   UNL     1      96.888  -1.239 -20.576  1.00  0.00    -0.006 C 
ATOM     26  C   UNL     1      98.124  -0.234 -22.622  1.00  0.00     0.033 C 
ATOM     27  C   UNL     1      98.098  -0.392 -21.088  1.00  0.00     0.120 C 
ATOM     28  C   UNL     1      96.862  -1.189 -19.016  1.00  0.00     0.014 C 
ATOM     29  C   UNL     1      97.065  -2.749 -20.920  1.00  0.00     0.014 C 
ENDROOT
BRANCH   1  30
ATOM     30  C   UNL     1      93.698   4.091 -26.364  1.00  0.00     0.048 C 
ATOM     31  O   UNL     1      94.880   4.270 -25.963  1.00  0.00    -0.550 OA
ATOM     32  O   UNL     1      93.514   3.649 -27.666  1.00  0.00    -0.550 OA
ENDBRANCH   1  30
BRANCH  27  33
ATOM     33  O   UNL     1      99.324  -0.900 -20.615  1.00  0.00    -0.393 OA
ATOM     34  H   UNL     1      99.131  -1.584 -19.922  1.00  0.00     0.210 HD
ENDBRANCH  27  33
TORSDOF 2
ENDMDL
MODEL 5
REMARK VINA RESULT:    -6.734      3.525      6.909
REMARK INTER + INTRA:          -6.970
REMARK INTER:                  -7.243
REMARK INTRA:                   0.273
REMARK UNBOUND:                 0.355
REMARK SMILES CC1(C)CC[C@@]2(C(=O)[O-])CC[C@@]3(C)C(=CC[C@H]4[C@@]5(C)CC[C@H](O)C(C)(C)[C@H]5CC[C@]43C)[C@@H]2C1
REMARK SMILES IDX 6 1 5 2 10 3 32 4 4 5 11 6 14 7 33 8 2 9 12 10 15 11 1 12
REMARK SMILES IDX 3 13 13 14 30 15 16 16 17 17 29 18 31 19 18 20 28 21 27 22
REMARK SMILES IDX 20 23 19 24 24 25 21 26 22 27 25 28 26 29 7 30 8 31 9 32
REMARK SMILES IDX 23 33
REMARK H PARENT 23 34
REMARK Flexibility Score: inf
ROOT
ATOM      1  C   UNL     1      93.943   0.093 -23.165  1.00  0.00     0.017 C 
ATOM      2  C   UNL     1      93.432   0.419 -24.592  1.00  0.00     0.014 C 
ATOM      3  C   UNL     1      94.788  -1.225 -23.220  1.00  0.00     0.014 C 
ATOM      4  C   UNL     1      94.890   1.246 -22.692  1.00  0.00     0.028 C 
ATOM      5  C   UNL     1      92.788   1.814 -24.698  1.00  0.00     0.007 C 
ATOM      6  C   UNL     1      95.556  -1.549 -21.901  1.00  0.00     0.013 C 
ATOM      7  C   UNL     1      95.489   0.858 -21.338  1.00  0.00    -0.064 C 
ATOM      8  C   UNL     1      94.274   2.665 -22.801  1.00  0.00     0.015 C 
ATOM      9  C   UNL     1      93.716   2.968 -24.221  1.00  0.00    -0.035 C 
ATOM     10  C   UNL     1      96.429  -0.364 -21.337  1.00  0.00    -0.006 C 
ATOM     11  C   UNL     1      94.783   1.145 -20.227  1.00  0.00    -0.027 C 
ATOM     12  C   UNL     1      94.864   3.198 -25.233  1.00  0.00     0.011 C 
ATOM     13  C   UNL     1      92.885   4.268 -24.157  1.00  0.00     0.011 C 
ATOM     14  C   UNL     1      97.594  -0.145 -22.365  1.00  0.00     0.017 C 
ATOM     15  C   UNL     1      97.065  -0.639 -19.848  1.00  0.00    -0.020 C 
ATOM     16  C   UNL     1      94.722   0.174 -19.096  1.00  0.00     0.032 C 
ATOM     17  C   UNL     1      96.138  -0.193 -18.633  1.00  0.00     0.006 C 
ATOM     18  C   UNL     1      97.395  -2.139 -19.701  1.00  0.00     0.008 C 
ATOM     19  C   UNL     1      98.407   0.163 -19.688  1.00  0.00     0.012 C 
ATOM     20  C   UNL     1      96.148  -1.084 -17.292  1.00  0.00    -0.025 C 
ATOM     21  C   UNL     1      98.058  -2.527 -18.382  1.00  0.00     0.005 C 
ATOM     22  C   UNL     1      97.541  -1.817 -17.085  1.00  0.00     0.003 C 
ATOM     23  C   UNL     1      95.008  -2.157 -17.286  1.00  0.00     0.010 C 
ATOM     24  C   UNL     1      95.885  -0.074 -16.121  1.00  0.00     0.012 C 
ATOM     25  C   UNL     1      97.606  -2.808 -15.836  1.00  0.00    -0.006 C 
ATOM     26  C   UNL     1      95.045  -3.129 -16.091  1.00  0.00     0.033 C 
ATOM     27  C   UNL     1      96.414  -3.817 -15.916  1.00  0.00     0.120 C 
ATOM     28  C   UNL     1      98.945  -3.610 -15.835  1.00  0.00     0.014 C 
ATOM     29  C   UNL     1      97.607  -2.038 -14.481  1.00  0.00     0.014 C 
ENDROOT
BRANCH   1  30
ATOM     30  C   UNL     1      92.731  -0.125 -22.248  1.00  0.00     0.048 C 
ATOM     31  O   UNL     1      92.372  -1.290 -21.929  1.00  0.00    -0.550 OA
ATOM     32  O   UNL     1      91.943   0.936 -21.826  1.00  0.00    -0.550 OA
ENDBRANCH   1  30
BRANCH  27  33
ATOM     33  O   UNL     1      96.399  -4.692 -14.812  1.00  0.00    -0.393 OA
ATOM     34  H   UNL     1      95.818  -4.299 -14.110  1.00  0.00     0.210 HD
ENDBRANCH  27  33
TORSDOF 2
ENDMDL
MODEL 6
REMARK VINA RESULT:    -6.716      4.978      7.081
REMARK INTER + INTRA:          -6.950
REMARK INTER:                  -7.240
REMARK INTRA:                   0.290
REMARK UNBOUND:                 0.355
REMARK SMILES CC1(C)CC[C@@]2(C(=O)[O-])CC[C@@]3(C)C(=CC[C@H]4[C@@]5(C)CC[C@H](O)C(C)(C)[C@H]5CC[C@]43C)[C@@H]2C1
REMARK SMILES IDX 6 1 5 2 10 3 32 4 4 5 11 6 14 7 33 8 2 9 12 10 15 11 1 12
REMARK SMILES IDX 3 13 13 14 30 15 16 16 17 17 29 18 31 19 18 20 28 21 27 22
REMARK SMILES IDX 20 23 19 24 24 25 21 26 22 27 25 28 26 29 7 30 8 31 9 32
REMARK SMILES IDX 23 33
REMARK H PARENT 23 34
REMARK Flexibility Score: inf
ROOT
ATOM      1  C   UNL     1      85.462   4.450 -22.653  1.00  0.00     0.017 C 
ATOM      2  C   UNL     1      84.129   4.674 -21.894  1.00  0.00     0.014 C 
ATOM      3  C   UNL     1      86.637   5.023 -21.790  1.00  0.00     0.014 C 
ATOM      4  C   UNL     1      85.698   2.911 -22.816  1.00  0.00     0.028 C 
ATOM      5  C   UNL     1      82.937   3.943 -22.539  1.00  0.00     0.007 C 
ATOM      6  C   UNL     1      88.058   4.662 -22.324  1.00  0.00     0.013 C 
ATOM      7  C   UNL     1      87.073   2.695 -23.452  1.00  0.00    -0.064 C 
ATOM      8  C   UNL     1      84.508   2.144 -23.450  1.00  0.00     0.015 C 
ATOM      9  C   UNL     1      83.163   2.414 -22.716  1.00  0.00    -0.035 C 
ATOM     10  C   UNL     1      88.287   3.128 -22.607  1.00  0.00    -0.006 C 
ATOM     11  C   UNL     1      87.162   2.728 -24.796  1.00  0.00    -0.027 C 
ATOM     12  C   UNL     1      83.124   1.695 -21.345  1.00  0.00     0.011 C 
ATOM     13  C   UNL     1      82.011   1.845 -23.573  1.00  0.00     0.011 C 
ATOM     14  C   UNL     1      88.254   2.411 -21.212  1.00  0.00     0.017 C 
ATOM     15  C   UNL     1      89.706   2.782 -23.361  1.00  0.00    -0.020 C 
ATOM     16  C   UNL     1      88.318   3.394 -25.463  1.00  0.00     0.032 C 
ATOM     17  C   UNL     1      89.639   2.803 -24.951  1.00  0.00     0.006 C 
ATOM     18  C   UNL     1      90.789   3.775 -22.892  1.00  0.00     0.008 C 
ATOM     19  C   UNL     1      90.177   1.337 -22.964  1.00  0.00     0.012 C 
ATOM     20  C   UNL     1      90.921   3.335 -25.766  1.00  0.00    -0.025 C 
ATOM     21  C   UNL     1      92.182   3.526 -23.466  1.00  0.00     0.005 C 
ATOM     22  C   UNL     1      92.270   3.085 -24.967  1.00  0.00     0.003 C 
ATOM     23  C   UNL     1      90.813   4.859 -26.110  1.00  0.00     0.010 C 
ATOM     24  C   UNL     1      90.926   2.522 -27.109  1.00  0.00     0.012 C 
ATOM     25  C   UNL     1      93.583   3.679 -25.653  1.00  0.00    -0.006 C 
ATOM     26  C   UNL     1      92.068   5.459 -26.774  1.00  0.00     0.033 C 
ATOM     27  C   UNL     1      93.359   5.192 -25.974  1.00  0.00     0.120 C 
ATOM     28  C   UNL     1      94.813   3.543 -24.700  1.00  0.00     0.014 C 
ATOM     29  C   UNL     1      93.984   2.880 -26.930  1.00  0.00     0.014 C 
ENDROOT
BRANCH   1  30
ATOM     30  C   UNL     1      85.400   5.208 -23.986  1.00  0.00     0.048 C 
ATOM     31  O   UNL     1      86.102   6.239 -24.168  1.00  0.00    -0.550 OA
ATOM     32  O   UNL     1      84.509   4.844 -24.985  1.00  0.00    -0.550 OA
ENDBRANCH   1  30
BRANCH  27  33
ATOM     33  O   UNL     1      94.476   5.757 -26.620  1.00  0.00    -0.393 OA
ATOM     34  H   UNL     1      94.153   6.310 -27.377  1.00  0.00     0.210 HD
ENDBRANCH  27  33
TORSDOF 2
ENDMDL
MODEL 7
REMARK VINA RESULT:    -6.716      4.398      6.325
REMARK INTER + INTRA:          -6.950
REMARK INTER:                  -7.218
REMARK INTRA:                   0.268
REMARK UNBOUND:                 0.355
REMARK SMILES CC1(C)CC[C@@]2(C(=O)[O-])CC[C@@]3(C)C(=CC[C@H]4[C@@]5(C)CC[C@H](O)C(C)(C)[C@H]5CC[C@]43C)[C@@H]2C1
REMARK SMILES IDX 6 1 5 2 10 3 32 4 4 5 11 6 14 7 33 8 2 9 12 10 15 11 1 12
REMARK SMILES IDX 3 13 13 14 30 15 16 16 17 17 29 18 31 19 18 20 28 21 27 22
REMARK SMILES IDX 20 23 19 24 24 25 21 26 22 27 25 28 26 29 7 30 8 31 9 32
REMARK SMILES IDX 23 33
REMARK H PARENT 23 34
REMARK Flexibility Score: inf
ROOT
ATOM      1  C   UNL     1      92.702   3.413 -23.906  1.00  0.00     0.017 C 
ATOM      2  C   UNL     1      93.766   3.497 -25.031  1.00  0.00     0.014 C 
ATOM      3  C   UNL     1      93.432   3.193 -22.537  1.00  0.00     0.014 C 
ATOM      4  C   UNL     1      91.942   4.779 -23.826  1.00  0.00     0.028 C 
ATOM      5  C   UNL     1      93.179   3.945 -26.383  1.00  0.00     0.007 C 
ATOM      6  C   UNL     1      92.503   3.319 -21.290  1.00  0.00     0.013 C 
ATOM      7  C   UNL     1      90.984   4.732 -22.634  1.00  0.00    -0.064 C 
ATOM      8  C   UNL     1      91.352   5.263 -25.177  1.00  0.00     0.015 C 
ATOM      9  C   UNL     1      92.412   5.296 -26.315  1.00  0.00    -0.035 C 
ATOM     10  C   UNL     1      91.637   4.635 -21.242  1.00  0.00    -0.006 C 
ATOM     11  C   UNL     1      89.761   4.200 -22.825  1.00  0.00    -0.027 C 
ATOM     12  C   UNL     1      93.399   6.473 -26.123  1.00  0.00     0.011 C 
ATOM     13  C   UNL     1      91.684   5.514 -27.660  1.00  0.00     0.011 C 
ATOM     14  C   UNL     1      92.645   5.820 -21.038  1.00  0.00     0.017 C 
ATOM     15  C   UNL     1      90.515   4.665 -20.041  1.00  0.00    -0.020 C 
ATOM     16  C   UNL     1      89.144   3.326 -21.785  1.00  0.00     0.032 C 
ATOM     17  C   UNL     1      89.099   4.055 -20.436  1.00  0.00     0.006 C 
ATOM     18  C   UNL     1      91.061   3.910 -18.812  1.00  0.00     0.008 C 
ATOM     19  C   UNL     1      90.243   6.151 -19.608  1.00  0.00     0.012 C 
ATOM     20  C   UNL     1      88.272   3.248 -19.315  1.00  0.00    -0.025 C 
ATOM     21  C   UNL     1      90.144   3.918 -17.592  1.00  0.00     0.005 C 
ATOM     22  C   UNL     1      88.606   3.768 -17.852  1.00  0.00     0.003 C 
ATOM     23  C   UNL     1      88.540   1.707 -19.376  1.00  0.00     0.010 C 
ATOM     24  C   UNL     1      86.760   3.503 -19.651  1.00  0.00     0.012 C 
ATOM     25  C   UNL     1      87.911   2.952 -16.669  1.00  0.00    -0.006 C 
ATOM     26  C   UNL     1      87.881   0.893 -18.245  1.00  0.00     0.033 C 
ATOM     27  C   UNL     1      88.221   1.429 -16.840  1.00  0.00     0.120 C 
ATOM     28  C   UNL     1      88.451   3.424 -15.282  1.00  0.00     0.014 C 
ATOM     29  C   UNL     1      86.376   3.214 -16.604  1.00  0.00     0.014 C 
ENDROOT
BRANCH   1  30
ATOM     30  C   UNL     1      91.786   2.213 -24.187  1.00  0.00     0.048 C 
ATOM     31  O   UNL     1      91.931   1.136 -23.548  1.00  0.00    -0.550 OA
ATOM     32  O   UNL     1      90.846   2.243 -25.207  1.00  0.00    -0.550 OA
ENDBRANCH   1  30
BRANCH  27  33
ATOM     33  O   UNL     1      87.596   0.657 -15.842  1.00  0.00    -0.393 OA
ATOM     34  H   UNL     1      86.974   1.243 -15.338  1.00  0.00     0.210 HD
ENDBRANCH  27  33
TORSDOF 2
ENDMDL
MODEL 8
REMARK VINA RESULT:    -6.715      3.225      4.501
REMARK INTER + INTRA:          -6.949
REMARK INTER:                  -7.237
REMARK INTRA:                   0.288
REMARK UNBOUND:                 0.355
REMARK SMILES CC1(C)CC[C@@]2(C(=O)[O-])CC[C@@]3(C)C(=CC[C@H]4[C@@]5(C)CC[C@H](O)C(C)(C)[C@H]5CC[C@]43C)[C@@H]2C1
REMARK SMILES IDX 6 1 5 2 10 3 32 4 4 5 11 6 14 7 33 8 2 9 12 10 15 11 1 12
REMARK SMILES IDX 3 13 13 14 30 15 16 16 17 17 29 18 31 19 18 20 28 21 27 22
REMARK SMILES IDX 20 23 19 24 24 25 21 26 22 27 25 28 26 29 7 30 8 31 9 32
REMARK SMILES IDX 23 33
REMARK H PARENT 23 34
REMARK Flexibility Score: inf
ROOT
ATOM      1  C   UNL     1      93.627   3.078 -24.727  1.00  0.00     0.017 C 
ATOM      2  C   UNL     1      94.330   3.806 -25.903  1.00  0.00     0.014 C 
ATOM      3  C   UNL     1      94.706   2.684 -23.662  1.00  0.00     0.014 C 
ATOM      4  C   UNL     1      92.625   4.069 -24.046  1.00  0.00     0.028 C 
ATOM      5  C   UNL     1      93.339   4.444 -26.895  1.00  0.00     0.007 C 
ATOM      6  C   UNL     1      94.114   2.151 -22.320  1.00  0.00     0.013 C 
ATOM      7  C   UNL     1      92.030   3.386 -22.813  1.00  0.00    -0.064 C 
ATOM      8  C   UNL     1      91.624   4.739 -25.024  1.00  0.00     0.015 C 
ATOM      9  C   UNL     1      92.331   5.423 -26.229  1.00  0.00    -0.035 C 
ATOM     10  C   UNL     1      93.015   3.074 -21.669  1.00  0.00    -0.006 C 
ATOM     11  C   UNL     1      90.950   2.600 -22.983  1.00  0.00    -0.027 C 
ATOM     12  C   UNL     1      93.044   6.725 -25.790  1.00  0.00     0.011 C 
ATOM     13  C   UNL     1      91.260   5.808 -27.274  1.00  0.00     0.011 C 
ATOM     14  C   UNL     1      93.749   4.386 -21.220  1.00  0.00     0.017 C 
ATOM     15  C   UNL     1      92.252   2.410 -20.374  1.00  0.00    -0.020 C 
ATOM     16  C   UNL     1      90.825   1.313 -22.239  1.00  0.00     0.032 C 
ATOM     17  C   UNL     1      90.956   1.556 -20.730  1.00  0.00     0.006 C 
ATOM     18  C   UNL     1      93.242   1.518 -19.599  1.00  0.00     0.008 C 
ATOM     19  C   UNL     1      91.770   3.548 -19.403  1.00  0.00     0.012 C 
ATOM     20  C   UNL     1      90.637   0.244 -19.853  1.00  0.00    -0.025 C 
ATOM     21  C   UNL     1      92.680   0.888 -18.326  1.00  0.00     0.005 C 
ATOM     22  C   UNL     1      91.201   0.375 -18.374  1.00  0.00     0.003 C 
ATOM     23  C   UNL     1      91.221  -1.056 -20.501  1.00  0.00     0.010 C 
ATOM     24  C   UNL     1      89.072   0.130 -19.831  1.00  0.00     0.012 C 
ATOM     25  C   UNL     1      91.024  -0.924 -17.465  1.00  0.00    -0.006 C 
ATOM     26  C   UNL     1      91.064  -2.328 -19.644  1.00  0.00     0.033 C 
ATOM     27  C   UNL     1      91.616  -2.162 -18.214  1.00  0.00     0.120 C 
ATOM     28  C   UNL     1      91.773  -0.753 -16.106  1.00  0.00     0.014 C 
ATOM     29  C   UNL     1      89.535  -1.159 -17.067  1.00  0.00     0.014 C 
ENDROOT
BRANCH   1  30
ATOM     30  C   UNL     1      92.964   1.804 -25.267  1.00  0.00     0.048 C 
ATOM     31  O   UNL     1      93.427   0.669 -24.973  1.00  0.00    -0.550 OA
ATOM     32  O   UNL     1      91.907   1.862 -26.163  1.00  0.00    -0.550 OA
ENDBRANCH   1  30
BRANCH  27  33
ATOM     33  O   UNL     1      91.449  -3.347 -17.471  1.00  0.00    -0.393 OA
ATOM     34  H   UNL     1      90.500  -3.406 -17.187  1.00  0.00     0.210 HD
ENDBRANCH  27  33
TORSDOF 2
ENDMDL
MODEL 9
REMARK VINA RESULT:    -6.624      5.161      9.135
REMARK INTER + INTRA:          -6.850
REMARK INTER:                  -7.126
REMARK INTRA:                   0.276
REMARK UNBOUND:                 0.355
REMARK SMILES CC1(C)CC[C@@]2(C(=O)[O-])CC[C@@]3(C)C(=CC[C@H]4[C@@]5(C)CC[C@H](O)C(C)(C)[C@H]5CC[C@]43C)[C@@H]2C1
REMARK SMILES IDX 6 1 5 2 10 3 32 4 4 5 11 6 14 7 33 8 2 9 12 10 15 11 1 12
REMARK SMILES IDX 3 13 13 14 30 15 16 16 17 17 29 18 31 19 18 20 28 21 27 22
REMARK SMILES IDX 20 23 19 24 24 25 21 26 22 27 25 28 26 29 7 30 8 31 9 32
REMARK SMILES IDX 23 33
REMARK H PARENT 23 34
REMARK Flexibility Score: inf
ROOT
ATOM      1  C   UNL     1      88.710   3.182 -16.966  1.00  0.00     0.017 C 
ATOM      2  C   UNL     1      87.806   3.300 -15.711  1.00  0.00     0.014 C 
ATOM      3  C   UNL     1      87.979   3.849 -18.179  1.00  0.00     0.014 C 
ATOM      4  C   UNL     1      90.033   3.978 -16.711  1.00  0.00     0.028 C 
ATOM      5  C   UNL     1      88.521   2.887 -14.411  1.00  0.00     0.007 C 
ATOM      6  C   UNL     1      88.867   4.008 -19.452  1.00  0.00     0.013 C 
ATOM      7  C   UNL     1      90.864   3.962 -17.996  1.00  0.00    -0.064 C 
ATOM      8  C   UNL     1      90.769   3.594 -15.400  1.00  0.00     0.015 C 
ATOM      9  C   UNL     1      89.843   3.664 -14.151  1.00  0.00    -0.035 C 
ATOM     10  C   UNL     1      90.259   4.704 -19.204  1.00  0.00    -0.006 C 
ATOM     11  C   UNL     1      91.680   2.912 -18.211  1.00  0.00    -0.027 C 
ATOM     12  C   UNL     1      89.545   5.133 -13.762  1.00  0.00     0.011 C 
ATOM     13  C   UNL     1      90.573   3.005 -12.960  1.00  0.00     0.011 C 
ATOM     14  C   UNL     1      89.946   6.192 -18.818  1.00  0.00     0.017 C 
ATOM     15  C   UNL     1      91.270   4.681 -20.499  1.00  0.00    -0.020 C 
ATOM     16  C   UNL     1      91.812   2.322 -19.574  1.00  0.00     0.032 C 
ATOM     17  C   UNL     1      92.214   3.403 -20.586  1.00  0.00     0.006 C 
ATOM     18  C   UNL     1      90.441   4.780 -21.796  1.00  0.00     0.008 C 
ATOM     19  C   UNL     1      92.227   5.927 -20.447  1.00  0.00     0.012 C 
ATOM     20  C   UNL     1      92.565   2.804 -22.038  1.00  0.00    -0.025 C 
ATOM     21  C   UNL     1      91.262   4.837 -23.082  1.00  0.00     0.005 C 
ATOM     22  C   UNL     1      92.536   3.928 -23.159  1.00  0.00     0.003 C 
ATOM     23  C   UNL     1      91.589   1.653 -22.454  1.00  0.00     0.010 C 
ATOM     24  C   UNL     1      94.010   2.206 -21.904  1.00  0.00     0.012 C 
ATOM     25  C   UNL     1      92.766   3.405 -24.649  1.00  0.00    -0.006 C 
ATOM     26  C   UNL     1      91.788   1.127 -23.889  1.00  0.00     0.033 C 
ATOM     27  C   UNL     1      91.761   2.246 -24.950  1.00  0.00     0.120 C 
ATOM     28  C   UNL     1      92.534   4.554 -25.680  1.00  0.00     0.014 C 
ATOM     29  C   UNL     1      94.240   2.954 -24.887  1.00  0.00     0.014 C 
ENDROOT
BRANCH   1  30
ATOM     30  C   UNL     1      88.934   1.694 -17.269  1.00  0.00     0.048 C 
ATOM     31  O   UNL     1      88.318   1.135 -18.215  1.00  0.00    -0.550 OA
ATOM     32  O   UNL     1      89.739   0.903 -16.461  1.00  0.00    -0.550 OA
ENDBRANCH   1  30
BRANCH  27  33
ATOM     33  O   UNL     1      91.950   1.718 -26.242  1.00  0.00    -0.393 OA
ATOM     34  H   UNL     1      91.834   0.734 -26.197  1.00  0.00     0.210 HD
ENDBRANCH  27  33
TORSDOF 2
ENDMDL
