MODEL 1
REMARK VINA RESULT:    -3.284      0.000      0.000
REMARK INTER + INTRA:          -8.980
REMARK INTER:                  -6.548
REMARK INTRA:                  -2.433
REMARK UNBOUND:                -2.433
REMARK SMILES CCCCCCCCCCCCCCCCCC(=O)OC
REMARK SMILES IDX 10 1 9 2 8 3 7 4 6 5 5 6 4 7 3 8 2 9 1 10 11 11 12 12 13 13
REMARK SMILES IDX 14 14 15 15 16 16 17 17 18 18 19 19 20 20 21 21
REMARK H PARENT
REMARK Flexibility Score: inf
ROOT
ATOM      1  C   UNL     1     213.198 211.406 218.711  1.00  0.00     0.000 C 
ENDROOT
BRANCH   1   2
ATOM      2  C   UNL     1     212.938 210.580 217.438  1.00  0.00     0.000 C 
BRANCH   2   3
ATOM      3  C   UNL     1     213.498 209.147 217.551  1.00  0.00    -0.000 C 
BRANCH   3   4
ATOM      4  C   UNL     1     212.553 208.168 218.268  1.00  0.00    -0.000 C 
BRANCH   4   5
ATOM      5  C   UNL     1     213.268 207.326 219.338  1.00  0.00    -0.000 C 
BRANCH   5   6
ATOM      6  C   UNL     1     214.581 207.968 219.813  1.00  0.00    -0.000 C 
BRANCH   6   7
ATOM      7  C   UNL     1     214.395 208.846 221.059  1.00  0.00    -0.000 C 
BRANCH   7   8
ATOM      8  C   UNL     1     213.170 208.397 221.868  1.00  0.00    -0.000 C 
BRANCH   8   9
ATOM      9  C   UNL     1     212.194 209.560 222.079  1.00  0.00    -0.003 C 
ATOM     10  C   UNL     1     210.772 209.162 221.696  1.00  0.00     0.004 C 
ENDBRANCH   8   9
ENDBRANCH   7   8
ENDBRANCH   6   7
ENDBRANCH   5   6
ENDBRANCH   4   5
ENDBRANCH   3   4
ENDBRANCH   2   3
ENDBRANCH   1   2
BRANCH   1  11
ATOM     11  C   UNL     1     211.896 211.918 219.364  1.00  0.00     0.000 C 
BRANCH  11  12
ATOM     12  C   UNL     1     210.615 211.370 218.708  1.00  0.00     0.000 C 
BRANCH  12  13
ATOM     13  C   UNL     1     209.415 212.335 218.710  1.00  0.00     0.000 C 
BRANCH  13  14
ATOM     14  C   UNL     1     208.744 212.542 217.338  1.00  0.00     0.000 C 
BRANCH  14  15
ATOM     15  C   UNL     1     207.215 212.424 217.398  1.00  0.00     0.001 C 
BRANCH  15  16
ATOM     16  C   UNL     1     206.761 211.848 218.748  1.00  0.00     0.012 C 
BRANCH  16  17
ATOM     17  C   UNL     1     205.729 210.725 218.583  1.00  0.00     0.123 C 
BRANCH  17  18
ATOM     18  C   UNL     1     206.379 209.376 218.559  1.00  0.00     0.305 C 
ATOM     19  O   UNL     1     206.077 208.551 217.654  1.00  0.00    -0.252 OA
BRANCH  18  20
ATOM     20  O   UNL     1     207.337 209.057 219.525  1.00  0.00    -0.469 OA
ATOM     21  C   UNL     1     207.140 208.027 220.487  1.00  0.00     0.282 C 
ENDBRANCH  18  20
ENDBRANCH  17  18
ENDBRANCH  16  17
ENDBRANCH  15  16
ENDBRANCH  14  15
ENDBRANCH  13  14
ENDBRANCH  12  13
ENDBRANCH  11  12
ENDBRANCH   1  11
TORSDOF 17
ENDMDL
MODEL 2
REMARK VINA RESULT:    -3.154      2.539      6.066
REMARK INTER + INTRA:          -8.722
REMARK INTER:                  -6.156
REMARK INTRA:                  -2.566
REMARK UNBOUND:                -2.433
REMARK SMILES CCCCCCCCCCCCCCCCCC(=O)OC
REMARK SMILES IDX 10 1 9 2 8 3 7 4 6 5 5 6 4 7 3 8 2 9 1 10 11 11 12 12 13 13
REMARK SMILES IDX 14 14 15 15 16 16 17 17 18 18 19 19 20 20 21 21
REMARK H PARENT
REMARK Flexibility Score: inf
ROOT
ATOM      1  C   UNL     1     208.619 212.510 217.284  1.00  0.00     0.000 C 
ENDROOT
BRANCH   1   2
ATOM      2  C   UNL     1     207.713 211.444 217.926  1.00  0.00     0.000 C 
BRANCH   2   3
ATOM      3  C   UNL     1     206.297 211.985 218.220  1.00  0.00    -0.000 C 
BRANCH   3   4
ATOM      4  C   UNL     1     205.272 210.887 218.550  1.00  0.00    -0.000 C 
BRANCH   4   5
ATOM      5  C   UNL     1     205.810 209.471 218.284  1.00  0.00    -0.000 C 
BRANCH   5   6
ATOM      6  C   UNL     1     206.052 208.679 219.579  1.00  0.00    -0.000 C 
BRANCH   6   7
ATOM      7  C   UNL     1     207.480 208.121 219.673  1.00  0.00    -0.000 C 
BRANCH   7   8
ATOM      8  C   UNL     1     208.254 208.787 220.818  1.00  0.00    -0.000 C 
BRANCH   8   9
ATOM      9  C   UNL     1     207.503 210.014 221.349  1.00  0.00    -0.003 C 
ATOM     10  C   UNL     1     208.372 210.816 222.312  1.00  0.00     0.004 C 
ENDBRANCH   8   9
ENDBRANCH   7   8
ENDBRANCH   6   7
ENDBRANCH   5   6
ENDBRANCH   4   5
ENDBRANCH   3   4
ENDBRANCH   2   3
ENDBRANCH   1   2
BRANCH   1  11
ATOM     11  C   UNL     1     208.584 213.854 218.042  1.00  0.00     0.000 C 
BRANCH  11  12
ATOM     12  C   UNL     1     209.856 214.140 218.861  1.00  0.00     0.000 C 
BRANCH  12  13
ATOM     13  C   UNL     1     210.020 213.289 220.133  1.00  0.00     0.000 C 
BRANCH  13  14
ATOM     14  C   UNL     1     211.302 212.437 220.185  1.00  0.00     0.000 C 
BRANCH  14  15
ATOM     15  C   UNL     1     211.078 210.992 219.720  1.00  0.00     0.001 C 
BRANCH  15  16
ATOM     16  C   UNL     1     211.713 210.755 218.341  1.00  0.00     0.012 C 
BRANCH  16  17
ATOM     17  C   UNL     1     213.245 210.711 218.406  1.00  0.00     0.123 C 
BRANCH  17  18
ATOM     18  C   UNL     1     213.739 209.389 218.908  1.00  0.00     0.305 C 
ATOM     19  O   UNL     1     214.681 209.348 219.746  1.00  0.00    -0.252 OA
BRANCH  18  20
ATOM     20  O   UNL     1     213.128 208.213 218.465  1.00  0.00    -0.469 OA
ATOM     21  C   UNL     1     213.313 206.962 219.117  1.00  0.00     0.282 C 
ENDBRANCH  18  20
ENDBRANCH  17  18
ENDBRANCH  16  17
ENDBRANCH  15  16
ENDBRANCH  14  15
ENDBRANCH  13  14
ENDBRANCH  12  13
ENDBRANCH  11  12
ENDBRANCH   1  11
TORSDOF 17
ENDMDL
MODEL 3
REMARK VINA RESULT:    -3.143      1.132      3.217
REMARK INTER + INTRA:          -8.699
REMARK INTER:                  -5.927
REMARK INTRA:                  -2.772
REMARK UNBOUND:                -2.433
REMARK SMILES CCCCCCCCCCCCCCCCCC(=O)OC
REMARK SMILES IDX 10 1 9 2 8 3 7 4 6 5 5 6 4 7 3 8 2 9 1 10 11 11 12 12 13 13
REMARK SMILES IDX 14 14 15 15 16 16 17 17 18 18 19 19 20 20 21 21
REMARK H PARENT
REMARK Flexibility Score: inf
ROOT
ATOM      1  C   UNL     1     212.039 209.011 222.646  1.00  0.00     0.000 C 
ENDROOT
BRANCH   1   2
ATOM      2  C   UNL     1     213.349 208.362 222.166  1.00  0.00     0.000 C 
BRANCH   2   3
ATOM      3  C   UNL     1     214.083 209.234 221.125  1.00  0.00    -0.000 C 
BRANCH   3   4
ATOM      4  C   UNL     1     214.689 208.431 219.962  1.00  0.00    -0.000 C 
BRANCH   4   5
ATOM      5  C   UNL     1     213.709 207.400 219.376  1.00  0.00    -0.000 C 
BRANCH   5   6
ATOM      6  C   UNL     1     212.731 208.023 218.367  1.00  0.00    -0.000 C 
BRANCH   6   7
ATOM      7  C   UNL     1     213.390 209.101 217.492  1.00  0.00    -0.000 C 
BRANCH   7   8
ATOM      8  C   UNL     1     212.639 210.434 217.608  1.00  0.00    -0.000 C 
BRANCH   8   9
ATOM      9  C   UNL     1     213.514 211.501 218.276  1.00  0.00    -0.003 C 
ATOM     10  C   UNL     1     212.699 212.354 219.243  1.00  0.00     0.004 C 
ENDBRANCH   8   9
ENDBRANCH   7   8
ENDBRANCH   6   7
ENDBRANCH   5   6
ENDBRANCH   4   5
ENDBRANCH   3   4
ENDBRANCH   2   3
ENDBRANCH   1   2
BRANCH   1  11
ATOM     11  C   UNL     1     211.388 209.903 221.568  1.00  0.00     0.000 C 
BRANCH  11  12
ATOM     12  C   UNL     1     210.358 209.168 220.690  1.00  0.00     0.000 C 
BRANCH  12  13
ATOM     13  C   UNL     1     209.412 210.080 219.889  1.00  0.00     0.000 C 
BRANCH  13  14
ATOM     14  C   UNL     1     209.284 211.518 220.427  1.00  0.00     0.000 C 
BRANCH  14  15
ATOM     15  C   UNL     1     208.865 212.525 219.346  1.00  0.00     0.001 C 
BRANCH  15  16
ATOM     16  C   UNL     1     208.125 211.821 218.198  1.00  0.00     0.012 C 
BRANCH  16  17
ATOM     17  C   UNL     1     206.608 212.036 218.266  1.00  0.00     0.123 C 
BRANCH  17  18
ATOM     18  C   UNL     1     205.877 210.750 218.502  1.00  0.00     0.305 C 
ATOM     19  O   UNL     1     204.765 210.760 219.097  1.00  0.00    -0.252 OA
BRANCH  18  20
ATOM     20  O   UNL     1     206.424 209.553 218.032  1.00  0.00    -0.469 OA
ATOM     21  C   UNL     1     206.292 208.323 218.736  1.00  0.00     0.282 C 
ENDBRANCH  18  20
ENDBRANCH  17  18
ENDBRANCH  16  17
ENDBRANCH  15  16
ENDBRANCH  14  15
ENDBRANCH  13  14
ENDBRANCH  12  13
ENDBRANCH  11  12
ENDBRANCH   1  11
TORSDOF 17
ENDMDL
MODEL 4
REMARK VINA RESULT:    -3.114     12.375     16.715
REMARK INTER + INTRA:          -8.642
REMARK INTER:                  -6.331
REMARK INTRA:                  -2.311
REMARK UNBOUND:                -2.433
REMARK SMILES CCCCCCCCCCCCCCCCCC(=O)OC
REMARK SMILES IDX 10 1 9 2 8 3 7 4 6 5 5 6 4 7 3 8 2 9 1 10 11 11 12 12 13 13
REMARK SMILES IDX 14 14 15 15 16 16 17 17 18 18 19 19 20 20 21 21
REMARK H PARENT
REMARK Flexibility Score: inf
ROOT
ATOM      1  C   UNL     1     196.848 196.762 219.177  1.00  0.00     0.000 C 
ENDROOT
BRANCH   1   2
ATOM      2  C   UNL     1     196.341 197.425 217.883  1.00  0.00     0.000 C 
BRANCH   2   3
ATOM      3  C   UNL     1     195.354 198.577 218.168  1.00  0.00    -0.000 C 
BRANCH   3   4
ATOM      4  C   UNL     1     195.714 199.890 217.452  1.00  0.00    -0.000 C 
BRANCH   4   5
ATOM      5  C   UNL     1     195.992 201.044 218.429  1.00  0.00    -0.000 C 
BRANCH   5   6
ATOM      6  C   UNL     1     196.837 200.605 219.635  1.00  0.00    -0.000 C 
BRANCH   6   7
ATOM      7  C   UNL     1     198.344 200.787 219.401  1.00  0.00    -0.000 C 
BRANCH   7   8
ATOM      8  C   UNL     1     199.158 200.055 220.475  1.00  0.00    -0.000 C 
BRANCH   8   9
ATOM      9  C   UNL     1     198.254 199.569 221.614  1.00  0.00    -0.003 C 
ATOM     10  C   UNL     1     198.713 198.212 222.140  1.00  0.00     0.004 C 
ENDBRANCH   8   9
ENDBRANCH   7   8
ENDBRANCH   6   7
ENDBRANCH   5   6
ENDBRANCH   4   5
ENDBRANCH   3   4
ENDBRANCH   2   3
ENDBRANCH   1   2
BRANCH   1  11
ATOM     11  C   UNL     1     198.301 196.255 219.055  1.00  0.00     0.000 C 
BRANCH  11  12
ATOM     12  C   UNL     1     199.178 197.105 218.116  1.00  0.00     0.000 C 
BRANCH  12  13
ATOM     13  C   UNL     1     200.170 196.308 217.249  1.00  0.00     0.000 C 
BRANCH  13  14
ATOM     14  C   UNL     1     201.652 196.684 217.443  1.00  0.00     0.000 C 
BRANCH  14  15
ATOM     15  C   UNL     1     201.870 197.677 218.593  1.00  0.00     0.001 C 
BRANCH  15  16
ATOM     16  C   UNL     1     203.029 198.635 218.279  1.00  0.00     0.012 C 
BRANCH  16  17
ATOM     17  C   UNL     1     202.894 199.973 219.016  1.00  0.00     0.123 C 
BRANCH  17  18
ATOM     18  C   UNL     1     203.814 200.051 220.195  1.00  0.00     0.305 C 
ATOM     19  O   UNL     1     204.449 199.025 220.564  1.00  0.00    -0.252 OA
BRANCH  18  20
ATOM     20  O   UNL     1     203.984 201.271 220.856  1.00  0.00    -0.469 OA
ATOM     21  C   UNL     1     205.025 202.182 220.524  1.00  0.00     0.282 C 
ENDBRANCH  18  20
ENDBRANCH  17  18
ENDBRANCH  16  17
ENDBRANCH  15  16
ENDBRANCH  14  15
ENDBRANCH  13  14
ENDBRANCH  12  13
ENDBRANCH  11  12
ENDBRANCH   1  11
TORSDOF 17
ENDMDL
MODEL 5
REMARK VINA RESULT:    -3.088      0.979      1.544
REMARK INTER + INTRA:          -8.591
REMARK INTER:                  -6.790
REMARK INTRA:                  -1.800
REMARK UNBOUND:                -2.433
REMARK SMILES CCCCCCCCCCCCCCCCCC(=O)OC
REMARK SMILES IDX 10 1 9 2 8 3 7 4 6 5 5 6 4 7 3 8 2 9 1 10 11 11 12 12 13 13
REMARK SMILES IDX 14 14 15 15 16 16 17 17 18 18 19 19 20 20 21 21
REMARK H PARENT
REMARK Flexibility Score: inf
ROOT
ATOM      1  C   UNL     1     211.819 212.255 219.281  1.00  0.00     0.000 C 
ENDROOT
BRANCH   1   2
ATOM      2  C   UNL     1     211.966 210.967 218.452  1.00  0.00     0.000 C 
BRANCH   2   3
ATOM      3  C   UNL     1     213.381 210.818 217.854  1.00  0.00    -0.000 C 
BRANCH   3   4
ATOM      4  C   UNL     1     213.772 209.363 217.546  1.00  0.00    -0.000 C 
BRANCH   4   5
ATOM      5  C   UNL     1     212.700 208.352 217.987  1.00  0.00    -0.000 C 
BRANCH   5   6
ATOM      6  C   UNL     1     213.263 207.264 218.916  1.00  0.00    -0.000 C 
BRANCH   6   7
ATOM      7  C   UNL     1     214.312 207.807 219.897  1.00  0.00    -0.000 C 
BRANCH   7   8
ATOM      8  C   UNL     1     213.676 208.132 221.255  1.00  0.00    -0.000 C 
BRANCH   8   9
ATOM      9  C   UNL     1     213.483 209.643 221.426  1.00  0.00    -0.003 C 
ATOM     10  C   UNL     1     212.234 209.950 222.246  1.00  0.00     0.004 C 
ENDBRANCH   8   9
ENDBRANCH   7   8
ENDBRANCH   6   7
ENDBRANCH   5   6
ENDBRANCH   4   5
ENDBRANCH   3   4
ENDBRANCH   2   3
ENDBRANCH   1   2
BRANCH   1  11
ATOM     11  C   UNL     1     210.343 212.635 219.531  1.00  0.00     0.000 C 
BRANCH  11  12
ATOM     12  C   UNL     1     209.913 213.944 218.842  1.00  0.00     0.000 C 
BRANCH  12  13
ATOM     13  C   UNL     1     208.599 213.862 218.045  1.00  0.00     0.000 C 
BRANCH  13  14
ATOM     14  C   UNL     1     207.435 213.169 218.779  1.00  0.00     0.000 C 
BRANCH  14  15
ATOM     15  C   UNL     1     206.844 211.994 217.987  1.00  0.00     0.001 C 
BRANCH  15  16
ATOM     16  C   UNL     1     206.428 210.852 218.927  1.00  0.00     0.012 C 
BRANCH  16  17
ATOM     17  C   UNL     1     205.506 209.839 218.237  1.00  0.00     0.123 C 
BRANCH  17  18
ATOM     18  C   UNL     1     206.129 208.478 218.172  1.00  0.00     0.305 C 
ATOM     19  O   UNL     1     205.835 207.698 217.226  1.00  0.00    -0.252 OA
BRANCH  18  20
ATOM     20  O   UNL     1     207.056 208.100 219.148  1.00  0.00    -0.469 OA
ATOM     21  C   UNL     1     206.671 207.479 220.369  1.00  0.00     0.282 C 
ENDBRANCH  18  20
ENDBRANCH  17  18
ENDBRANCH  16  17
ENDBRANCH  15  16
ENDBRANCH  14  15
ENDBRANCH  13  14
ENDBRANCH  12  13
ENDBRANCH  11  12
ENDBRANCH   1  11
TORSDOF 17
ENDMDL
MODEL 6
REMARK VINA RESULT:    -3.082      1.557      3.122
REMARK INTER + INTRA:          -8.579
REMARK INTER:                  -5.644
REMARK INTRA:                  -2.934
REMARK UNBOUND:                -2.433
REMARK SMILES CCCCCCCCCCCCCCCCCC(=O)OC
REMARK SMILES IDX 10 1 9 2 8 3 7 4 6 5 5 6 4 7 3 8 2 9 1 10 11 11 12 12 13 13
REMARK SMILES IDX 14 14 15 15 16 16 17 17 18 18 19 19 20 20 21 21
REMARK H PARENT
REMARK Flexibility Score: inf
ROOT
ATOM      1  C   UNL     1     212.669 208.345 220.180  1.00  0.00     0.000 C 
ENDROOT
BRANCH   1   2
ATOM      2  C   UNL     1     212.127 208.014 218.777  1.00  0.00     0.000 C 
BRANCH   2   3
ATOM      3  C   UNL     1     212.943 208.701 217.661  1.00  0.00    -0.000 C 
BRANCH   3   4
ATOM      4  C   UNL     1     213.904 209.785 218.176  1.00  0.00    -0.000 C 
BRANCH   4   5
ATOM      5  C   UNL     1     213.606 211.174 217.586  1.00  0.00    -0.000 C 
BRANCH   5   6
ATOM      6  C   UNL     1     213.765 212.301 218.619  1.00  0.00    -0.000 C 
BRANCH   6   7
ATOM      7  C   UNL     1     214.084 211.773 220.026  1.00  0.00    -0.000 C 
BRANCH   7   8
ATOM      8  C   UNL     1     213.333 212.576 221.096  1.00  0.00    -0.000 C 
BRANCH   8   9
ATOM      9  C   UNL     1     212.904 213.946 220.556  1.00  0.00    -0.003 C 
ATOM     10  C   UNL     1     211.507 214.316 221.042  1.00  0.00     0.004 C 
ENDBRANCH   8   9
ENDBRANCH   7   8
ENDBRANCH   6   7
ENDBRANCH   5   6
ENDBRANCH   4   5
ENDBRANCH   3   4
ENDBRANCH   2   3
ENDBRANCH   1   2
BRANCH   1  11
ATOM     11  C   UNL     1     211.666 209.157 221.027  1.00  0.00     0.000 C 
BRANCH  11  12
ATOM     12  C   UNL     1     210.382 209.545 220.269  1.00  0.00     0.000 C 
BRANCH  12  13
ATOM     13  C   UNL     1     210.144 211.058 220.118  1.00  0.00     0.000 C 
BRANCH  13  14
ATOM     14  C   UNL     1     210.165 211.578 218.667  1.00  0.00     0.000 C 
BRANCH  14  15
ATOM     15  C   UNL     1     209.132 212.686 218.415  1.00  0.00     0.001 C 
BRANCH  15  16
ATOM     16  C   UNL     1     208.090 212.238 217.379  1.00  0.00     0.012 C 
BRANCH  16  17
ATOM     17  C   UNL     1     206.653 212.472 217.862  1.00  0.00     0.123 C 
BRANCH  17  18
ATOM     18  C   UNL     1     206.017 211.204 218.342  1.00  0.00     0.305 C 
ATOM     19  O   UNL     1     204.857 211.231 218.836  1.00  0.00    -0.252 OA
BRANCH  18  20
ATOM     20  O   UNL     1     206.706 209.996 218.207  1.00  0.00    -0.469 OA
ATOM     21  C   UNL     1     206.041 208.752 218.017  1.00  0.00     0.282 C 
ENDBRANCH  18  20
ENDBRANCH  17  18
ENDBRANCH  16  17
ENDBRANCH  15  16
ENDBRANCH  14  15
ENDBRANCH  13  14
ENDBRANCH  12  13
ENDBRANCH  11  12
ENDBRANCH   1  11
TORSDOF 17
ENDMDL
MODEL 7
REMARK VINA RESULT:    -3.078      2.121      4.484
REMARK INTER + INTRA:          -8.569
REMARK INTER:                  -5.534
REMARK INTRA:                  -3.035
REMARK UNBOUND:                -2.433
REMARK SMILES CCCCCCCCCCCCCCCCCC(=O)OC
REMARK SMILES IDX 10 1 9 2 8 3 7 4 6 5 5 6 4 7 3 8 2 9 1 10 11 11 12 12 13 13
REMARK SMILES IDX 14 14 15 15 16 16 17 17 18 18 19 19 20 20 21 21
REMARK H PARENT
REMARK Flexibility Score: inf
ROOT
ATOM      1  C   UNL     1     214.538 208.271 221.508  1.00  0.00     0.000 C 
ENDROOT
BRANCH   1   2
ATOM      2  C   UNL     1     214.693 206.905 220.814  1.00  0.00     0.000 C 
BRANCH   2   3
ATOM      3  C   UNL     1     214.232 206.946 219.342  1.00  0.00    -0.000 C 
BRANCH   3   4
ATOM      4  C   UNL     1     212.736 207.256 219.170  1.00  0.00    -0.000 C 
BRANCH   4   5
ATOM      5  C   UNL     1     212.470 208.344 218.116  1.00  0.00    -0.000 C 
BRANCH   5   6
ATOM      6  C   UNL     1     213.756 209.052 217.662  1.00  0.00    -0.000 C 
BRANCH   6   7
ATOM      7  C   UNL     1     213.687 210.576 217.839  1.00  0.00    -0.000 C 
BRANCH   7   8
ATOM      8  C   UNL     1     214.774 211.065 218.805  1.00  0.00    -0.000 C 
BRANCH   8   9
ATOM      9  C   UNL     1     214.675 212.580 219.023  1.00  0.00    -0.003 C 
ATOM     10  C   UNL     1     214.540 212.916 220.505  1.00  0.00     0.004 C 
ENDBRANCH   8   9
ENDBRANCH   7   8
ENDBRANCH   6   7
ENDBRANCH   5   6
ENDBRANCH   4   5
ENDBRANCH   3   4
ENDBRANCH   2   3
ENDBRANCH   1   2
BRANCH   1  11
ATOM     11  C   UNL     1     213.650 208.198 222.769  1.00  0.00     0.000 C 
BRANCH  11  12
ATOM     12  C   UNL     1     212.451 209.163 222.741  1.00  0.00     0.000 C 
BRANCH  12  13
ATOM     13  C   UNL     1     212.420 210.134 221.546  1.00  0.00     0.000 C 
BRANCH  13  14
ATOM     14  C   UNL     1     211.057 210.252 220.838  1.00  0.00     0.000 C 
BRANCH  14  15
ATOM     15  C   UNL     1     210.513 211.687 220.825  1.00  0.00     0.001 C 
BRANCH  15  16
ATOM     16  C   UNL     1     210.911 212.413 219.531  1.00  0.00     0.012 C 
BRANCH  16  17
ATOM     17  C   UNL     1     210.277 211.775 218.288  1.00  0.00     0.123 C 
BRANCH  17  18
ATOM     18  C   UNL     1     208.965 212.411 217.948  1.00  0.00     0.305 C 
ATOM     19  O   UNL     1     207.921 211.705 217.895  1.00  0.00    -0.252 OA
BRANCH  18  20
ATOM     20  O   UNL     1     208.906 213.789 217.724  1.00  0.00    -0.469 OA
ATOM     21  C   UNL     1     208.059 214.651 218.476  1.00  0.00     0.282 C 
ENDBRANCH  18  20
ENDBRANCH  17  18
ENDBRANCH  16  17
ENDBRANCH  15  16
ENDBRANCH  14  15
ENDBRANCH  13  14
ENDBRANCH  12  13
ENDBRANCH  11  12
ENDBRANCH   1  11
TORSDOF 17
ENDMDL
MODEL 8
REMARK VINA RESULT:    -3.072      1.119      2.378
REMARK INTER + INTRA:          -8.557
REMARK INTER:                  -5.968
REMARK INTRA:                  -2.589
REMARK UNBOUND:                -2.433
REMARK SMILES CCCCCCCCCCCCCCCCCC(=O)OC
REMARK SMILES IDX 10 1 9 2 8 3 7 4 6 5 5 6 4 7 3 8 2 9 1 10 11 11 12 12 13 13
REMARK SMILES IDX 14 14 15 15 16 16 17 17 18 18 19 19 20 20 21 21
REMARK H PARENT
REMARK Flexibility Score: inf
ROOT
ATOM      1  C   UNL     1     213.438 209.103 217.456  1.00  0.00     0.000 C 
ENDROOT
BRANCH   1   2
ATOM      2  C   UNL     1     212.474 208.281 218.331  1.00  0.00     0.000 C 
BRANCH   2   3
ATOM      3  C   UNL     1     213.201 207.158 219.101  1.00  0.00    -0.000 C 
BRANCH   3   4
ATOM      4  C   UNL     1     214.415 207.647 219.908  1.00  0.00    -0.000 C 
BRANCH   4   5
ATOM      5  C   UNL     1     214.160 207.652 221.425  1.00  0.00    -0.000 C 
BRANCH   5   6
ATOM      6  C   UNL     1     213.545 208.973 221.915  1.00  0.00    -0.000 C 
BRANCH   6   7
ATOM      7  C   UNL     1     212.162 208.782 222.554  1.00  0.00    -0.000 C 
BRANCH   7   8
ATOM      8  C   UNL     1     211.048 209.208 221.589  1.00  0.00    -0.000 C 
BRANCH   8   9
ATOM      9  C   UNL     1     209.810 209.688 222.355  1.00  0.00    -0.003 C 
ATOM     10  C   UNL     1     209.808 211.206 222.503  1.00  0.00     0.004 C 
ENDBRANCH   8   9
ENDBRANCH   7   8
ENDBRANCH   6   7
ENDBRANCH   5   6
ENDBRANCH   4   5
ENDBRANCH   3   4
ENDBRANCH   2   3
ENDBRANCH   1   2
BRANCH   1  11
ATOM     11  C   UNL     1     213.214 210.624 217.594  1.00  0.00     0.000 C 
BRANCH  11  12
ATOM     12  C   UNL     1     213.160 211.115 219.053  1.00  0.00     0.000 C 
BRANCH  12  13
ATOM     13  C   UNL     1     211.904 211.926 219.424  1.00  0.00     0.000 C 
BRANCH  13  14
ATOM     14  C   UNL     1     210.703 211.734 218.478  1.00  0.00     0.000 C 
BRANCH  14  15
ATOM     15  C   UNL     1     209.419 212.390 219.003  1.00  0.00     0.001 C 
BRANCH  15  16
ATOM     16  C   UNL     1     208.174 211.690 218.437  1.00  0.00     0.012 C 
BRANCH  16  17
ATOM     17  C   UNL     1     207.619 210.626 219.393  1.00  0.00     0.123 C 
BRANCH  17  18
ATOM     18  C   UNL     1     206.423 209.933 218.816  1.00  0.00     0.305 C 
ATOM     19  O   UNL     1     205.451 210.613 218.386  1.00  0.00    -0.252 OA
BRANCH  18  20
ATOM     20  O   UNL     1     206.411 208.538 218.732  1.00  0.00    -0.469 OA
ATOM     21  C   UNL     1     205.872 207.844 217.612  1.00  0.00     0.282 C 
ENDBRANCH  18  20
ENDBRANCH  17  18
ENDBRANCH  16  17
ENDBRANCH  15  16
ENDBRANCH  14  15
ENDBRANCH  13  14
ENDBRANCH  12  13
ENDBRANCH  11  12
ENDBRANCH   1  11
TORSDOF 17
ENDMDL
MODEL 9
REMARK VINA RESULT:    -3.055      1.400      3.098
REMARK INTER + INTRA:          -8.523
REMARK INTER:                  -5.743
REMARK INTRA:                  -2.780
REMARK UNBOUND:                -2.433
REMARK SMILES CCCCCCCCCCCCCCCCCC(=O)OC
REMARK SMILES IDX 10 1 9 2 8 3 7 4 6 5 5 6 4 7 3 8 2 9 1 10 11 11 12 12 13 13
REMARK SMILES IDX 14 14 15 15 16 16 17 17 18 18 19 19 20 20 21 21
REMARK H PARENT
REMARK Flexibility Score: inf
ROOT
ATOM      1  C   UNL     1     212.269 210.023 221.613  1.00  0.00     0.000 C 
ENDROOT
BRANCH   1   2
ATOM      2  C   UNL     1     211.940 208.770 220.781  1.00  0.00     0.000 C 
BRANCH   2   3
ATOM      3  C   UNL     1     213.212 208.063 220.265  1.00  0.00    -0.000 C 
BRANCH   3   4
ATOM      4  C   UNL     1     213.132 207.648 218.787  1.00  0.00    -0.000 C 
BRANCH   4   5
ATOM      5  C   UNL     1     213.828 208.648 217.849  1.00  0.00    -0.000 C 
BRANCH   5   6
ATOM      6  C   UNL     1     212.884 209.763 217.370  1.00  0.00    -0.000 C 
BRANCH   6   7
ATOM      7  C   UNL     1     213.445 211.168 217.636  1.00  0.00    -0.000 C 
BRANCH   7   8
ATOM      8  C   UNL     1     214.699 211.100 218.517  1.00  0.00    -0.000 C 
BRANCH   8   9
ATOM      9  C   UNL     1     214.873 212.391 219.327  1.00  0.00    -0.003 C 
ATOM     10  C   UNL     1     213.940 213.487 218.823  1.00  0.00     0.004 C 
ENDBRANCH   8   9
ENDBRANCH   7   8
ENDBRANCH   6   7
ENDBRANCH   5   6
ENDBRANCH   4   5
ENDBRANCH   3   4
ENDBRANCH   2   3
ENDBRANCH   1   2
BRANCH   1  11
ATOM     11  C   UNL     1     211.750 211.322 220.960  1.00  0.00     0.000 C 
BRANCH  11  12
ATOM     12  C   UNL     1     210.354 211.184 220.325  1.00  0.00     0.000 C 
BRANCH  12  13
ATOM     13  C   UNL     1     210.203 211.824 218.932  1.00  0.00     0.000 C 
BRANCH  13  14
ATOM     14  C   UNL     1     209.816 213.315 218.941  1.00  0.00     0.000 C 
BRANCH  14  15
ATOM     15  C   UNL     1     208.778 213.669 217.866  1.00  0.00     0.001 C 
BRANCH  15  16
ATOM     16  C   UNL     1     208.067 212.406 217.354  1.00  0.00     0.012 C 
BRANCH  16  17
ATOM     17  C   UNL     1     206.660 212.251 217.946  1.00  0.00     0.123 C 
BRANCH  17  18
ATOM     18  C   UNL     1     206.527 210.983 218.731  1.00  0.00     0.305 C 
ATOM     19  O   UNL     1     206.434 209.878 218.128  1.00  0.00    -0.252 OA
BRANCH  18  20
ATOM     20  O   UNL     1     206.539 211.034 220.128  1.00  0.00    -0.469 OA
ATOM     21  C   UNL     1     206.752 212.244 220.847  1.00  0.00     0.282 C 
ENDBRANCH  18  20
ENDBRANCH  17  18
ENDBRANCH  16  17
ENDBRANCH  15  16
ENDBRANCH  14  15
ENDBRANCH  13  14
ENDBRANCH  12  13
ENDBRANCH  11  12
ENDBRANCH   1  11
TORSDOF 17
ENDMDL
