MODEL 1
REMARK VINA RESULT:    -3.811      0.000      0.000
REMARK INTER + INTRA:          -7.596
REMARK INTER:                  -6.039
REMARK INTRA:                  -1.556
REMARK UNBOUND:                -1.556
REMARK SMILES CCCCCCCCCCCC(=O)[O-]
REMARK SMILES IDX 7 1 8 2 9 3 10 4 11 5 12 6 13 7 14 8 6 9 5 10 4 11 3 12 2 13
REMARK SMILES IDX 1 14
REMARK H PARENT
REMARK Flexibility Score: inf
ROOT
ATOM      1  C   UNL     1     -36.777  81.444 -19.075  1.00  0.00     0.000 C 
ENDROOT
BRANCH   1   2
ATOM      2  C   UNL     1     -35.474  80.734 -19.480  1.00  0.00     0.000 C 
BRANCH   2   3
ATOM      3  C   UNL     1     -34.267  81.161 -18.625  1.00  0.00     0.000 C 
BRANCH   3   4
ATOM      4  C   UNL     1     -32.904  81.101 -19.341  1.00  0.00     0.006 C 
BRANCH   4   5
ATOM      5  C   UNL     1     -31.981  82.268 -18.965  1.00  0.00     0.053 C 
BRANCH   5   6
ATOM      6  C   UNL     1     -30.793  82.306 -19.875  1.00  0.00     0.041 C 
ATOM      7  O   UNL     1     -30.537  83.345 -20.538  1.00  0.00    -0.550 OA
ATOM      8  O   UNL     1     -29.998  81.178 -20.028  1.00  0.00    -0.550 OA
ENDBRANCH   5   6
ENDBRANCH   4   5
ENDBRANCH   3   4
ENDBRANCH   2   3
ENDBRANCH   1   2
BRANCH   1   9
ATOM      9  C   UNL     1     -36.608  82.313 -17.818  1.00  0.00     0.000 C 
BRANCH   9  10
ATOM     10  C   UNL     1     -36.833  83.810 -18.096  1.00  0.00    -0.000 C 
BRANCH  10  11
ATOM     11  C   UNL     1     -35.614  84.669 -17.726  1.00  0.00    -0.000 C 
BRANCH  11  12
ATOM     12  C   UNL     1     -34.653  84.869 -18.908  1.00  0.00    -0.000 C 
BRANCH  12  13
ATOM     13  C   UNL     1     -35.385  84.697 -20.244  1.00  0.00    -0.003 C 
ATOM     14  C   UNL     1     -34.564  83.858 -21.219  1.00  0.00     0.004 C 
ENDBRANCH  12  13
ENDBRANCH  11  12
ENDBRANCH  10  11
ENDBRANCH   9  10
ENDBRANCH   1   9
TORSDOF 10
ENDMDL
MODEL 2
REMARK VINA RESULT:    -3.663      1.168      2.838
REMARK INTER + INTRA:          -7.361
REMARK INTER:                  -6.123
REMARK INTRA:                  -1.237
REMARK UNBOUND:                -1.556
REMARK SMILES CCCCCCCCCCCC(=O)[O-]
REMARK SMILES IDX 7 1 8 2 9 3 10 4 11 5 12 6 13 7 14 8 6 9 5 10 4 11 3 12 2 13
REMARK SMILES IDX 1 14
REMARK H PARENT
REMARK Flexibility Score: inf
ROOT
ATOM      1  C   UNL     1     -35.129  84.403 -20.082  1.00  0.00     0.000 C 
ENDROOT
BRANCH   1   2
ATOM      2  C   UNL     1     -34.150  83.315 -20.556  1.00  0.00     0.000 C 
BRANCH   2   3
ATOM      3  C   UNL     1     -33.031  83.029 -19.538  1.00  0.00     0.000 C 
BRANCH   3   4
ATOM      4  C   UNL     1     -33.074  81.631 -18.894  1.00  0.00     0.006 C 
BRANCH   4   5
ATOM      5  C   UNL     1     -32.596  80.522 -19.841  1.00  0.00     0.053 C 
BRANCH   5   6
ATOM      6  C   UNL     1     -31.193  80.121 -19.508  1.00  0.00     0.041 C 
ATOM      7  O   UNL     1     -30.247  80.934 -19.668  1.00  0.00    -0.550 OA
ATOM      8  O   UNL     1     -30.926  78.831 -19.067  1.00  0.00    -0.550 OA
ENDBRANCH   5   6
ENDBRANCH   4   5
ENDBRANCH   3   4
ENDBRANCH   2   3
ENDBRANCH   1   2
BRANCH   1   9
ATOM      9  C   UNL     1     -34.839  84.871 -18.647  1.00  0.00     0.000 C 
BRANCH   9  10
ATOM     10  C   UNL     1     -35.935  84.450 -17.652  1.00  0.00    -0.000 C 
BRANCH  10  11
ATOM     11  C   UNL     1     -37.028  83.588 -18.305  1.00  0.00    -0.000 C 
BRANCH  11  12
ATOM     12  C   UNL     1     -36.724  82.085 -18.216  1.00  0.00    -0.000 C 
BRANCH  12  13
ATOM     13  C   UNL     1     -37.313  81.336 -19.417  1.00  0.00    -0.003 C 
ATOM     14  C   UNL     1     -36.345  80.277 -19.936  1.00  0.00     0.004 C 
ENDBRANCH  12  13
ENDBRANCH  11  12
ENDBRANCH  10  11
ENDBRANCH   9  10
ENDBRANCH   1   9
TORSDOF 10
ENDMDL
MODEL 3
REMARK VINA RESULT:    -3.576      1.473      2.528
REMARK INTER + INTRA:          -7.223
REMARK INTER:                  -6.035
REMARK INTRA:                  -1.187
REMARK UNBOUND:                -1.556
REMARK SMILES CCCCCCCCCCCC(=O)[O-]
REMARK SMILES IDX 7 1 8 2 9 3 10 4 11 5 12 6 13 7 14 8 6 9 5 10 4 11 3 12 2 13
REMARK SMILES IDX 1 14
REMARK H PARENT
REMARK Flexibility Score: inf
ROOT
ATOM      1  C   UNL     1     -35.846  80.103 -20.300  1.00  0.00     0.000 C 
ENDROOT
BRANCH   1   2
ATOM      2  C   UNL     1     -34.535  80.908 -20.300  1.00  0.00     0.000 C 
BRANCH   2   3
ATOM      3  C   UNL     1     -33.973  81.138 -18.885  1.00  0.00     0.000 C 
BRANCH   3   4
ATOM      4  C   UNL     1     -32.436  81.198 -18.793  1.00  0.00     0.006 C 
BRANCH   4   5
ATOM      5  C   UNL     1     -31.787  79.810 -18.743  1.00  0.00     0.053 C 
BRANCH   5   6
ATOM      6  C   UNL     1     -30.903  79.604 -19.934  1.00  0.00     0.041 C 
ATOM      7  O   UNL     1     -30.977  78.540 -20.602  1.00  0.00    -0.550 OA
ATOM      8  O   UNL     1     -29.963  80.568 -20.276  1.00  0.00    -0.550 OA
ENDBRANCH   5   6
ENDBRANCH   4   5
ENDBRANCH   3   4
ENDBRANCH   2   3
ENDBRANCH   1   2
BRANCH   1   9
ATOM      9  C   UNL     1     -37.015  80.881 -19.677  1.00  0.00     0.000 C 
BRANCH   9  10
ATOM     10  C   UNL     1     -37.473  82.066 -20.547  1.00  0.00    -0.000 C 
BRANCH  10  11
ATOM     11  C   UNL     1     -37.268  83.422 -19.853  1.00  0.00    -0.000 C 
BRANCH  11  12
ATOM     12  C   UNL     1     -37.156  83.293 -18.327  1.00  0.00    -0.000 C 
BRANCH  12  13
ATOM     13  C   UNL     1     -35.975  84.111 -17.793  1.00  0.00    -0.003 C 
ATOM     14  C   UNL     1     -35.112  84.644 -18.933  1.00  0.00     0.004 C 
ENDBRANCH  12  13
ENDBRANCH  11  12
ENDBRANCH  10  11
ENDBRANCH   9  10
ENDBRANCH   1   9
TORSDOF 10
ENDMDL
MODEL 4
REMARK VINA RESULT:    -3.538      1.477      2.679
REMARK INTER + INTRA:          -7.163
REMARK INTER:                  -6.205
REMARK INTRA:                  -0.958
REMARK UNBOUND:                -1.556
REMARK SMILES CCCCCCCCCCCC(=O)[O-]
REMARK SMILES IDX 7 1 8 2 9 3 10 4 11 5 12 6 13 7 14 8 6 9 5 10 4 11 3 12 2 13
REMARK SMILES IDX 1 14
REMARK H PARENT
REMARK Flexibility Score: inf
ROOT
ATOM      1  C   UNL     1     -33.533  80.989 -18.412  1.00  0.00     0.000 C 
ENDROOT
BRANCH   1   2
ATOM      2  C   UNL     1     -32.304  80.157 -18.814  1.00  0.00     0.000 C 
BRANCH   2   3
ATOM      3  C   UNL     1     -32.179  79.968 -20.336  1.00  0.00     0.000 C 
BRANCH   3   4
ATOM      4  C   UNL     1     -30.922  80.593 -20.972  1.00  0.00     0.006 C 
BRANCH   4   5
ATOM      5  C   UNL     1     -30.189  81.553 -20.027  1.00  0.00     0.053 C 
BRANCH   5   6
ATOM      6  C   UNL     1     -30.601  82.967 -20.297  1.00  0.00     0.041 C 
ATOM      7  O   UNL     1     -30.047  83.622 -21.218  1.00  0.00    -0.550 OA
ATOM      8  O   UNL     1     -31.561  83.576 -19.500  1.00  0.00    -0.550 OA
ENDBRANCH   5   6
ENDBRANCH   4   5
ENDBRANCH   3   4
ENDBRANCH   2   3
ENDBRANCH   1   2
BRANCH   1   9
ATOM      9  C   UNL     1     -34.487  81.239 -19.591  1.00  0.00     0.000 C 
BRANCH   9  10
ATOM     10  C   UNL     1     -35.957  81.363 -19.151  1.00  0.00    -0.000 C 
BRANCH  10  11
ATOM     11  C   UNL     1     -36.117  82.143 -17.836  1.00  0.00    -0.000 C 
BRANCH  11  12
ATOM     12  C   UNL     1     -36.831  83.489 -18.031  1.00  0.00    -0.000 C 
BRANCH  12  13
ATOM     13  C   UNL     1     -35.992  84.641 -17.466  1.00  0.00    -0.003 C 
ATOM     14  C   UNL     1     -34.797  84.947 -18.364  1.00  0.00     0.004 C 
ENDBRANCH  12  13
ENDBRANCH  11  12
ENDBRANCH  10  11
ENDBRANCH   9  10
ENDBRANCH   1   9
TORSDOF 10
ENDMDL
MODEL 5
REMARK VINA RESULT:    -3.535      2.342      3.726
REMARK INTER + INTRA:          -7.158
REMARK INTER:                  -6.014
REMARK INTRA:                  -1.144
REMARK UNBOUND:                -1.556
REMARK SMILES CCCCCCCCCCCC(=O)[O-]
REMARK SMILES IDX 7 1 8 2 9 3 10 4 11 5 12 6 13 7 14 8 6 9 5 10 4 11 3 12 2 13
REMARK SMILES IDX 1 14
REMARK H PARENT
REMARK Flexibility Score: inf
ROOT
ATOM      1  C   UNL     1     -36.924  81.775 -18.739  1.00  0.00     0.000 C 
ENDROOT
BRANCH   1   2
ATOM      2  C   UNL     1     -37.179  83.278 -18.536  1.00  0.00     0.000 C 
BRANCH   2   3
ATOM      3  C   UNL     1     -36.134  83.946 -17.624  1.00  0.00     0.000 C 
BRANCH   3   4
ATOM      4  C   UNL     1     -35.163  84.907 -18.336  1.00  0.00     0.006 C 
BRANCH   4   5
ATOM      5  C   UNL     1     -34.749  84.414 -19.729  1.00  0.00     0.053 C 
BRANCH   5   6
ATOM      6  C   UNL     1     -33.605  83.454 -19.623  1.00  0.00     0.041 C 
ATOM      7  O   UNL     1     -32.574  83.766 -18.973  1.00  0.00    -0.550 OA
ATOM      8  O   UNL     1     -33.659  82.235 -20.286  1.00  0.00    -0.550 OA
ENDBRANCH   5   6
ENDBRANCH   4   5
ENDBRANCH   3   4
ENDBRANCH   2   3
ENDBRANCH   1   2
BRANCH   1   9
ATOM      9  C   UNL     1     -37.782  81.178 -19.866  1.00  0.00     0.000 C 
BRANCH   9  10
ATOM     10  C   UNL     1     -37.019  81.064 -21.198  1.00  0.00    -0.000 C 
BRANCH  10  11
ATOM     11  C   UNL     1     -37.657  81.900 -22.318  1.00  0.00    -0.000 C 
BRANCH  11  12
ATOM     12  C   UNL     1     -36.904  83.215 -22.574  1.00  0.00    -0.000 C 
BRANCH  12  13
ATOM     13  C   UNL     1     -37.690  84.411 -22.024  1.00  0.00    -0.003 C 
ATOM     14  C   UNL     1     -38.516  85.080 -23.120  1.00  0.00     0.004 C 
ENDBRANCH  12  13
ENDBRANCH  11  12
ENDBRANCH  10  11
ENDBRANCH   9  10
ENDBRANCH   1   9
TORSDOF 10
ENDMDL
MODEL 6
REMARK VINA RESULT:    -3.532     16.071     18.362
REMARK INTER + INTRA:          -7.154
REMARK INTER:                  -5.841
REMARK INTRA:                  -1.313
REMARK UNBOUND:                -1.556
REMARK SMILES CCCCCCCCCCCC(=O)[O-]
REMARK SMILES IDX 7 1 8 2 9 3 10 4 11 5 12 6 13 7 14 8 6 9 5 10 4 11 3 12 2 13
REMARK SMILES IDX 1 14
REMARK H PARENT
REMARK Flexibility Score: inf
ROOT
ATOM      1  C   UNL     1     -24.471  95.345 -31.590  1.00  0.00     0.000 C 
ENDROOT
BRANCH   1   2
ATOM      2  C   UNL     1     -23.868  96.231 -30.487  1.00  0.00     0.000 C 
BRANCH   2   3
ATOM      3  C   UNL     1     -24.664  96.175 -29.171  1.00  0.00     0.000 C 
BRANCH   3   4
ATOM      4  C   UNL     1     -24.690  94.799 -28.480  1.00  0.00     0.006 C 
BRANCH   4   5
ATOM      5  C   UNL     1     -26.100  94.200 -28.395  1.00  0.00     0.053 C 
BRANCH   5   6
ATOM      6  C   UNL     1     -26.462  93.917 -26.970  1.00  0.00     0.041 C 
ATOM      7  O   UNL     1     -26.510  94.854 -26.131  1.00  0.00    -0.550 OA
ATOM      8  O   UNL     1     -26.697  92.611 -26.560  1.00  0.00    -0.550 OA
ENDBRANCH   5   6
ENDBRANCH   4   5
ENDBRANCH   3   4
ENDBRANCH   2   3
ENDBRANCH   1   2
BRANCH   1   9
ATOM      9  C   UNL     1     -23.426  94.430 -32.249  1.00  0.00     0.000 C 
BRANCH   9  10
ATOM     10  C   UNL     1     -23.268  93.085 -31.517  1.00  0.00    -0.000 C 
BRANCH  10  11
ATOM     11  C   UNL     1     -24.607  92.356 -31.325  1.00  0.00    -0.000 C 
BRANCH  11  12
ATOM     12  C   UNL     1     -24.458  91.049 -30.532  1.00  0.00    -0.000 C 
BRANCH  12  13
ATOM     13  C   UNL     1     -23.227  91.098 -29.620  1.00  0.00    -0.003 C 
ATOM     14  C   UNL     1     -23.626  91.319 -28.164  1.00  0.00     0.004 C 
ENDBRANCH  12  13
ENDBRANCH  11  12
ENDBRANCH  10  11
ENDBRANCH   9  10
ENDBRANCH   1   9
TORSDOF 10
ENDMDL
MODEL 7
REMARK VINA RESULT:    -3.508      1.500      3.707
REMARK INTER + INTRA:          -7.115
REMARK INTER:                  -6.100
REMARK INTRA:                  -1.015
REMARK UNBOUND:                -1.556
REMARK SMILES CCCCCCCCCCCC(=O)[O-]
REMARK SMILES IDX 7 1 8 2 9 3 10 4 11 5 12 6 13 7 14 8 6 9 5 10 4 11 3 12 2 13
REMARK SMILES IDX 1 14
REMARK H PARENT
REMARK Flexibility Score: inf
ROOT
ATOM      1  C   UNL     1     -36.060  84.505 -17.785  1.00  0.00     0.000 C 
ENDROOT
BRANCH   1   2
ATOM      2  C   UNL     1     -34.925  84.782 -18.785  1.00  0.00     0.000 C 
BRANCH   2   3
ATOM      3  C   UNL     1     -35.339  84.536 -20.247  1.00  0.00     0.000 C 
BRANCH   3   4
ATOM      4  C   UNL     1     -34.358  83.680 -21.070  1.00  0.00     0.006 C 
BRANCH   4   5
ATOM      5  C   UNL     1     -33.611  82.644 -20.221  1.00  0.00     0.053 C 
BRANCH   5   6
ATOM      6  C   UNL     1     -32.146  82.949 -20.194  1.00  0.00     0.041 C 
ATOM      7  O   UNL     1     -31.440  82.752 -21.218  1.00  0.00    -0.550 OA
ATOM      8  O   UNL     1     -31.552  83.404 -19.025  1.00  0.00    -0.550 OA
ENDBRANCH   5   6
ENDBRANCH   4   5
ENDBRANCH   3   4
ENDBRANCH   2   3
ENDBRANCH   1   2
BRANCH   1   9
ATOM      9  C   UNL     1     -37.029  83.419 -18.279  1.00  0.00     0.000 C 
BRANCH   9  10
ATOM     10  C   UNL     1     -36.500  81.994 -18.035  1.00  0.00    -0.000 C 
BRANCH  10  11
ATOM     11  C   UNL     1     -36.620  81.098 -19.278  1.00  0.00    -0.000 C 
BRANCH  11  12
ATOM     12  C   UNL     1     -37.944  81.307 -20.029  1.00  0.00    -0.000 C 
BRANCH  12  13
ATOM     13  C   UNL     1     -38.919  80.158 -19.750  1.00  0.00    -0.003 C 
ATOM     14  C   UNL     1     -38.437  78.858 -20.387  1.00  0.00     0.004 C 
ENDBRANCH  12  13
ENDBRANCH  11  12
ENDBRANCH  10  11
ENDBRANCH   9  10
ENDBRANCH   1   9
TORSDOF 10
ENDMDL
MODEL 8
REMARK VINA RESULT:    -3.472      1.820      3.349
REMARK INTER + INTRA:          -7.059
REMARK INTER:                  -6.033
REMARK INTRA:                  -1.025
REMARK UNBOUND:                -1.556
REMARK SMILES CCCCCCCCCCCC(=O)[O-]
REMARK SMILES IDX 7 1 8 2 9 3 10 4 11 5 12 6 13 7 14 8 6 9 5 10 4 11 3 12 2 13
REMARK SMILES IDX 1 14
REMARK H PARENT
REMARK Flexibility Score: inf
ROOT
ATOM      1  C   UNL     1     -33.515  82.142 -19.842  1.00  0.00     0.000 C 
ENDROOT
BRANCH   1   2
ATOM      2  C   UNL     1     -32.204  82.698 -19.261  1.00  0.00     0.000 C 
BRANCH   2   3
ATOM      3  C   UNL     1     -30.995  82.476 -20.188  1.00  0.00     0.000 C 
BRANCH   3   4
ATOM      4  C   UNL     1     -30.096  81.282 -19.816  1.00  0.00     0.006 C 
BRANCH   4   5
ATOM      5  C   UNL     1     -30.505  79.983 -20.523  1.00  0.00     0.053 C 
BRANCH   5   6
ATOM      6  C   UNL     1     -30.883  78.940 -19.518  1.00  0.00     0.041 C 
ATOM      7  O   UNL     1     -30.719  77.720 -19.780  1.00  0.00    -0.550 OA
ATOM      8  O   UNL     1     -31.463  79.314 -18.313  1.00  0.00    -0.550 OA
ENDBRANCH   5   6
ENDBRANCH   4   5
ENDBRANCH   3   4
ENDBRANCH   2   3
ENDBRANCH   1   2
BRANCH   1   9
ATOM      9  C   UNL     1     -34.337  81.361 -18.804  1.00  0.00     0.000 C 
BRANCH   9  10
ATOM     10  C   UNL     1     -35.854  81.481 -19.033  1.00  0.00    -0.000 C 
BRANCH  10  11
ATOM     11  C   UNL     1     -36.324  82.942 -19.130  1.00  0.00    -0.000 C 
BRANCH  11  12
ATOM     12  C   UNL     1     -36.806  83.497 -17.782  1.00  0.00    -0.000 C 
BRANCH  12  13
ATOM     13  C   UNL     1     -35.973  84.713 -17.361  1.00  0.00    -0.003 C 
ATOM     14  C   UNL     1     -35.011  85.134 -18.468  1.00  0.00     0.004 C 
ENDBRANCH  12  13
ENDBRANCH  11  12
ENDBRANCH  10  11
ENDBRANCH   9  10
ENDBRANCH   1   9
TORSDOF 10
ENDMDL
MODEL 9
REMARK VINA RESULT:    -3.461     16.606     18.652
REMARK INTER + INTRA:          -7.040
REMARK INTER:                  -6.099
REMARK INTRA:                  -0.941
REMARK UNBOUND:                -1.556
REMARK SMILES CCCCCCCCCCCC(=O)[O-]
REMARK SMILES IDX 7 1 8 2 9 3 10 4 11 5 12 6 13 7 14 8 6 9 5 10 4 11 3 12 2 13
REMARK SMILES IDX 1 14
REMARK H PARENT
REMARK Flexibility Score: inf
ROOT
ATOM      1  C   UNL     1     -25.833  93.895 -27.404  1.00  0.00     0.000 C 
ENDROOT
BRANCH   1   2
ATOM      2  C   UNL     1     -25.979  94.842 -28.608  1.00  0.00     0.000 C 
BRANCH   2   3
ATOM      3  C   UNL     1     -24.994  96.024 -28.564  1.00  0.00     0.000 C 
BRANCH   3   4
ATOM      4  C   UNL     1     -24.084  96.164 -29.800  1.00  0.00     0.006 C 
BRANCH   4   5
ATOM      5  C   UNL     1     -24.174  94.960 -30.747  1.00  0.00     0.053 C 
BRANCH   5   6
ATOM      6  C   UNL     1     -23.538  95.284 -32.063  1.00  0.00     0.041 C 
ATOM      7  O   UNL     1     -23.742  96.401 -32.607  1.00  0.00    -0.550 OA
ATOM      8  O   UNL     1     -22.762  94.333 -32.712  1.00  0.00    -0.550 OA
ENDBRANCH   5   6
ENDBRANCH   4   5
ENDBRANCH   3   4
ENDBRANCH   2   3
ENDBRANCH   1   2
BRANCH   1   9
ATOM      9  C   UNL     1     -25.404  92.478 -27.817  1.00  0.00     0.000 C 
BRANCH   9  10
ATOM     10  C   UNL     1     -23.918  92.398 -28.214  1.00  0.00    -0.000 C 
BRANCH  10  11
ATOM     11  C   UNL     1     -23.359  90.970 -28.126  1.00  0.00    -0.000 C 
BRANCH  11  12
ATOM     12  C   UNL     1     -22.800  90.471 -29.467  1.00  0.00    -0.000 C 
BRANCH  12  13
ATOM     13  C   UNL     1     -23.057  91.493 -30.581  1.00  0.00    -0.003 C 
ATOM     14  C   UNL     1     -23.042  90.828 -31.955  1.00  0.00     0.004 C 
ENDBRANCH  12  13
ENDBRANCH  11  12
ENDBRANCH  10  11
ENDBRANCH   9  10
ENDBRANCH   1   9
TORSDOF 10
ENDMDL
