MODEL 1
REMARK VINA RESULT:     4.832      0.000      0.000
REMARK INTER + INTRA:           5.019
REMARK INTER:                   5.114
REMARK INTRA:                  -0.095
REMARK UNBOUND:                -0.095
REMARK SMILES C=C(C)[C@@H]1CC=C(C)C(=O)C1
REMARK SMILES IDX 8 1 7 2 6 3 5 4 4 5 11 6 9 7 10 8 2 9 1 10 3 11
REMARK H PARENT
REMARK Flexibility Score: inf
ROOT
ATOM      1  C   UNL     1      33.003   9.942  39.735  1.00  0.00     0.048 C 
ATOM      2  C   UNL     1      33.560  11.107  40.506  1.00  0.00    -0.012 C 
ATOM      3  C   UNL     1      34.588  11.812  40.002  1.00  0.00    -0.019 C 
ATOM      4  C   UNL     1      35.173  12.998  40.724  1.00  0.00     0.036 C 
ATOM      5  C   UNL     1      35.086  12.815  42.251  1.00  0.00     0.025 C 
ATOM      6  C   UNL     1      33.632  12.533  42.675  1.00  0.00     0.089 C 
ATOM      7  C   UNL     1      33.059  11.397  41.873  1.00  0.00     0.158 C 
ATOM      8  O   UNL     1      32.120  10.713  42.361  1.00  0.00    -0.295 OA
ENDROOT
BRANCH   5   9
ATOM      9  C   UNL     1      35.668  14.006  42.995  1.00  0.00    -0.077 C 
ATOM     10  C   UNL     1      34.913  15.073  43.315  1.00  0.00     0.008 C 
ATOM     11  C   UNL     1      37.125  13.977  43.375  1.00  0.00     0.039 C 
ENDBRANCH   5   9
TORSDOF 1
ENDMDL
MODEL 2
REMARK VINA RESULT:     6.427      1.399      2.119
REMARK INTER + INTRA:           6.708
REMARK INTER:                   6.803
REMARK INTRA:                  -0.095
REMARK UNBOUND:                -0.095
REMARK SMILES C=C(C)[C@@H]1CC=C(C)C(=O)C1
REMARK SMILES IDX 8 1 7 2 6 3 5 4 4 5 11 6 9 7 10 8 2 9 1 10 3 11
REMARK H PARENT
REMARK Flexibility Score: inf
ROOT
ATOM      1  C   UNL     1      32.547  10.024  40.154  1.00  0.00     0.048 C 
ATOM      2  C   UNL     1      33.465  11.030  40.792  1.00  0.00    -0.012 C 
ATOM      3  C   UNL     1      33.977  10.789  42.012  1.00  0.00    -0.019 C 
ATOM      4  C   UNL     1      34.914  11.754  42.690  1.00  0.00     0.036 C 
ATOM      5  C   UNL     1      34.584  13.209  42.306  1.00  0.00     0.025 C 
ATOM      6  C   UNL     1      34.586  13.372  40.774  1.00  0.00     0.089 C 
ATOM      7  C   UNL     1      33.703  12.338  40.132  1.00  0.00     0.158 C 
ATOM      8  O   UNL     1      33.194  12.580  39.004  1.00  0.00    -0.295 OA
ENDROOT
BRANCH   5   9
ATOM      9  C   UNL     1      35.525  14.196  42.978  1.00  0.00    -0.077 C 
ATOM     10  C   UNL     1      36.796  13.867  43.273  1.00  0.00     0.008 C 
ATOM     11  C   UNL     1      35.007  15.569  43.318  1.00  0.00     0.039 C 
ENDBRANCH   5   9
TORSDOF 1
ENDMDL
MODEL 3
REMARK VINA RESULT:     7.490      1.433      2.265
REMARK INTER + INTRA:           7.833
REMARK INTER:                   7.930
REMARK INTRA:                  -0.097
REMARK UNBOUND:                -0.095
REMARK SMILES C=C(C)[C@@H]1CC=C(C)C(=O)C1
REMARK SMILES IDX 8 1 7 2 6 3 5 4 4 5 11 6 9 7 10 8 2 9 1 10 3 11
REMARK H PARENT
REMARK Flexibility Score: inf
ROOT
ATOM      1  C   UNL     1      32.403   9.702  40.001  1.00  0.00     0.048 C 
ATOM      2  C   UNL     1      33.231  10.648  40.826  1.00  0.00    -0.012 C 
ATOM      3  C   UNL     1      32.650  11.371  41.799  1.00  0.00    -0.019 C 
ATOM      4  C   UNL     1      33.434  12.321  42.666  1.00  0.00     0.036 C 
ATOM      5  C   UNL     1      34.604  12.947  41.885  1.00  0.00     0.025 C 
ATOM      6  C   UNL     1      35.491  11.845  41.274  1.00  0.00     0.089 C 
ATOM      7  C   UNL     1      34.658  10.873  40.485  1.00  0.00     0.158 C 
ATOM      8  O   UNL     1      35.196  10.222  39.550  1.00  0.00    -0.295 OA
ENDROOT
BRANCH   5   9
ATOM      9  C   UNL     1      35.410  13.905  42.748  1.00  0.00    -0.077 C 
ATOM     10  C   UNL     1      36.674  13.626  43.115  1.00  0.00     0.008 C 
ATOM     11  C   UNL     1      34.764  15.189  43.195  1.00  0.00     0.039 C 
ENDBRANCH   5   9
TORSDOF 1
ENDMDL
