MODEL 1
REMARK VINA RESULT:    -3.837      0.000      0.000
REMARK INTER + INTRA:          -6.825
REMARK INTER:                  -5.856
REMARK INTRA:                  -0.969
REMARK UNBOUND:                -0.969
REMARK SMILES CCCCCCCCCCC(=O)[O-]
REMARK SMILES IDX 7 1 8 2 9 3 10 4 11 5 12 6 13 7 6 8 5 9 4 10 3 11 2 12 1 13
REMARK H PARENT
REMARK Flexibility Score: inf
ROOT
ATOM      1  C   UNL     1      49.864   6.934  20.536  1.00  0.00     0.000 C 
ENDROOT
BRANCH   1   2
ATOM      2  C   UNL     1      50.623   8.225  20.182  1.00  0.00     0.000 C 
BRANCH   2   3
ATOM      3  C   UNL     1      50.901   8.351  18.676  1.00  0.00     0.006 C 
BRANCH   3   4
ATOM      4  C   UNL     1      49.616   8.460  17.844  1.00  0.00     0.053 C 
BRANCH   4   5
ATOM      5  C   UNL     1      49.887   8.100  16.417  1.00  0.00     0.041 C 
ATOM      6  O   UNL     1      49.411   8.799  15.485  1.00  0.00    -0.550 OA
ATOM      7  O   UNL     1      50.624   6.961  16.117  1.00  0.00    -0.550 OA
ENDBRANCH   4   5
ENDBRANCH   3   4
ENDBRANCH   2   3
ENDBRANCH   1   2
BRANCH   1   8
ATOM      8  C   UNL     1      48.630   7.199  21.415  1.00  0.00     0.000 C 
BRANCH   8   9
ATOM      9  C   UNL     1      47.318   7.206  20.608  1.00  0.00    -0.000 C 
BRANCH   9  10
ATOM     10  C   UNL     1      46.597   8.561  20.670  1.00  0.00    -0.000 C 
BRANCH  10  11
ATOM     11  C   UNL     1      47.446   9.651  21.349  1.00  0.00    -0.000 C 
BRANCH  11  12
ATOM     12  C   UNL     1      47.734  10.839  20.418  1.00  0.00    -0.003 C 
ATOM     13  C   UNL     1      47.038  12.123  20.868  1.00  0.00     0.004 C 
ENDBRANCH  11  12
ENDBRANCH  10  11
ENDBRANCH   9  10
ENDBRANCH   8   9
ENDBRANCH   1   8
TORSDOF 9
ENDMDL
MODEL 2
REMARK VINA RESULT:    -3.722      3.649      5.283
REMARK INTER + INTRA:          -6.649
REMARK INTER:                  -5.967
REMARK INTRA:                  -0.681
REMARK UNBOUND:                -0.969
REMARK SMILES CCCCCCCCCCC(=O)[O-]
REMARK SMILES IDX 7 1 8 2 9 3 10 4 11 5 12 6 13 7 6 8 5 9 4 10 3 11 2 12 1 13
REMARK H PARENT
REMARK Flexibility Score: inf
ROOT
ATOM      1  C   UNL     1      49.795   4.204  22.032  1.00  0.00     0.000 C 
ENDROOT
BRANCH   1   2
ATOM      2  C   UNL     1      49.284   3.188  20.996  1.00  0.00     0.000 C 
BRANCH   2   3
ATOM      3  C   UNL     1      50.426   2.455  20.275  1.00  0.00     0.006 C 
BRANCH   3   4
ATOM      4  C   UNL     1      51.357   3.411  19.515  1.00  0.00     0.053 C 
BRANCH   4   5
ATOM      5  C   UNL     1      52.716   2.804  19.365  1.00  0.00     0.041 C 
ATOM      6  O   UNL     1      52.841   1.625  18.943  1.00  0.00    -0.550 OA
ATOM      7  O   UNL     1      53.844   3.526  19.737  1.00  0.00    -0.550 OA
ENDBRANCH   4   5
ENDBRANCH   3   4
ENDBRANCH   2   3
ENDBRANCH   1   2
BRANCH   1   8
ATOM      8  C   UNL     1      48.714   5.215  22.449  1.00  0.00     0.000 C 
BRANCH   8   9
ATOM      9  C   UNL     1      48.577   6.381  21.454  1.00  0.00    -0.000 C 
BRANCH   9  10
ATOM     10  C   UNL     1      49.937   6.885  20.948  1.00  0.00    -0.000 C 
BRANCH  10  11
ATOM     11  C   UNL     1      49.815   8.167  20.105  1.00  0.00    -0.000 C 
BRANCH  11  12
ATOM     12  C   UNL     1      51.051   8.414  19.225  1.00  0.00    -0.003 C 
ATOM     13  C   UNL     1      51.783   7.123  18.861  1.00  0.00     0.004 C 
ENDBRANCH  11  12
ENDBRANCH  10  11
ENDBRANCH   9  10
ENDBRANCH   8   9
ENDBRANCH   1   8
TORSDOF 9
ENDMDL
MODEL 3
REMARK VINA RESULT:    -3.694      9.866     12.285
REMARK INTER + INTRA:          -6.606
REMARK INTER:                  -6.185
REMARK INTRA:                  -0.421
REMARK UNBOUND:                -0.969
REMARK SMILES CCCCCCCCCCC(=O)[O-]
REMARK SMILES IDX 7 1 8 2 9 3 10 4 11 5 12 6 13 7 6 8 5 9 4 10 3 11 2 12 1 13
REMARK H PARENT
REMARK Flexibility Score: inf
ROOT
ATOM      1  C   UNL     1      54.063  -1.457  19.638  1.00  0.00     0.000 C 
ENDROOT
BRANCH   1   2
ATOM      2  C   UNL     1      54.022  -0.010  19.118  1.00  0.00     0.000 C 
BRANCH   2   3
ATOM      3  C   UNL     1      53.025   0.867  19.892  1.00  0.00     0.006 C 
BRANCH   3   4
ATOM      4  C   UNL     1      53.213   2.365  19.614  1.00  0.00     0.053 C 
BRANCH   4   5
ATOM      5  C   UNL     1      51.894   3.013  19.333  1.00  0.00     0.041 C 
ATOM      6  O   UNL     1      51.833   4.040  18.608  1.00  0.00    -0.550 OA
ATOM      7  O   UNL     1      50.736   2.511  19.915  1.00  0.00    -0.550 OA
ENDBRANCH   4   5
ENDBRANCH   3   4
ENDBRANCH   2   3
ENDBRANCH   1   2
BRANCH   1   8
ATOM      8  C   UNL     1      55.223  -2.267  19.034  1.00  0.00     0.000 C 
BRANCH   8   9
ATOM      9  C   UNL     1      56.463  -1.402  18.744  1.00  0.00    -0.000 C 
BRANCH   9  10
ATOM     10  C   UNL     1      57.778  -2.161  18.983  1.00  0.00    -0.000 C 
BRANCH  10  11
ATOM     11  C   UNL     1      57.693  -3.637  18.558  1.00  0.00    -0.000 C 
BRANCH  11  12
ATOM     12  C   UNL     1      58.003  -3.839  17.066  1.00  0.00    -0.003 C 
ATOM     13  C   UNL     1      59.309  -3.169  16.640  1.00  0.00     0.004 C 
ENDBRANCH  11  12
ENDBRANCH  10  11
ENDBRANCH   9  10
ENDBRANCH   8   9
ENDBRANCH   1   8
TORSDOF 9
ENDMDL
MODEL 4
REMARK VINA RESULT:    -3.683      6.293      7.934
REMARK INTER + INTRA:          -6.589
REMARK INTER:                  -5.521
REMARK INTRA:                  -1.068
REMARK UNBOUND:                -0.969
REMARK SMILES CCCCCCCCCCC(=O)[O-]
REMARK SMILES IDX 7 1 8 2 9 3 10 4 11 5 12 6 13 7 6 8 5 9 4 10 3 11 2 12 1 13
REMARK H PARENT
REMARK Flexibility Score: inf
ROOT
ATOM      1  C   UNL     1      49.342   3.080  22.464  1.00  0.00     0.000 C 
ENDROOT
BRANCH   1   2
ATOM      2  C   UNL     1      48.889   2.968  20.998  1.00  0.00     0.000 C 
BRANCH   2   3
ATOM      3  C   UNL     1      48.399   1.556  20.638  1.00  0.00     0.006 C 
BRANCH   3   4
ATOM      4  C   UNL     1      47.137   1.573  19.765  1.00  0.00     0.053 C 
BRANCH   4   5
ATOM      5  C   UNL     1      46.015   2.255  20.482  1.00  0.00     0.041 C 
ATOM      6  O   UNL     1      45.429   3.237  19.956  1.00  0.00    -0.550 OA
ATOM      7  O   UNL     1      45.650   1.837  21.756  1.00  0.00    -0.550 OA
ENDBRANCH   4   5
ENDBRANCH   3   4
ENDBRANCH   2   3
ENDBRANCH   1   2
BRANCH   1   8
ATOM      8  C   UNL     1      50.872   3.021  22.614  1.00  0.00     0.000 C 
BRANCH   8   9
ATOM      9  C   UNL     1      51.401   1.579  22.723  1.00  0.00    -0.000 C 
BRANCH   9  10
ATOM     10  C   UNL     1      52.108   1.115  21.440  1.00  0.00    -0.000 C 
BRANCH  10  11
ATOM     11  C   UNL     1      52.814   2.268  20.705  1.00  0.00    -0.000 C 
BRANCH  11  12
ATOM     12  C   UNL     1      52.400   2.367  19.229  1.00  0.00    -0.003 C 
ATOM     13  C   UNL     1      51.868   3.751  18.856  1.00  0.00     0.004 C 
ENDBRANCH  11  12
ENDBRANCH  10  11
ENDBRANCH   9  10
ENDBRANCH   8   9
ENDBRANCH   1   8
TORSDOF 9
ENDMDL
MODEL 5
REMARK VINA RESULT:    -3.664      2.818      5.144
REMARK INTER + INTRA:          -6.561
REMARK INTER:                  -5.956
REMARK INTRA:                  -0.605
REMARK UNBOUND:                -0.969
REMARK SMILES CCCCCCCCCCC(=O)[O-]
REMARK SMILES IDX 7 1 8 2 9 3 10 4 11 5 12 6 13 7 6 8 5 9 4 10 3 11 2 12 1 13
REMARK H PARENT
REMARK Flexibility Score: inf
ROOT
ATOM      1  C   UNL     1      48.946   6.548  21.280  1.00  0.00     0.000 C 
ENDROOT
BRANCH   1   2
ATOM      2  C   UNL     1      49.649   7.893  21.530  1.00  0.00     0.000 C 
BRANCH   2   3
ATOM      3  C   UNL     1      50.132   8.557  20.230  1.00  0.00     0.006 C 
BRANCH   3   4
ATOM      4  C   UNL     1      51.111   7.674  19.444  1.00  0.00     0.053 C 
BRANCH   4   5
ATOM      5  C   UNL     1      50.795   7.720  17.982  1.00  0.00     0.041 C 
ATOM      6  O   UNL     1      51.265   6.849  17.204  1.00  0.00    -0.550 OA
ATOM      7  O   UNL     1      50.019   8.753  17.471  1.00  0.00    -0.550 OA
ENDBRANCH   4   5
ENDBRANCH   3   4
ENDBRANCH   2   3
ENDBRANCH   1   2
BRANCH   1   8
ATOM      8  C   UNL     1      49.540   5.407  22.123  1.00  0.00     0.000 C 
BRANCH   8   9
ATOM      9  C   UNL     1      49.265   4.017  21.520  1.00  0.00    -0.000 C 
BRANCH   9  10
ATOM     10  C   UNL     1      50.514   3.124  21.509  1.00  0.00    -0.000 C 
BRANCH  10  11
ATOM     11  C   UNL     1      50.637   2.297  20.216  1.00  0.00    -0.000 C 
BRANCH  11  12
ATOM     12  C   UNL     1      51.943   2.580  19.458  1.00  0.00    -0.003 C 
ATOM     13  C   UNL     1      51.983   3.985  18.855  1.00  0.00     0.004 C 
ENDBRANCH  11  12
ENDBRANCH  10  11
ENDBRANCH   9  10
ENDBRANCH   8   9
ENDBRANCH   1   8
TORSDOF 9
ENDMDL
MODEL 6
REMARK VINA RESULT:    -3.644      5.967      7.120
REMARK INTER + INTRA:          -6.530
REMARK INTER:                  -6.016
REMARK INTRA:                  -0.514
REMARK UNBOUND:                -0.969
REMARK SMILES CCCCCCCCCCC(=O)[O-]
REMARK SMILES IDX 7 1 8 2 9 3 10 4 11 5 12 6 13 7 6 8 5 9 4 10 3 11 2 12 1 13
REMARK H PARENT
REMARK Flexibility Score: inf
ROOT
ATOM      1  C   UNL     1      48.450   1.512  20.683  1.00  0.00     0.000 C 
ENDROOT
BRANCH   1   2
ATOM      2  C   UNL     1      48.916   2.788  21.405  1.00  0.00     0.000 C 
BRANCH   2   3
ATOM      3  C   UNL     1      50.176   3.398  20.771  1.00  0.00     0.006 C 
BRANCH   3   4
ATOM      4  C   UNL     1      51.223   2.338  20.399  1.00  0.00     0.053 C 
BRANCH   4   5
ATOM      5  C   UNL     1      52.229   2.911  19.451  1.00  0.00     0.041 C 
ATOM      6  O   UNL     1      51.885   3.782  18.610  1.00  0.00    -0.550 OA
ATOM      7  O   UNL     1      53.538   2.446  19.464  1.00  0.00    -0.550 OA
ENDBRANCH   4   5
ENDBRANCH   3   4
ENDBRANCH   2   3
ENDBRANCH   1   2
BRANCH   1   8
ATOM      8  C   UNL     1      47.060   1.670  20.045  1.00  0.00     0.000 C 
BRANCH   8   9
ATOM      9  C   UNL     1      46.158   2.647  20.821  1.00  0.00    -0.000 C 
BRANCH   9  10
ATOM     10  C   UNL     1      45.038   3.234  19.948  1.00  0.00    -0.000 C 
BRANCH  10  11
ATOM     11  C   UNL     1      43.635   2.914  20.494  1.00  0.00    -0.000 C 
BRANCH  11  12
ATOM     12  C   UNL     1      43.676   1.963  21.701  1.00  0.00    -0.003 C 
ATOM     13  C   UNL     1      43.139   0.570  21.373  1.00  0.00     0.004 C 
ENDBRANCH  11  12
ENDBRANCH  10  11
ENDBRANCH   9  10
ENDBRANCH   8   9
ENDBRANCH   1   8
TORSDOF 9
ENDMDL
MODEL 7
REMARK VINA RESULT:    -3.636      2.452      3.780
REMARK INTER + INTRA:          -6.517
REMARK INTER:                  -5.717
REMARK INTRA:                  -0.800
REMARK UNBOUND:                -0.969
REMARK SMILES CCCCCCCCCCC(=O)[O-]
REMARK SMILES IDX 7 1 8 2 9 3 10 4 11 5 12 6 13 7 6 8 5 9 4 10 3 11 2 12 1 13
REMARK H PARENT
REMARK Flexibility Score: inf
ROOT
ATOM      1  C   UNL     1      48.648   7.307  21.332  1.00  0.00     0.000 C 
ENDROOT
BRANCH   1   2
ATOM      2  C   UNL     1      49.943   6.731  20.734  1.00  0.00     0.000 C 
BRANCH   2   3
ATOM      3  C   UNL     1      50.828   7.812  20.091  1.00  0.00     0.006 C 
BRANCH   3   4
ATOM      4  C   UNL     1      50.998   7.615  18.578  1.00  0.00     0.053 C 
BRANCH   4   5
ATOM      5  C   UNL     1      50.121   8.566  17.827  1.00  0.00     0.041 C 
ATOM      6  O   UNL     1      49.692   8.265  16.683  1.00  0.00    -0.550 OA
ATOM      7  O   UNL     1      49.818   9.808  18.372  1.00  0.00    -0.550 OA
ENDBRANCH   4   5
ENDBRANCH   3   4
ENDBRANCH   2   3
ENDBRANCH   1   2
BRANCH   1   8
ATOM      8  C   UNL     1      48.764   8.807  21.653  1.00  0.00     0.000 C 
BRANCH   8   9
ATOM      9  C   UNL     1      47.999   9.201  22.930  1.00  0.00    -0.000 C 
BRANCH   9  10
ATOM     10  C   UNL     1      48.926   9.358  24.145  1.00  0.00    -0.000 C 
BRANCH  10  11
ATOM     11  C   UNL     1      49.120   8.038  24.913  1.00  0.00    -0.000 C 
BRANCH  11  12
ATOM     12  C   UNL     1      50.497   7.406  24.659  1.00  0.00    -0.003 C 
ATOM     13  C   UNL     1      50.769   6.202  25.561  1.00  0.00     0.004 C 
ENDBRANCH  11  12
ENDBRANCH  10  11
ENDBRANCH   9  10
ENDBRANCH   8   9
ENDBRANCH   1   8
TORSDOF 9
ENDMDL
MODEL 8
REMARK VINA RESULT:    -3.572      2.561      3.713
REMARK INTER + INTRA:          -6.420
REMARK INTER:                  -5.347
REMARK INTRA:                  -1.073
REMARK UNBOUND:                -0.969
REMARK SMILES CCCCCCCCCCC(=O)[O-]
REMARK SMILES IDX 7 1 8 2 9 3 10 4 11 5 12 6 13 7 6 8 5 9 4 10 3 11 2 12 1 13
REMARK H PARENT
REMARK Flexibility Score: inf
ROOT
ATOM      1  C   UNL     1      49.295   5.912  21.533  1.00  0.00     0.000 C 
ENDROOT
BRANCH   1   2
ATOM      2  C   UNL     1      48.921   7.255  20.882  1.00  0.00     0.000 C 
BRANCH   2   3
ATOM      3  C   UNL     1      50.112   8.224  20.800  1.00  0.00     0.006 C 
BRANCH   3   4
ATOM      4  C   UNL     1      50.261   8.862  19.412  1.00  0.00     0.053 C 
BRANCH   4   5
ATOM      5  C   UNL     1      50.892   7.896  18.460  1.00  0.00     0.041 C 
ATOM      6  O   UNL     1      50.486   7.820  17.271  1.00  0.00    -0.550 OA
ATOM      7  O   UNL     1      51.898   7.044  18.900  1.00  0.00    -0.550 OA
ENDBRANCH   4   5
ENDBRANCH   3   4
ENDBRANCH   2   3
ENDBRANCH   1   2
BRANCH   1   8
ATOM      8  C   UNL     1      48.154   5.331  22.384  1.00  0.00     0.000 C 
BRANCH   8   9
ATOM      9  C   UNL     1      48.437   5.417  23.895  1.00  0.00    -0.000 C 
BRANCH   9  10
ATOM     10  C   UNL     1      49.938   5.530  24.205  1.00  0.00    -0.000 C 
BRANCH  10  11
ATOM     11  C   UNL     1      50.254   6.684  25.174  1.00  0.00    -0.000 C 
BRANCH  11  12
ATOM     12  C   UNL     1      50.597   7.990  24.441  1.00  0.00    -0.003 C 
ATOM     13  C   UNL     1      49.408   8.946  24.351  1.00  0.00     0.004 C 
ENDBRANCH  11  12
ENDBRANCH  10  11
ENDBRANCH   9  10
ENDBRANCH   8   9
ENDBRANCH   1   8
TORSDOF 9
ENDMDL
MODEL 9
REMARK VINA RESULT:    -3.519      4.434      5.504
REMARK INTER + INTRA:          -6.340
REMARK INTER:                  -5.375
REMARK INTRA:                  -0.965
REMARK UNBOUND:                -0.969
REMARK SMILES CCCCCCCCCCC(=O)[O-]
REMARK SMILES IDX 7 1 8 2 9 3 10 4 11 5 12 6 13 7 6 8 5 9 4 10 3 11 2 12 1 13
REMARK H PARENT
REMARK Flexibility Score: inf
ROOT
ATOM      1  C   UNL     1      50.140   3.581  22.648  1.00  0.00     0.000 C 
ENDROOT
BRANCH   1   2
ATOM      2  C   UNL     1      50.951   2.650  21.730  1.00  0.00     0.000 C 
BRANCH   2   3
ATOM      3  C   UNL     1      50.478   2.703  20.268  1.00  0.00     0.006 C 
BRANCH   3   4
ATOM      4  C   UNL     1      51.471   3.430  19.350  1.00  0.00     0.053 C 
BRANCH   4   5
ATOM      5  C   UNL     1      52.792   2.727  19.353  1.00  0.00     0.041 C 
ATOM      6  O   UNL     1      52.866   1.514  19.026  1.00  0.00    -0.550 OA
ATOM      7  O   UNL     1      53.936   3.400  19.764  1.00  0.00    -0.550 OA
ENDBRANCH   4   5
ENDBRANCH   3   4
ENDBRANCH   2   3
ENDBRANCH   1   2
BRANCH   1   8
ATOM      8  C   UNL     1      48.701   3.794  22.147  1.00  0.00     0.000 C 
BRANCH   8   9
ATOM      9  C   UNL     1      48.310   5.282  22.083  1.00  0.00    -0.000 C 
BRANCH   9  10
ATOM     10  C   UNL     1      49.328   6.124  21.297  1.00  0.00    -0.000 C 
BRANCH  10  11
ATOM     11  C   UNL     1      49.839   7.333  22.101  1.00  0.00    -0.000 C 
BRANCH  11  12
ATOM     12  C   UNL     1      49.345   7.324  23.556  1.00  0.00    -0.003 C 
ATOM     13  C   UNL     1      50.490   7.267  24.567  1.00  0.00     0.004 C 
ENDBRANCH  11  12
ENDBRANCH  10  11
ENDBRANCH   9  10
ENDBRANCH   8   9
ENDBRANCH   1   8
TORSDOF 9
ENDMDL
