MODEL 1
REMARK VINA RESULT:    -3.605      0.000      0.000
REMARK INTER + INTRA:          -9.653
REMARK INTER:                  -6.766
REMARK INTRA:                  -2.887
REMARK UNBOUND:                -2.887
REMARK SMILES CCCCCCCCC=CCCCCCCCC(=O)[O-]
REMARK SMILES IDX 10 1 9 2 11 3 12 4 13 5 14 6 15 7 16 8 17 9 18 10 19 11
REMARK SMILES IDX 20 12 8 13 7 14 6 15 5 16 4 17 3 18 2 19 1 20
REMARK H PARENT
REMARK Flexibility Score: inf
ROOT
ATOM      1  C   UNL     1      16.797  14.129  31.135  1.00  0.00    -0.031 C 
ATOM      2  C   UNL     1      17.620  13.540  32.024  1.00  0.00    -0.031 C 
ENDROOT
BRANCH   1   3
ATOM      3  C   UNL     1      17.000  15.504  30.542  1.00  0.00     0.027 C 
BRANCH   3   4
ATOM      4  C   UNL     1      17.083  15.447  29.011  1.00  0.00     0.004 C 
BRANCH   4   5
ATOM      5  C   UNL     1      15.706  15.630  28.350  1.00  0.00     0.000 C 
BRANCH   5   6
ATOM      6  C   UNL     1      15.160  14.327  27.738  1.00  0.00     0.000 C 
BRANCH   6   7
ATOM      7  C   UNL     1      14.047  13.643  28.552  1.00  0.00     0.000 C 
BRANCH   7   8
ATOM      8  C   UNL     1      13.501  14.529  29.684  1.00  0.00     0.006 C 
BRANCH   8   9
ATOM      9  C   UNL     1      12.852  13.706  30.805  1.00  0.00     0.053 C 
BRANCH   9  10
ATOM     10  C   UNL     1      11.736  14.451  31.473  1.00  0.00     0.041 C 
ATOM     11  O   UNL     1      11.046  15.279  30.820  1.00  0.00    -0.550 OA
ATOM     12  O   UNL     1      11.438  14.207  32.809  1.00  0.00    -0.550 OA
ENDBRANCH   9  10
ENDBRANCH   8   9
ENDBRANCH   7   8
ENDBRANCH   6   7
ENDBRANCH   5   6
ENDBRANCH   4   5
ENDBRANCH   3   4
ENDBRANCH   1   3
BRANCH   2  13
ATOM     13  C   UNL     1      18.847  14.183  32.620  1.00  0.00     0.027 C 
BRANCH  13  14
ATOM     14  C   UNL     1      20.144  13.601  32.035  1.00  0.00     0.004 C 
BRANCH  14  15
ATOM     15  C   UNL     1      20.468  14.191  30.651  1.00  0.00     0.000 C 
BRANCH  15  16
ATOM     16  C   UNL     1      20.682  13.096  29.585  1.00  0.00     0.000 C 
BRANCH  16  17
ATOM     17  C   UNL     1      20.142  13.471  28.194  1.00  0.00    -0.000 C 
BRANCH  17  18
ATOM     18  C   UNL     1      18.908  12.649  27.791  1.00  0.00    -0.000 C 
BRANCH  18  19
ATOM     19  C   UNL     1      18.442  11.704  28.910  1.00  0.00    -0.003 C 
ATOM     20  C   UNL     1      16.989  11.262  28.744  1.00  0.00     0.004 C 
ENDBRANCH  18  19
ENDBRANCH  17  18
ENDBRANCH  16  17
ENDBRANCH  15  16
ENDBRANCH  14  15
ENDBRANCH  13  14
ENDBRANCH   2  13
TORSDOF 15
ENDMDL
MODEL 2
REMARK VINA RESULT:    -3.495      2.008      3.546
REMARK INTER + INTRA:          -9.446
REMARK INTER:                  -7.342
REMARK INTRA:                  -2.104
REMARK UNBOUND:                -2.887
REMARK SMILES CCCCCCCCC=CCCCCCCCC(=O)[O-]
REMARK SMILES IDX 10 1 9 2 11 3 12 4 13 5 14 6 15 7 16 8 17 9 18 10 19 11
REMARK SMILES IDX 20 12 8 13 7 14 6 15 5 16 4 17 3 18 2 19 1 20
REMARK H PARENT
REMARK Flexibility Score: inf
ROOT
ATOM      1  C   UNL     1      17.131  12.934  32.079  1.00  0.00    -0.031 C 
ATOM      2  C   UNL     1      17.907  13.992  31.777  1.00  0.00    -0.031 C 
ENDROOT
BRANCH   1   3
ATOM      3  C   UNL     1      16.180  12.253  31.121  1.00  0.00     0.027 C 
BRANCH   3   4
ATOM      4  C   UNL     1      14.726  12.373  31.596  1.00  0.00     0.004 C 
BRANCH   4   5
ATOM      5  C   UNL     1      13.963  13.479  30.849  1.00  0.00     0.000 C 
BRANCH   5   6
ATOM      6  C   UNL     1      13.475  13.034  29.458  1.00  0.00     0.000 C 
BRANCH   6   7
ATOM      7  C   UNL     1      12.810  14.140  28.618  1.00  0.00     0.000 C 
BRANCH   7   8
ATOM      8  C   UNL     1      11.299  14.265  28.880  1.00  0.00     0.006 C 
BRANCH   8   9
ATOM      9  C   UNL     1      10.985  15.261  30.005  1.00  0.00     0.053 C 
BRANCH   9  10
ATOM     10  C   UNL     1      10.403  14.582  31.207  1.00  0.00     0.041 C 
ATOM     11  O   UNL     1       9.311  13.959  31.116  1.00  0.00    -0.550 OA
ATOM     12  O   UNL     1      11.081  14.611  32.420  1.00  0.00    -0.550 OA
ENDBRANCH   9  10
ENDBRANCH   8   9
ENDBRANCH   7   8
ENDBRANCH   6   7
ENDBRANCH   5   6
ENDBRANCH   4   5
ENDBRANCH   3   4
ENDBRANCH   1   3
BRANCH   2  13
ATOM     13  C   UNL     1      17.910  14.710  30.450  1.00  0.00     0.027 C 
BRANCH  13  14
ATOM     14  C   UNL     1      17.008  15.954  30.467  1.00  0.00     0.004 C 
BRANCH  14  15
ATOM     15  C   UNL     1      15.958  15.921  29.342  1.00  0.00     0.000 C 
BRANCH  15  16
ATOM     16  C   UNL     1      16.425  15.082  28.133  1.00  0.00     0.000 C 
BRANCH  16  17
ATOM     17  C   UNL     1      15.814  15.530  26.794  1.00  0.00    -0.000 C 
BRANCH  17  18
ATOM     18  C   UNL     1      16.875  15.954  25.767  1.00  0.00    -0.000 C 
BRANCH  18  19
ATOM     19  C   UNL     1      18.142  15.086  25.840  1.00  0.00    -0.003 C 
ATOM     20  C   UNL     1      19.417  15.913  25.997  1.00  0.00     0.004 C 
ENDBRANCH  18  19
ENDBRANCH  17  18
ENDBRANCH  16  17
ENDBRANCH  15  16
ENDBRANCH  14  15
ENDBRANCH  13  14
ENDBRANCH   2  13
TORSDOF 15
ENDMDL
MODEL 3
REMARK VINA RESULT:    -3.446      2.151      4.117
REMARK INTER + INTRA:          -9.355
REMARK INTER:                  -6.768
REMARK INTRA:                  -2.586
REMARK UNBOUND:                -2.887
REMARK SMILES CCCCCCCCC=CCCCCCCCC(=O)[O-]
REMARK SMILES IDX 10 1 9 2 11 3 12 4 13 5 14 6 15 7 16 8 17 9 18 10 19 11
REMARK SMILES IDX 20 12 8 13 7 14 6 15 5 16 4 17 3 18 2 19 1 20
REMARK H PARENT
REMARK Flexibility Score: inf
ROOT
ATOM      1  C   UNL     1      20.220  13.446  30.817  1.00  0.00    -0.031 C 
ATOM      2  C   UNL     1      20.355  13.736  29.508  1.00  0.00    -0.031 C 
ENDROOT
BRANCH   1   3
ATOM      3  C   UNL     1      18.951  12.949  31.470  1.00  0.00     0.027 C 
BRANCH   3   4
ATOM      4  C   UNL     1      18.113  14.110  32.021  1.00  0.00     0.004 C 
BRANCH   4   5
ATOM      5  C   UNL     1      16.837  14.346  31.196  1.00  0.00     0.000 C 
BRANCH   5   6
ATOM      6  C   UNL     1      16.835  15.706  30.474  1.00  0.00     0.000 C 
BRANCH   6   7
ATOM      7  C   UNL     1      16.031  15.744  29.162  1.00  0.00     0.000 C 
BRANCH   7   8
ATOM      8  C   UNL     1      15.581  14.350  28.694  1.00  0.00     0.006 C 
BRANCH   8   9
ATOM      9  C   UNL     1      14.087  14.309  28.343  1.00  0.00     0.053 C 
BRANCH   9  10
ATOM     10  C   UNL     1      13.275  13.667  29.426  1.00  0.00     0.041 C 
ATOM     11  O   UNL     1      13.158  14.228  30.548  1.00  0.00    -0.550 OA
ATOM     12  O   UNL     1      12.620  12.464  29.186  1.00  0.00    -0.550 OA
ENDBRANCH   9  10
ENDBRANCH   8   9
ENDBRANCH   7   8
ENDBRANCH   6   7
ENDBRANCH   5   6
ENDBRANCH   4   5
ENDBRANCH   3   4
ENDBRANCH   1   3
BRANCH   2  13
ATOM     13  C   UNL     1      19.243  13.670  28.491  1.00  0.00     0.027 C 
BRANCH  13  14
ATOM     14  C   UNL     1      19.154  14.954  27.651  1.00  0.00     0.004 C 
BRANCH  14  15
ATOM     15  C   UNL     1      18.531  14.696  26.267  1.00  0.00     0.000 C 
BRANCH  15  16
ATOM     16  C   UNL     1      18.004  15.990  25.614  1.00  0.00     0.000 C 
BRANCH  16  17
ATOM     17  C   UNL     1      16.471  16.119  25.641  1.00  0.00    -0.000 C 
BRANCH  17  18
ATOM     18  C   UNL     1      15.813  15.691  24.320  1.00  0.00    -0.000 C 
BRANCH  18  19
ATOM     19  C   UNL     1      14.818  14.535  24.508  1.00  0.00    -0.003 C 
ATOM     20  C   UNL     1      15.507  13.200  24.787  1.00  0.00     0.004 C 
ENDBRANCH  18  19
ENDBRANCH  17  18
ENDBRANCH  16  17
ENDBRANCH  15  16
ENDBRANCH  14  15
ENDBRANCH  13  14
ENDBRANCH   2  13
TORSDOF 15
ENDMDL
MODEL 4
REMARK VINA RESULT:    -3.419      2.181      4.389
REMARK INTER + INTRA:          -9.305
REMARK INTER:                  -6.957
REMARK INTRA:                  -2.348
REMARK UNBOUND:                -2.887
REMARK SMILES CCCCCCCCC=CCCCCCCCC(=O)[O-]
REMARK SMILES IDX 10 1 9 2 11 3 12 4 13 5 14 6 15 7 16 8 17 9 18 10 19 11
REMARK SMILES IDX 20 12 8 13 7 14 6 15 5 16 4 17 3 18 2 19 1 20
REMARK H PARENT
REMARK Flexibility Score: inf
ROOT
ATOM      1  C   UNL     1      17.004  15.656  30.438  1.00  0.00    -0.031 C 
ATOM      2  C   UNL     1      16.250  15.993  29.375  1.00  0.00    -0.031 C 
ENDROOT
BRANCH   1   3
ATOM      3  C   UNL     1      17.743  14.347  30.600  1.00  0.00     0.027 C 
BRANCH   3   4
ATOM      4  C   UNL     1      17.702  13.857  32.053  1.00  0.00     0.004 C 
BRANCH   4   5
ATOM      5  C   UNL     1      16.874  12.570  32.206  1.00  0.00     0.000 C 
BRANCH   5   6
ATOM      6  C   UNL     1      15.884  12.355  31.047  1.00  0.00     0.000 C 
BRANCH   6   7
ATOM      7  C   UNL     1      14.425  12.735  31.359  1.00  0.00     0.000 C 
BRANCH   7   8
ATOM      8  C   UNL     1      13.590  12.994  30.094  1.00  0.00     0.006 C 
BRANCH   8   9
ATOM      9  C   UNL     1      12.843  14.334  30.156  1.00  0.00     0.053 C 
BRANCH   9  10
ATOM     10  C   UNL     1      11.447  14.222  29.622  1.00  0.00     0.041 C 
ATOM     11  O   UNL     1      10.921  15.191  29.013  1.00  0.00    -0.550 OA
ATOM     12  O   UNL     1      10.738  13.035  29.770  1.00  0.00    -0.550 OA
ENDBRANCH   9  10
ENDBRANCH   8   9
ENDBRANCH   7   8
ENDBRANCH   6   7
ENDBRANCH   5   6
ENDBRANCH   4   5
ENDBRANCH   3   4
ENDBRANCH   1   3
BRANCH   2  13
ATOM     13  C   UNL     1      15.969  15.094  28.196  1.00  0.00     0.027 C 
BRANCH  13  14
ATOM     14  C   UNL     1      16.845  15.445  26.983  1.00  0.00     0.004 C 
BRANCH  14  15
ATOM     15  C   UNL     1      16.072  16.260  25.931  1.00  0.00     0.000 C 
BRANCH  15  16
ATOM     16  C   UNL     1      16.068  15.575  24.548  1.00  0.00     0.000 C 
BRANCH  16  17
ATOM     17  C   UNL     1      14.887  14.613  24.336  1.00  0.00    -0.000 C 
BRANCH  17  18
ATOM     18  C   UNL     1      15.280  13.137  24.514  1.00  0.00    -0.000 C 
BRANCH  18  19
ATOM     19  C   UNL     1      14.685  12.521  25.789  1.00  0.00    -0.003 C 
ATOM     20  C   UNL     1      13.434  13.253  26.272  1.00  0.00     0.004 C 
ENDBRANCH  18  19
ENDBRANCH  17  18
ENDBRANCH  16  17
ENDBRANCH  15  16
ENDBRANCH  14  15
ENDBRANCH  13  14
ENDBRANCH   2  13
TORSDOF 15
ENDMDL
MODEL 5
REMARK VINA RESULT:    -3.414      3.701      6.562
REMARK INTER + INTRA:          -9.295
REMARK INTER:                  -7.031
REMARK INTRA:                  -2.264
REMARK UNBOUND:                -2.887
REMARK SMILES CCCCCCCCC=CCCCCCCCC(=O)[O-]
REMARK SMILES IDX 10 1 9 2 11 3 12 4 13 5 14 6 15 7 16 8 17 9 18 10 19 11
REMARK SMILES IDX 20 12 8 13 7 14 6 15 5 16 4 17 3 18 2 19 1 20
REMARK H PARENT
REMARK Flexibility Score: inf
ROOT
ATOM      1  C   UNL     1      13.879  11.772  31.272  1.00  0.00    -0.031 C 
ATOM      2  C   UNL     1      12.581  11.941  31.587  1.00  0.00    -0.031 C 
ENDROOT
BRANCH   1   3
ATOM      3  C   UNL     1      15.021  12.596  31.821  1.00  0.00     0.027 C 
BRANCH   3   4
ATOM      4  C   UNL     1      15.857  13.216  30.695  1.00  0.00     0.004 C 
BRANCH   4   5
ATOM      5  C   UNL     1      16.973  14.126  31.235  1.00  0.00     0.000 C 
BRANCH   5   6
ATOM      6  C   UNL     1      17.027  15.491  30.524  1.00  0.00     0.000 C 
BRANCH   6   7
ATOM      7  C   UNL     1      16.040  15.654  29.354  1.00  0.00     0.000 C 
BRANCH   7   8
ATOM      8  C   UNL     1      16.682  15.378  27.984  1.00  0.00     0.006 C 
BRANCH   8   9
ATOM      9  C   UNL     1      15.848  15.945  26.827  1.00  0.00     0.053 C 
BRANCH   9  10
ATOM     10  C   UNL     1      16.652  16.077  25.570  1.00  0.00     0.041 C 
ATOM     11  O   UNL     1      17.911  16.105  25.621  1.00  0.00    -0.550 OA
ATOM     12  O   UNL     1      16.012  16.138  24.337  1.00  0.00    -0.550 OA
ENDBRANCH   9  10
ENDBRANCH   8   9
ENDBRANCH   7   8
ENDBRANCH   6   7
ENDBRANCH   5   6
ENDBRANCH   4   5
ENDBRANCH   3   4
ENDBRANCH   1   3
BRANCH   2  13
ATOM     13  C   UNL     1      12.047  13.022  32.494  1.00  0.00     0.027 C 
BRANCH  13  14
ATOM     14  C   UNL     1      10.895  13.804  31.843  1.00  0.00     0.004 C 
BRANCH  14  15
ATOM     15  C   UNL     1      11.408  14.934  30.933  1.00  0.00     0.000 C 
BRANCH  15  16
ATOM     16  C   UNL     1      10.708  14.939  29.558  1.00  0.00     0.000 C 
BRANCH  16  17
ATOM     17  C   UNL     1      11.404  14.057  28.505  1.00  0.00    -0.000 C 
BRANCH  17  18
ATOM     18  C   UNL     1      12.937  14.119  28.595  1.00  0.00    -0.000 C 
BRANCH  18  19
ATOM     19  C   UNL     1      13.620  13.077  27.695  1.00  0.00    -0.003 C 
ATOM     20  C   UNL     1      13.013  13.018  26.294  1.00  0.00     0.004 C 
ENDBRANCH  18  19
ENDBRANCH  17  18
ENDBRANCH  16  17
ENDBRANCH  15  16
ENDBRANCH  14  15
ENDBRANCH  13  14
ENDBRANCH   2  13
TORSDOF 15
ENDMDL
MODEL 6
REMARK VINA RESULT:    -3.391      2.600      5.059
REMARK INTER + INTRA:          -9.251
REMARK INTER:                  -6.730
REMARK INTRA:                  -2.521
REMARK UNBOUND:                -2.887
REMARK SMILES CCCCCCCCC=CCCCCCCCC(=O)[O-]
REMARK SMILES IDX 10 1 9 2 11 3 12 4 13 5 14 6 15 7 16 8 17 9 18 10 19 11
REMARK SMILES IDX 20 12 8 13 7 14 6 15 5 16 4 17 3 18 2 19 1 20
REMARK H PARENT
REMARK Flexibility Score: inf
ROOT
ATOM      1  C   UNL     1      13.735  12.209  29.967  1.00  0.00    -0.031 C 
ATOM      2  C   UNL     1      13.946  12.754  28.754  1.00  0.00    -0.031 C 
ENDROOT
BRANCH   1   3
ATOM      3  C   UNL     1      13.511  12.988  31.243  1.00  0.00     0.027 C 
BRANCH   3   4
ATOM      4  C   UNL     1      12.122  12.712  31.831  1.00  0.00     0.004 C 
BRANCH   4   5
ATOM      5  C   UNL     1      11.509  13.964  32.480  1.00  0.00     0.000 C 
BRANCH   5   6
ATOM      6  C   UNL     1      10.962  14.966  31.446  1.00  0.00     0.000 C 
BRANCH   6   7
ATOM      7  C   UNL     1      10.289  14.329  30.217  1.00  0.00     0.000 C 
BRANCH   7   8
ATOM      8  C   UNL     1      10.591  15.082  28.910  1.00  0.00     0.006 C 
BRANCH   8   9
ATOM      9  C   UNL     1      10.343  14.214  27.669  1.00  0.00     0.053 C 
BRANCH   9  10
ATOM     10  C   UNL     1       9.375  14.856  26.722  1.00  0.00     0.041 C 
ATOM     11  O   UNL     1       9.113  16.084  26.818  1.00  0.00    -0.550 OA
ATOM     12  O   UNL     1       8.786  14.103  25.712  1.00  0.00    -0.550 OA
ENDBRANCH   9  10
ENDBRANCH   8   9
ENDBRANCH   7   8
ENDBRANCH   6   7
ENDBRANCH   5   6
ENDBRANCH   4   5
ENDBRANCH   3   4
ENDBRANCH   1   3
BRANCH   2  13
ATOM     13  C   UNL     1      14.055  14.234  28.481  1.00  0.00     0.027 C 
BRANCH  13  14
ATOM     14  C   UNL     1      15.188  14.556  27.493  1.00  0.00     0.004 C 
BRANCH  14  15
ATOM     15  C   UNL     1      16.172  15.593  28.063  1.00  0.00     0.000 C 
BRANCH  15  16
ATOM     16  C   UNL     1      15.903  15.897  29.551  1.00  0.00     0.000 C 
BRANCH  16  17
ATOM     17  C   UNL     1      17.131  15.699  30.457  1.00  0.00    -0.000 C 
BRANCH  17  18
ATOM     18  C   UNL     1      17.921  14.425  30.120  1.00  0.00    -0.000 C 
BRANCH  18  19
ATOM     19  C   UNL     1      17.267  13.159  30.697  1.00  0.00    -0.003 C 
ATOM     20  C   UNL     1      17.288  13.128  32.225  1.00  0.00     0.004 C 
ENDBRANCH  18  19
ENDBRANCH  17  18
ENDBRANCH  16  17
ENDBRANCH  15  16
ENDBRANCH  14  15
ENDBRANCH  13  14
ENDBRANCH   2  13
TORSDOF 15
ENDMDL
MODEL 7
REMARK VINA RESULT:    -3.378      2.876      5.922
REMARK INTER + INTRA:          -9.228
REMARK INTER:                  -6.563
REMARK INTRA:                  -2.665
REMARK UNBOUND:                -2.887
REMARK SMILES CCCCCCCCC=CCCCCCCCC(=O)[O-]
REMARK SMILES IDX 10 1 9 2 11 3 12 4 13 5 14 6 15 7 16 8 17 9 18 10 19 11
REMARK SMILES IDX 20 12 8 13 7 14 6 15 5 16 4 17 3 18 2 19 1 20
REMARK H PARENT
REMARK Flexibility Score: inf
ROOT
ATOM      1  C   UNL     1      17.545  13.442  32.026  1.00  0.00    -0.031 C 
ATOM      2  C   UNL     1      16.632  13.956  31.180  1.00  0.00    -0.031 C 
ENDROOT
BRANCH   1   3
ATOM      3  C   UNL     1      18.802  14.148  32.481  1.00  0.00     0.027 C 
BRANCH   3   4
ATOM      4  C   UNL     1      20.046  13.577  31.788  1.00  0.00     0.004 C 
BRANCH   4   5
ATOM      5  C   UNL     1      20.375  14.322  30.483  1.00  0.00     0.000 C 
BRANCH   5   6
ATOM      6  C   UNL     1      20.381  13.397  29.253  1.00  0.00     0.000 C 
BRANCH   6   7
ATOM      7  C   UNL     1      19.108  13.456  28.389  1.00  0.00     0.000 C 
BRANCH   7   8
ATOM      8  C   UNL     1      19.002  14.751  27.566  1.00  0.00     0.006 C 
BRANCH   8   9
ATOM      9  C   UNL     1      18.738  14.475  26.079  1.00  0.00     0.053 C 
BRANCH   9  10
ATOM     10  C   UNL     1      17.451  15.088  25.615  1.00  0.00     0.041 C 
ATOM     11  O   UNL     1      17.326  16.341  25.572  1.00  0.00    -0.550 OA
ATOM     12  O   UNL     1      16.402  14.275  25.201  1.00  0.00    -0.550 OA
ENDBRANCH   9  10
ENDBRANCH   8   9
ENDBRANCH   7   8
ENDBRANCH   6   7
ENDBRANCH   5   6
ENDBRANCH   4   5
ENDBRANCH   3   4
ENDBRANCH   1   3
BRANCH   2  13
ATOM     13  C   UNL     1      16.745  15.298  30.500  1.00  0.00     0.027 C 
BRANCH  13  14
ATOM     14  C   UNL     1      15.765  15.432  29.323  1.00  0.00     0.004 C 
BRANCH  14  15
ATOM     15  C   UNL     1      15.449  14.071  28.678  1.00  0.00     0.000 C 
BRANCH  15  16
ATOM     16  C   UNL     1      13.963  13.685  28.828  1.00  0.00     0.000 C 
BRANCH  16  17
ATOM     17  C   UNL     1      13.191  14.564  29.828  1.00  0.00    -0.000 C 
BRANCH  17  18
ATOM     18  C   UNL     1      12.683  13.776  31.046  1.00  0.00    -0.000 C 
BRANCH  18  19
ATOM     19  C   UNL     1      13.181  12.322  31.054  1.00  0.00    -0.003 C 
ATOM     20  C   UNL     1      13.837  11.929  32.376  1.00  0.00     0.004 C 
ENDBRANCH  18  19
ENDBRANCH  17  18
ENDBRANCH  16  17
ENDBRANCH  15  16
ENDBRANCH  14  15
ENDBRANCH  13  14
ENDBRANCH   2  13
TORSDOF 15
ENDMDL
MODEL 8
REMARK VINA RESULT:    -3.356      2.153      3.949
REMARK INTER + INTRA:          -9.186
REMARK INTER:                  -6.718
REMARK INTRA:                  -2.469
REMARK UNBOUND:                -2.887
REMARK SMILES CCCCCCCCC=CCCCCCCCC(=O)[O-]
REMARK SMILES IDX 10 1 9 2 11 3 12 4 13 5 14 6 15 7 16 8 17 9 18 10 19 11
REMARK SMILES IDX 20 12 8 13 7 14 6 15 5 16 4 17 3 18 2 19 1 20
REMARK H PARENT
REMARK Flexibility Score: inf
ROOT
ATOM      1  C   UNL     1      15.774  12.032  31.464  1.00  0.00    -0.031 C 
ATOM      2  C   UNL     1      17.039  12.389  31.757  1.00  0.00    -0.031 C 
ENDROOT
BRANCH   1   3
ATOM      3  C   UNL     1      14.622  12.991  31.276  1.00  0.00     0.027 C 
BRANCH   3   4
ATOM      4  C   UNL     1      13.295  12.243  31.096  1.00  0.00     0.004 C 
BRANCH   4   5
ATOM      5  C   UNL     1      12.655  11.867  32.443  1.00  0.00     0.000 C 
BRANCH   5   6
ATOM      6  C   UNL     1      11.326  12.602  32.698  1.00  0.00     0.000 C 
BRANCH   6   7
ATOM      7  C   UNL     1      11.428  14.138  32.731  1.00  0.00     0.000 C 
BRANCH   7   8
ATOM      8  C   UNL     1      10.518  14.821  31.697  1.00  0.00     0.006 C 
BRANCH   8   9
ATOM      9  C   UNL     1      11.274  15.193  30.414  1.00  0.00     0.053 C 
BRANCH   9  10
ATOM     10  C   UNL     1      10.635  14.599  29.195  1.00  0.00     0.041 C 
ATOM     11  O   UNL     1      10.627  13.350  29.028  1.00  0.00    -0.550 OA
ATOM     12  O   UNL     1      10.020  15.423  28.259  1.00  0.00    -0.550 OA
ENDBRANCH   9  10
ENDBRANCH   8   9
ENDBRANCH   7   8
ENDBRANCH   6   7
ENDBRANCH   5   6
ENDBRANCH   4   5
ENDBRANCH   3   4
ENDBRANCH   1   3
BRANCH   2  13
ATOM     13  C   UNL     1      17.500  13.804  32.006  1.00  0.00     0.027 C 
BRANCH  13  14
ATOM     14  C   UNL     1      18.660  14.204  31.080  1.00  0.00     0.004 C 
BRANCH  14  15
ATOM     15  C   UNL     1      18.182  15.058  29.893  1.00  0.00     0.000 C 
BRANCH  15  16
ATOM     16  C   UNL     1      16.867  15.804  30.202  1.00  0.00     0.000 C 
BRANCH  16  17
ATOM     17  C   UNL     1      15.802  15.666  29.100  1.00  0.00    -0.000 C 
BRANCH  17  18
ATOM     18  C   UNL     1      16.293  14.847  27.896  1.00  0.00    -0.000 C 
BRANCH  18  19
ATOM     19  C   UNL     1      15.507  13.538  27.718  1.00  0.00    -0.003 C 
ATOM     20  C   UNL     1      13.994  13.752  27.716  1.00  0.00     0.004 C 
ENDBRANCH  18  19
ENDBRANCH  17  18
ENDBRANCH  16  17
ENDBRANCH  15  16
ENDBRANCH  14  15
ENDBRANCH  13  14
ENDBRANCH   2  13
TORSDOF 15
ENDMDL
MODEL 9
REMARK VINA RESULT:    -3.344      1.854      3.037
REMARK INTER + INTRA:          -9.163
REMARK INTER:                  -6.895
REMARK INTRA:                  -2.268
REMARK UNBOUND:                -2.887
REMARK SMILES CCCCCCCCC=CCCCCCCCC(=O)[O-]
REMARK SMILES IDX 10 1 9 2 11 3 12 4 13 5 14 6 15 7 16 8 17 9 18 10 19 11
REMARK SMILES IDX 20 12 8 13 7 14 6 15 5 16 4 17 3 18 2 19 1 20
REMARK H PARENT
REMARK Flexibility Score: inf
ROOT
ATOM      1  C   UNL     1      17.292  14.516  31.195  1.00  0.00    -0.031 C 
ATOM      2  C   UNL     1      18.439  13.810  31.203  1.00  0.00    -0.031 C 
ENDROOT
BRANCH   1   3
ATOM      3  C   UNL     1      17.063  15.793  30.419  1.00  0.00     0.027 C 
BRANCH   3   4
ATOM      4  C   UNL     1      15.874  15.658  29.459  1.00  0.00     0.004 C 
BRANCH   4   5
ATOM      5  C   UNL     1      15.392  14.203  29.335  1.00  0.00     0.000 C 
BRANCH   5   6
ATOM      6  C   UNL     1      13.862  14.068  29.456  1.00  0.00     0.000 C 
BRANCH   6   7
ATOM      7  C   UNL     1      13.349  13.731  30.867  1.00  0.00     0.000 C 
BRANCH   7   8
ATOM      8  C   UNL     1      11.852  14.033  31.049  1.00  0.00     0.006 C 
BRANCH   8   9
ATOM      9  C   UNL     1      11.379  15.187  30.153  1.00  0.00     0.053 C 
BRANCH   9  10
ATOM     10  C   UNL     1      10.258  14.771  29.250  1.00  0.00     0.041 C 
ATOM     11  O   UNL     1       9.693  13.657  29.413  1.00  0.00    -0.550 OA
ATOM     12  O   UNL     1       9.814  15.629  28.250  1.00  0.00    -0.550 OA
ENDBRANCH   9  10
ENDBRANCH   8   9
ENDBRANCH   7   8
ENDBRANCH   6   7
ENDBRANCH   5   6
ENDBRANCH   4   5
ENDBRANCH   3   4
ENDBRANCH   1   3
BRANCH   2  13
ATOM     13  C   UNL     1      19.703  14.211  30.484  1.00  0.00     0.027 C 
BRANCH  13  14
ATOM     14  C   UNL     1      19.981  13.318  29.264  1.00  0.00     0.004 C 
BRANCH  14  15
ATOM     15  C   UNL     1      19.003  13.599  28.109  1.00  0.00     0.000 C 
BRANCH  15  16
ATOM     16  C   UNL     1      19.255  14.973  27.454  1.00  0.00     0.000 C 
BRANCH  16  17
ATOM     17  C   UNL     1      18.169  15.387  26.445  1.00  0.00    -0.000 C 
BRANCH  17  18
ATOM     18  C   UNL     1      17.154  14.266  26.169  1.00  0.00    -0.000 C 
BRANCH  18  19
ATOM     19  C   UNL     1      15.862  14.791  25.522  1.00  0.00    -0.003 C 
ATOM     20  C   UNL     1      16.012  16.206  24.965  1.00  0.00     0.004 C 
ENDBRANCH  18  19
ENDBRANCH  17  18
ENDBRANCH  16  17
ENDBRANCH  15  16
ENDBRANCH  14  15
ENDBRANCH  13  14
ENDBRANCH   2  13
TORSDOF 15
ENDMDL
