MODEL 1
REMARK VINA RESULT:    -3.513      0.000      0.000
REMARK INTER + INTRA:          -4.236
REMARK INTER:                  -4.232
REMARK INTRA:                  -0.004
REMARK UNBOUND:                -0.004
REMARK SMILES OCC(O)CO
REMARK SMILES IDX 3 1 5 2 6 3 2 5 1 6 4 8
REMARK H PARENT 6 4 1 7 4 9
REMARK Flexibility Score: inf
ROOT
ATOM      1  C   UNL     1     -14.887  -2.490 -20.361  1.00  0.00     0.165 C 
ENDROOT
BRANCH   1   2
ATOM      2  C   UNL     1     -15.311  -3.636 -19.425  1.00  0.00     0.190 C 
BRANCH   2   3
ATOM      3  O   UNL     1     -15.172  -3.257 -18.081  1.00  0.00    -0.394 OA
ATOM      4  H   UNL     1     -14.229  -2.969 -17.959  1.00  0.00     0.210 HD
ENDBRANCH   2   3
ENDBRANCH   1   2
BRANCH   1   5
ATOM      5  C   UNL     1     -13.875  -2.952 -21.421  1.00  0.00     0.190 C 
BRANCH   5   6
ATOM      6  O   UNL     1     -14.376  -4.029 -22.167  1.00  0.00    -0.394 OA
ATOM      7  H   UNL     1     -15.252  -4.271 -21.768  1.00  0.00     0.210 HD
ENDBRANCH   5   6
ENDBRANCH   1   5
BRANCH   1   8
ATOM      8  O   UNL     1     -14.322  -1.448 -19.608  1.00  0.00    -0.388 OA
ATOM      9  H   UNL     1     -14.340  -1.736 -18.657  1.00  0.00     0.211 HD
ENDBRANCH   1   8
TORSDOF 5
ENDMDL
MODEL 2
REMARK VINA RESULT:    -3.468      1.096      2.411
REMARK INTER + INTRA:          -4.181
REMARK INTER:                  -3.959
REMARK INTRA:                  -0.223
REMARK UNBOUND:                -0.004
REMARK SMILES OCC(O)CO
REMARK SMILES IDX 3 1 5 2 6 3 2 5 1 6 4 8
REMARK H PARENT 6 4 1 7 4 9
REMARK Flexibility Score: inf
ROOT
ATOM      1  C   UNL     1     -13.840  -3.113 -20.946  1.00  0.00     0.165 C 
ENDROOT
BRANCH   1   2
ATOM      2  C   UNL     1     -15.053  -2.384 -20.342  1.00  0.00     0.190 C 
BRANCH   2   3
ATOM      3  O   UNL     1     -14.866  -2.164 -18.969  1.00  0.00    -0.394 OA
ATOM      4  H   UNL     1     -14.872  -3.055 -18.530  1.00  0.00     0.210 HD
ENDBRANCH   2   3
ENDBRANCH   1   2
BRANCH   1   5
ATOM      5  C   UNL     1     -12.719  -2.140 -21.346  1.00  0.00     0.190 C 
BRANCH   5   6
ATOM      6  O   UNL     1     -12.693  -1.020 -20.502  1.00  0.00    -0.394 OA
ATOM      7  H   UNL     1     -13.243  -1.247 -19.707  1.00  0.00     0.210 HD
ENDBRANCH   5   6
ENDBRANCH   1   5
BRANCH   1   8
ATOM      8  O   UNL     1     -14.240  -3.844 -22.076  1.00  0.00    -0.388 OA
ATOM      9  H   UNL     1     -14.100  -3.256 -22.864  1.00  0.00     0.211 HD
ENDBRANCH   1   8
TORSDOF 5
ENDMDL
MODEL 3
REMARK VINA RESULT:    -3.428      1.373      2.134
REMARK INTER + INTRA:          -4.133
REMARK INTER:                  -4.130
REMARK INTRA:                  -0.002
REMARK UNBOUND:                -0.004
REMARK SMILES OCC(O)CO
REMARK SMILES IDX 3 1 5 2 6 3 2 5 1 6 4 8
REMARK H PARENT 6 4 1 7 4 9
REMARK Flexibility Score: inf
ROOT
ATOM      1  C   UNL     1     -14.474  -3.266 -21.480  1.00  0.00     0.165 C 
ENDROOT
BRANCH   1   2
ATOM      2  C   UNL     1     -15.280  -2.374 -20.519  1.00  0.00     0.190 C 
BRANCH   2   3
ATOM      3  O   UNL     1     -14.423  -1.675 -19.655  1.00  0.00    -0.394 OA
ATOM      4  H   UNL     1     -13.667  -1.342 -20.205  1.00  0.00     0.210 HD
ENDBRANCH   2   3
ENDBRANCH   1   2
BRANCH   1   5
ATOM      5  C   UNL     1     -15.342  -3.823 -22.619  1.00  0.00     0.190 C 
BRANCH   5   6
ATOM      6  O   UNL     1     -15.490  -5.214 -22.513  1.00  0.00    -0.394 OA
ATOM      7  H   UNL     1     -16.430  -5.383 -22.241  1.00  0.00     0.210 HD
ENDBRANCH   5   6
ENDBRANCH   1   5
BRANCH   1   8
ATOM      8  O   UNL     1     -13.905  -4.336 -20.769  1.00  0.00    -0.388 OA
ATOM      9  H   UNL     1     -14.268  -4.294 -19.846  1.00  0.00     0.211 HD
ENDBRANCH   1   8
TORSDOF 5
ENDMDL
MODEL 4
REMARK VINA RESULT:    -3.416      1.045      3.089
REMARK INTER + INTRA:          -4.119
REMARK INTER:                  -3.927
REMARK INTRA:                  -0.191
REMARK UNBOUND:                -0.004
REMARK SMILES OCC(O)CO
REMARK SMILES IDX 3 1 5 2 6 3 2 5 1 6 4 8
REMARK H PARENT 6 4 1 7 4 9
REMARK Flexibility Score: inf
ROOT
ATOM      1  C   UNL     1     -14.447  -3.031 -21.162  1.00  0.00     0.165 C 
ENDROOT
BRANCH   1   2
ATOM      2  C   UNL     1     -13.019  -2.498 -21.373  1.00  0.00     0.190 C 
BRANCH   2   3
ATOM      3  O   UNL     1     -12.724  -1.489 -20.444  1.00  0.00    -0.394 OA
ATOM      4  H   UNL     1     -12.741  -0.627 -20.938  1.00  0.00     0.210 HD
ENDBRANCH   2   3
ENDBRANCH   1   2
BRANCH   1   5
ATOM      5  C   UNL     1     -14.731  -3.361 -19.688  1.00  0.00     0.190 C 
BRANCH   5   6
ATOM      6  O   UNL     1     -14.879  -2.194 -18.925  1.00  0.00    -0.394 OA
ATOM      7  H   UNL     1     -14.376  -1.478 -19.396  1.00  0.00     0.210 HD
ENDBRANCH   5   6
ENDBRANCH   1   5
BRANCH   1   8
ATOM      8  O   UNL     1     -14.642  -4.186 -21.938  1.00  0.00    -0.388 OA
ATOM      9  H   UNL     1     -14.302  -4.952 -21.406  1.00  0.00     0.211 HD
ENDBRANCH   1   8
TORSDOF 5
ENDMDL
MODEL 5
REMARK VINA RESULT:    -3.400      1.520      3.109
REMARK INTER + INTRA:          -4.099
REMARK INTER:                  -4.097
REMARK INTRA:                  -0.003
REMARK UNBOUND:                -0.004
REMARK SMILES OCC(O)CO
REMARK SMILES IDX 3 1 5 2 6 3 2 5 1 6 4 8
REMARK H PARENT 6 4 1 7 4 9
REMARK Flexibility Score: inf
ROOT
ATOM      1  C   UNL     1     -15.219  -3.887 -20.630  1.00  0.00     0.165 C 
ENDROOT
BRANCH   1   2
ATOM      2  C   UNL     1     -16.142  -4.454 -21.723  1.00  0.00     0.190 C 
BRANCH   2   3
ATOM      3  O   UNL     1     -15.469  -5.417 -22.490  1.00  0.00    -0.394 OA
ATOM      4  H   UNL     1     -15.012  -4.931 -23.227  1.00  0.00     0.210 HD
ENDBRANCH   2   3
ENDBRANCH   1   2
BRANCH   1   5
ATOM      5  C   UNL     1     -15.263  -2.352 -20.572  1.00  0.00     0.190 C 
BRANCH   5   6
ATOM      6  O   UNL     1     -14.579  -1.866 -19.448  1.00  0.00    -0.394 OA
ATOM      7  H   UNL     1     -13.860  -1.270 -19.785  1.00  0.00     0.210 HD
ENDBRANCH   5   6
ENDBRANCH   1   5
BRANCH   1   8
ATOM      8  O   UNL     1     -13.897  -4.301 -20.863  1.00  0.00    -0.388 OA
ATOM      9  H   UNL     1     -13.549  -4.655 -20.003  1.00  0.00     0.211 HD
ENDBRANCH   1   8
TORSDOF 5
ENDMDL
MODEL 6
REMARK VINA RESULT:    -3.386      1.376      2.417
REMARK INTER + INTRA:          -4.082
REMARK INTER:                  -4.074
REMARK INTRA:                  -0.008
REMARK UNBOUND:                -0.004
REMARK SMILES OCC(O)CO
REMARK SMILES IDX 3 1 5 2 6 3 2 5 1 6 4 8
REMARK H PARENT 6 4 1 7 4 9
REMARK Flexibility Score: inf
ROOT
ATOM      1  C   UNL     1     -14.010  -2.599 -20.310  1.00  0.00     0.165 C 
ENDROOT
BRANCH   1   2
ATOM      2  C   UNL     1     -12.818  -2.177 -21.187  1.00  0.00     0.190 C 
BRANCH   2   3
ATOM      3  O   UNL     1     -12.355  -0.906 -20.816  1.00  0.00    -0.394 OA
ATOM      4  H   UNL     1     -11.426  -1.023 -20.482  1.00  0.00     0.210 HD
ENDBRANCH   2   3
ENDBRANCH   1   2
BRANCH   1   5
ATOM      5  C   UNL     1     -15.134  -3.248 -21.132  1.00  0.00     0.190 C 
BRANCH   5   6
ATOM      6  O   UNL     1     -14.620  -3.932 -22.244  1.00  0.00    -0.394 OA
ATOM      7  H   UNL     1     -13.778  -4.368 -21.949  1.00  0.00     0.210 HD
ENDBRANCH   5   6
ENDBRANCH   1   5
BRANCH   1   8
ATOM      8  O   UNL     1     -14.522  -1.480 -19.634  1.00  0.00    -0.388 OA
ATOM      9  H   UNL     1     -15.329  -1.186 -20.132  1.00  0.00     0.211 HD
ENDBRANCH   1   8
TORSDOF 5
ENDMDL
MODEL 7
REMARK VINA RESULT:    -3.193     12.516     13.477
REMARK INTER + INTRA:          -3.851
REMARK INTER:                  -3.848
REMARK INTRA:                  -0.002
REMARK UNBOUND:                -0.004
REMARK SMILES OCC(O)CO
REMARK SMILES IDX 3 1 5 2 6 3 2 5 1 6 4 8
REMARK H PARENT 6 4 1 7 4 9
REMARK Flexibility Score: inf
ROOT
ATOM      1  C   UNL     1      -8.594   8.721 -19.849  1.00  0.00     0.165 C 
ENDROOT
BRANCH   1   2
ATOM      2  C   UNL     1      -8.973   8.453 -21.316  1.00  0.00     0.190 C 
BRANCH   2   3
ATOM      3  O   UNL     1     -10.367   8.410 -21.469  1.00  0.00    -0.394 OA
ATOM      4  H   UNL     1     -10.756   8.342 -20.557  1.00  0.00     0.210 HD
ENDBRANCH   2   3
ENDBRANCH   1   2
BRANCH   1   5
ATOM      5  C   UNL     1      -7.072   8.762 -19.642  1.00  0.00     0.190 C 
BRANCH   5   6
ATOM      6  O   UNL     1      -6.660  10.007 -19.145  1.00  0.00    -0.394 OA
ATOM      7  H   UNL     1      -6.037   9.824 -18.393  1.00  0.00     0.210 HD
ENDBRANCH   5   6
ENDBRANCH   1   5
BRANCH   1   8
ATOM      8  O   UNL     1      -9.144   7.723 -19.028  1.00  0.00    -0.388 OA
ATOM      9  H   UNL     1      -9.161   8.088 -18.104  1.00  0.00     0.211 HD
ENDBRANCH   1   8
TORSDOF 5
ENDMDL
MODEL 8
REMARK VINA RESULT:    -3.166     12.623     14.053
REMARK INTER + INTRA:          -3.818
REMARK INTER:                  -3.613
REMARK INTRA:                  -0.205
REMARK UNBOUND:                -0.004
REMARK SMILES OCC(O)CO
REMARK SMILES IDX 3 1 5 2 6 3 2 5 1 6 4 8
REMARK H PARENT 6 4 1 7 4 9
REMARK Flexibility Score: inf
ROOT
ATOM      1  C   UNL     1     -10.563  -2.560 -32.988  1.00  0.00     0.165 C 
ENDROOT
BRANCH   1   2
ATOM      2  C   UNL     1     -11.170  -1.989 -34.281  1.00  0.00     0.190 C 
BRANCH   2   3
ATOM      3  O   UNL     1     -10.246  -1.163 -34.940  1.00  0.00    -0.394 OA
ATOM      4  H   UNL     1      -9.538  -0.938 -34.280  1.00  0.00     0.210 HD
ENDBRANCH   2   3
ENDBRANCH   1   2
BRANCH   1   5
ATOM      5  C   UNL     1     -10.744  -1.610 -31.793  1.00  0.00     0.190 C 
BRANCH   5   6
ATOM      6  O   UNL     1     -11.406  -0.433 -32.176  1.00  0.00    -0.394 OA
ATOM      7  H   UNL     1     -12.222  -0.711 -32.669  1.00  0.00     0.210 HD
ENDBRANCH   5   6
ENDBRANCH   1   5
BRANCH   1   8
ATOM      8  O   UNL     1      -9.193  -2.808 -33.175  1.00  0.00    -0.388 OA
ATOM      9  H   UNL     1      -9.077  -3.794 -33.178  1.00  0.00     0.211 HD
ENDBRANCH   1   8
TORSDOF 5
ENDMDL
MODEL 9
REMARK VINA RESULT:    -3.120     12.714     13.900
REMARK INTER + INTRA:          -3.762
REMARK INTER:                  -3.539
REMARK INTRA:                  -0.223
REMARK UNBOUND:                -0.004
REMARK SMILES OCC(O)CO
REMARK SMILES IDX 3 1 5 2 6 3 2 5 1 6 4 8
REMARK H PARENT 6 4 1 7 4 9
REMARK Flexibility Score: inf
ROOT
ATOM      1  C   UNL     1     -10.389  -2.657 -33.048  1.00  0.00     0.165 C 
ENDROOT
BRANCH   1   2
ATOM      2  C   UNL     1     -10.673  -1.722 -31.859  1.00  0.00     0.190 C 
BRANCH   2   3
ATOM      3  O   UNL     1     -11.312  -0.550 -32.291  1.00  0.00    -0.394 OA
ATOM      4  H   UNL     1     -11.018  -0.388 -33.226  1.00  0.00     0.210 HD
ENDBRANCH   2   3
ENDBRANCH   1   2
BRANCH   1   5
ATOM      5  C   UNL     1      -9.626  -1.945 -34.176  1.00  0.00     0.190 C 
BRANCH   5   6
ATOM      6  O   UNL     1     -10.497  -1.204 -34.990  1.00  0.00    -0.394 OA
ATOM      7  H   UNL     1     -10.017  -1.033 -35.842  1.00  0.00     0.210 HD
ENDBRANCH   5   6
ENDBRANCH   1   5
BRANCH   1   8
ATOM      8  O   UNL     1     -11.599  -3.160 -33.555  1.00  0.00    -0.388 OA
ATOM      9  H   UNL     1     -12.282  -2.450 -33.428  1.00  0.00     0.211 HD
ENDBRANCH   1   8
TORSDOF 5
ENDMDL
