MODEL 1
REMARK VINA RESULT:    -5.760      0.000      0.000
REMARK INTER + INTRA:          -5.760
REMARK INTER:                  -5.760
REMARK INTRA:                   0.000
REMARK UNBOUND:                 0.000
REMARK SMILES CC1=CC(=O)[C@H]2C[C@@H]1C2(C)C
REMARK SMILES IDX 1 1 2 2 3 3 4 4 5 5 6 6 7 7 8 8 9 9 10 10 11 11
REMARK H PARENT
REMARK Flexibility Score: inf
ROOT
ATOM      1  C   UNL     1     -14.849  12.846  -0.707  1.00  0.00     0.040 C 
ATOM      2  C   UNL     1     -14.627  13.878   0.354  1.00  0.00    -0.066 C 
ATOM      3  C   UNL     1     -14.580  13.540   1.672  1.00  0.00     0.047 C 
ATOM      4  C   UNL     1     -14.383  14.669   2.639  1.00  0.00     0.159 C 
ATOM      5  O   UNL     1     -14.361  14.491   3.885  1.00  0.00    -0.295 OA
ATOM      6  C   UNL     1     -14.211  16.050   2.006  1.00  0.00     0.067 C 
ATOM      7  C   UNL     1     -13.210  15.817   0.854  1.00  0.00     0.021 C 
ATOM      8  C   UNL     1     -14.422  15.369   0.007  1.00  0.00     0.022 C 
ATOM      9  C   UNL     1     -15.318  16.243   0.931  1.00  0.00    -0.019 C 
ATOM     10  C   UNL     1     -15.415  17.710   0.441  1.00  0.00     0.012 C 
ATOM     11  C   UNL     1     -16.754  15.741   1.251  1.00  0.00     0.012 C 
ENDROOT
TORSDOF 0
ENDMDL
MODEL 2
REMARK VINA RESULT:    -5.176      1.858      3.087
REMARK INTER + INTRA:          -5.176
REMARK INTER:                  -5.176
REMARK INTRA:                   0.000
REMARK UNBOUND:                 0.000
REMARK SMILES CC1=CC(=O)[C@H]2C[C@@H]1C2(C)C
REMARK SMILES IDX 1 1 2 2 3 3 4 4 5 5 6 6 7 7 8 8 9 9 10 10 11 11
REMARK H PARENT
REMARK Flexibility Score: inf
ROOT
ATOM      1  C   UNL     1     -13.439  13.464   3.855  1.00  0.00     0.040 C 
ATOM      2  C   UNL     1     -14.000  13.792   2.508  1.00  0.00    -0.066 C 
ATOM      3  C   UNL     1     -14.129  12.839   1.543  1.00  0.00     0.047 C 
ATOM      4  C   UNL     1     -14.675  13.300   0.226  1.00  0.00     0.159 C 
ATOM      5  O   UNL     1     -14.806  12.523  -0.757  1.00  0.00    -0.295 OA
ATOM      6  C   UNL     1     -15.062  14.777   0.158  1.00  0.00     0.067 C 
ATOM      7  C   UNL     1     -15.847  15.023   1.464  1.00  0.00     0.021 C 
ATOM      8  C   UNL     1     -14.476  15.217   2.150  1.00  0.00     0.022 C 
ATOM      9  C   UNL     1     -13.903  15.620   0.761  1.00  0.00    -0.019 C 
ATOM     10  C   UNL     1     -14.064  17.135   0.475  1.00  0.00     0.012 C 
ATOM     11  C   UNL     1     -12.440  15.215   0.423  1.00  0.00     0.012 C 
ENDROOT
TORSDOF 0
ENDMDL
MODEL 3
REMARK VINA RESULT:    -4.588      1.733      3.540
REMARK INTER + INTRA:          -4.588
REMARK INTER:                  -4.588
REMARK INTRA:                   0.000
REMARK UNBOUND:                 0.000
REMARK SMILES CC1=CC(=O)[C@H]2C[C@@H]1C2(C)C
REMARK SMILES IDX 1 1 2 2 3 3 4 4 5 5 6 6 7 7 8 8 9 9 10 10 11 11
REMARK H PARENT
REMARK Flexibility Score: inf
ROOT
ATOM      1  C   UNL     1     -16.640  16.223   1.117  1.00  0.00     0.040 C 
ATOM      2  C   UNL     1     -15.315  15.529   1.143  1.00  0.00    -0.066 C 
ATOM      3  C   UNL     1     -14.235  16.040   0.491  1.00  0.00     0.047 C 
ATOM      4  C   UNL     1     -12.973  15.235   0.567  1.00  0.00     0.159 C 
ATOM      5  O   UNL     1     -11.917  15.581  -0.025  1.00  0.00    -0.295 OA
ATOM      6  C   UNL     1     -13.056  13.965   1.415  1.00  0.00     0.067 C 
ATOM      7  C   UNL     1     -13.782  14.416   2.701  1.00  0.00     0.021 C 
ATOM      8  C   UNL     1     -15.102  14.214   1.924  1.00  0.00     0.022 C 
ATOM      9  C   UNL     1     -14.349  13.194   1.023  1.00  0.00    -0.019 C 
ATOM     10  C   UNL     1     -14.378  11.758   1.606  1.00  0.00     0.012 C 
ATOM     11  C   UNL     1     -14.735  13.116  -0.481  1.00  0.00     0.012 C 
ENDROOT
TORSDOF 0
ENDMDL
MODEL 4
REMARK VINA RESULT:    -4.504      4.282      6.066
REMARK INTER + INTRA:          -4.504
REMARK INTER:                  -4.504
REMARK INTRA:                   0.000
REMARK UNBOUND:                 0.000
REMARK SMILES CC1=CC(=O)[C@H]2C[C@@H]1C2(C)C
REMARK SMILES IDX 1 1 2 2 3 3 4 4 5 5 6 6 7 7 8 8 9 9 10 10 11 11
REMARK H PARENT
REMARK Flexibility Score: inf
ROOT
ATOM      1  C   UNL     1     -15.208  10.984   7.489  1.00  0.00     0.040 C 
ATOM      2  C   UNL     1     -14.170  11.329   6.467  1.00  0.00    -0.066 C 
ATOM      3  C   UNL     1     -13.288  12.347   6.671  1.00  0.00     0.047 C 
ATOM      4  C   UNL     1     -12.318  12.614   5.560  1.00  0.00     0.159 C 
ATOM      5  O   UNL     1     -11.478  13.551   5.611  1.00  0.00    -0.295 OA
ATOM      6  C   UNL     1     -12.419  11.671   4.360  1.00  0.00     0.067 C 
ATOM      7  C   UNL     1     -12.524  10.266   4.992  1.00  0.00     0.021 C 
ATOM      8  C   UNL     1     -14.037  10.543   5.145  1.00  0.00     0.022 C 
ATOM      9  C   UNL     1     -13.916  11.542   3.959  1.00  0.00    -0.019 C 
ATOM     10  C   UNL     1     -14.101  10.849   2.584  1.00  0.00     0.012 C 
ATOM     11  C   UNL     1     -14.801  12.820   3.981  1.00  0.00     0.012 C 
ENDROOT
TORSDOF 0
ENDMDL
MODEL 5
REMARK VINA RESULT:    -4.326      4.065      5.832
REMARK INTER + INTRA:          -4.326
REMARK INTER:                  -4.326
REMARK INTRA:                   0.000
REMARK UNBOUND:                 0.000
REMARK SMILES CC1=CC(=O)[C@H]2C[C@@H]1C2(C)C
REMARK SMILES IDX 1 1 2 2 3 3 4 4 5 5 6 6 7 7 8 8 9 9 10 10 11 11
REMARK H PARENT
REMARK Flexibility Score: inf
ROOT
ATOM      1  C   UNL     1     -14.732  14.298   3.505  1.00  0.00     0.040 C 
ATOM      2  C   UNL     1     -13.918  13.175   4.068  1.00  0.00    -0.066 C 
ATOM      3  C   UNL     1     -13.620  12.075   3.323  1.00  0.00     0.047 C 
ATOM      4  C   UNL     1     -12.825  11.006   4.010  1.00  0.00     0.159 C 
ATOM      5  O   UNL     1     -12.519   9.925   3.442  1.00  0.00    -0.295 OA
ATOM      6  C   UNL     1     -12.410  11.320   5.448  1.00  0.00     0.067 C 
ATOM      7  C   UNL     1     -11.888  12.771   5.383  1.00  0.00     0.021 C 
ATOM      8  C   UNL     1     -13.362  13.216   5.507  1.00  0.00     0.022 C 
ATOM      9  C   UNL     1     -13.652  11.861   6.213  1.00  0.00    -0.019 C 
ATOM     10  C   UNL     1     -13.417  11.930   7.744  1.00  0.00     0.012 C 
ATOM     11  C   UNL     1     -15.028  11.181   5.963  1.00  0.00     0.012 C 
ENDROOT
TORSDOF 0
ENDMDL
MODEL 6
REMARK VINA RESULT:    -4.316      1.858      3.388
REMARK INTER + INTRA:          -4.316
REMARK INTER:                  -4.316
REMARK INTRA:                   0.000
REMARK UNBOUND:                 0.000
REMARK SMILES CC1=CC(=O)[C@H]2C[C@@H]1C2(C)C
REMARK SMILES IDX 1 1 2 2 3 3 4 4 5 5 6 6 7 7 8 8 9 9 10 10 11 11
REMARK H PARENT
REMARK Flexibility Score: inf
ROOT
ATOM      1  C   UNL     1     -15.100  14.389   3.819  1.00  0.00     0.040 C 
ATOM      2  C   UNL     1     -14.533  14.531   2.441  1.00  0.00    -0.066 C 
ATOM      3  C   UNL     1     -14.292  15.756   1.897  1.00  0.00     0.047 C 
ATOM      4  C   UNL     1     -13.752  15.765   0.499  1.00  0.00     0.159 C 
ATOM      5  O   UNL     1     -13.525  16.834  -0.127  1.00  0.00    -0.295 OA
ATOM      6  C   UNL     1     -13.496  14.388  -0.113  1.00  0.00     0.067 C 
ATOM      7  C   UNL     1     -12.773  13.605   1.004  1.00  0.00     0.021 C 
ATOM      8  C   UNL     1     -14.175  13.301   1.579  1.00  0.00     0.022 C 
ATOM      9  C   UNL     1     -14.743  13.494   0.143  1.00  0.00    -0.019 C 
ATOM     10  C   UNL     1     -14.709  12.183  -0.685  1.00  0.00     0.012 C 
ATOM     11  C   UNL     1     -16.153  14.130  -0.011  1.00  0.00     0.012 C 
ENDROOT
TORSDOF 0
ENDMDL
MODEL 7
REMARK VINA RESULT:    -4.166      3.088      4.969
REMARK INTER + INTRA:          -4.166
REMARK INTER:                  -4.166
REMARK INTRA:                   0.000
REMARK UNBOUND:                 0.000
REMARK SMILES CC1=CC(=O)[C@H]2C[C@@H]1C2(C)C
REMARK SMILES IDX 1 1 2 2 3 3 4 4 5 5 6 6 7 7 8 8 9 9 10 10 11 11
REMARK H PARENT
REMARK Flexibility Score: inf
ROOT
ATOM      1  C   UNL     1     -12.702  10.310   2.191  1.00  0.00     0.040 C 
ATOM      2  C   UNL     1     -13.268  11.489   2.918  1.00  0.00    -0.066 C 
ATOM      3  C   UNL     1     -13.440  12.688   2.296  1.00  0.00     0.047 C 
ATOM      4  C   UNL     1     -13.987  13.799   3.140  1.00  0.00     0.159 C 
ATOM      5  O   UNL     1     -14.155  14.964   2.692  1.00  0.00    -0.295 OA
ATOM      6  C   UNL     1     -14.326  13.421   4.582  1.00  0.00     0.067 C 
ATOM      7  C   UNL     1     -15.087  12.083   4.452  1.00  0.00     0.021 C 
ATOM      8  C   UNL     1     -13.702  11.400   4.397  1.00  0.00     0.022 C 
ATOM      9  C   UNL     1     -13.132  12.620   5.176  1.00  0.00    -0.019 C 
ATOM     10  C   UNL     1     -13.247  12.444   6.712  1.00  0.00     0.012 C 
ATOM     11  C   UNL     1     -11.688  13.094   4.848  1.00  0.00     0.012 C 
ENDROOT
TORSDOF 0
ENDMDL
MODEL 8
REMARK VINA RESULT:    -4.087      1.818      3.032
REMARK INTER + INTRA:          -4.087
REMARK INTER:                  -4.087
REMARK INTRA:                   0.000
REMARK UNBOUND:                 0.000
REMARK SMILES CC1=CC(=O)[C@H]2C[C@@H]1C2(C)C
REMARK SMILES IDX 1 1 2 2 3 3 4 4 5 5 6 6 7 7 8 8 9 9 10 10 11 11
REMARK H PARENT
REMARK Flexibility Score: inf
ROOT
ATOM      1  C   UNL     1     -14.754  11.849  -0.471  1.00  0.00     0.040 C 
ATOM      2  C   UNL     1     -14.501  13.186   0.151  1.00  0.00    -0.066 C 
ATOM      3  C   UNL     1     -13.629  14.072  -0.405  1.00  0.00     0.047 C 
ATOM      4  C   UNL     1     -13.439  15.364   0.329  1.00  0.00     0.159 C 
ATOM      5  O   UNL     1     -12.633  16.248  -0.061  1.00  0.00    -0.295 OA
ATOM      6  C   UNL     1     -14.293  15.535   1.586  1.00  0.00     0.067 C 
ATOM      7  C   UNL     1     -15.702  15.076   1.151  1.00  0.00     0.021 C 
ATOM      8  C   UNL     1     -15.227  13.634   1.438  1.00  0.00     0.022 C 
ATOM      9  C   UNL     1     -14.192  14.234   2.433  1.00  0.00    -0.019 C 
ATOM     10  C   UNL     1     -14.777  14.410   3.857  1.00  0.00     0.012 C 
ATOM     11  C   UNL     1     -12.806  13.540   2.559  1.00  0.00     0.012 C 
ENDROOT
TORSDOF 0
ENDMDL
MODEL 9
REMARK VINA RESULT:    -3.964      5.850      7.420
REMARK INTER + INTRA:          -3.964
REMARK INTER:                  -3.964
REMARK INTRA:                   0.000
REMARK UNBOUND:                 0.000
REMARK SMILES CC1=CC(=O)[C@H]2C[C@@H]1C2(C)C
REMARK SMILES IDX 1 1 2 2 3 3 4 4 5 5 6 6 7 7 8 8 9 9 10 10 11 11
REMARK H PARENT
REMARK Flexibility Score: inf
ROOT
ATOM      1  C   UNL     1     -16.216  10.548   7.860  1.00  0.00     0.040 C 
ATOM      2  C   UNL     1     -14.773  10.633   7.473  1.00  0.00    -0.066 C 
ATOM      3  C   UNL     1     -13.782  10.454   8.390  1.00  0.00     0.047 C 
ATOM      4  C   UNL     1     -12.378  10.596   7.885  1.00  0.00     0.159 C 
ATOM      5  O   UNL     1     -11.377  10.492   8.642  1.00  0.00    -0.295 OA
ATOM      6  C   UNL     1     -12.246  10.876   6.388  1.00  0.00     0.067 C 
ATOM      7  C   UNL     1     -13.223   9.878   5.729  1.00  0.00     0.021 C 
ATOM      8  C   UNL     1     -14.336  10.909   6.018  1.00  0.00     0.022 C 
ATOM      9  C   UNL     1     -13.239  12.012   6.008  1.00  0.00    -0.019 C 
ATOM     10  C   UNL     1     -12.978  12.571   4.586  1.00  0.00     0.012 C 
ATOM     11  C   UNL     1     -13.394  13.214   6.982  1.00  0.00     0.012 C 
ENDROOT
TORSDOF 0
ENDMDL
