MODEL 1
REMARK VINA RESULT:     0.809      0.000      0.000
REMARK INTER + INTRA:           0.884
REMARK INTER:                   1.471
REMARK INTRA:                  -0.587
REMARK UNBOUND:                -0.587
REMARK SMILES CCCCCCCCCCCCCC[C@@H](C)C(=O)[O-]
REMARK SMILES IDX 9 1 10 2 11 3 12 4 13 5 14 6 15 7 16 8 17 9 18 10 19 11 8 12
REMARK SMILES IDX 7 13 6 14 5 15 4 16 3 17 2 18 1 19
REMARK H PARENT
REMARK Flexibility Score: inf
ROOT
ATOM      1  C   UNL     1      -5.480  35.110  20.757  1.00  0.00     0.000 C 
ENDROOT
BRANCH   1   2
ATOM      2  C   UNL     1      -4.445  34.873  21.871  1.00  0.00     0.000 C 
BRANCH   2   3
ATOM      3  C   UNL     1      -4.868  33.772  22.856  1.00  0.00     0.000 C 
BRANCH   3   4
ATOM      4  C   UNL     1      -6.078  34.218  23.689  1.00  0.00     0.000 C 
BRANCH   4   5
ATOM      5  C   UNL     1      -5.750  35.383  24.637  1.00  0.00     0.001 C 
BRANCH   5   6
ATOM      6  C   UNL     1      -6.125  36.754  24.039  1.00  0.00     0.009 C 
BRANCH   6   7
ATOM      7  C   UNL     1      -5.571  37.964  24.825  1.00  0.00     0.032 C 
ATOM      8  C   UNL     1      -4.440  37.580  25.793  1.00  0.00     0.014 C 
BRANCH   7   9
ATOM      9  C   UNL     1      -5.169  39.089  23.908  1.00  0.00     0.044 C 
ATOM     10  O   UNL     1      -4.689  40.159  24.369  1.00  0.00    -0.550 OA
ATOM     11  O   UNL     1      -5.277  38.927  22.532  1.00  0.00    -0.550 OA
ENDBRANCH   7   9
ENDBRANCH   6   7
ENDBRANCH   5   6
ENDBRANCH   4   5
ENDBRANCH   3   4
ENDBRANCH   2   3
ENDBRANCH   1   2
BRANCH   1  12
ATOM     12  C   UNL     1      -4.899  35.628  19.425  1.00  0.00     0.000 C 
BRANCH  12  13
ATOM     13  C   UNL     1      -4.909  34.612  18.269  1.00  0.00    -0.000 C 
BRANCH  13  14
ATOM     14  C   UNL     1      -3.695  34.755  17.338  1.00  0.00    -0.000 C 
BRANCH  14  15
ATOM     15  C   UNL     1      -4.024  35.664  16.145  1.00  0.00    -0.000 C 
BRANCH  15  16
ATOM     16  C   UNL     1      -2.776  36.052  15.334  1.00  0.00    -0.000 C 
BRANCH  16  17
ATOM     17  C   UNL     1      -3.116  36.516  13.910  1.00  0.00    -0.000 C 
BRANCH  17  18
ATOM     18  C   UNL     1      -4.455  37.262  13.881  1.00  0.00    -0.003 C 
ATOM     19  C   UNL     1      -4.299  38.696  14.380  1.00  0.00     0.004 C 
ENDBRANCH  17  18
ENDBRANCH  16  17
ENDBRANCH  15  16
ENDBRANCH  14  15
ENDBRANCH  13  14
ENDBRANCH  12  13
ENDBRANCH   1  12
TORSDOF 14
ENDMDL
MODEL 2
REMARK VINA RESULT:     1.095      3.156      8.193
REMARK INTER + INTRA:           1.405
REMARK INTER:                   1.935
REMARK INTRA:                  -0.531
REMARK UNBOUND:                -0.587
REMARK SMILES CCCCCCCCCCCCCC[C@@H](C)C(=O)[O-]
REMARK SMILES IDX 9 1 10 2 11 3 12 4 13 5 14 6 15 7 16 8 17 9 18 10 19 11 8 12
REMARK SMILES IDX 7 13 6 14 5 15 4 16 3 17 2 18 1 19
REMARK H PARENT
REMARK Flexibility Score: inf
ROOT
ATOM      1  C   UNL     1      -4.661  35.074  22.184  1.00  0.00     0.000 C 
ENDROOT
BRANCH   1   2
ATOM      2  C   UNL     1      -5.252  35.466  20.817  1.00  0.00     0.000 C 
BRANCH   2   3
ATOM      3  C   UNL     1      -4.309  35.155  19.647  1.00  0.00     0.000 C 
BRANCH   3   4
ATOM      4  C   UNL     1      -5.100  34.701  18.411  1.00  0.00     0.000 C 
BRANCH   4   5
ATOM      5  C   UNL     1      -4.256  34.719  17.126  1.00  0.00     0.001 C 
BRANCH   5   6
ATOM      6  C   UNL     1      -4.223  36.110  16.460  1.00  0.00     0.009 C 
BRANCH   6   7
ATOM      7  C   UNL     1      -3.721  36.104  14.999  1.00  0.00     0.032 C 
ATOM      8  C   UNL     1      -4.162  37.348  14.211  1.00  0.00     0.014 C 
BRANCH   7   9
ATOM      9  C   UNL     1      -2.231  35.889  14.922  1.00  0.00     0.044 C 
ATOM     10  O   UNL     1      -1.546  36.431  14.014  1.00  0.00    -0.550 OA
ATOM     11  O   UNL     1      -1.596  35.128  15.895  1.00  0.00    -0.550 OA
ENDBRANCH   7   9
ENDBRANCH   6   7
ENDBRANCH   5   6
ENDBRANCH   4   5
ENDBRANCH   3   4
ENDBRANCH   2   3
ENDBRANCH   1   2
BRANCH   1  12
ATOM     12  C   UNL     1      -5.521  34.096  23.011  1.00  0.00     0.000 C 
BRANCH  12  13
ATOM     13  C   UNL     1      -6.122  34.683  24.300  1.00  0.00    -0.000 C 
BRANCH  13  14
ATOM     14  C   UNL     1      -6.102  36.219  24.322  1.00  0.00    -0.000 C 
BRANCH  14  15
ATOM     15  C   UNL     1      -5.040  36.738  25.303  1.00  0.00    -0.000 C 
BRANCH  15  16
ATOM     16  C   UNL     1      -4.867  38.265  25.235  1.00  0.00    -0.000 C 
BRANCH  16  17
ATOM     17  C   UNL     1      -5.774  38.917  24.181  1.00  0.00    -0.000 C 
BRANCH  17  18
ATOM     18  C   UNL     1      -4.949  39.465  23.011  1.00  0.00    -0.003 C 
ATOM     19  C   UNL     1      -5.812  39.652  21.766  1.00  0.00     0.004 C 
ENDBRANCH  17  18
ENDBRANCH  16  17
ENDBRANCH  15  16
ENDBRANCH  14  15
ENDBRANCH  13  14
ENDBRANCH  12  13
ENDBRANCH   1  12
TORSDOF 14
ENDMDL
MODEL 3
REMARK VINA RESULT:     1.212      1.679      2.685
REMARK INTER + INTRA:           1.616
REMARK INTER:                   2.712
REMARK INTRA:                  -1.096
REMARK UNBOUND:                -0.587
REMARK SMILES CCCCCCCCCCCCCC[C@@H](C)C(=O)[O-]
REMARK SMILES IDX 9 1 10 2 11 3 12 4 13 5 14 6 15 7 16 8 17 9 18 10 19 11 8 12
REMARK SMILES IDX 7 13 6 14 5 15 4 16 3 17 2 18 1 19
REMARK H PARENT
REMARK Flexibility Score: inf
ROOT
ATOM      1  C   UNL     1      -4.603  35.459  20.480  1.00  0.00     0.000 C 
ENDROOT
BRANCH   1   2
ATOM      2  C   UNL     1      -5.749  36.466  20.268  1.00  0.00     0.000 C 
BRANCH   2   3
ATOM      3  C   UNL     1      -5.255  37.849  19.820  1.00  0.00     0.000 C 
BRANCH   3   4
ATOM      4  C   UNL     1      -5.242  38.834  20.998  1.00  0.00     0.000 C 
BRANCH   4   5
ATOM      5  C   UNL     1      -6.125  38.371  22.169  1.00  0.00     0.001 C 
BRANCH   5   6
ATOM      6  C   UNL     1      -5.364  38.354  23.511  1.00  0.00     0.009 C 
BRANCH   6   7
ATOM      7  C   UNL     1      -5.875  37.300  24.519  1.00  0.00     0.032 C 
ATOM      8  C   UNL     1      -6.125  35.929  23.872  1.00  0.00     0.014 C 
BRANCH   7   9
ATOM      9  C   UNL     1      -4.977  37.199  25.724  1.00  0.00     0.044 C 
ATOM     10  O   UNL     1      -4.290  36.164  25.933  1.00  0.00    -0.550 OA
ATOM     11  O   UNL     1      -4.863  38.280  26.589  1.00  0.00    -0.550 OA
ENDBRANCH   7   9
ENDBRANCH   6   7
ENDBRANCH   5   6
ENDBRANCH   4   5
ENDBRANCH   3   4
ENDBRANCH   2   3
ENDBRANCH   1   2
BRANCH   1  12
ATOM     12  C   UNL     1      -4.563  34.293  19.470  1.00  0.00     0.000 C 
BRANCH  12  13
ATOM     13  C   UNL     1      -5.061  34.637  18.055  1.00  0.00    -0.000 C 
BRANCH  13  14
ATOM     14  C   UNL     1      -3.970  34.486  16.985  1.00  0.00    -0.000 C 
BRANCH  14  15
ATOM     15  C   UNL     1      -3.617  35.847  16.366  1.00  0.00    -0.000 C 
BRANCH  15  16
ATOM     16  C   UNL     1      -2.503  35.748  15.311  1.00  0.00    -0.000 C 
BRANCH  16  17
ATOM     17  C   UNL     1      -2.933  36.298  13.943  1.00  0.00    -0.000 C 
BRANCH  17  18
ATOM     18  C   UNL     1      -4.330  36.925  14.018  1.00  0.00    -0.003 C 
ATOM     19  C   UNL     1      -4.248  38.431  14.253  1.00  0.00     0.004 C 
ENDBRANCH  17  18
ENDBRANCH  16  17
ENDBRANCH  15  16
ENDBRANCH  14  15
ENDBRANCH  13  14
ENDBRANCH  12  13
ENDBRANCH   1  12
TORSDOF 14
ENDMDL
MODEL 4
REMARK VINA RESULT:     1.283      1.891      3.877
REMARK INTER + INTRA:           1.746
REMARK INTER:                   2.498
REMARK INTRA:                  -0.752
REMARK UNBOUND:                -0.587
REMARK SMILES CCCCCCCCCCCCCC[C@@H](C)C(=O)[O-]
REMARK SMILES IDX 9 1 10 2 11 3 12 4 13 5 14 6 15 7 16 8 17 9 18 10 19 11 8 12
REMARK SMILES IDX 7 13 6 14 5 15 4 16 3 17 2 18 1 19
REMARK H PARENT
REMARK Flexibility Score: inf
ROOT
ATOM      1  C   UNL     1      -3.027  35.171  17.172  1.00  0.00     0.000 C 
ENDROOT
BRANCH   1   2
ATOM      2  C   UNL     1      -4.550  34.952  17.221  1.00  0.00     0.000 C 
BRANCH   2   3
ATOM      3  C   UNL     1      -4.987  34.053  18.387  1.00  0.00     0.000 C 
BRANCH   3   4
ATOM      4  C   UNL     1      -5.871  34.828  19.374  1.00  0.00     0.000 C 
BRANCH   4   5
ATOM      5  C   UNL     1      -5.059  35.723  20.325  1.00  0.00     0.001 C 
BRANCH   5   6
ATOM      6  C   UNL     1      -5.222  35.315  21.803  1.00  0.00     0.009 C 
BRANCH   6   7
ATOM      7  C   UNL     1      -5.271  36.504  22.789  1.00  0.00     0.032 C 
ATOM      8  C   UNL     1      -6.084  37.692  22.251  1.00  0.00     0.014 C 
BRANCH   7   9
ATOM      9  C   UNL     1      -5.737  36.076  24.156  1.00  0.00     0.044 C 
ATOM     10  O   UNL     1      -5.827  36.909  25.098  1.00  0.00    -0.550 OA
ATOM     11  O   UNL     1      -6.125  34.760  24.370  1.00  0.00    -0.550 OA
ENDBRANCH   7   9
ENDBRANCH   6   7
ENDBRANCH   5   6
ENDBRANCH   4   5
ENDBRANCH   3   4
ENDBRANCH   2   3
ENDBRANCH   1   2
BRANCH   1  12
ATOM     12  C   UNL     1      -2.378  34.937  15.792  1.00  0.00     0.000 C 
BRANCH  12  13
ATOM     13  C   UNL     1      -2.187  36.202  14.936  1.00  0.00    -0.000 C 
BRANCH  13  14
ATOM     14  C   UNL     1      -3.290  36.383  13.884  1.00  0.00    -0.000 C 
BRANCH  14  15
ATOM     15  C   UNL     1      -4.418  37.277  14.420  1.00  0.00    -0.000 C 
BRANCH  15  16
ATOM     16  C   UNL     1      -4.087  38.775  14.314  1.00  0.00    -0.000 C 
BRANCH  16  17
ATOM     17  C   UNL     1      -5.304  39.624  13.916  1.00  0.00    -0.000 C 
BRANCH  17  18
ATOM     18  C   UNL     1      -5.028  41.116  14.138  1.00  0.00    -0.003 C 
ATOM     19  C   UNL     1      -5.982  41.706  15.172  1.00  0.00     0.004 C 
ENDBRANCH  17  18
ENDBRANCH  16  17
ENDBRANCH  15  16
ENDBRANCH  14  15
ENDBRANCH  13  14
ENDBRANCH  12  13
ENDBRANCH   1  12
TORSDOF 14
ENDMDL
MODEL 5
REMARK VINA RESULT:     1.283      3.212      8.040
REMARK INTER + INTRA:           1.747
REMARK INTER:                   2.661
REMARK INTRA:                  -0.914
REMARK UNBOUND:                -0.587
REMARK SMILES CCCCCCCCCCCCCC[C@@H](C)C(=O)[O-]
REMARK SMILES IDX 9 1 10 2 11 3 12 4 13 5 14 6 15 7 16 8 17 9 18 10 19 11 8 12
REMARK SMILES IDX 7 13 6 14 5 15 4 16 3 17 2 18 1 19
REMARK H PARENT
REMARK Flexibility Score: inf
ROOT
ATOM      1  C   UNL     1      -5.045  35.747  21.913  1.00  0.00     0.000 C 
ENDROOT
BRANCH   1   2
ATOM      2  C   UNL     1      -5.697  35.272  20.601  1.00  0.00     0.000 C 
BRANCH   2   3
ATOM      3  C   UNL     1      -4.690  34.646  19.625  1.00  0.00     0.000 C 
BRANCH   3   4
ATOM      4  C   UNL     1      -5.000  35.058  18.179  1.00  0.00     0.000 C 
BRANCH   4   5
ATOM      5  C   UNL     1      -3.795  35.700  17.473  1.00  0.00     0.001 C 
BRANCH   5   6
ATOM      6  C   UNL     1      -3.817  35.477  15.947  1.00  0.00     0.009 C 
BRANCH   6   7
ATOM      7  C   UNL     1      -3.235  36.648  15.124  1.00  0.00     0.032 C 
ATOM      8  C   UNL     1      -2.019  36.237  14.279  1.00  0.00     0.014 C 
BRANCH   7   9
ATOM      9  C   UNL     1      -4.293  37.327  14.293  1.00  0.00     0.044 C 
ATOM     10  O   UNL     1      -5.303  36.691  13.888  1.00  0.00    -0.550 OA
ATOM     11  O   UNL     1      -4.183  38.683  14.016  1.00  0.00    -0.550 OA
ENDBRANCH   7   9
ENDBRANCH   6   7
ENDBRANCH   5   6
ENDBRANCH   4   5
ENDBRANCH   3   4
ENDBRANCH   2   3
ENDBRANCH   1   2
BRANCH   1  12
ATOM     12  C   UNL     1      -5.003  34.694  23.040  1.00  0.00     0.000 C 
BRANCH  12  13
ATOM     13  C   UNL     1      -5.854  35.029  24.278  1.00  0.00    -0.000 C 
BRANCH  13  14
ATOM     14  C   UNL     1      -6.125  36.533  24.428  1.00  0.00    -0.000 C 
BRANCH  14  15
ATOM     15  C   UNL     1      -4.901  37.255  25.011  1.00  0.00    -0.000 C 
BRANCH  15  16
ATOM     16  C   UNL     1      -4.761  38.696  24.492  1.00  0.00    -0.000 C 
BRANCH  16  17
ATOM     17  C   UNL     1      -5.892  39.093  23.532  1.00  0.00    -0.000 C 
BRANCH  17  18
ATOM     18  C   UNL     1      -5.334  39.798  22.290  1.00  0.00    -0.003 C 
ATOM     19  C   UNL     1      -5.483  38.926  21.046  1.00  0.00     0.004 C 
ENDBRANCH  17  18
ENDBRANCH  16  17
ENDBRANCH  15  16
ENDBRANCH  14  15
ENDBRANCH  13  14
ENDBRANCH  12  13
ENDBRANCH   1  12
TORSDOF 14
ENDMDL
MODEL 6
REMARK VINA RESULT:     1.523      3.068      8.420
REMARK INTER + INTRA:           2.183
REMARK INTER:                   2.821
REMARK INTRA:                  -0.638
REMARK UNBOUND:                -0.587
REMARK SMILES CCCCCCCCCCCCCC[C@@H](C)C(=O)[O-]
REMARK SMILES IDX 9 1 10 2 11 3 12 4 13 5 14 6 15 7 16 8 17 9 18 10 19 11 8 12
REMARK SMILES IDX 7 13 6 14 5 15 4 16 3 17 2 18 1 19
REMARK H PARENT
REMARK Flexibility Score: inf
ROOT
ATOM      1  C   UNL     1      -5.043  37.399  21.061  1.00  0.00     0.000 C 
ENDROOT
BRANCH   1   2
ATOM      2  C   UNL     1      -5.079  36.806  19.641  1.00  0.00     0.000 C 
BRANCH   2   3
ATOM      3  C   UNL     1      -4.552  35.365  19.581  1.00  0.00     0.000 C 
BRANCH   3   4
ATOM      4  C   UNL     1      -4.829  34.736  18.209  1.00  0.00     0.000 C 
BRANCH   4   5
ATOM      5  C   UNL     1      -4.579  35.712  17.047  1.00  0.00     0.001 C 
BRANCH   5   6
ATOM      6  C   UNL     1      -3.306  35.365  16.248  1.00  0.00     0.009 C 
BRANCH   6   7
ATOM      7  C   UNL     1      -2.853  36.465  15.263  1.00  0.00     0.032 C 
ATOM      8  C   UNL     1      -1.907  35.939  14.173  1.00  0.00     0.014 C 
BRANCH   7   9
ATOM      9  C   UNL     1      -4.026  37.208  14.679  1.00  0.00     0.044 C 
ATOM     10  O   UNL     1      -4.989  36.587  14.154  1.00  0.00    -0.550 OA
ATOM     11  O   UNL     1      -4.075  38.594  14.766  1.00  0.00    -0.550 OA
ENDBRANCH   7   9
ENDBRANCH   6   7
ENDBRANCH   5   6
ENDBRANCH   4   5
ENDBRANCH   3   4
ENDBRANCH   2   3
ENDBRANCH   1   2
BRANCH   1  12
ATOM     12  C   UNL     1      -5.784  38.743  21.226  1.00  0.00     0.000 C 
BRANCH  12  13
ATOM     13  C   UNL     1      -4.994  39.837  21.966  1.00  0.00    -0.000 C 
BRANCH  13  14
ATOM     14  C   UNL     1      -5.252  39.839  23.480  1.00  0.00    -0.000 C 
BRANCH  14  15
ATOM     15  C   UNL     1      -6.099  38.626  23.893  1.00  0.00    -0.000 C 
BRANCH  15  16
ATOM     16  C   UNL     1      -5.336  37.655  24.810  1.00  0.00    -0.000 C 
BRANCH  16  17
ATOM     17  C   UNL     1      -6.124  36.368  25.096  1.00  0.00    -0.000 C 
BRANCH  17  18
ATOM     18  C   UNL     1      -5.412  35.147  24.500  1.00  0.00    -0.003 C 
ATOM     19  C   UNL     1      -6.123  34.651  23.244  1.00  0.00     0.004 C 
ENDBRANCH  17  18
ENDBRANCH  16  17
ENDBRANCH  15  16
ENDBRANCH  14  15
ENDBRANCH  13  14
ENDBRANCH  12  13
ENDBRANCH   1  12
TORSDOF 14
ENDMDL
MODEL 7
REMARK VINA RESULT:     1.577      1.244      1.963
REMARK INTER + INTRA:           2.281
REMARK INTER:                   3.313
REMARK INTRA:                  -1.033
REMARK UNBOUND:                -0.587
REMARK SMILES CCCCCCCCCCCCCC[C@@H](C)C(=O)[O-]
REMARK SMILES IDX 9 1 10 2 11 3 12 4 13 5 14 6 15 7 16 8 17 9 18 10 19 11 8 12
REMARK SMILES IDX 7 13 6 14 5 15 4 16 3 17 2 18 1 19
REMARK H PARENT
REMARK Flexibility Score: inf
ROOT
ATOM      1  C   UNL     1      -4.219  35.115  21.828  1.00  0.00     0.000 C 
ENDROOT
BRANCH   1   2
ATOM      2  C   UNL     1      -5.081  34.057  22.541  1.00  0.00     0.000 C 
BRANCH   2   3
ATOM      3  C   UNL     1      -6.125  34.674  23.484  1.00  0.00     0.000 C 
BRANCH   3   4
ATOM      4  C   UNL     1      -5.446  35.388  24.661  1.00  0.00     0.000 C 
BRANCH   4   5
ATOM      5  C   UNL     1      -5.703  36.904  24.665  1.00  0.00     0.001 C 
BRANCH   5   6
ATOM      6  C   UNL     1      -6.125  37.435  23.280  1.00  0.00     0.009 C 
BRANCH   6   7
ATOM      7  C   UNL     1      -5.910  38.953  23.088  1.00  0.00     0.032 C 
ATOM      8  C   UNL     1      -4.727  39.496  23.905  1.00  0.00     0.014 C 
BRANCH   7   9
ATOM      9  C   UNL     1      -5.804  39.322  21.631  1.00  0.00     0.044 C 
ATOM     10  O   UNL     1      -5.572  38.444  20.757  1.00  0.00    -0.550 OA
ATOM     11  O   UNL     1      -6.016  40.637  21.238  1.00  0.00    -0.550 OA
ENDBRANCH   7   9
ENDBRANCH   6   7
ENDBRANCH   5   6
ENDBRANCH   4   5
ENDBRANCH   3   4
ENDBRANCH   2   3
ENDBRANCH   1   2
BRANCH   1  12
ATOM     12  C   UNL     1      -4.105  34.943  20.299  1.00  0.00     0.000 C 
BRANCH  12  13
ATOM     13  C   UNL     1      -5.373  35.307  19.505  1.00  0.00    -0.000 C 
BRANCH  13  14
ATOM     14  C   UNL     1      -5.147  35.304  17.986  1.00  0.00    -0.000 C 
BRANCH  14  15
ATOM     15  C   UNL     1      -4.006  34.349  17.603  1.00  0.00    -0.000 C 
BRANCH  15  16
ATOM     16  C   UNL     1      -2.975  35.003  16.668  1.00  0.00    -0.000 C 
BRANCH  16  17
ATOM     17  C   UNL     1      -3.591  35.466  15.339  1.00  0.00    -0.000 C 
BRANCH  17  18
ATOM     18  C   UNL     1      -3.108  36.875  14.973  1.00  0.00    -0.003 C 
ATOM     19  C   UNL     1      -4.284  37.827  14.778  1.00  0.00     0.004 C 
ENDBRANCH  17  18
ENDBRANCH  16  17
ENDBRANCH  15  16
ENDBRANCH  14  15
ENDBRANCH  13  14
ENDBRANCH  12  13
ENDBRANCH   1  12
TORSDOF 14
ENDMDL
MODEL 8
REMARK VINA RESULT:     1.824      1.834      2.966
REMARK INTER + INTRA:           2.730
REMARK INTER:                   2.645
REMARK INTRA:                   0.085
REMARK UNBOUND:                -0.587
REMARK SMILES CCCCCCCCCCCCCC[C@@H](C)C(=O)[O-]
REMARK SMILES IDX 9 1 10 2 11 3 12 4 13 5 14 6 15 7 16 8 17 9 18 10 19 11 8 12
REMARK SMILES IDX 7 13 6 14 5 15 4 16 3 17 2 18 1 19
REMARK H PARENT
REMARK Flexibility Score: inf
ROOT
ATOM      1  C   UNL     1      -4.403  36.825  20.779  1.00  0.00     0.000 C 
ENDROOT
BRANCH   1   2
ATOM      2  C   UNL     1      -5.787  37.488  20.647  1.00  0.00     0.000 C 
BRANCH   2   3
ATOM      3  C   UNL     1      -5.707  39.014  20.496  1.00  0.00     0.000 C 
BRANCH   3   4
ATOM      4  C   UNL     1      -5.678  39.699  21.870  1.00  0.00     0.000 C 
BRANCH   4   5
ATOM      5  C   UNL     1      -6.125  38.767  23.008  1.00  0.00     0.001 C 
BRANCH   5   6
ATOM      6  C   UNL     1      -5.372  39.043  24.326  1.00  0.00     0.009 C 
BRANCH   6   7
ATOM      7  C   UNL     1      -4.822  37.777  25.021  1.00  0.00     0.032 C 
ATOM      8  C   UNL     1      -4.526  37.996  26.513  1.00  0.00     0.014 C 
BRANCH   7   9
ATOM      9  C   UNL     1      -5.713  36.584  24.793  1.00  0.00     0.044 C 
ATOM     10  O   UNL     1      -6.095  36.274  23.633  1.00  0.00    -0.550 OA
ATOM     11  O   UNL     1      -6.075  35.782  25.868  1.00  0.00    -0.550 OA
ENDBRANCH   7   9
ENDBRANCH   6   7
ENDBRANCH   5   6
ENDBRANCH   4   5
ENDBRANCH   3   4
ENDBRANCH   2   3
ENDBRANCH   1   2
BRANCH   1  12
ATOM     12  C   UNL     1      -4.186  35.583  19.890  1.00  0.00     0.000 C 
BRANCH  12  13
ATOM     13  C   UNL     1      -5.472  34.860  19.453  1.00  0.00    -0.000 C 
BRANCH  13  14
ATOM     14  C   UNL     1      -5.374  34.272  18.038  1.00  0.00    -0.000 C 
BRANCH  14  15
ATOM     15  C   UNL     1      -4.030  34.630  17.387  1.00  0.00    -0.000 C 
BRANCH  15  16
ATOM     16  C   UNL     1      -4.183  35.607  16.209  1.00  0.00    -0.000 C 
BRANCH  16  17
ATOM     17  C   UNL     1      -2.952  35.626  15.291  1.00  0.00    -0.000 C 
BRANCH  17  18
ATOM     18  C   UNL     1      -3.206  36.491  14.051  1.00  0.00    -0.003 C 
ATOM     19  C   UNL     1      -3.956  37.769  14.413  1.00  0.00     0.004 C 
ENDBRANCH  17  18
ENDBRANCH  16  17
ENDBRANCH  15  16
ENDBRANCH  14  15
ENDBRANCH  13  14
ENDBRANCH  12  13
ENDBRANCH   1  12
TORSDOF 14
ENDMDL
