MODEL 1
REMARK VINA RESULT:    -3.638      0.000      0.000
REMARK INTER + INTRA:          -5.886
REMARK INTER:                  -5.552
REMARK INTRA:                  -0.333
REMARK UNBOUND:                -0.333
REMARK SMILES CC1=CCC[C@@H](C)C(=O)C[C@@H](C(C)C)C(=O)C1
REMARK SMILES IDX 8 1 9 2 6 3 7 4 5 5 4 6 3 7 2 8 1 9 10 11 11 12 15 13 16 14
REMARK SMILES IDX 17 15 12 17 13 18 14 19
REMARK H PARENT
REMARK Flexibility Score: 70.00
ROOT
ATOM      1  C   UNL     1      29.816  31.481  28.428  1.00  0.00     0.136 C 
ATOM      2  O   UNL     1      29.533  30.291  28.477  1.00  0.00    -0.299 OA
ENDROOT
BRANCH   1   3
ATOM      3  C   UNL     1      28.922  32.496  29.108  1.00  0.00     0.053 C 
ATOM      4  C   UNL     1      29.205  33.888  28.532  1.00  0.00     0.016 C 
BRANCH   3   5
ATOM      5  C   UNL     1      29.106  32.509  30.644  1.00  0.00     0.015 C 
BRANCH   5   6
ATOM      6  C   UNL     1      29.799  33.772  31.177  1.00  0.00     0.028 C 
BRANCH   6   7
ATOM      7  C   UNL     1      31.101  33.436  31.863  1.00  0.00    -0.028 C 
ATOM      8  C   UNL     1      32.314  33.432  31.265  1.00  0.00    -0.070 CG0
ATOM      9  C   UNL     1      33.516  33.077  32.102  1.00  0.00     0.039 C 
ATOM     10  G   UNL     1      32.513  33.778  29.801  1.00  0.00     0.000 G0
ENDBRANCH   6   7
ENDBRANCH   5   6
ENDBRANCH   3   5
ENDBRANCH   1   3
BRANCH   1  11
ATOM     11  C   UNL     1      31.087  31.907  27.736  1.00  0.00     0.087 C 
BRANCH  11  12
ATOM     12  C   UNL     1      32.382  31.457  28.464  1.00  0.00     0.066 C 
BRANCH  12  13
ATOM     13  C   UNL     1      33.158  32.672  28.967  1.00  0.00     0.140 C 
ATOM     14  O   UNL     1      34.363  32.723  28.769  1.00  0.00    -0.299 OA
BRANCH  13  15
ATOM     15  C   UNL     1      32.524  33.778  29.788  1.00  0.00     0.106 CG0
ATOM     16  G   UNL     1      32.296  33.423  31.246  1.00  0.00     0.000 G0
ENDBRANCH  13  15
ENDBRANCH  12  13
BRANCH  12  17
ATOM     17  C   UNL     1      33.286  30.584  27.535  1.00  0.00    -0.006 C 
ATOM     18  C   UNL     1      33.591  29.214  28.166  1.00  0.00     0.008 C 
ATOM     19  C   UNL     1      32.652  30.360  26.150  1.00  0.00     0.008 C 
ENDBRANCH  12  17
ENDBRANCH  11  12
ENDBRANCH   1  11
TORSDOF 1
ENDMDL
MODEL 2
REMARK VINA RESULT:    -3.592     10.881     13.057
REMARK INTER + INTRA:          -5.815
REMARK INTER:                  -5.563
REMARK INTRA:                  -0.252
REMARK UNBOUND:                -0.333
REMARK SMILES CC1=CCC[C@@H](C)C(=O)C[C@@H](C(C)C)C(=O)C1
REMARK SMILES IDX 8 1 9 2 6 3 7 4 5 5 4 6 3 7 2 8 1 9 10 11 11 12 15 13 16 14
REMARK SMILES IDX 17 15 12 17 13 18 14 19
REMARK H PARENT
REMARK Flexibility Score: 70.00
ROOT
ATOM      1  C   UNL     1      17.870  29.046  30.008  1.00  0.00     0.136 C 
ATOM      2  O   UNL     1      17.913  28.406  31.050  1.00  0.00    -0.299 OA
ENDROOT
BRANCH   1   3
ATOM      3  C   UNL     1      18.345  28.414  28.716  1.00  0.00     0.053 C 
ATOM      4  C   UNL     1      17.343  27.341  28.277  1.00  0.00     0.016 C 
BRANCH   3   5
ATOM      5  C   UNL     1      19.760  27.801  28.844  1.00  0.00     0.015 C 
BRANCH   5   6
ATOM      6  C   UNL     1      20.888  28.843  28.871  1.00  0.00     0.028 C 
BRANCH   6   7
ATOM      7  C   UNL     1      21.525  28.928  30.236  1.00  0.00    -0.028 C 
ATOM      8  C   UNL     1      21.544  30.033  31.016  1.00  0.00    -0.070 CG0
ATOM      9  C   UNL     1      22.222  29.942  32.359  1.00  0.00     0.039 C 
ATOM     10  G   UNL     1      20.905  31.346  30.601  1.00  0.00     0.000 G0
ENDBRANCH   6   7
ENDBRANCH   5   6
ENDBRANCH   3   5
ENDBRANCH   1   3
BRANCH   1  11
ATOM     11  C   UNL     1      17.287  30.438  30.021  1.00  0.00     0.087 C 
BRANCH  11  12
ATOM     12  C   UNL     1      18.340  31.563  29.835  1.00  0.00     0.066 C 
BRANCH  12  13
ATOM     13  C   UNL     1      19.421  31.461  30.908  1.00  0.00     0.140 C 
ATOM     14  O   UNL     1      19.094  31.555  32.082  1.00  0.00    -0.299 OA
BRANCH  13  15
ATOM     15  C   UNL     1      20.899  31.346  30.589  1.00  0.00     0.106 CG0
ATOM     16  G   UNL     1      21.534  30.039  31.028  1.00  0.00     0.000 G0
ENDBRANCH  13  15
ENDBRANCH  12  13
BRANCH  12  17
ATOM     17  C   UNL     1      17.677  32.977  29.867  1.00  0.00    -0.006 C 
ATOM     18  C   UNL     1      18.652  34.071  29.396  1.00  0.00     0.008 C 
ATOM     19  C   UNL     1      16.404  33.043  29.003  1.00  0.00     0.008 C 
ENDBRANCH  12  17
ENDBRANCH  11  12
ENDBRANCH   1  11
TORSDOF 1
ENDMDL
MODEL 3
REMARK VINA RESULT:    -3.450      1.773      3.952
REMARK INTER + INTRA:          -5.598
REMARK INTER:                  -5.109
REMARK INTRA:                  -0.488
REMARK UNBOUND:                -0.333
REMARK SMILES CC1=CCC[C@@H](C)C(=O)C[C@@H](C(C)C)C(=O)C1
REMARK SMILES IDX 8 1 9 2 6 3 7 4 5 5 4 6 3 7 2 8 1 9 10 11 11 12 15 13 16 14
REMARK SMILES IDX 17 15 12 17 13 18 14 19
REMARK H PARENT
REMARK Flexibility Score: 70.00
ROOT
ATOM      1  C   UNL     1      32.725  30.417  28.331  1.00  0.00     0.136 C 
ATOM      2  O   UNL     1      33.300  29.345  28.463  1.00  0.00    -0.299 OA
ENDROOT
BRANCH   1   3
ATOM      3  C   UNL     1      33.024  31.290  27.130  1.00  0.00     0.053 C 
ATOM      4  C   UNL     1      32.841  30.470  25.848  1.00  0.00     0.016 C 
BRANCH   3   5
ATOM      5  C   UNL     1      34.449  31.892  27.178  1.00  0.00     0.015 C 
BRANCH   5   6
ATOM      6  C   UNL     1      34.511  33.289  27.813  1.00  0.00     0.028 C 
BRANCH   6   7
ATOM      7  C   UNL     1      35.061  33.231  29.217  1.00  0.00    -0.028 C 
ATOM      8  C   UNL     1      34.394  33.620  30.328  1.00  0.00    -0.070 CG0
ATOM      9  C   UNL     1      35.092  33.490  31.657  1.00  0.00     0.039 C 
ATOM     10  G   UNL     1      32.978  34.166  30.290  1.00  0.00     0.000 G0
ENDBRANCH   6   7
ENDBRANCH   5   6
ENDBRANCH   3   5
ENDBRANCH   1   3
BRANCH   1  11
ATOM     11  C   UNL     1      31.682  30.823  29.343  1.00  0.00     0.087 C 
BRANCH  11  12
ATOM     12  C   UNL     1      31.291  32.324  29.277  1.00  0.00     0.066 C 
BRANCH  12  13
ATOM     13  C   UNL     1      31.896  33.081  30.457  1.00  0.00     0.140 C 
ATOM     14  O   UNL     1      31.454  32.873  31.577  1.00  0.00    -0.299 OA
BRANCH  13  15
ATOM     15  C   UNL     1      32.955  34.154  30.298  1.00  0.00     0.106 CG0
ATOM     16  G   UNL     1      34.380  33.633  30.303  1.00  0.00     0.000 G0
ENDBRANCH  13  15
ENDBRANCH  12  13
BRANCH  12  17
ATOM     17  C   UNL     1      29.740  32.509  29.253  1.00  0.00    -0.006 C 
ATOM     18  C   UNL     1      29.341  33.864  28.641  1.00  0.00     0.008 C 
ATOM     19  C   UNL     1      29.031  31.386  28.473  1.00  0.00     0.008 C 
ENDBRANCH  12  17
ENDBRANCH  11  12
ENDBRANCH   1  11
TORSDOF 1
ENDMDL
MODEL 4
REMARK VINA RESULT:    -3.443      8.207     10.530
REMARK INTER + INTRA:          -5.588
REMARK INTER:                  -5.431
REMARK INTRA:                  -0.157
REMARK UNBOUND:                -0.333
REMARK SMILES CC1=CCC[C@@H](C)C(=O)C[C@@H](C(C)C)C(=O)C1
REMARK SMILES IDX 8 1 9 2 6 3 7 4 5 5 4 6 3 7 2 8 1 9 10 11 11 12 15 13 16 14
REMARK SMILES IDX 17 15 12 17 13 18 14 19
REMARK H PARENT
REMARK Flexibility Score: 70.00
ROOT
ATOM      1  C   UNL     1      22.515  28.026  29.049  1.00  0.00     0.136 C 
ATOM      2  O   UNL     1      22.333  26.883  28.653  1.00  0.00    -0.299 OA
ENDROOT
BRANCH   1   3
ATOM      3  C   UNL     1      23.759  28.779  28.627  1.00  0.00     0.053 C 
ATOM      4  C   UNL     1      24.303  28.176  27.327  1.00  0.00     0.016 C 
BRANCH   3   5
ATOM      5  C   UNL     1      24.856  28.766  29.719  1.00  0.00     0.015 C 
BRANCH   5   6
ATOM      6  C   UNL     1      24.560  29.694  30.907  1.00  0.00     0.028 C 
BRANCH   6   7
ATOM      7  C   UNL     1      24.439  31.132  30.464  1.00  0.00    -0.028 C 
ATOM      8  C   UNL     1      23.303  31.864  30.509  1.00  0.00    -0.070 CG0
ATOM      9  C   UNL     1      23.360  33.293  30.030  1.00  0.00     0.039 C 
ATOM     10  G   UNL     1      21.987  31.313  31.028  1.00  0.00     0.000 G0
ENDBRANCH   6   7
ENDBRANCH   5   6
ENDBRANCH   3   5
ENDBRANCH   1   3
BRANCH   1  11
ATOM     11  C   UNL     1      21.463  28.687  29.905  1.00  0.00     0.087 C 
BRANCH  11  12
ATOM     12  C   UNL     1      20.706  29.841  29.195  1.00  0.00     0.066 C 
BRANCH  12  13
ATOM     13  C   UNL     1      20.909  31.152  29.951  1.00  0.00     0.140 C 
ATOM     14  O   UNL     1      20.243  32.125  29.629  1.00  0.00    -0.299 OA
BRANCH  13  15
ATOM     15  C   UNL     1      21.968  31.337  31.020  1.00  0.00     0.106 CG0
ATOM     16  G   UNL     1      23.300  31.848  30.500  1.00  0.00     0.000 G0
ENDBRANCH  13  15
ENDBRANCH  12  13
BRANCH  12  17
ATOM     17  C   UNL     1      19.182  29.526  29.058  1.00  0.00    -0.006 C 
ATOM     18  C   UNL     1      18.916  28.490  27.951  1.00  0.00     0.008 C 
ATOM     19  C   UNL     1      18.574  29.010  30.375  1.00  0.00     0.008 C 
ENDBRANCH  12  17
ENDBRANCH  11  12
ENDBRANCH   1  11
TORSDOF 1
ENDMDL
MODEL 5
REMARK VINA RESULT:    -3.371     11.667     14.097
REMARK INTER + INTRA:          -5.478
REMARK INTER:                  -5.235
REMARK INTRA:                  -0.243
REMARK UNBOUND:                -0.333
REMARK SMILES CC1=CCC[C@@H](C)C(=O)C[C@@H](C(C)C)C(=O)C1
REMARK SMILES IDX 8 1 9 2 6 3 7 4 5 5 4 6 3 7 2 8 1 9 10 11 11 12 15 13 16 14
REMARK SMILES IDX 17 15 12 17 13 18 14 19
REMARK H PARENT
REMARK Flexibility Score: 70.00
ROOT
ATOM      1  C   UNL     1      16.806  28.833  31.192  1.00  0.00     0.136 C 
ATOM      2  O   UNL     1      16.746  28.030  32.113  1.00  0.00    -0.299 OA
ENDROOT
BRANCH   1   3
ATOM      3  C   UNL     1      16.312  28.439  29.816  1.00  0.00     0.053 C 
ATOM      4  C   UNL     1      14.897  27.861  29.930  1.00  0.00     0.016 C 
BRANCH   3   5
ATOM      5  C   UNL     1      17.248  27.422  29.121  1.00  0.00     0.015 C 
BRANCH   5   6
ATOM      6  C   UNL     1      18.274  28.066  28.177  1.00  0.00     0.028 C 
BRANCH   6   7
ATOM      7  C   UNL     1      19.687  27.807  28.640  1.00  0.00    -0.028 C 
ATOM      8  C   UNL     1      20.572  28.763  29.001  1.00  0.00    -0.070 CG0
ATOM      9  C   UNL     1      21.945  28.328  29.445  1.00  0.00     0.039 C 
ATOM     10  G   UNL     1      20.237  30.244  28.988  1.00  0.00     0.000 G0
ENDBRANCH   6   7
ENDBRANCH   5   6
ENDBRANCH   3   5
ENDBRANCH   1   3
BRANCH   1  11
ATOM     11  C   UNL     1      17.320  30.226  31.461  1.00  0.00     0.087 C 
BRANCH  11  12
ATOM     12  C   UNL     1      17.949  30.916  30.220  1.00  0.00     0.066 C 
BRANCH  12  13
ATOM     13  C   UNL     1      19.463  30.722  30.217  1.00  0.00     0.140 C 
ATOM     14  O   UNL     1      20.098  31.033  31.215  1.00  0.00    -0.299 OA
BRANCH  13  15
ATOM     15  C   UNL     1      20.237  30.251  29.001  1.00  0.00     0.106 CG0
ATOM     16  G   UNL     1      20.568  28.770  29.004  1.00  0.00     0.000 G0
ENDBRANCH  13  15
ENDBRANCH  12  13
BRANCH  12  17
ATOM     17  C   UNL     1      17.598  32.438  30.173  1.00  0.00    -0.006 C 
ATOM     18  C   UNL     1      17.197  32.882  28.755  1.00  0.00     0.008 C 
ATOM     19  C   UNL     1      16.463  32.803  31.146  1.00  0.00     0.008 C 
ENDBRANCH  12  17
ENDBRANCH  11  12
ENDBRANCH   1  11
TORSDOF 1
ENDMDL
MODEL 6
REMARK VINA RESULT:    -3.288     11.210     13.581
REMARK INTER + INTRA:          -5.351
REMARK INTER:                  -4.997
REMARK INTRA:                  -0.354
REMARK UNBOUND:                -0.333
REMARK SMILES CC1=CCC[C@@H](C)C(=O)C[C@@H](C(C)C)C(=O)C1
REMARK SMILES IDX 8 1 9 2 6 3 7 4 5 5 4 6 3 7 2 8 1 9 10 11 11 12 15 13 16 14
REMARK SMILES IDX 17 15 12 17 13 18 14 19
REMARK H PARENT
REMARK Flexibility Score: 70.00
ROOT
ATOM      1  C   UNL     1      17.463  32.222  31.159  1.00  0.00     0.136 C 
ATOM      2  O   UNL     1      16.842  32.819  32.028  1.00  0.00    -0.299 OA
ENDROOT
BRANCH   1   3
ATOM      3  C   UNL     1      16.839  32.013  29.795  1.00  0.00     0.053 C 
ATOM      4  C   UNL     1      16.020  33.251  29.416  1.00  0.00     0.016 C 
BRANCH   3   5
ATOM      5  C   UNL     1      15.949  30.748  29.742  1.00  0.00     0.015 C 
BRANCH   5   6
ATOM      6  C   UNL     1      16.593  29.508  30.377  1.00  0.00     0.028 C 
BRANCH   6   7
ATOM      7  C   UNL     1      17.348  28.695  29.354  1.00  0.00    -0.028 C 
ATOM      8  C   UNL     1      18.678  28.454  29.383  1.00  0.00    -0.070 CG0
ATOM      9  C   UNL     1      19.272  27.615  28.280  1.00  0.00     0.039 C 
ATOM     10  G   UNL     1      19.588  28.981  30.477  1.00  0.00     0.000 G0
ENDBRANCH   6   7
ENDBRANCH   5   6
ENDBRANCH   3   5
ENDBRANCH   1   3
BRANCH   1  11
ATOM     11  C   UNL     1      18.870  31.756  31.447  1.00  0.00     0.087 C 
BRANCH  11  12
ATOM     12  C   UNL     1      19.759  31.617  30.181  1.00  0.00     0.066 C 
BRANCH  12  13
ATOM     13  C   UNL     1      20.367  30.219  30.113  1.00  0.00     0.140 C 
ATOM     14  O   UNL     1      21.500  30.092  29.672  1.00  0.00    -0.299 OA
BRANCH  13  15
ATOM     15  C   UNL     1      19.601  28.962  30.476  1.00  0.00     0.106 CG0
ATOM     16  G   UNL     1      18.661  28.467  29.392  1.00  0.00     0.000 G0
ENDBRANCH  13  15
ENDBRANCH  12  13
BRANCH  12  17
ATOM     17  C   UNL     1      20.884  32.700  30.152  1.00  0.00    -0.006 C 
ATOM     18  C   UNL     1      20.468  33.926  29.321  1.00  0.00     0.008 C 
ATOM     19  C   UNL     1      21.277  33.169  31.565  1.00  0.00     0.008 C 
ENDBRANCH  12  17
ENDBRANCH  11  12
ENDBRANCH   1  11
TORSDOF 1
ENDMDL
MODEL 7
REMARK VINA RESULT:    -3.279     12.455     14.904
REMARK INTER + INTRA:          -5.337
REMARK INTER:                  -5.191
REMARK INTRA:                  -0.146
REMARK UNBOUND:                -0.333
REMARK SMILES CC1=CCC[C@@H](C)C(=O)C[C@@H](C(C)C)C(=O)C1
REMARK SMILES IDX 8 1 9 2 6 3 7 4 5 5 4 6 3 7 2 8 1 9 10 11 11 12 15 13 16 14
REMARK SMILES IDX 17 15 12 17 13 18 14 19
REMARK H PARENT
REMARK Flexibility Score: 70.00
ROOT
ATOM      1  C   UNL     1      19.772  29.628  29.135  1.00  0.00     0.136 C 
ATOM      2  O   UNL     1      20.908  30.070  29.038  1.00  0.00    -0.299 OA
ENDROOT
BRANCH   1   3
ATOM      3  C   UNL     1      19.554  28.140  29.312  1.00  0.00     0.053 C 
ATOM      4  C   UNL     1      20.865  27.484  29.758  1.00  0.00     0.016 C 
BRANCH   3   5
ATOM      5  C   UNL     1      19.033  27.462  28.022  1.00  0.00     0.015 C 
BRANCH   5   6
ATOM      6  C   UNL     1      17.501  27.453  27.901  1.00  0.00     0.028 C 
BRANCH   6   7
ATOM      7  C   UNL     1      16.848  27.091  29.212  1.00  0.00    -0.028 C 
ATOM      8  C   UNL     1      16.174  27.952  30.007  1.00  0.00    -0.070 CG0
ATOM      9  C   UNL     1      15.578  27.421  31.285  1.00  0.00     0.039 C 
ATOM     10  G   UNL     1      15.986  29.418  29.661  1.00  0.00     0.000 G0
ENDBRANCH   6   7
ENDBRANCH   5   6
ENDBRANCH   3   5
ENDBRANCH   1   3
BRANCH   1  11
ATOM     11  C   UNL     1      18.606  30.586  29.136  1.00  0.00     0.087 C 
BRANCH  11  12
ATOM     12  C   UNL     1      18.043  30.893  30.551  1.00  0.00     0.066 C 
BRANCH  12  13
ATOM     13  C   UNL     1      16.604  30.398  30.666  1.00  0.00     0.140 C 
ATOM     14  O   UNL     1      15.944  30.732  31.640  1.00  0.00    -0.299 OA
BRANCH  13  15
ATOM     15  C   UNL     1      15.977  29.431  29.680  1.00  0.00     0.106 CG0
ATOM     16  G   UNL     1      16.182  27.967  30.024  1.00  0.00     0.000 G0
ENDBRANCH  13  15
ENDBRANCH  12  13
BRANCH  12  17
ATOM     17  C   UNL     1      18.120  32.419  30.878  1.00  0.00    -0.006 C 
ATOM     18  C   UNL     1      19.540  32.836  31.297  1.00  0.00     0.008 C 
ATOM     19  C   UNL     1      17.678  33.291  29.689  1.00  0.00     0.008 C 
ENDBRANCH  12  17
ENDBRANCH  11  12
ENDBRANCH   1  11
TORSDOF 1
ENDMDL
MODEL 8
REMARK VINA RESULT:    -3.172     10.535     12.664
REMARK INTER + INTRA:          -5.174
REMARK INTER:                  -4.923
REMARK INTRA:                  -0.252
REMARK UNBOUND:                -0.333
REMARK SMILES CC1=CCC[C@@H](C)C(=O)C[C@@H](C(C)C)C(=O)C1
REMARK SMILES IDX 8 1 9 2 6 3 7 4 5 5 4 6 3 7 2 8 1 9 10 11 11 12 15 13 16 14
REMARK SMILES IDX 17 15 12 17 13 18 14 19
REMARK H PARENT
REMARK Flexibility Score: 70.00
ROOT
ATOM      1  C   UNL     1      17.856  32.003  29.326  1.00  0.00     0.136 C 
ATOM      2  O   UNL     1      17.859  33.025  28.654  1.00  0.00    -0.299 OA
ENDROOT
BRANCH   1   3
ATOM      3  C   UNL     1      17.156  31.985  30.668  1.00  0.00     0.053 C 
ATOM      4  C   UNL     1      15.715  32.479  30.497  1.00  0.00     0.016 C 
BRANCH   3   5
ATOM      5  C   UNL     1      17.889  32.842  31.728  1.00  0.00     0.015 C 
BRANCH   5   6
ATOM      6  C   UNL     1      19.036  32.106  32.436  1.00  0.00     0.028 C 
BRANCH   6   7
ATOM      7  C   UNL     1      20.381  32.576  31.938  1.00  0.00    -0.028 C 
ATOM      8  C   UNL     1      21.341  31.774  31.424  1.00  0.00    -0.070 CG0
ATOM      9  C   UNL     1      22.629  32.410  30.968  1.00  0.00     0.039 C 
ATOM     10  G   UNL     1      21.169  30.273  31.277  1.00  0.00     0.000 G0
ENDBRANCH   6   7
ENDBRANCH   5   6
ENDBRANCH   3   5
ENDBRANCH   1   3
BRANCH   1  11
ATOM     11  C   UNL     1      18.503  30.756  28.773  1.00  0.00     0.087 C 
BRANCH  11  12
ATOM     12  C   UNL     1      18.974  29.755  29.863  1.00  0.00     0.066 C 
BRANCH  12  13
ATOM     13  C   UNL     1      20.492  29.811  30.013  1.00  0.00     0.140 C 
ATOM     14  O   UNL     1      21.188  29.397  29.097  1.00  0.00    -0.299 OA
BRANCH  13  15
ATOM     15  C   UNL     1      21.184  30.265  31.283  1.00  0.00     0.106 CG0
ATOM     16  G   UNL     1      21.323  31.771  31.417  1.00  0.00     0.000 G0
ENDBRANCH  13  15
ENDBRANCH  12  13
BRANCH  12  17
ATOM     17  C   UNL     1      18.515  28.298  29.536  1.00  0.00    -0.006 C 
ATOM     18  C   UNL     1      17.156  27.975  30.182  1.00  0.00     0.008 C 
ATOM     19  C   UNL     1      18.415  28.045  28.021  1.00  0.00     0.008 C 
ENDBRANCH  12  17
ENDBRANCH  11  12
ENDBRANCH   1  11
TORSDOF 1
ENDMDL
MODEL 9
REMARK VINA RESULT:    -3.145      9.767     12.126
REMARK INTER + INTRA:          -5.133
REMARK INTER:                  -5.013
REMARK INTRA:                  -0.120
REMARK UNBOUND:                -0.333
REMARK SMILES CC1=CCC[C@@H](C)C(=O)C[C@@H](C(C)C)C(=O)C1
REMARK SMILES IDX 8 1 9 2 6 3 7 4 5 5 4 6 3 7 2 8 1 9 10 11 11 12 15 13 16 14
REMARK SMILES IDX 17 15 12 17 13 18 14 19
REMARK H PARENT
REMARK Flexibility Score: 70.00
ROOT
ATOM      1  C   UNL     1      22.157  28.008  28.889  1.00  0.00     0.136 C 
ATOM      2  O   UNL     1      22.966  27.439  28.169  1.00  0.00    -0.299 OA
ENDROOT
BRANCH   1   3
ATOM      3  C   UNL     1      20.907  27.282  29.337  1.00  0.00     0.053 C 
ATOM      4  C   UNL     1      21.063  25.782  29.062  1.00  0.00     0.016 C 
BRANCH   3   5
ATOM      5  C   UNL     1      19.631  27.819  28.645  1.00  0.00     0.015 C 
BRANCH   5   6
ATOM      6  C   UNL     1      18.519  28.228  29.623  1.00  0.00     0.028 C 
BRANCH   6   7
ATOM      7  C   UNL     1      17.901  29.548  29.233  1.00  0.00    -0.028 C 
ATOM      8  C   UNL     1      18.215  30.743  29.782  1.00  0.00    -0.070 CG0
ATOM      9  C   UNL     1      17.503  31.969  29.270  1.00  0.00     0.039 C 
ATOM     10  G   UNL     1      19.255  30.900  30.877  1.00  0.00     0.000 G0
ENDBRANCH   6   7
ENDBRANCH   5   6
ENDBRANCH   3   5
ENDBRANCH   1   3
BRANCH   1  11
ATOM     11  C   UNL     1      22.452  29.409  29.365  1.00  0.00     0.087 C 
BRANCH  11  12
ATOM     12  C   UNL     1      21.699  29.805  30.664  1.00  0.00     0.066 C 
BRANCH  12  13
ATOM     13  C   UNL     1      20.703  30.926  30.379  1.00  0.00     0.140 C 
ATOM     14  O   UNL     1      21.094  31.924  29.792  1.00  0.00    -0.299 OA
BRANCH  13  15
ATOM     15  C   UNL     1      19.270  30.907  30.874  1.00  0.00     0.106 CG0
ATOM     16  G   UNL     1      18.231  30.748  29.778  1.00  0.00     0.000 G0
ENDBRANCH  13  15
ENDBRANCH  12  13
BRANCH  12  17
ATOM     17  C   UNL     1      22.692  30.237  31.791  1.00  0.00    -0.006 C 
ATOM     18  C   UNL     1      22.373  29.538  33.124  1.00  0.00     0.008 C 
ATOM     19  C   UNL     1      24.157  29.945  31.418  1.00  0.00     0.008 C 
ENDBRANCH  12  17
ENDBRANCH  11  12
ENDBRANCH   1  11
TORSDOF 1
ENDMDL
