MODEL 1
REMARK VINA RESULT:    -2.494      0.000      0.000
REMARK INTER + INTRA:          -3.774
REMARK INTER:                  -3.368
REMARK INTRA:                  -0.406
REMARK UNBOUND:                -0.406
REMARK SMILES O=c1c(-c2ccc(O)cc2)coc2c([C@@H]3O[C@H](CO)[C@H](O)[C@@H](O)[C@H]3O)c(O)ccc12
REMARK SMILES IDX 3 1 11 2 12 3 13 4 30 5 2 6 1 7 29 8 28 9 26 10 14 11 4 12
REMARK SMILES IDX 5 13 6 14 7 15 10 16 9 17 8 18 15 20 24 21 16 22 22 23 17 24
REMARK SMILES IDX 20 25 25 26 23 28 18 30 19 31 21 33 27 35
REMARK H PARENT 8 19 25 27 23 29 19 32 21 34 27 36
REMARK Flexibility Score: inf
ROOT
ATOM      1  C   UNL     1       8.483  16.843  73.840  1.00  0.00     0.065 A 
ATOM      2  C   UNL     1       9.609  16.029  73.661  1.00  0.00     0.208 A 
ATOM      3  O   UNL     1      10.404  16.185  72.599  1.00  0.00    -0.463 OA
ATOM      4  C   UNL     1      10.156  17.067  71.643  1.00  0.00     0.147 A 
ATOM      5  C   UNL     1       9.083  17.987  71.793  1.00  0.00     0.066 A 
ATOM      6  C   UNL     1       8.237  17.855  72.911  1.00  0.00     0.200 A 
ATOM      7  O   UNL     1       7.291  18.681  73.107  1.00  0.00    -0.288 OA
ATOM      8  C   UNL     1       8.890  18.987  70.837  1.00  0.00     0.020 A 
ATOM      9  C   UNL     1       9.756  19.124  69.772  1.00  0.00     0.047 A 
ATOM     10  C   UNL     1      10.759  18.175  69.551  1.00  0.00     0.125 A 
ATOM     11  C   UNL     1      10.980  17.128  70.490  1.00  0.00     0.069 A 
ENDROOT
BRANCH   1  12
ATOM     12  C   UNL     1       7.511  16.506  74.893  1.00  0.00    -0.011 A 
ATOM     13  C   UNL     1       7.993  15.952  76.093  1.00  0.00     0.013 A 
ATOM     14  C   UNL     1       7.110  15.670  77.130  1.00  0.00     0.047 A 
ATOM     15  C   UNL     1       5.740  15.908  76.986  1.00  0.00     0.115 A 
ATOM     16  C   UNL     1       6.135  16.748  74.743  1.00  0.00     0.013 A 
ATOM     17  C   UNL     1       5.254  16.450  75.783  1.00  0.00     0.047 A 
BRANCH  15  18
ATOM     18  O   UNL     1       4.886  15.624  78.042  1.00  0.00    -0.508 OA
ATOM     19  H   UNL     1       4.705  16.292  78.793  1.00  0.00     0.293 HD
ENDBRANCH  15  18
ENDBRANCH   1  12
BRANCH  11  20
ATOM     20  C   UNL     1      12.008  16.028  70.136  1.00  0.00     0.188 C 
ATOM     21  C   UNL     1      13.084  15.779  71.221  1.00  0.00     0.179 C 
ATOM     22  O   UNL     1      11.400  14.780  69.742  1.00  0.00    -0.362 OA
ATOM     23  C   UNL     1      14.287  15.073  70.546  1.00  0.00     0.177 C 
ATOM     24  C   UNL     1      12.260  13.640  69.765  1.00  0.00     0.176 C 
ATOM     25  C   UNL     1      13.769  14.014  69.519  1.00  0.00     0.177 C 
BRANCH  21  26
ATOM     26  O   UNL     1      13.505  16.957  71.850  1.00  0.00    -0.387 OA
ATOM     27  H   UNL     1      13.036  17.705  71.394  1.00  0.00     0.211 HD
ENDBRANCH  21  26
BRANCH  23  28
ATOM     28  O   UNL     1      15.057  15.997  69.823  1.00  0.00    -0.387 OA
ATOM     29  H   UNL     1      14.498  16.302  69.067  1.00  0.00     0.211 HD
ENDBRANCH  23  28
BRANCH  24  30
ATOM     30  C   UNL     1      12.024  12.729  71.015  1.00  0.00     0.191 C 
BRANCH  30  31
ATOM     31  O   UNL     1      11.037  13.281  71.850  1.00  0.00    -0.394 OA
ATOM     32  H   UNL     1      10.294  13.590  71.263  1.00  0.00     0.210 HD
ENDBRANCH  30  31
ENDBRANCH  24  30
BRANCH  25  33
ATOM     33  O   UNL     1      14.606  12.885  69.446  1.00  0.00    -0.388 OA
ATOM     34  H   UNL     1      14.722  12.701  68.477  1.00  0.00     0.211 HD
ENDBRANCH  25  33
ENDBRANCH  11  20
BRANCH  10  35
ATOM     35  O   UNL     1      11.512  18.243  68.384  1.00  0.00    -0.507 OA
ATOM     36  H   UNL     1      11.877  19.123  68.030  1.00  0.00     0.293 HD
ENDBRANCH  10  35
TORSDOF 9
ENDMDL
MODEL 2
REMARK VINA RESULT:    -2.131      2.206      3.658
REMARK INTER + INTRA:          -3.284
REMARK INTER:                  -2.432
REMARK INTRA:                  -0.852
REMARK UNBOUND:                -0.406
REMARK SMILES O=c1c(-c2ccc(O)cc2)coc2c([C@@H]3O[C@H](CO)[C@H](O)[C@@H](O)[C@H]3O)c(O)ccc12
REMARK SMILES IDX 3 1 11 2 12 3 13 4 30 5 2 6 1 7 29 8 28 9 26 10 14 11 4 12
REMARK SMILES IDX 5 13 6 14 7 15 10 16 9 17 8 18 15 20 24 21 16 22 22 23 17 24
REMARK SMILES IDX 20 25 25 26 23 28 18 30 19 31 21 33 27 35
REMARK H PARENT 8 19 25 27 23 29 19 32 21 34 27 36
REMARK Flexibility Score: inf
ROOT
ATOM      1  C   UNL     1      10.100  16.883  71.834  1.00  0.00     0.065 A 
ATOM      2  C   UNL     1      11.441  16.701  72.196  1.00  0.00     0.208 A 
ATOM      3  O   UNL     1      12.364  16.405  71.276  1.00  0.00    -0.463 OA
ATOM      4  C   UNL     1      12.067  16.220  69.999  1.00  0.00     0.147 A 
ATOM      5  C   UNL     1      10.746  16.471  69.538  1.00  0.00     0.066 A 
ATOM      6  C   UNL     1       9.756  16.799  70.485  1.00  0.00     0.200 A 
ATOM      7  O   UNL     1       8.571  17.071  70.112  1.00  0.00    -0.288 OA
ATOM      8  C   UNL     1      10.460  16.381  68.174  1.00  0.00     0.020 A 
ATOM      9  C   UNL     1      11.454  16.100  67.260  1.00  0.00     0.047 A 
ATOM     10  C   UNL     1      12.738  15.756  67.696  1.00  0.00     0.125 A 
ATOM     11  C   UNL     1      13.068  15.815  69.079  1.00  0.00     0.069 A 
ENDROOT
BRANCH   1  12
ATOM     12  C   UNL     1       9.078  16.989  72.889  1.00  0.00    -0.011 A 
ATOM     13  C   UNL     1       9.074  16.025  73.913  1.00  0.00     0.013 A 
ATOM     14  C   UNL     1       8.157  16.124  74.953  1.00  0.00     0.047 A 
ATOM     15  C   UNL     1       7.219  17.160  74.983  1.00  0.00     0.115 A 
ATOM     16  C   UNL     1       8.139  18.033  72.914  1.00  0.00     0.013 A 
ATOM     17  C   UNL     1       7.214  18.118  73.955  1.00  0.00     0.047 A 
BRANCH  15  18
ATOM     18  O   UNL     1       6.324  17.236  76.040  1.00  0.00    -0.508 OA
ATOM     19  H   UNL     1       5.489  16.650  76.094  1.00  0.00     0.293 HD
ENDBRANCH  15  18
ENDBRANCH   1  12
BRANCH  11  20
ATOM     20  C   UNL     1      14.456  15.298  69.526  1.00  0.00     0.188 C 
ATOM     21  C   UNL     1      14.538  13.764  69.727  1.00  0.00     0.179 C 
ATOM     22  O   UNL     1      15.535  15.748  68.680  1.00  0.00    -0.362 OA
ATOM     23  C   UNL     1      15.758  13.468  70.635  1.00  0.00     0.177 C 
ATOM     24  C   UNL     1      16.760  15.025  68.806  1.00  0.00     0.176 C 
ATOM     25  C   UNL     1      16.950  14.398  70.237  1.00  0.00     0.177 C 
BRANCH  21  26
ATOM     26  O   UNL     1      13.374  13.227  70.290  1.00  0.00    -0.387 OA
ATOM     27  H   UNL     1      13.459  12.239  70.230  1.00  0.00     0.211 HD
ENDBRANCH  21  26
BRANCH  23  28
ATOM     28  O   UNL     1      15.453  13.748  71.976  1.00  0.00    -0.387 OA
ATOM     29  H   UNL     1      15.837  14.638  72.173  1.00  0.00     0.211 HD
ENDBRANCH  23  28
BRANCH  24  30
ATOM     30  C   UNL     1      16.990  14.016  67.632  1.00  0.00     0.191 C 
BRANCH  30  31
ATOM     31  O   UNL     1      16.878  14.666  66.391  1.00  0.00    -0.394 OA
ATOM     32  H   UNL     1      17.515  14.220  65.768  1.00  0.00     0.210 HD
ENDBRANCH  30  31
ENDBRANCH  24  30
BRANCH  25  33
ATOM     33  O   UNL     1      18.198  13.767  70.395  1.00  0.00    -0.388 OA
ATOM     34  H   UNL     1      18.196  13.399  71.317  1.00  0.00     0.211 HD
ENDBRANCH  25  33
ENDBRANCH  11  20
BRANCH  10  35
ATOM     35  O   UNL     1      13.675  15.318  66.767  1.00  0.00    -0.507 OA
ATOM     36  H   UNL     1      13.499  15.354  65.767  1.00  0.00     0.293 HD
ENDBRANCH  10  35
TORSDOF 9
ENDMDL
MODEL 3
REMARK VINA RESULT:    -1.470      0.973      2.051
REMARK INTER + INTRA:          -2.392
REMARK INTER:                  -1.777
REMARK INTRA:                  -0.615
REMARK UNBOUND:                -0.406
REMARK SMILES O=c1c(-c2ccc(O)cc2)coc2c([C@@H]3O[C@H](CO)[C@H](O)[C@@H](O)[C@H]3O)c(O)ccc12
REMARK SMILES IDX 3 1 11 2 12 3 13 4 30 5 2 6 1 7 29 8 28 9 26 10 14 11 4 12
REMARK SMILES IDX 5 13 6 14 7 15 10 16 9 17 8 18 15 20 24 21 16 22 22 23 17 24
REMARK SMILES IDX 20 25 25 26 23 28 18 30 19 31 21 33 27 35
REMARK H PARENT 8 19 25 27 23 29 19 32 21 34 27 36
REMARK Flexibility Score: inf
ROOT
ATOM      1  C   UNL     1       8.470  16.823  73.924  1.00  0.00     0.065 A 
ATOM      2  C   UNL     1       9.592  16.004  73.738  1.00  0.00     0.208 A 
ATOM      3  O   UNL     1      10.386  16.163  72.675  1.00  0.00    -0.463 OA
ATOM      4  C   UNL     1      10.140  17.052  71.726  1.00  0.00     0.147 A 
ATOM      5  C   UNL     1       9.072  17.977  71.884  1.00  0.00     0.066 A 
ATOM      6  C   UNL     1       8.228  17.841  73.003  1.00  0.00     0.200 A 
ATOM      7  O   UNL     1       7.286  18.671  73.205  1.00  0.00    -0.288 OA
ATOM      8  C   UNL     1       8.882  18.984  70.934  1.00  0.00     0.020 A 
ATOM      9  C   UNL     1       9.747  19.124  69.869  1.00  0.00     0.047 A 
ATOM     10  C   UNL     1      10.745  18.171  69.639  1.00  0.00     0.125 A 
ATOM     11  C   UNL     1      10.962  17.117  70.571  1.00  0.00     0.069 A 
ENDROOT
BRANCH   1  12
ATOM     12  C   UNL     1       7.499  16.483  74.977  1.00  0.00    -0.011 A 
ATOM     13  C   UNL     1       7.982  15.935  76.179  1.00  0.00     0.013 A 
ATOM     14  C   UNL     1       7.100  15.651  77.215  1.00  0.00     0.047 A 
ATOM     15  C   UNL     1       5.729  15.882  77.069  1.00  0.00     0.115 A 
ATOM     16  C   UNL     1       6.122  16.718  74.825  1.00  0.00     0.013 A 
ATOM     17  C   UNL     1       5.241  16.419  75.865  1.00  0.00     0.047 A 
BRANCH  15  18
ATOM     18  O   UNL     1       4.875  15.597  78.125  1.00  0.00    -0.508 OA
ATOM     19  H   UNL     1       4.480  16.325  78.722  1.00  0.00     0.293 HD
ENDBRANCH  15  18
ENDBRANCH   1  12
BRANCH  11  20
ATOM     20  C   UNL     1      11.985  16.014  70.208  1.00  0.00     0.188 C 
ATOM     21  C   UNL     1      11.364  14.741  69.582  1.00  0.00     0.179 C 
ATOM     22  O   UNL     1      13.075  16.491  69.391  1.00  0.00    -0.362 OA
ATOM     23  C   UNL     1      12.380  13.583  69.754  1.00  0.00     0.177 C 
ATOM     24  C   UNL     1      13.832  15.480  68.723  1.00  0.00     0.176 C 
ATOM     25  C   UNL     1      13.829  14.110  69.497  1.00  0.00     0.177 C 
BRANCH  21  26
ATOM     26  O   UNL     1      10.135  14.396  70.157  1.00  0.00    -0.387 OA
ATOM     27  H   UNL     1       9.734  15.239  70.498  1.00  0.00     0.211 HD
ENDBRANCH  21  26
BRANCH  23  28
ATOM     28  O   UNL     1      12.352  13.096  71.070  1.00  0.00    -0.387 OA
ATOM     29  H   UNL     1      11.856  12.241  71.044  1.00  0.00     0.211 HD
ENDBRANCH  23  28
BRANCH  24  30
ATOM     30  C   UNL     1      13.471  15.358  67.206  1.00  0.00     0.191 C 
BRANCH  30  31
ATOM     31  O   UNL     1      12.655  16.429  66.803  1.00  0.00    -0.394 OA
ATOM     32  H   UNL     1      13.162  17.268  66.983  1.00  0.00     0.210 HD
ENDBRANCH  30  31
ENDBRANCH  24  30
BRANCH  25  33
ATOM     33  O   UNL     1      14.651  13.140  68.892  1.00  0.00    -0.388 OA
ATOM     34  H   UNL     1      14.917  13.525  68.017  1.00  0.00     0.211 HD
ENDBRANCH  25  33
ENDBRANCH  11  20
BRANCH  10  35
ATOM     35  O   UNL     1      11.496  18.243  68.471  1.00  0.00    -0.507 OA
ATOM     36  H   UNL     1      11.231  17.738  67.630  1.00  0.00     0.293 HD
ENDBRANCH  10  35
TORSDOF 9
ENDMDL
MODEL 4
REMARK VINA RESULT:    -0.739      1.623      7.677
REMARK INTER + INTRA:          -1.403
REMARK INTER:                  -1.367
REMARK INTRA:                  -0.036
REMARK UNBOUND:                -0.406
REMARK SMILES O=c1c(-c2ccc(O)cc2)coc2c([C@@H]3O[C@H](CO)[C@H](O)[C@@H](O)[C@H]3O)c(O)ccc12
REMARK SMILES IDX 3 1 11 2 12 3 13 4 30 5 2 6 1 7 29 8 28 9 26 10 14 11 4 12
REMARK SMILES IDX 5 13 6 14 7 15 10 16 9 17 8 18 15 20 24 21 16 22 22 23 17 24
REMARK SMILES IDX 20 25 25 26 23 28 18 30 19 31 21 33 27 35
REMARK H PARENT 8 19 25 27 23 29 19 32 21 34 27 36
REMARK Flexibility Score: inf
ROOT
ATOM      1  C   UNL     1      12.541  15.441  70.296  1.00  0.00     0.065 A 
ATOM      2  C   UNL     1      11.673  14.804  71.193  1.00  0.00     0.208 A 
ATOM      3  O   UNL     1      10.534  15.388  71.574  1.00  0.00    -0.463 OA
ATOM      4  C   UNL     1      10.184  16.600  71.175  1.00  0.00     0.147 A 
ATOM      5  C   UNL     1      10.966  17.276  70.199  1.00  0.00     0.066 A 
ATOM      6  C   UNL     1      12.165  16.677  69.769  1.00  0.00     0.200 A 
ATOM      7  O   UNL     1      12.875  17.225  68.867  1.00  0.00    -0.288 OA
ATOM      8  C   UNL     1      10.536  18.507  69.698  1.00  0.00     0.020 A 
ATOM      9  C   UNL     1       9.337  19.056  70.103  1.00  0.00     0.047 A 
ATOM     10  C   UNL     1       8.598  18.459  71.130  1.00  0.00     0.125 A 
ATOM     11  C   UNL     1       9.009  17.213  71.683  1.00  0.00     0.069 A 
ENDROOT
BRANCH   1  12
ATOM     12  C   UNL     1      13.881  14.877  70.068  1.00  0.00    -0.011 A 
ATOM     13  C   UNL     1      14.982  15.753  70.062  1.00  0.00     0.013 A 
ATOM     14  C   UNL     1      16.268  15.248  69.902  1.00  0.00     0.047 A 
ATOM     15  C   UNL     1      16.481  13.879  69.722  1.00  0.00     0.115 A 
ATOM     16  C   UNL     1      14.090  13.499  69.887  1.00  0.00     0.013 A 
ATOM     17  C   UNL     1      15.382  13.002  69.715  1.00  0.00     0.047 A 
BRANCH  15  18
ATOM     18  O   UNL     1      17.777  13.406  69.574  1.00  0.00    -0.508 OA
ATOM     19  H   UNL     1      18.082  12.515  69.968  1.00  0.00     0.293 HD
ENDBRANCH  15  18
ENDBRANCH   1  12
BRANCH  11  20
ATOM     20  C   UNL     1       8.238  16.661  72.905  1.00  0.00     0.188 C 
ATOM     21  C   UNL     1       8.929  16.908  74.268  1.00  0.00     0.179 C 
ATOM     22  O   UNL     1       6.862  17.094  72.957  1.00  0.00    -0.362 OA
ATOM     23  C   UNL     1       8.347  15.896  75.287  1.00  0.00     0.177 C 
ATOM     24  C   UNL     1       6.213  16.936  74.220  1.00  0.00     0.176 C 
ATOM     25  C   UNL     1       6.807  15.745  75.061  1.00  0.00     0.177 C 
BRANCH  21  26
ATOM     26  O   UNL     1      10.322  16.783  74.203  1.00  0.00    -0.387 OA
ATOM     27  H   UNL     1      10.590  17.072  73.291  1.00  0.00     0.211 HD
ENDBRANCH  21  26
BRANCH  23  28
ATOM     28  O   UNL     1       8.912  14.625  75.095  1.00  0.00    -0.387 OA
ATOM     29  H   UNL     1       8.409  14.200  74.358  1.00  0.00     0.211 HD
ENDBRANCH  23  28
BRANCH  24  30
ATOM     30  C   UNL     1       6.095  18.280  75.012  1.00  0.00     0.191 C 
BRANCH  30  31
ATOM     31  O   UNL     1       7.179  19.124  74.720  1.00  0.00    -0.394 OA
ATOM     32  H   UNL     1       7.337  19.689  75.526  1.00  0.00     0.210 HD
ENDBRANCH  30  31
ENDBRANCH  24  30
BRANCH  25  33
ATOM     33  O   UNL     1       6.109  15.526  76.263  1.00  0.00    -0.388 OA
ATOM     34  H   UNL     1       5.253  16.019  76.169  1.00  0.00     0.211 HD
ENDBRANCH  25  33
ENDBRANCH  11  20
BRANCH  10  35
ATOM     35  O   UNL     1       7.480  19.116  71.632  1.00  0.00    -0.507 OA
ATOM     36  H   UNL     1       6.535  18.819  71.407  1.00  0.00     0.293 HD
ENDBRANCH  10  35
TORSDOF 9
ENDMDL
MODEL 5
REMARK VINA RESULT:    -0.018      2.364      8.073
REMARK INTER + INTRA:          -0.430
REMARK INTER:                  -0.627
REMARK INTRA:                   0.198
REMARK UNBOUND:                -0.406
REMARK SMILES O=c1c(-c2ccc(O)cc2)coc2c([C@@H]3O[C@H](CO)[C@H](O)[C@@H](O)[C@H]3O)c(O)ccc12
REMARK SMILES IDX 3 1 11 2 12 3 13 4 30 5 2 6 1 7 29 8 28 9 26 10 14 11 4 12
REMARK SMILES IDX 5 13 6 14 7 15 10 16 9 17 8 18 15 20 24 21 16 22 22 23 17 24
REMARK SMILES IDX 20 25 25 26 23 28 18 30 19 31 21 33 27 35
REMARK H PARENT 8 19 25 27 23 29 19 32 21 34 27 36
REMARK Flexibility Score: inf
ROOT
ATOM      1  C   UNL     1      13.841  14.710  69.618  1.00  0.00     0.065 A 
ATOM      2  C   UNL     1      13.138  14.677  70.830  1.00  0.00     0.208 A 
ATOM      3  O   UNL     1      11.848  15.018  70.881  1.00  0.00    -0.463 OA
ATOM      4  C   UNL     1      11.178  15.446  69.823  1.00  0.00     0.147 A 
ATOM      5  C   UNL     1      11.795  15.426  68.542  1.00  0.00     0.066 A 
ATOM      6  C   UNL     1      13.151  15.057  68.456  1.00  0.00     0.200 A 
ATOM      7  O   UNL     1      13.731  14.986  67.327  1.00  0.00    -0.288 OA
ATOM      8  C   UNL     1      11.053  15.775  67.411  1.00  0.00     0.020 A 
ATOM      9  C   UNL     1       9.715  16.092  67.513  1.00  0.00     0.047 A 
ATOM     10  C   UNL     1       9.111  16.212  68.769  1.00  0.00     0.125 A 
ATOM     11  C   UNL     1       9.835  15.885  69.950  1.00  0.00     0.069 A 
ENDROOT
BRANCH   1  12
ATOM     12  C   UNL     1      15.304  14.544  69.630  1.00  0.00    -0.011 A 
ATOM     13  C   UNL     1      16.106  15.687  69.460  1.00  0.00     0.013 A 
ATOM     14  C   UNL     1      17.492  15.576  69.518  1.00  0.00     0.047 A 
ATOM     15  C   UNL     1      18.100  14.333  69.720  1.00  0.00     0.115 A 
ATOM     16  C   UNL     1      15.911  13.294  69.834  1.00  0.00     0.013 A 
ATOM     17  C   UNL     1      17.301  13.188  69.878  1.00  0.00     0.047 A 
BRANCH  15  18
ATOM     18  O   UNL     1      19.484  14.257  69.783  1.00  0.00    -0.508 OA
ATOM     19  H   UNL     1      19.970  13.468  70.211  1.00  0.00     0.293 HD
ENDBRANCH  15  18
ENDBRANCH   1  12
BRANCH  11  20
ATOM     20  C   UNL     1       9.171  16.161  71.320  1.00  0.00     0.188 C 
ATOM     21  C   UNL     1       9.922  17.186  72.205  1.00  0.00     0.179 C 
ATOM     22  O   UNL     1       7.776  16.518  71.219  1.00  0.00    -0.362 OA
ATOM     23  C   UNL     1       9.464  16.974  73.670  1.00  0.00     0.177 C 
ATOM     24  C   UNL     1       7.212  17.136  72.376  1.00  0.00     0.176 C 
ATOM     25  C   UNL     1       7.927  16.695  73.708  1.00  0.00     0.177 C 
BRANCH  21  26
ATOM     26  O   UNL     1      11.314  17.068  72.111  1.00  0.00    -0.387 OA
ATOM     27  H   UNL     1      11.551  16.182  72.493  1.00  0.00     0.211 HD
ENDBRANCH  21  26
BRANCH  23  28
ATOM     28  O   UNL     1      10.095  15.851  74.226  1.00  0.00    -0.387 OA
ATOM     29  H   UNL     1       9.857  15.838  75.185  1.00  0.00     0.211 HD
ENDBRANCH  23  28
BRANCH  24  30
ATOM     30  C   UNL     1       7.055  18.684  72.219  1.00  0.00     0.191 C 
BRANCH  30  31
ATOM     31  O   UNL     1       5.861  19.124  72.814  1.00  0.00    -0.394 OA
ATOM     32  H   UNL     1       5.402  18.319  73.183  1.00  0.00     0.210 HD
ENDBRANCH  30  31
ENDBRANCH  24  30
BRANCH  25  33
ATOM     33  O   UNL     1       7.313  17.226  74.857  1.00  0.00    -0.388 OA
ATOM     34  H   UNL     1       7.830  16.868  75.625  1.00  0.00     0.211 HD
ENDBRANCH  25  33
ENDBRANCH  11  20
BRANCH  10  35
ATOM     35  O   UNL     1       7.808  16.691  68.853  1.00  0.00    -0.507 OA
ATOM     36  H   UNL     1       7.026  16.085  69.083  1.00  0.00     0.293 HD
ENDBRANCH  10  35
TORSDOF 9
ENDMDL
