MODEL 1
REMARK VINA RESULT:    -3.615      0.000      0.000
REMARK INTER + INTRA:          -5.031
REMARK INTER:                  -4.671
REMARK INTRA:                  -0.360
REMARK UNBOUND:                -0.360
REMARK SMILES CCO[C@@H]1O[C@H](CO)[C@H](O)[C@H](O)[C@H]1O
REMARK SMILES IDX 4 1 13 2 11 3 9 4 6 5 5 6 3 7 2 8 1 9 14 10 12 12 7 14 8 15
REMARK SMILES IDX 10 17
REMARK H PARENT 14 11 12 13 8 16 10 18
REMARK Flexibility Score: inf
ROOT
ATOM      1  C   UNL     1      19.453  -7.049   4.903  1.00  0.00     0.281 C 
ATOM      2  C   UNL     1      19.897  -8.453   5.416  1.00  0.00     0.202 C 
ATOM      3  C   UNL     1      19.275  -8.858   6.779  1.00  0.00     0.179 C 
ATOM      4  C   UNL     1      17.960  -8.108   7.085  1.00  0.00     0.177 C 
ATOM      5  C   UNL     1      17.277  -7.623   5.787  1.00  0.00     0.178 C 
ATOM      6  O   UNL     1      18.076  -6.703   5.064  1.00  0.00    -0.341 OA
ENDROOT
BRANCH   1   7
ATOM      7  O   UNL     1      20.224  -6.057   5.563  1.00  0.00    -0.350 OA
BRANCH   7   8
ATOM      8  C   UNL     1      21.336  -5.667   4.784  1.00  0.00     0.160 C 
ATOM      9  C   UNL     1      20.976  -4.418   3.993  1.00  0.00     0.035 C 
ENDBRANCH   7   8
ENDBRANCH   1   7
BRANCH   2  10
ATOM     10  O   UNL     1      19.690  -9.441   4.436  1.00  0.00    -0.385 OA
ATOM     11  H   UNL     1      19.912 -10.323   4.825  1.00  0.00     0.211 HD
ENDBRANCH   2  10
BRANCH   3  12
ATOM     12  O   UNL     1      20.196  -8.646   7.821  1.00  0.00    -0.387 OA
ATOM     13  H   UNL     1      20.828  -7.945   7.514  1.00  0.00     0.211 HD
ENDBRANCH   3  12
BRANCH   5  14
ATOM     14  C   UNL     1      15.930  -6.956   6.106  1.00  0.00     0.191 C 
BRANCH  14  15
ATOM     15  O   UNL     1      15.433  -7.419   7.333  1.00  0.00    -0.394 OA
ATOM     16  H   UNL     1      15.291  -8.396   7.235  1.00  0.00     0.210 HD
ENDBRANCH  14  15
ENDBRANCH   5  14
BRANCH   4  17
ATOM     17  O   UNL     1      18.151  -7.046   7.992  1.00  0.00    -0.387 OA
ATOM     18  H   UNL     1      17.264  -6.657   8.203  1.00  0.00     0.211 HD
ENDBRANCH   4  17
TORSDOF 7
ENDMDL
MODEL 2
REMARK VINA RESULT:    -3.506      1.591      2.280
REMARK INTER + INTRA:          -4.890
REMARK INTER:                  -4.462
REMARK INTRA:                  -0.428
REMARK UNBOUND:                -0.360
REMARK SMILES CCO[C@@H]1O[C@H](CO)[C@H](O)[C@H](O)[C@H]1O
REMARK SMILES IDX 4 1 13 2 11 3 9 4 6 5 5 6 3 7 2 8 1 9 14 10 12 12 7 14 8 15
REMARK SMILES IDX 10 17
REMARK H PARENT 14 11 12 13 8 16 10 18
REMARK Flexibility Score: inf
ROOT
ATOM      1  C   UNL     1      18.964  -6.809   4.583  1.00  0.00     0.281 C 
ATOM      2  C   UNL     1      18.446  -8.236   4.224  1.00  0.00     0.202 C 
ATOM      3  C   UNL     1      18.825  -9.329   5.258  1.00  0.00     0.179 C 
ATOM      4  C   UNL     1      19.123  -8.751   6.660  1.00  0.00     0.177 C 
ATOM      5  C   UNL     1      18.421  -7.391   6.866  1.00  0.00     0.178 C 
ATOM      6  O   UNL     1      18.867  -6.406   5.950  1.00  0.00    -0.341 OA
ENDROOT
BRANCH   1   7
ATOM      7  O   UNL     1      20.329  -6.711   4.204  1.00  0.00    -0.350 OA
BRANCH   7   8
ATOM      8  C   UNL     1      20.962  -5.619   4.839  1.00  0.00     0.160 C 
ATOM      9  C   UNL     1      21.011  -4.443   3.875  1.00  0.00     0.035 C 
ENDBRANCH   7   8
ENDBRANCH   1   7
BRANCH   2  10
ATOM     10  O   UNL     1      17.063  -8.223   3.964  1.00  0.00    -0.385 OA
ATOM     11  H   UNL     1      16.619  -8.845   4.592  1.00  0.00     0.211 HD
ENDBRANCH   2  10
BRANCH   3  12
ATOM     12  O   UNL     1      19.931 -10.070   4.805  1.00  0.00    -0.387 OA
ATOM     13  H   UNL     1      20.747  -9.590   5.103  1.00  0.00     0.211 HD
ENDBRANCH   3  12
BRANCH   5  14
ATOM     14  C   UNL     1      18.658  -6.875   8.294  1.00  0.00     0.191 C 
BRANCH  14  15
ATOM     15  O   UNL     1      18.999  -7.935   9.147  1.00  0.00    -0.394 OA
ATOM     16  H   UNL     1      19.884  -8.271   8.848  1.00  0.00     0.210 HD
ENDBRANCH  14  15
ENDBRANCH   5  14
BRANCH   4  17
ATOM     17  O   UNL     1      20.506  -8.659   6.915  1.00  0.00    -0.387 OA
ATOM     18  H   UNL     1      20.811  -9.527   7.281  1.00  0.00     0.211 HD
ENDBRANCH   4  17
TORSDOF 7
ENDMDL
MODEL 3
REMARK VINA RESULT:    -3.196      1.488      4.393
REMARK INTER + INTRA:          -4.490
REMARK INTER:                  -4.161
REMARK INTRA:                  -0.329
REMARK UNBOUND:                -0.360
REMARK SMILES CCO[C@@H]1O[C@H](CO)[C@H](O)[C@H](O)[C@H]1O
REMARK SMILES IDX 4 1 13 2 11 3 9 4 6 5 5 6 3 7 2 8 1 9 14 10 12 12 7 14 8 15
REMARK SMILES IDX 10 17
REMARK H PARENT 14 11 12 13 8 16 10 18
REMARK Flexibility Score: inf
ROOT
ATOM      1  C   UNL     1      17.669  -7.133   6.767  1.00  0.00     0.281 C 
ATOM      2  C   UNL     1      18.509  -7.570   8.006  1.00  0.00     0.202 C 
ATOM      3  C   UNL     1      19.594  -8.635   7.696  1.00  0.00     0.179 C 
ATOM      4  C   UNL     1      20.018  -8.643   6.210  1.00  0.00     0.177 C 
ATOM      5  C   UNL     1      19.749  -7.277   5.543  1.00  0.00     0.178 C 
ATOM      6  O   UNL     1      18.373  -6.936   5.541  1.00  0.00    -0.341 OA
ENDROOT
BRANCH   1   7
ATOM      7  O   UNL     1      16.663  -8.108   6.532  1.00  0.00    -0.350 OA
BRANCH   7   8
ATOM      8  C   UNL     1      15.421  -7.503   6.232  1.00  0.00     0.160 C 
ATOM      9  C   UNL     1      14.315  -8.248   6.964  1.00  0.00     0.035 C 
ENDBRANCH   7   8
ENDBRANCH   1   7
BRANCH   2  10
ATOM     10  O   UNL     1      19.050  -6.454   8.672  1.00  0.00    -0.385 OA
ATOM     11  H   UNL     1      18.643  -6.397   9.572  1.00  0.00     0.211 HD
ENDBRANCH   2  10
BRANCH   3  12
ATOM     12  O   UNL     1      19.147  -9.915   8.070  1.00  0.00    -0.387 OA
ATOM     13  H   UNL     1      19.513 -10.100   8.974  1.00  0.00     0.211 HD
ENDBRANCH   3  12
BRANCH   5  14
ATOM     14  C   UNL     1      20.256  -7.278   4.093  1.00  0.00     0.191 C 
BRANCH  14  15
ATOM     15  O   UNL     1      21.392  -8.091   3.972  1.00  0.00    -0.394 OA
ATOM     16  H   UNL     1      21.929  -7.726   3.223  1.00  0.00     0.210 HD
ENDBRANCH  14  15
ENDBRANCH   5  14
BRANCH   4  17
ATOM     17  O   UNL     1      19.415  -9.694   5.491  1.00  0.00    -0.387 OA
ATOM     18  H   UNL     1      20.108 -10.376   5.302  1.00  0.00     0.211 HD
ENDBRANCH   4  17
TORSDOF 7
ENDMDL
MODEL 4
REMARK VINA RESULT:    -3.010      2.042      3.846
REMARK INTER + INTRA:          -4.250
REMARK INTER:                  -3.738
REMARK INTRA:                  -0.513
REMARK UNBOUND:                -0.360
REMARK SMILES CCO[C@@H]1O[C@H](CO)[C@H](O)[C@H](O)[C@H]1O
REMARK SMILES IDX 4 1 13 2 11 3 9 4 6 5 5 6 3 7 2 8 1 9 14 10 12 12 7 14 8 15
REMARK SMILES IDX 10 17
REMARK H PARENT 14 11 12 13 8 16 10 18
REMARK Flexibility Score: inf
ROOT
ATOM      1  C   UNL     1      17.710  -6.848   6.152  1.00  0.00     0.281 C 
ATOM      2  C   UNL     1      18.994  -6.924   7.034  1.00  0.00     0.202 C 
ATOM      3  C   UNL     1      19.451  -8.368   7.370  1.00  0.00     0.179 C 
ATOM      4  C   UNL     1      18.932  -9.412   6.356  1.00  0.00     0.177 C 
ATOM      5  C   UNL     1      18.623  -8.761   4.990  1.00  0.00     0.178 C 
ATOM      6  O   UNL     1      17.605  -7.779   5.075  1.00  0.00    -0.341 OA
ENDROOT
BRANCH   1   7
ATOM      7  O   UNL     1      16.574  -7.027   6.985  1.00  0.00    -0.350 OA
BRANCH   7   8
ATOM      8  C   UNL     1      15.442  -7.416   6.234  1.00  0.00     0.160 C 
ATOM      9  C   UNL     1      14.513  -8.232   7.120  1.00  0.00     0.035 C 
ENDBRANCH   7   8
ENDBRANCH   1   7
BRANCH   2  10
ATOM     10  O   UNL     1      20.039  -6.164   6.476  1.00  0.00    -0.385 OA
ATOM     11  H   UNL     1      20.519  -6.725   5.818  1.00  0.00     0.211 HD
ENDBRANCH   2  10
BRANCH   3  12
ATOM     12  O   UNL     1      19.043  -8.723   8.668  1.00  0.00    -0.387 OA
ATOM     13  H   UNL     1      18.742  -9.668   8.632  1.00  0.00     0.211 HD
ENDBRANCH   3  12
BRANCH   5  14
ATOM     14  C   UNL     1      18.192  -9.828   3.971  1.00  0.00     0.191 C 
BRANCH  14  15
ATOM     15  O   UNL     1      16.830 -10.125   4.121  1.00  0.00    -0.394 OA
ATOM     16  H   UNL     1      16.712 -11.073   3.856  1.00  0.00     0.210 HD
ENDBRANCH  14  15
ENDBRANCH   5  14
BRANCH   4  17
ATOM     17  O   UNL     1      17.821 -10.125   6.847  1.00  0.00    -0.387 OA
ATOM     18  H   UNL     1      17.642 -10.881   6.232  1.00  0.00     0.211 HD
ENDBRANCH   4  17
TORSDOF 7
ENDMDL
MODEL 5
REMARK VINA RESULT:    -2.991      2.484      4.933
REMARK INTER + INTRA:          -4.225
REMARK INTER:                  -3.868
REMARK INTRA:                  -0.357
REMARK UNBOUND:                -0.360
REMARK SMILES CCO[C@@H]1O[C@H](CO)[C@H](O)[C@H](O)[C@H]1O
REMARK SMILES IDX 4 1 13 2 11 3 9 4 6 5 5 6 3 7 2 8 1 9 14 10 12 12 7 14 8 15
REMARK SMILES IDX 10 17
REMARK H PARENT 14 11 12 13 8 16 10 18
REMARK Flexibility Score: inf
ROOT
ATOM      1  C   UNL     1      15.563  -8.500   5.433  1.00  0.00     0.281 C 
ATOM      2  C   UNL     1      16.072  -7.100   5.894  1.00  0.00     0.202 C 
ATOM      3  C   UNL     1      17.451  -7.128   6.605  1.00  0.00     0.179 C 
ATOM      4  C   UNL     1      18.292  -8.370   6.236  1.00  0.00     0.177 C 
ATOM      5  C   UNL     1      17.871  -8.945   4.866  1.00  0.00     0.178 C 
ATOM      6  O   UNL     1      16.524  -9.384   4.853  1.00  0.00    -0.341 OA
ENDROOT
BRANCH   1   7
ATOM      7  O   UNL     1      14.988  -9.166   6.548  1.00  0.00    -0.350 OA
BRANCH   7   8
ATOM      8  C   UNL     1      13.971  -8.386   7.144  1.00  0.00     0.160 C 
ATOM      9  C   UNL     1      12.812  -8.249   6.168  1.00  0.00     0.035 C 
ENDBRANCH   7   8
ENDBRANCH   1   7
BRANCH   2  10
ATOM     10  O   UNL     1      16.054  -6.178   4.830  1.00  0.00    -0.385 OA
ATOM     11  H   UNL     1      15.602  -6.598   4.058  1.00  0.00     0.211 HD
ENDBRANCH   2  10
BRANCH   3  12
ATOM     12  O   UNL     1      17.284  -7.064   8.000  1.00  0.00    -0.387 OA
ATOM     13  H   UNL     1      18.185  -6.939   8.397  1.00  0.00     0.211 HD
ENDBRANCH   3  12
BRANCH   5  14
ATOM     14  C   UNL     1      18.775 -10.125   4.477  1.00  0.00     0.191 C 
BRANCH  14  15
ATOM     15  O   UNL     1      20.084  -9.908   4.929  1.00  0.00    -0.394 OA
ATOM     16  H   UNL     1      20.339 -10.702   5.466  1.00  0.00     0.210 HD
ENDBRANCH  14  15
ENDBRANCH   5  14
BRANCH   4  17
ATOM     17  O   UNL     1      18.252  -9.357   7.240  1.00  0.00    -0.387 OA
ATOM     18  H   UNL     1      17.313  -9.455   7.540  1.00  0.00     0.211 HD
ENDBRANCH   4  17
TORSDOF 7
ENDMDL
MODEL 6
REMARK VINA RESULT:    -2.977      1.742      3.532
REMARK INTER + INTRA:          -4.208
REMARK INTER:                  -3.852
REMARK INTRA:                  -0.356
REMARK UNBOUND:                -0.360
REMARK SMILES CCO[C@@H]1O[C@H](CO)[C@H](O)[C@H](O)[C@H]1O
REMARK SMILES IDX 4 1 13 2 11 3 9 4 6 5 5 6 3 7 2 8 1 9 14 10 12 12 7 14 8 15
REMARK SMILES IDX 10 17
REMARK H PARENT 14 11 12 13 8 16 10 18
REMARK Flexibility Score: inf
ROOT
ATOM      1  C   UNL     1      19.151  -8.081   7.203  1.00  0.00     0.281 C 
ATOM      2  C   UNL     1      19.887  -8.146   5.830  1.00  0.00     0.202 C 
ATOM      3  C   UNL     1      18.977  -8.549   4.639  1.00  0.00     0.179 C 
ATOM      4  C   UNL     1      17.482  -8.263   4.903  1.00  0.00     0.177 C 
ATOM      5  C   UNL     1      17.302  -7.148   5.956  1.00  0.00     0.178 C 
ATOM      6  O   UNL     1      17.847  -7.498   7.216  1.00  0.00    -0.341 OA
ENDROOT
BRANCH   1   7
ATOM      7  O   UNL     1      19.036  -9.398   7.722  1.00  0.00    -0.350 OA
BRANCH   7   8
ATOM      8  C   UNL     1      20.169  -9.750   8.489  1.00  0.00     0.160 C 
ATOM      9  C   UNL     1      19.797  -9.730   9.964  1.00  0.00     0.035 C 
ENDBRANCH   7   8
ENDBRANCH   1   7
BRANCH   2  10
ATOM     10  O   UNL     1      20.584  -6.950   5.571  1.00  0.00    -0.385 OA
ATOM     11  H   UNL     1      20.835  -6.539   6.435  1.00  0.00     0.211 HD
ENDBRANCH   2  10
BRANCH   3  12
ATOM     12  O   UNL     1      19.154  -9.908   4.326  1.00  0.00    -0.387 OA
ATOM     13  H   UNL     1      19.625 -10.326   5.094  1.00  0.00     0.211 HD
ENDBRANCH   3  12
BRANCH   5  14
ATOM     14  C   UNL     1      15.812  -6.818   6.140  1.00  0.00     0.191 C 
BRANCH  14  15
ATOM     15  O   UNL     1      15.286  -7.525   7.231  1.00  0.00    -0.394 OA
ATOM     16  H   UNL     1      14.999  -8.410   6.889  1.00  0.00     0.210 HD
ENDBRANCH  14  15
ENDBRANCH   5  14
BRANCH   4  17
ATOM     17  O   UNL     1      16.773  -9.426   5.262  1.00  0.00    -0.387 OA
ATOM     18  H   UNL     1      15.875  -9.382   4.845  1.00  0.00     0.211 HD
ENDBRANCH   4  17
TORSDOF 7
ENDMDL
MODEL 7
REMARK VINA RESULT:    -2.974      1.692      4.282
REMARK INTER + INTRA:          -4.203
REMARK INTER:                  -3.758
REMARK INTRA:                  -0.445
REMARK UNBOUND:                -0.360
REMARK SMILES CCO[C@@H]1O[C@H](CO)[C@H](O)[C@H](O)[C@H]1O
REMARK SMILES IDX 4 1 13 2 11 3 9 4 6 5 5 6 3 7 2 8 1 9 14 10 12 12 7 14 8 15
REMARK SMILES IDX 10 17
REMARK H PARENT 14 11 12 13 8 16 10 18
REMARK Flexibility Score: inf
ROOT
ATOM      1  C   UNL     1      17.506  -7.942   4.757  1.00  0.00     0.281 C 
ATOM      2  C   UNL     1      17.192  -7.649   6.255  1.00  0.00     0.202 C 
ATOM      3  C   UNL     1      18.449  -7.491   7.151  1.00  0.00     0.179 C 
ATOM      4  C   UNL     1      19.710  -7.095   6.350  1.00  0.00     0.177 C 
ATOM      5  C   UNL     1      19.335  -6.385   5.030  1.00  0.00     0.178 C 
ATOM      6  O   UNL     1      18.582  -7.215   4.163  1.00  0.00    -0.341 OA
ENDROOT
BRANCH   1   7
ATOM      7  O   UNL     1      17.796  -9.326   4.614  1.00  0.00    -0.350 OA
BRANCH   7   8
ATOM      8  C   UNL     1      16.712 -10.125   5.045  1.00  0.00     0.160 C 
ATOM      9  C   UNL     1      15.633 -10.118   3.973  1.00  0.00     0.035 C 
ENDBRANCH   7   8
ENDBRANCH   1   7
BRANCH   2  10
ATOM     10  O   UNL     1      16.320  -6.551   6.385  1.00  0.00    -0.385 OA
ATOM     11  H   UNL     1      16.498  -5.919   5.646  1.00  0.00     0.211 HD
ENDBRANCH   2  10
BRANCH   3  12
ATOM     12  O   UNL     1      18.693  -8.677   7.866  1.00  0.00    -0.387 OA
ATOM     13  H   UNL     1      18.498  -8.487   8.821  1.00  0.00     0.211 HD
ENDBRANCH   3  12
BRANCH   5  14
ATOM     14  C   UNL     1      20.601  -5.924   4.291  1.00  0.00     0.191 C 
BRANCH  14  15
ATOM     15  O   UNL     1      21.610  -5.592   5.207  1.00  0.00    -0.394 OA
ATOM     16  H   UNL     1      22.469  -5.623   4.712  1.00  0.00     0.210 HD
ENDBRANCH  14  15
ENDBRANCH   5  14
BRANCH   4  17
ATOM     17  O   UNL     1      20.559  -8.195   6.117  1.00  0.00    -0.387 OA
ATOM     18  H   UNL     1      20.637  -8.324   5.138  1.00  0.00     0.211 HD
ENDBRANCH   4  17
TORSDOF 7
ENDMDL
MODEL 8
REMARK VINA RESULT:    -2.906      1.858      4.080
REMARK INTER + INTRA:          -4.115
REMARK INTER:                  -3.737
REMARK INTRA:                  -0.377
REMARK UNBOUND:                -0.360
REMARK SMILES CCO[C@@H]1O[C@H](CO)[C@H](O)[C@H](O)[C@H]1O
REMARK SMILES IDX 4 1 13 2 11 3 9 4 6 5 5 6 3 7 2 8 1 9 14 10 12 12 7 14 8 15
REMARK SMILES IDX 10 17
REMARK H PARENT 14 11 12 13 8 16 10 18
REMARK Flexibility Score: inf
ROOT
ATOM      1  C   UNL     1      17.090  -8.659   5.727  1.00  0.00     0.281 C 
ATOM      2  C   UNL     1      17.899  -8.679   4.394  1.00  0.00     0.202 C 
ATOM      3  C   UNL     1      19.291  -7.998   4.485  1.00  0.00     0.179 C 
ATOM      4  C   UNL     1      19.839  -7.944   5.929  1.00  0.00     0.177 C 
ATOM      5  C   UNL     1      19.217  -9.052   6.806  1.00  0.00     0.178 C 
ATOM      6  O   UNL     1      17.812  -8.921   6.931  1.00  0.00    -0.341 OA
ENDROOT
BRANCH   1   7
ATOM      7  O   UNL     1      16.472  -7.387   5.866  1.00  0.00    -0.350 OA
BRANCH   7   8
ATOM      8  C   UNL     1      15.093  -7.449   5.561  1.00  0.00     0.160 C 
ATOM      9  C   UNL     1      14.377  -8.230   6.653  1.00  0.00     0.035 C 
ENDBRANCH   7   8
ENDBRANCH   1   7
BRANCH   2  10
ATOM     10  O   UNL     1      17.991  -9.984   3.876  1.00  0.00    -0.385 OA
ATOM     11  H   UNL     1      18.942 -10.255   3.873  1.00  0.00     0.211 HD
ENDBRANCH   2  10
BRANCH   3  12
ATOM     12  O   UNL     1      19.237  -6.700   3.947  1.00  0.00    -0.387 OA
ATOM     13  H   UNL     1      19.020  -6.791   2.983  1.00  0.00     0.211 HD
ENDBRANCH   3  12
BRANCH   5  14
ATOM     14  C   UNL     1      19.838  -9.036   8.211  1.00  0.00     0.191 C 
BRANCH  14  15
ATOM     15  O   UNL     1      19.124  -8.170   9.052  1.00  0.00    -0.394 OA
ATOM     16  H   UNL     1      18.247  -8.007   8.618  1.00  0.00     0.210 HD
ENDBRANCH  14  15
ENDBRANCH   5  14
BRANCH   4  17
ATOM     17  O   UNL     1      19.673  -6.673   6.513  1.00  0.00    -0.387 OA
ATOM     18  H   UNL     1      19.057  -6.766   7.285  1.00  0.00     0.211 HD
ENDBRANCH   4  17
TORSDOF 7
ENDMDL
