MODEL 1
REMARK VINA RESULT:    11.725      0.000      0.000
REMARK INTER + INTRA:          17.476
REMARK INTER:                  17.209
REMARK INTRA:                   0.267
REMARK UNBOUND:                 0.267
REMARK SMILES C=C1C=C[C@@H](C(C)C)CCC(C)=CCC1
REMARK SMILES IDX 3 1 4 2 5 3 9 4 10 5 11 6 12 7 13 8 6 10 7 11 8 12 2 13 1 14
REMARK SMILES IDX 15 15 14 16
REMARK H PARENT
REMARK Flexibility Score: 70.00
ROOT
ATOM      1  C   UNL     1     147.024 136.046 160.839  1.00  0.00    -0.001 C 
ATOM      2  C   UNL     1     148.136 135.432 161.344  1.00  0.00    -0.023 C 
ENDROOT
BRANCH   2   3
ATOM      3  C   UNL     1     149.607 135.625 160.932  1.00  0.00     0.014 C 
BRANCH   3   4
ATOM      4  C   UNL     1     149.806 135.000 159.567  1.00  0.00     0.012 C 
BRANCH   4   5
ATOM      5  C   UNL     1     150.910 135.318 158.596  1.00  0.00     0.031 C 
BRANCH   5   6
ATOM      6  C   UNL     1     150.294 135.884 157.300  1.00  0.00    -0.077 C 
ATOM      7  C   UNL     1     151.261 136.445 156.288  1.00  0.00     0.039 C 
ATOM      8  C   UNL     1     148.951 135.973 156.995  1.00  0.00    -0.028 CG0
ATOM      9  G   UNL     1     147.732 135.369 157.715  1.00  0.00     0.000 G0
ENDBRANCH   5   6
ENDBRANCH   4   5
ENDBRANCH   3   4
BRANCH   3  10
ATOM     10  C   UNL     1     150.614 135.113 162.004  1.00  0.00    -0.010 C 
ATOM     11  C   UNL     1     151.805 136.074 162.136  1.00  0.00     0.008 C 
ATOM     12  C   UNL     1     149.982 134.875 163.388  1.00  0.00     0.008 C 
ENDBRANCH   3  10
ENDBRANCH   2   3
BRANCH   1  13
ATOM     13  C   UNL     1     146.920 136.926 159.626  1.00  0.00    -0.055 C 
ATOM     14  C   UNL     1     147.232 138.217 159.767  1.00  0.00     0.012 C 
BRANCH  13  15
ATOM     15  C   UNL     1     146.636 136.378 158.216  1.00  0.00     0.039 C 
BRANCH  15  16
ATOM     16  C   UNL     1     147.706 135.355 157.682  1.00  0.00     0.032 CG0
ATOM     17  G   UNL     1     148.962 135.944 157.016  1.00  0.00     0.000 G0
ENDBRANCH  15  16
ENDBRANCH  13  15
ENDBRANCH   1  13
TORSDOF 1
ENDMDL
MODEL 2
REMARK VINA RESULT:    14.127      9.933     12.310
REMARK INTER + INTRA:          21.002
REMARK INTER:                  21.533
REMARK INTRA:                  -0.531
REMARK UNBOUND:                 0.267
REMARK SMILES C=C1C=C[C@@H](C(C)C)CCC(C)=CCC1
REMARK SMILES IDX 3 1 4 2 5 3 9 4 10 5 11 6 12 7 13 8 6 10 7 11 8 12 2 13 1 14
REMARK SMILES IDX 15 15 14 16
REMARK H PARENT
REMARK Flexibility Score: 70.00
ROOT
ATOM      1  C   UNL     1     145.799 145.974 166.708  1.00  0.00    -0.001 C 
ATOM      2  C   UNL     1     145.858 147.193 166.092  1.00  0.00    -0.023 C 
ENDROOT
BRANCH   2   3
ATOM      3  C   UNL     1     145.072 147.684 164.863  1.00  0.00     0.014 C 
BRANCH   3   4
ATOM      4  C   UNL     1     145.655 147.026 163.630  1.00  0.00     0.012 C 
BRANCH   4   5
ATOM      5  C   UNL     1     144.880 146.364 162.524  1.00  0.00     0.031 C 
BRANCH   5   6
ATOM      6  C   UNL     1     145.631 145.096 162.070  1.00  0.00    -0.077 C 
ATOM      7  C   UNL     1     146.479 145.227 160.830  1.00  0.00     0.039 C 
ATOM      8  C   UNL     1     145.569 143.846 162.654  1.00  0.00    -0.028 CG0
ATOM      9  G   UNL     1     144.941 143.410 163.990  1.00  0.00     0.000 G0
ENDBRANCH   5   6
ENDBRANCH   4   5
ENDBRANCH   3   4
BRANCH   3  10
ATOM     10  C   UNL     1     145.000 149.237 164.763  1.00  0.00    -0.010 C 
ATOM     11  C   UNL     1     144.297 149.668 163.468  1.00  0.00     0.008 C 
ATOM     12  C   UNL     1     144.319 149.906 165.972  1.00  0.00     0.008 C 
ENDBRANCH   3  10
ENDBRANCH   2   3
BRANCH   1  13
ATOM     13  C   UNL     1     145.098 144.731 166.239  1.00  0.00    -0.055 C 
ATOM     14  C   UNL     1     143.803 144.599 166.538  1.00  0.00     0.012 C 
BRANCH  13  15
ATOM     15  C   UNL     1     145.756 143.702 165.303  1.00  0.00     0.039 C 
BRANCH  15  16
ATOM     16  C   UNL     1     144.943 143.394 163.992  1.00  0.00     0.032 CG0
ATOM     17  G   UNL     1     145.574 143.836 162.660  1.00  0.00     0.000 G0
ENDBRANCH  15  16
ENDBRANCH  13  15
ENDBRANCH   1  13
TORSDOF 1
ENDMDL
MODEL 3
REMARK VINA RESULT:    14.458     10.017     12.514
REMARK INTER + INTRA:          21.487
REMARK INTER:                  18.889
REMARK INTRA:                   2.598
REMARK UNBOUND:                 0.267
REMARK SMILES C=C1C=C[C@@H](C(C)C)CCC(C)=CCC1
REMARK SMILES IDX 3 1 4 2 5 3 9 4 10 5 11 6 12 7 13 8 6 10 7 11 8 12 2 13 1 14
REMARK SMILES IDX 15 15 14 16
REMARK H PARENT
REMARK Flexibility Score: 70.00
ROOT
ATOM      1  C   UNL     1     145.255 143.034 163.897  1.00  0.00    -0.001 C 
ATOM      2  C   UNL     1     145.383 143.714 162.718  1.00  0.00    -0.023 C 
ENDROOT
BRANCH   2   3
ATOM      3  C   UNL     1     145.860 145.160 162.493  1.00  0.00     0.014 C 
BRANCH   3   4
ATOM      4  C   UNL     1     145.340 146.016 163.629  1.00  0.00     0.012 C 
BRANCH   4   5
ATOM      5  C   UNL     1     145.029 147.486 163.565  1.00  0.00     0.031 C 
BRANCH   5   6
ATOM      6  C   UNL     1     145.021 148.064 164.995  1.00  0.00    -0.077 C 
ATOM      7  C   UNL     1     144.626 149.513 165.131  1.00  0.00     0.039 C 
ATOM      8  C   UNL     1     145.383 147.405 166.153  1.00  0.00    -0.028 CG0
ATOM      9  G   UNL     1     145.678 145.913 166.390  1.00  0.00     0.000 G0
ENDBRANCH   5   6
ENDBRANCH   4   5
ENDBRANCH   3   4
BRANCH   3  10
ATOM     10  C   UNL     1     145.496 145.712 161.083  1.00  0.00    -0.010 C 
ATOM     11  C   UNL     1     146.529 145.262 160.039  1.00  0.00     0.008 C 
ATOM     12  C   UNL     1     144.080 145.330 160.612  1.00  0.00     0.008 C 
ENDBRANCH   3  10
ENDBRANCH   2   3
BRANCH   1  13
ATOM     13  C   UNL     1     145.362 143.574 165.295  1.00  0.00    -0.055 C 
ATOM     14  C   UNL     1     146.188 142.950 166.140  1.00  0.00     0.012 C 
BRANCH  13  15
ATOM     15  C   UNL     1     144.699 144.890 165.737  1.00  0.00     0.039 C 
BRANCH  15  16
ATOM     16  C   UNL     1     145.677 145.928 166.402  1.00  0.00     0.032 CG0
ATOM     17  G   UNL     1     145.372 147.419 166.175  1.00  0.00     0.000 G0
ENDBRANCH  15  16
ENDBRANCH  13  15
ENDBRANCH   1  13
TORSDOF 1
ENDMDL
MODEL 4
REMARK VINA RESULT:    14.488      8.752     10.728
REMARK INTER + INTRA:          21.532
REMARK INTER:                  19.241
REMARK INTRA:                   2.290
REMARK UNBOUND:                 0.267
REMARK SMILES C=C1C=C[C@@H](C(C)C)CCC(C)=CCC1
REMARK SMILES IDX 3 1 4 2 5 3 9 4 10 5 11 6 12 7 13 8 6 10 7 11 8 12 2 13 1 14
REMARK SMILES IDX 15 15 14 16
REMARK H PARENT
REMARK Flexibility Score: 70.00
ROOT
ATOM      1  C   UNL     1     144.795 144.994 166.307  1.00  0.00    -0.001 C 
ATOM      2  C   UNL     1     144.879 143.697 165.886  1.00  0.00    -0.023 C 
ENDROOT
BRANCH   2   3
ATOM      3  C   UNL     1     145.737 143.112 164.749  1.00  0.00     0.014 C 
BRANCH   3   4
ATOM      4  C   UNL     1     145.279 143.725 163.443  1.00  0.00     0.012 C 
BRANCH   4   5
ATOM      5  C   UNL     1     146.111 143.902 162.203  1.00  0.00     0.031 C 
BRANCH   5   6
ATOM      6  C   UNL     1     145.478 144.997 161.321  1.00  0.00    -0.077 C 
ATOM      7  C   UNL     1     145.312 144.668 159.859  1.00  0.00     0.039 C 
ATOM      8  C   UNL     1     145.093 146.260 161.725  1.00  0.00    -0.028 CG0
ATOM      9  G   UNL     1     144.978 146.854 163.140  1.00  0.00     0.000 G0
ENDBRANCH   5   6
ENDBRANCH   4   5
ENDBRANCH   3   4
BRANCH   3  10
ATOM     10  C   UNL     1     145.753 141.555 164.734  1.00  0.00    -0.010 C 
ATOM     11  C   UNL     1     146.481 141.029 163.488  1.00  0.00     0.008 C 
ATOM     12  C   UNL     1     146.367 140.926 165.999  1.00  0.00     0.008 C 
ENDBRANCH   3  10
ENDBRANCH   2   3
BRANCH   1  13
ATOM     13  C   UNL     1     145.366 146.220 165.652  1.00  0.00    -0.055 C 
ATOM     14  C   UNL     1     145.509 147.316 166.404  1.00  0.00     0.012 C 
BRANCH  13  15
ATOM     15  C   UNL     1     145.939 146.217 164.224  1.00  0.00     0.039 C 
BRANCH  15  16
ATOM     16  C   UNL     1     144.991 146.843 163.136  1.00  0.00     0.032 CG0
ATOM     17  G   UNL     1     145.100 146.279 161.708  1.00  0.00     0.000 G0
ENDBRANCH  15  16
ENDBRANCH  13  15
ENDBRANCH   1  13
TORSDOF 1
ENDMDL
MODEL 5
REMARK VINA RESULT:    14.557      9.233     11.830
REMARK INTER + INTRA:          21.632
REMARK INTER:                  22.183
REMARK INTRA:                  -0.551
REMARK UNBOUND:                 0.267
REMARK SMILES C=C1C=C[C@@H](C(C)C)CCC(C)=CCC1
REMARK SMILES IDX 3 1 4 2 5 3 9 4 10 5 11 6 12 7 13 8 6 10 7 11 8 12 2 13 1 14
REMARK SMILES IDX 15 15 14 16
REMARK H PARENT
REMARK Flexibility Score: 70.00
ROOT
ATOM      1  C   UNL     1     146.174 146.923 164.532  1.00  0.00    -0.001 C 
ATOM      2  C   UNL     1     146.078 146.266 163.337  1.00  0.00    -0.023 C 
ENDROOT
BRANCH   2   3
ATOM      3  C   UNL     1     144.866 145.521 162.748  1.00  0.00     0.014 C 
BRANCH   3   4
ATOM      4  C   UNL     1     144.901 144.089 163.239  1.00  0.00     0.012 C 
BRANCH   4   5
ATOM      5  C   UNL     1     146.124 143.326 163.667  1.00  0.00     0.031 C 
BRANCH   5   6
ATOM      6  C   UNL     1     145.823 142.590 164.988  1.00  0.00    -0.077 C 
ATOM      7  C   UNL     1     145.708 141.088 164.908  1.00  0.00     0.039 C 
ATOM      8  C   UNL     1     145.603 143.167 166.223  1.00  0.00    -0.028 CG0
ATOM      9  G   UNL     1     145.796 144.624 166.681  1.00  0.00     0.000 G0
ENDBRANCH   5   6
ENDBRANCH   4   5
ENDBRANCH   3   4
BRANCH   3  10
ATOM     10  C   UNL     1     144.766 145.645 161.199  1.00  0.00    -0.010 C 
ATOM     11  C   UNL     1     145.044 147.087 160.748  1.00  0.00     0.008 C 
ATOM     12  C   UNL     1     145.688 144.675 160.436  1.00  0.00     0.008 C 
ENDBRANCH   3  10
ENDBRANCH   2   3
BRANCH   1  13
ATOM     13  C   UNL     1     145.190 146.932 165.667  1.00  0.00    -0.055 C 
ATOM     14  C   UNL     1     144.637 148.103 165.999  1.00  0.00     0.012 C 
BRANCH  13  15
ATOM     15  C   UNL     1     144.677 145.648 166.340  1.00  0.00     0.039 C 
BRANCH  15  16
ATOM     16  C   UNL     1     145.799 144.609 166.713  1.00  0.00     0.032 CG0
ATOM     17  G   UNL     1     145.599 143.162 166.227  1.00  0.00     0.000 G0
ENDBRANCH  15  16
ENDBRANCH  13  15
ENDBRANCH   1  13
TORSDOF 1
ENDMDL
MODEL 6
REMARK VINA RESULT:    14.621     10.196     12.532
REMARK INTER + INTRA:          21.726
REMARK INTER:                  19.959
REMARK INTRA:                   1.767
REMARK UNBOUND:                 0.267
REMARK SMILES C=C1C=C[C@@H](C(C)C)CCC(C)=CCC1
REMARK SMILES IDX 3 1 4 2 5 3 9 4 10 5 11 6 12 7 13 8 6 10 7 11 8 12 2 13 1 14
REMARK SMILES IDX 15 15 14 16
REMARK H PARENT
REMARK Flexibility Score: 70.00
ROOT
ATOM      1  C   UNL     1     145.747 144.498 161.782  1.00  0.00    -0.001 C 
ATOM      2  C   UNL     1     145.840 144.325 163.135  1.00  0.00    -0.023 C 
ENDROOT
BRANCH   2   3
ATOM      3  C   UNL     1     145.092 145.077 164.251  1.00  0.00     0.014 C 
BRANCH   3   4
ATOM      4  C   UNL     1     145.806 146.388 164.504  1.00  0.00     0.012 C 
BRANCH   4   5
ATOM      5  C   UNL     1     145.400 147.445 165.493  1.00  0.00     0.031 C 
BRANCH   5   6
ATOM      6  C   UNL     1     144.944 148.704 164.728  1.00  0.00    -0.077 C 
ATOM      7  C   UNL     1     144.510 149.879 165.568  1.00  0.00     0.039 C 
ATOM      8  C   UNL     1     144.849 148.848 163.358  1.00  0.00    -0.028 CG0
ATOM      9  G   UNL     1     145.349 147.927 162.231  1.00  0.00     0.000 G0
ENDBRANCH   5   6
ENDBRANCH   4   5
ENDBRANCH   3   4
BRANCH   3  10
ATOM     10  C   UNL     1     144.889 144.220 165.536  1.00  0.00    -0.010 C 
ATOM     11  C   UNL     1     145.387 142.784 165.318  1.00  0.00     0.008 C 
ATOM     12  C   UNL     1     145.554 144.817 166.792  1.00  0.00     0.008 C 
ENDBRANCH   3  10
ENDBRANCH   2   3
BRANCH   1  13
ATOM     13  C   UNL     1     145.038 145.591 161.034  1.00  0.00    -0.055 C 
ATOM     14  C   UNL     1     144.880 145.439 159.716  1.00  0.00     0.012 C 
BRANCH  13  15
ATOM     15  C   UNL     1     144.352 146.777 161.735  1.00  0.00     0.039 C 
BRANCH  15  16
ATOM     16  C   UNL     1     145.328 147.921 162.195  1.00  0.00     0.032 CG0
ATOM     17  G   UNL     1     144.847 148.830 163.341  1.00  0.00     0.000 G0
ENDBRANCH  15  16
ENDBRANCH  13  15
ENDBRANCH   1  13
TORSDOF 1
ENDMDL
