MODEL 1
REMARK VINA RESULT:    -5.569      0.000      0.000
REMARK INTER + INTRA:          -7.687
REMARK INTER:                  -6.871
REMARK INTRA:                  -0.816
REMARK UNBOUND:                -0.816
REMARK SMILES CC(C)=CCC[C@H](C)c1ccc(C)cc1
REMARK SMILES IDX 6 1 7 2 8 3 9 4 13 5 12 6 11 7 14 8 10 9 15 10 5 11 4 12
REMARK SMILES IDX 2 13 1 14 3 15
REMARK H PARENT
REMARK Flexibility Score: inf
ROOT
ATOM      1  C   UNL     1      43.803 -39.971  34.426  1.00  0.00     0.012 C 
ENDROOT
BRANCH   1   2
ATOM      2  C   UNL     1      43.399 -41.413  34.044  1.00  0.00     0.016 C 
ATOM      3  C   UNL     1      44.487 -42.438  34.402  1.00  0.00     0.013 C 
BRANCH   2   4
ATOM      4  C   UNL     1      43.062 -41.493  32.566  1.00  0.00    -0.045 A 
ATOM      5  C   UNL     1      42.049 -41.695  28.371  1.00  0.00     0.044 C 
ATOM      6  C   UNL     1      42.417 -41.651  29.825  1.00  0.00    -0.051 A 
ATOM      7  C   UNL     1      41.578 -42.234  30.784  1.00  0.00     0.004 A 
ATOM      8  C   UNL     1      43.566 -40.965  30.242  1.00  0.00     0.004 A 
ATOM      9  C   UNL     1      41.900 -42.161  32.142  1.00  0.00     0.004 A 
ATOM     10  C   UNL     1      43.890 -40.890  31.600  1.00  0.00     0.004 A 
ENDBRANCH   2   4
ENDBRANCH   1   2
BRANCH   1  11
ATOM     11  C   UNL     1      43.069 -39.463  35.676  1.00  0.00     0.028 C 
BRANCH  11  12
ATOM     12  C   UNL     1      41.913 -40.370  36.020  1.00  0.00    -0.028 C 
ATOM     13  C   UNL     1      41.920 -41.266  37.032  1.00  0.00    -0.080 C 
ATOM     14  C   UNL     1      40.705 -42.135  37.231  1.00  0.00     0.039 C 
ATOM     15  C   UNL     1      43.096 -41.405  37.970  1.00  0.00     0.039 C 
ENDBRANCH  11  12
ENDBRANCH   1  11
TORSDOF 4
ENDMDL
MODEL 2
REMARK VINA RESULT:    -5.433     13.957     16.115
REMARK INTER + INTRA:          -7.520
REMARK INTER:                  -6.306
REMARK INTRA:                  -1.214
REMARK UNBOUND:                -0.816
REMARK SMILES CC(C)=CCC[C@H](C)c1ccc(C)cc1
REMARK SMILES IDX 6 1 7 2 8 3 9 4 13 5 12 6 11 7 14 8 10 9 15 10 5 11 4 12
REMARK SMILES IDX 2 13 1 14 3 15
REMARK H PARENT
REMARK Flexibility Score: inf
ROOT
ATOM      1  C   UNL     1      41.285 -49.581  20.264  1.00  0.00     0.012 C 
ENDROOT
BRANCH   1   2
ATOM      2  C   UNL     1      42.073 -49.339  21.571  1.00  0.00     0.016 C 
ATOM      3  C   UNL     1      43.532 -48.934  21.306  1.00  0.00     0.013 C 
BRANCH   2   4
ATOM      4  C   UNL     1      42.019 -50.572  22.456  1.00  0.00    -0.045 A 
ATOM      5  C   UNL     1      41.928 -54.077  24.980  1.00  0.00     0.044 C 
ATOM      6  C   UNL     1      41.935 -52.870  24.088  1.00  0.00    -0.051 A 
ATOM      7  C   UNL     1      42.701 -52.864  22.914  1.00  0.00     0.004 A 
ATOM      8  C   UNL     1      41.233 -51.715  24.458  1.00  0.00     0.004 A 
ATOM      9  C   UNL     1      42.739 -51.727  22.102  1.00  0.00     0.004 A 
ATOM     10  C   UNL     1      41.269 -50.577  23.648  1.00  0.00     0.004 A 
ENDBRANCH   2   4
ENDBRANCH   1   2
BRANCH   1  11
ATOM     11  C   UNL     1      39.933 -50.269  20.508  1.00  0.00     0.028 C 
BRANCH  11  12
ATOM     12  C   UNL     1      40.004 -51.730  20.137  1.00  0.00    -0.028 C 
ATOM     13  C   UNL     1      39.445 -52.728  20.857  1.00  0.00    -0.080 C 
ATOM     14  C   UNL     1      39.633 -54.147  20.385  1.00  0.00     0.039 C 
ATOM     15  C   UNL     1      38.629 -52.459  22.100  1.00  0.00     0.039 C 
ENDBRANCH  11  12
ENDBRANCH   1  11
TORSDOF 4
ENDMDL
MODEL 3
REMARK VINA RESULT:    -5.428     13.695     16.496
REMARK INTER + INTRA:          -7.513
REMARK INTER:                  -6.168
REMARK INTRA:                  -1.345
REMARK UNBOUND:                -0.816
REMARK SMILES CC(C)=CCC[C@H](C)c1ccc(C)cc1
REMARK SMILES IDX 6 1 7 2 8 3 9 4 13 5 12 6 11 7 14 8 10 9 15 10 5 11 4 12
REMARK SMILES IDX 2 13 1 14 3 15
REMARK H PARENT
REMARK Flexibility Score: inf
ROOT
ATOM      1  C   UNL     1      39.448 -51.106  20.022  1.00  0.00     0.012 C 
ENDROOT
BRANCH   1   2
ATOM      2  C   UNL     1      39.181 -51.870  21.338  1.00  0.00     0.016 C 
ATOM      3  C   UNL     1      38.711 -50.939  22.468  1.00  0.00     0.013 C 
BRANCH   2   4
ATOM      4  C   UNL     1      40.419 -52.637  21.765  1.00  0.00    -0.045 A 
ATOM      5  C   UNL     1      43.968 -54.810  22.924  1.00  0.00     0.044 C 
ATOM      6  C   UNL     1      42.719 -54.074  22.540  1.00  0.00    -0.051 A 
ATOM      7  C   UNL     1      41.991 -54.461  21.406  1.00  0.00     0.004 A 
ATOM      8  C   UNL     1      42.309 -52.950  23.270  1.00  0.00     0.004 A 
ATOM      9  C   UNL     1      40.848 -53.753  21.025  1.00  0.00     0.004 A 
ATOM     10  C   UNL     1      41.166 -52.240  22.890  1.00  0.00     0.004 A 
ENDBRANCH   2   4
ENDBRANCH   1   2
BRANCH   1  11
ATOM     11  C   UNL     1      39.983 -49.686  20.261  1.00  0.00     0.028 C 
BRANCH  11  12
ATOM     12  C   UNL     1      41.488 -49.657  20.144  1.00  0.00    -0.028 C 
ATOM     13  C   UNL     1      42.319 -49.185  21.099  1.00  0.00    -0.080 C 
ATOM     14  C   UNL     1      43.801 -49.182  20.825  1.00  0.00     0.039 C 
ATOM     15  C   UNL     1      41.807 -48.683  22.429  1.00  0.00     0.039 C 
ENDBRANCH  11  12
ENDBRANCH   1  11
TORSDOF 4
ENDMDL
MODEL 4
REMARK VINA RESULT:    -5.410     14.258     15.624
REMARK INTER + INTRA:          -7.491
REMARK INTER:                  -6.337
REMARK INTRA:                  -1.154
REMARK UNBOUND:                -0.816
REMARK SMILES CC(C)=CCC[C@H](C)c1ccc(C)cc1
REMARK SMILES IDX 6 1 7 2 8 3 9 4 13 5 12 6 11 7 14 8 10 9 15 10 5 11 4 12
REMARK SMILES IDX 2 13 1 14 3 15
REMARK H PARENT
REMARK Flexibility Score: inf
ROOT
ATOM      1  C   UNL     1      41.036 -51.957  24.340  1.00  0.00     0.012 C 
ENDROOT
BRANCH   1   2
ATOM      2  C   UNL     1      40.197 -51.189  23.294  1.00  0.00     0.016 C 
ATOM      3  C   UNL     1      39.359 -52.131  22.414  1.00  0.00     0.013 C 
BRANCH   2   4
ATOM      4  C   UNL     1      41.094 -50.319  22.432  1.00  0.00    -0.045 A 
ATOM      5  C   UNL     1      43.639 -47.796  20.020  1.00  0.00     0.044 C 
ATOM      6  C   UNL     1      42.746 -48.686  20.833  1.00  0.00    -0.051 A 
ATOM      7  C   UNL     1      41.438 -48.286  21.138  1.00  0.00     0.004 A 
ATOM      8  C   UNL     1      43.235 -49.893  21.351  1.00  0.00     0.004 A 
ATOM      9  C   UNL     1      40.617 -49.097  21.927  1.00  0.00     0.004 A 
ATOM     10  C   UNL     1      42.416 -50.706  22.140  1.00  0.00     0.004 A 
ENDBRANCH   2   4
ENDBRANCH   1   2
BRANCH   1  11
ATOM     11  C   UNL     1      40.985 -53.479  24.138  1.00  0.00     0.028 C 
BRANCH  11  12
ATOM     12  C   UNL     1      42.377 -54.045  24.003  1.00  0.00    -0.028 C 
ATOM     13  C   UNL     1      42.917 -54.475  22.841  1.00  0.00    -0.080 C 
ATOM     14  C   UNL     1      44.308 -55.056  22.866  1.00  0.00     0.039 C 
ATOM     15  C   UNL     1      42.176 -54.373  21.528  1.00  0.00     0.039 C 
ENDBRANCH  11  12
ENDBRANCH   1  11
TORSDOF 4
ENDMDL
MODEL 5
REMARK VINA RESULT:    -5.335     14.126     16.487
REMARK INTER + INTRA:          -7.398
REMARK INTER:                  -6.812
REMARK INTRA:                  -0.586
REMARK UNBOUND:                -0.816
REMARK SMILES CC(C)=CCC[C@H](C)c1ccc(C)cc1
REMARK SMILES IDX 6 1 7 2 8 3 9 4 13 5 12 6 11 7 14 8 10 9 15 10 5 11 4 12
REMARK SMILES IDX 2 13 1 14 3 15
REMARK H PARENT
REMARK Flexibility Score: inf
ROOT
ATOM      1  C   UNL     1      41.951 -52.469  22.267  1.00  0.00     0.012 C 
ENDROOT
BRANCH   1   2
ATOM      2  C   UNL     1      41.479 -53.342  23.452  1.00  0.00     0.016 C 
ATOM      3  C   UNL     1      41.057 -52.499  24.666  1.00  0.00     0.013 C 
BRANCH   2   4
ATOM      4  C   UNL     1      42.562 -54.330  23.844  1.00  0.00    -0.045 A 
ATOM      5  C   UNL     1      45.688 -57.100  24.949  1.00  0.00     0.044 C 
ATOM      6  C   UNL     1      44.585 -56.161  24.555  1.00  0.00    -0.051 A 
ATOM      7  C   UNL     1      44.585 -55.564  23.287  1.00  0.00     0.004 A 
ATOM      8  C   UNL     1      43.586 -55.820  25.477  1.00  0.00     0.004 A 
ATOM      9  C   UNL     1      43.580 -54.661  22.932  1.00  0.00     0.004 A 
ATOM     10  C   UNL     1      42.579 -54.917  25.124  1.00  0.00     0.004 A 
ENDBRANCH   2   4
ENDBRANCH   1   2
BRANCH   1  11
ATOM     11  C   UNL     1      42.208 -51.010  22.674  1.00  0.00     0.028 C 
BRANCH  11  12
ATOM     12  C   UNL     1      43.150 -50.344  21.702  1.00  0.00    -0.028 C 
ATOM     13  C   UNL     1      42.948 -49.124  21.157  1.00  0.00    -0.080 C 
ATOM     14  C   UNL     1      43.958 -48.602  20.167  1.00  0.00     0.039 C 
ATOM     15  C   UNL     1      41.757 -48.270  21.524  1.00  0.00     0.039 C 
ENDBRANCH  11  12
ENDBRANCH   1  11
TORSDOF 4
ENDMDL
MODEL 6
REMARK VINA RESULT:    -5.319     15.036     16.099
REMARK INTER + INTRA:          -7.379
REMARK INTER:                  -6.278
REMARK INTRA:                  -1.100
REMARK UNBOUND:                -0.816
REMARK SMILES CC(C)=CCC[C@H](C)c1ccc(C)cc1
REMARK SMILES IDX 6 1 7 2 8 3 9 4 13 5 12 6 11 7 14 8 10 9 15 10 5 11 4 12
REMARK SMILES IDX 2 13 1 14 3 15
REMARK H PARENT
REMARK Flexibility Score: inf
ROOT
ATOM      1  C   UNL     1      39.872 -53.128  21.262  1.00  0.00     0.012 C 
ENDROOT
BRANCH   1   2
ATOM      2  C   UNL     1      40.033 -51.935  22.230  1.00  0.00     0.016 C 
ATOM      3  C   UNL     1      38.688 -51.273  22.571  1.00  0.00     0.013 C 
BRANCH   2   4
ATOM      4  C   UNL     1      40.995 -50.911  21.652  1.00  0.00    -0.045 A 
ATOM      5  C   UNL     1      43.766 -48.046  19.988  1.00  0.00     0.044 C 
ATOM      6  C   UNL     1      42.797 -49.021  20.588  1.00  0.00    -0.051 A 
ATOM      7  C   UNL     1      43.231 -49.957  21.537  1.00  0.00     0.004 A 
ATOM      8  C   UNL     1      41.465 -49.051  20.152  1.00  0.00     0.004 A 
ATOM      9  C   UNL     1      42.337 -50.891  22.068  1.00  0.00     0.004 A 
ATOM     10  C   UNL     1      40.569 -49.983  20.683  1.00  0.00     0.004 A 
ENDBRANCH   2   4
ENDBRANCH   1   2
BRANCH   1  11
ATOM     11  C   UNL     1      40.769 -54.318  21.635  1.00  0.00     0.028 C 
BRANCH  11  12
ATOM     12  C   UNL     1      41.023 -54.348  23.122  1.00  0.00    -0.028 C 
ATOM     13  C   UNL     1      42.248 -54.436  23.686  1.00  0.00    -0.080 C 
ATOM     14  C   UNL     1      42.345 -54.497  25.189  1.00  0.00     0.039 C 
ATOM     15  C   UNL     1      43.511 -54.456  22.858  1.00  0.00     0.039 C 
ENDBRANCH  11  12
ENDBRANCH   1  11
TORSDOF 4
ENDMDL
MODEL 7
REMARK VINA RESULT:    -5.313     14.281     17.395
REMARK INTER + INTRA:          -7.371
REMARK INTER:                  -6.661
REMARK INTRA:                  -0.710
REMARK UNBOUND:                -0.816
REMARK SMILES CC(C)=CCC[C@H](C)c1ccc(C)cc1
REMARK SMILES IDX 6 1 7 2 8 3 9 4 13 5 12 6 11 7 14 8 10 9 15 10 5 11 4 12
REMARK SMILES IDX 2 13 1 14 3 15
REMARK H PARENT
REMARK Flexibility Score: inf
ROOT
ATOM      1  C   UNL     1      27.307 -41.368  25.504  1.00  0.00     0.012 C 
ENDROOT
BRANCH   1   2
ATOM      2  C   UNL     1      28.073 -40.113  25.977  1.00  0.00     0.016 C 
ATOM      3  C   UNL     1      29.293 -39.807  25.092  1.00  0.00     0.013 C 
BRANCH   2   4
ATOM      4  C   UNL     1      28.497 -40.267  27.427  1.00  0.00    -0.045 A 
ATOM      5  C   UNL     1      29.646 -40.729  31.565  1.00  0.00     0.044 C 
ATOM      6  C   UNL     1      29.264 -40.543  30.126  1.00  0.00    -0.051 A 
ATOM      7  C   UNL     1      28.116 -39.814  29.788  1.00  0.00     0.004 A 
ATOM      8  C   UNL     1      30.013 -41.156  29.112  1.00  0.00     0.004 A 
ATOM      9  C   UNL     1      27.738 -39.672  28.450  1.00  0.00     0.004 A 
ATOM     10  C   UNL     1      29.637 -41.016  27.773  1.00  0.00     0.004 A 
ENDBRANCH   2   4
ENDBRANCH   1   2
BRANCH   1  11
ATOM     11  C   UNL     1      28.021 -42.101  24.358  1.00  0.00     0.028 C 
BRANCH  11  12
ATOM     12  C   UNL     1      27.045 -42.456  23.263  1.00  0.00    -0.028 C 
ATOM     13  C   UNL     1      27.043 -41.898  22.032  1.00  0.00    -0.080 C 
ATOM     14  C   UNL     1      25.980 -42.324  21.052  1.00  0.00     0.039 C 
ATOM     15  C   UNL     1      28.079 -40.882  21.611  1.00  0.00     0.039 C 
ENDBRANCH  11  12
ENDBRANCH   1  11
TORSDOF 4
ENDMDL
MODEL 8
REMARK VINA RESULT:    -5.297     14.122     15.979
REMARK INTER + INTRA:          -7.352
REMARK INTER:                  -5.850
REMARK INTRA:                  -1.502
REMARK UNBOUND:                -0.816
REMARK SMILES CC(C)=CCC[C@H](C)c1ccc(C)cc1
REMARK SMILES IDX 6 1 7 2 8 3 9 4 13 5 12 6 11 7 14 8 10 9 15 10 5 11 4 12
REMARK SMILES IDX 2 13 1 14 3 15
REMARK H PARENT
REMARK Flexibility Score: inf
ROOT
ATOM      1  C   UNL     1      40.065 -49.865  22.988  1.00  0.00     0.012 C 
ENDROOT
BRANCH   1   2
ATOM      2  C   UNL     1      41.581 -50.133  22.853  1.00  0.00     0.016 C 
ATOM      3  C   UNL     1      42.098 -49.857  21.432  1.00  0.00     0.013 C 
BRANCH   2   4
ATOM      4  C   UNL     1      41.905 -51.557  23.267  1.00  0.00    -0.045 A 
ATOM      5  C   UNL     1      42.766 -55.622  24.448  1.00  0.00     0.044 C 
ATOM      6  C   UNL     1      42.492 -54.201  24.052  1.00  0.00    -0.051 A 
ATOM      7  C   UNL     1      41.701 -53.381  24.867  1.00  0.00     0.004 A 
ATOM      8  C   UNL     1      42.967 -53.705  22.830  1.00  0.00     0.004 A 
ATOM      9  C   UNL     1      41.414 -52.068  24.481  1.00  0.00     0.004 A 
ATOM     10  C   UNL     1      42.682 -52.393  22.442  1.00  0.00     0.004 A 
ENDBRANCH   2   4
ENDBRANCH   1   2
BRANCH   1  11
ATOM     11  C   UNL     1      39.232 -50.658  21.970  1.00  0.00     0.028 C 
BRANCH  11  12
ATOM     12  C   UNL     1      38.498 -51.789  22.649  1.00  0.00    -0.028 C 
ATOM     13  C   UNL     1      38.598 -53.088  22.291  1.00  0.00    -0.080 C 
ATOM     14  C   UNL     1      37.771 -54.105  23.036  1.00  0.00     0.039 C 
ATOM     15  C   UNL     1      39.522 -53.545  21.186  1.00  0.00     0.039 C 
ENDBRANCH  11  12
ENDBRANCH   1  11
TORSDOF 4
ENDMDL
MODEL 9
REMARK VINA RESULT:    -5.256     14.551     16.550
REMARK INTER + INTRA:          -7.301
REMARK INTER:                  -6.706
REMARK INTRA:                  -0.594
REMARK UNBOUND:                -0.816
REMARK SMILES CC(C)=CCC[C@H](C)c1ccc(C)cc1
REMARK SMILES IDX 6 1 7 2 8 3 9 4 13 5 12 6 11 7 14 8 10 9 15 10 5 11 4 12
REMARK SMILES IDX 2 13 1 14 3 15
REMARK H PARENT
REMARK Flexibility Score: inf
ROOT
ATOM      1  C   UNL     1      41.897 -52.510  22.143  1.00  0.00     0.012 C 
ENDROOT
BRANCH   1   2
ATOM      2  C   UNL     1      41.399 -53.422  23.286  1.00  0.00     0.016 C 
ATOM      3  C   UNL     1      40.849 -52.619  24.476  1.00  0.00     0.013 C 
BRANCH   2   4
ATOM      4  C   UNL     1      42.509 -54.352  23.743  1.00  0.00    -0.045 A 
ATOM      5  C   UNL     1      45.625 -57.039  25.059  1.00  0.00     0.044 C 
ATOM      6  C   UNL     1      44.560 -56.082  24.610  1.00  0.00    -0.051 A 
ATOM      7  C   UNL     1      43.537 -55.702  25.489  1.00  0.00     0.004 A 
ATOM      8  C   UNL     1      44.540 -55.617  23.288  1.00  0.00     0.004 A 
ATOM      9  C   UNL     1      42.522 -54.840  25.062  1.00  0.00     0.004 A 
ATOM     10  C   UNL     1      43.527 -54.755  22.858  1.00  0.00     0.004 A 
ENDBRANCH   2   4
ENDBRANCH   1   2
BRANCH   1  11
ATOM     11  C   UNL     1      42.094 -51.054  22.592  1.00  0.00     0.028 C 
BRANCH  11  12
ATOM     12  C   UNL     1      43.110 -50.360  21.719  1.00  0.00    -0.028 C 
ATOM     13  C   UNL     1      42.866 -49.236  21.009  1.00  0.00    -0.080 C 
ATOM     14  C   UNL     1      43.969 -48.677  20.147  1.00  0.00     0.039 C 
ATOM     15  C   UNL     1      41.535 -48.523  21.070  1.00  0.00     0.039 C 
ENDBRANCH  11  12
ENDBRANCH   1  11
TORSDOF 4
ENDMDL
