MODEL 1
REMARK VINA RESULT:    -4.346      0.000      0.000
REMARK INTER + INTRA:          -4.480
REMARK INTER:                  -4.854
REMARK INTRA:                   0.374
REMARK UNBOUND:                 0.374
REMARK SMILES COc1cc2ccc(=O)oc2c(O)c1O
REMARK SMILES IDX 3 1 14 2 12 3 11 4 5 5 4 6 6 7 7 8 8 9 9 10 10 11 2 12 1 13
REMARK SMILES IDX 15 14 13 16
REMARK H PARENT 15 15 13 17
REMARK Flexibility Score: inf
ROOT
ATOM      1  C   UNL     1      -3.443   0.296  18.500  1.00  0.00     0.165 A 
ATOM      2  C   UNL     1      -3.442   1.611  18.995  1.00  0.00     0.204 A 
ATOM      3  C   UNL     1      -4.006   2.659  18.226  1.00  0.00     0.205 A 
ATOM      4  C   UNL     1      -4.561   2.375  16.971  1.00  0.00     0.184 A 
ATOM      5  C   UNL     1      -4.559   1.055  16.476  1.00  0.00     0.025 A 
ATOM      6  C   UNL     1      -4.002   0.023  17.239  1.00  0.00     0.062 A 
ATOM      7  C   UNL     1      -5.122   0.810  15.219  1.00  0.00     0.020 A 
ATOM      8  C   UNL     1      -5.665   1.870  14.494  1.00  0.00     0.094 A 
ATOM      9  C   UNL     1      -5.633   3.154  15.045  1.00  0.00     0.336 A 
ATOM     10  O   UNL     1      -6.118   4.124  14.407  1.00  0.00    -0.246 OA
ATOM     11  O   UNL     1      -5.092   3.357  16.243  1.00  0.00    -0.419 OA
ENDROOT
BRANCH   1  12
ATOM     12  O   UNL     1      -2.875  -0.713  19.295  1.00  0.00    -0.493 OA
ATOM     13  C   UNL     1      -3.276  -1.015  20.628  1.00  0.00     0.278 C 
ENDBRANCH   1  12
BRANCH   2  14
ATOM     14  O   UNL     1      -2.875   1.831  20.253  1.00  0.00    -0.502 OA
ATOM     15  H   UNL     1      -1.921   2.123  20.404  1.00  0.00     0.293 HD
ENDBRANCH   2  14
BRANCH   3  16
ATOM     16  O   UNL     1      -4.034   3.985  18.668  1.00  0.00    -0.502 OA
ATOM     17  H   UNL     1      -3.308   4.414  19.224  1.00  0.00     0.293 HD
ENDBRANCH   3  16
TORSDOF 3
ENDMDL
MODEL 2
REMARK VINA RESULT:    -3.765      1.597      5.334
REMARK INTER + INTRA:          -3.830
REMARK INTER:                  -3.760
REMARK INTRA:                  -0.070
REMARK UNBOUND:                 0.374
REMARK SMILES COc1cc2ccc(=O)oc2c(O)c1O
REMARK SMILES IDX 3 1 14 2 12 3 11 4 5 5 4 6 6 7 7 8 8 9 9 10 10 11 2 12 1 13
REMARK SMILES IDX 15 14 13 16
REMARK H PARENT 15 15 13 17
REMARK Flexibility Score: inf
ROOT
ATOM      1  C   UNL     1      -5.153   2.960  15.373  1.00  0.00     0.165 A 
ATOM      2  C   UNL     1      -5.044   1.563  15.473  1.00  0.00     0.204 A 
ATOM      3  C   UNL     1      -4.546   0.973  16.662  1.00  0.00     0.205 A 
ATOM      4  C   UNL     1      -4.162   1.793  17.731  1.00  0.00     0.184 A 
ATOM      5  C   UNL     1      -4.271   3.194  17.627  1.00  0.00     0.025 A 
ATOM      6  C   UNL     1      -4.764   3.773  16.453  1.00  0.00     0.062 A 
ATOM      7  C   UNL     1      -3.878   3.979  18.716  1.00  0.00     0.020 A 
ATOM      8  C   UNL     1      -3.392   3.360  19.867  1.00  0.00     0.094 A 
ATOM      9  C   UNL     1      -3.311   1.965  19.902  1.00  0.00     0.336 A 
ATOM     10  O   UNL     1      -2.875   1.386  20.931  1.00  0.00    -0.246 OA
ATOM     11  O   UNL     1      -3.692   1.244  18.852  1.00  0.00    -0.419 OA
ENDROOT
BRANCH   1  12
ATOM     12  O   UNL     1      -5.652   3.503  14.178  1.00  0.00    -0.493 OA
ATOM     13  C   UNL     1      -6.946   4.079  14.030  1.00  0.00     0.278 C 
ENDBRANCH   1  12
BRANCH   2  14
ATOM     14  O   UNL     1      -5.444   0.800  14.373  1.00  0.00    -0.502 OA
ATOM     15  H   UNL     1      -6.383   0.781  14.004  1.00  0.00     0.293 HD
ENDBRANCH   2  14
BRANCH   3  16
ATOM     16  O   UNL     1      -4.417  -0.410  16.818  1.00  0.00    -0.502 OA
ATOM     17  H   UNL     1      -4.213  -0.866  17.695  1.00  0.00     0.293 HD
ENDBRANCH   3  16
TORSDOF 3
ENDMDL
MODEL 3
REMARK VINA RESULT:    -3.375      1.586      1.919
REMARK INTER + INTRA:          -3.396
REMARK INTER:                  -3.732
REMARK INTRA:                   0.337
REMARK UNBOUND:                 0.374
REMARK SMILES COc1cc2ccc(=O)oc2c(O)c1O
REMARK SMILES IDX 3 1 14 2 12 3 11 4 5 5 4 6 6 7 7 8 8 9 9 10 10 11 2 12 1 13
REMARK SMILES IDX 15 14 13 16
REMARK H PARENT 15 15 13 17
REMARK Flexibility Score: inf
ROOT
ATOM      1  C   UNL     1      -3.044  -0.240  19.969  1.00  0.00     0.165 A 
ATOM      2  C   UNL     1      -3.042   1.035  20.559  1.00  0.00     0.204 A 
ATOM      3  C   UNL     1      -3.210   2.189  19.753  1.00  0.00     0.205 A 
ATOM      4  C   UNL     1      -3.374   2.048  18.369  1.00  0.00     0.184 A 
ATOM      5  C   UNL     1      -3.374   0.767  17.780  1.00  0.00     0.025 A 
ATOM      6  C   UNL     1      -3.209  -0.369  18.578  1.00  0.00     0.062 A 
ATOM      7  C   UNL     1      -3.540   0.667  16.395  1.00  0.00     0.020 A 
ATOM      8  C   UNL     1      -3.701   1.827  15.638  1.00  0.00     0.094 A 
ATOM      9  C   UNL     1      -3.691   3.065  16.288  1.00  0.00     0.336 A 
ATOM     10  O   UNL     1      -3.835   4.124  15.623  1.00  0.00    -0.246 OA
ATOM     11  O   UNL     1      -3.531   3.131  17.606  1.00  0.00    -0.419 OA
ENDROOT
BRANCH   1  12
ATOM     12  O   UNL     1      -2.876  -1.357  20.803  1.00  0.00    -0.493 OA
ATOM     13  C   UNL     1      -3.730  -1.688  21.894  1.00  0.00     0.278 C 
ENDBRANCH   1  12
BRANCH   2  14
ATOM     14  O   UNL     1      -2.875   1.110  21.944  1.00  0.00    -0.502 OA
ATOM     15  H   UNL     1      -3.546   1.521  22.576  1.00  0.00     0.293 HD
ENDBRANCH   2  14
BRANCH   3  16
ATOM     16  O   UNL     1      -3.218   3.482  20.285  1.00  0.00    -0.502 OA
ATOM     17  H   UNL     1      -3.227   3.690  21.273  1.00  0.00     0.293 HD
ENDBRANCH   3  16
TORSDOF 3
ENDMDL
MODEL 4
REMARK VINA RESULT:    -3.184      2.172      5.439
REMARK INTER + INTRA:          -3.182
REMARK INTER:                  -3.140
REMARK INTRA:                  -0.041
REMARK UNBOUND:                 0.374
REMARK SMILES COc1cc2ccc(=O)oc2c(O)c1O
REMARK SMILES IDX 3 1 14 2 12 3 11 4 5 5 4 6 6 7 7 8 8 9 9 10 10 11 2 12 1 13
REMARK SMILES IDX 15 14 13 16
REMARK H PARENT 15 15 13 17
REMARK Flexibility Score: inf
ROOT
ATOM      1  C   UNL     1      -2.886   0.918  17.808  1.00  0.00     0.165 A 
ATOM      2  C   UNL     1      -2.890   2.220  18.337  1.00  0.00     0.204 A 
ATOM      3  C   UNL     1      -2.887   2.415  19.741  1.00  0.00     0.205 A 
ATOM      4  C   UNL     1      -2.883   1.304  20.594  1.00  0.00     0.184 A 
ATOM      5  C   UNL     1      -2.881  -0.001  20.060  1.00  0.00     0.025 A 
ATOM      6  C   UNL     1      -2.882  -0.190  18.674  1.00  0.00     0.062 A 
ATOM      7  C   UNL     1      -2.876  -1.086  20.943  1.00  0.00     0.020 A 
ATOM      8  C   UNL     1      -2.875  -0.850  22.317  1.00  0.00     0.094 A 
ATOM      9  C   UNL     1      -2.878   0.469  22.777  1.00  0.00     0.336 A 
ATOM     10  O   UNL     1      -2.877   0.704  24.014  1.00  0.00    -0.246 OA
ATOM     11  O   UNL     1      -2.882   1.482  21.915  1.00  0.00    -0.419 OA
ENDROOT
BRANCH   1  12
ATOM     12  O   UNL     1      -2.888   0.769  16.412  1.00  0.00    -0.493 OA
ATOM     13  C   UNL     1      -4.060   0.624  15.615  1.00  0.00     0.278 C 
ENDBRANCH   1  12
BRANCH   2  14
ATOM     14  O   UNL     1      -2.893   3.288  17.436  1.00  0.00    -0.502 OA
ATOM     15  H   UNL     1      -2.884   4.260  17.706  1.00  0.00     0.293 HD
ENDBRANCH   2  14
BRANCH   3  16
ATOM     16  O   UNL     1      -2.890   3.687  20.323  1.00  0.00    -0.502 OA
ATOM     17  H   UNL     1      -3.027   4.545  19.810  1.00  0.00     0.293 HD
ENDBRANCH   3  16
TORSDOF 3
ENDMDL
MODEL 5
REMARK VINA RESULT:    -3.059      1.329      2.507
REMARK INTER + INTRA:          -3.042
REMARK INTER:                  -3.800
REMARK INTRA:                   0.758
REMARK UNBOUND:                 0.374
REMARK SMILES COc1cc2ccc(=O)oc2c(O)c1O
REMARK SMILES IDX 3 1 14 2 12 3 11 4 5 5 4 6 6 7 7 8 8 9 9 10 10 11 2 12 1 13
REMARK SMILES IDX 15 14 13 16
REMARK H PARENT 15 15 13 17
REMARK Flexibility Score: inf
ROOT
ATOM      1  C   UNL     1      -3.530   1.526  19.150  1.00  0.00     0.165 A 
ATOM      2  C   UNL     1      -3.593   0.416  18.290  1.00  0.00     0.204 A 
ATOM      3  C   UNL     1      -4.245   0.526  17.036  1.00  0.00     0.205 A 
ATOM      4  C   UNL     1      -4.825   1.746  16.663  1.00  0.00     0.184 A 
ATOM      5  C   UNL     1      -4.761   2.857  17.528  1.00  0.00     0.025 A 
ATOM      6  C   UNL     1      -4.117   2.745  18.765  1.00  0.00     0.062 A 
ATOM      7  C   UNL     1      -5.352   4.057  17.121  1.00  0.00     0.020 A 
ATOM      8  C   UNL     1      -5.984   4.124  15.880  1.00  0.00     0.094 A 
ATOM      9  C   UNL     1      -6.010   2.983  15.072  1.00  0.00     0.336 A 
ATOM     10  O   UNL     1      -6.575   3.022  13.949  1.00  0.00    -0.246 OA
ATOM     11  O   UNL     1      -5.440   1.855  15.485  1.00  0.00    -0.419 OA
ENDROOT
BRANCH   1  12
ATOM     12  O   UNL     1      -2.875   1.374  20.382  1.00  0.00    -0.493 OA
ATOM     13  C   UNL     1      -2.885   0.182  21.162  1.00  0.00     0.278 C 
ENDBRANCH   1  12
BRANCH   2  14
ATOM     14  O   UNL     1      -2.996  -0.772  18.718  1.00  0.00    -0.502 OA
ATOM     15  H   UNL     1      -2.204  -1.206  18.266  1.00  0.00     0.293 HD
ENDBRANCH   2  14
BRANCH   3  16
ATOM     16  O   UNL     1      -4.337  -0.543  16.140  1.00  0.00    -0.502 OA
ATOM     17  H   UNL     1      -5.107  -0.685  15.502  1.00  0.00     0.293 HD
ENDBRANCH   3  16
TORSDOF 3
ENDMDL
MODEL 6
REMARK VINA RESULT:    -2.418      2.494      3.718
REMARK INTER + INTRA:          -2.326
REMARK INTER:                  -2.274
REMARK INTRA:                  -0.052
REMARK UNBOUND:                 0.374
REMARK SMILES COc1cc2ccc(=O)oc2c(O)c1O
REMARK SMILES IDX 3 1 14 2 12 3 11 4 5 5 4 6 6 7 7 8 8 9 9 10 10 11 2 12 1 13
REMARK SMILES IDX 15 14 13 16
REMARK H PARENT 15 15 13 17
REMARK Flexibility Score: inf
ROOT
ATOM      1  C   UNL     1      -2.963   0.574  21.213  1.00  0.00     0.165 A 
ATOM      2  C   UNL     1      -2.931  -0.390  20.191  1.00  0.00     0.204 A 
ATOM      3  C   UNL     1      -2.907   0.016  18.833  1.00  0.00     0.205 A 
ATOM      4  C   UNL     1      -2.917   1.382  18.519  1.00  0.00     0.184 A 
ATOM      5  C   UNL     1      -2.950   2.347  19.546  1.00  0.00     0.025 A 
ATOM      6  C   UNL     1      -2.972   1.942  20.885  1.00  0.00     0.062 A 
ATOM      7  C   UNL     1      -2.958   3.700  19.194  1.00  0.00     0.020 A 
ATOM      8  C   UNL     1      -2.934   4.057  17.846  1.00  0.00     0.094 A 
ATOM      9  C   UNL     1      -2.902   3.048  16.880  1.00  0.00     0.336 A 
ATOM     10  O   UNL     1      -2.881   3.349  15.658  1.00  0.00    -0.246 OA
ATOM     11  O   UNL     1      -2.895   1.769  17.243  1.00  0.00    -0.419 OA
ENDROOT
BRANCH   1  12
ATOM     12  O   UNL     1      -2.985   0.129  22.544  1.00  0.00    -0.493 OA
ATOM     13  C   UNL     1      -2.980   0.985  23.683  1.00  0.00     0.278 C 
ENDBRANCH   1  12
BRANCH   2  14
ATOM     14  O   UNL     1      -2.923  -1.735  20.567  1.00  0.00    -0.502 OA
ATOM     15  H   UNL     1      -3.519  -2.130  21.279  1.00  0.00     0.293 HD
ENDBRANCH   2  14
BRANCH   3  16
ATOM     16  O   UNL     1      -2.875  -0.898  17.776  1.00  0.00    -0.502 OA
ATOM     17  H   UNL     1      -2.808  -0.639  16.803  1.00  0.00     0.293 HD
ENDBRANCH   3  16
TORSDOF 3
ENDMDL
