MODEL 1
REMARK VINA RESULT:    -3.576      0.000      0.000
REMARK INTER + INTRA:          -4.456
REMARK INTER:                  -4.099
REMARK INTRA:                  -0.358
REMARK UNBOUND:                -0.358
REMARK SMILES COC(=O)c1ccccc1O
REMARK SMILES IDX 5 1 6 2 7 3 8 4 9 5 10 6 3 7 4 8 2 9 1 10 11 11
REMARK H PARENT 11 12
REMARK Flexibility Score: inf
ROOT
ATOM      1  C   UNL     1     141.355 148.476 139.648  1.00  0.00     0.101 A 
ATOM      2  C   UNL     1     140.246 148.805 140.450  1.00  0.00     0.019 A 
ATOM      3  C   UNL     1     140.392 149.638 141.563  1.00  0.00     0.001 A 
ATOM      4  C   UNL     1     141.645 150.154 141.892  1.00  0.00     0.004 A 
ATOM      5  C   UNL     1     142.756 149.839 141.109  1.00  0.00     0.047 A 
ATOM      6  C   UNL     1     142.624 149.003 139.989  1.00  0.00     0.130 A 
ENDROOT
BRANCH   1   7
ATOM      7  C   UNL     1     141.162 147.588 138.473  1.00  0.00     0.341 C 
ATOM      8  O   UNL     1     140.246 147.817 137.637  1.00  0.00    -0.246 OA
BRANCH   7   9
ATOM      9  O   UNL     1     142.006 146.485 138.292  1.00  0.00    -0.465 OA
ATOM     10  C   UNL     1     142.048 145.392 139.202  1.00  0.00     0.282 C 
ENDBRANCH   7   9
ENDBRANCH   1   7
BRANCH   6  11
ATOM     11  O   UNL     1     143.752 148.705 139.223  1.00  0.00    -0.507 OA
ATOM     12  H   UNL     1     144.560 149.316 139.205  1.00  0.00     0.293 HD
ENDBRANCH   6  11
TORSDOF 3
ENDMDL
MODEL 2
REMARK VINA RESULT:    -3.560     12.779     15.583
REMARK INTER + INTRA:          -4.438
REMARK INTER:                  -4.084
REMARK INTRA:                  -0.354
REMARK UNBOUND:                -0.358
REMARK SMILES COC(=O)c1ccccc1O
REMARK SMILES IDX 5 1 6 2 7 3 8 4 9 5 10 6 3 7 4 8 2 9 1 10 11 11
REMARK H PARENT 11 12
REMARK Flexibility Score: inf
ROOT
ATOM      1  C   UNL     1     140.273 133.146 139.642  1.00  0.00     0.101 A 
ATOM      2  C   UNL     1     141.375 132.782 140.440  1.00  0.00     0.019 A 
ATOM      3  C   UNL     1     141.214 131.924 141.531  1.00  0.00     0.001 A 
ATOM      4  C   UNL     1     139.953 131.416 141.842  1.00  0.00     0.004 A 
ATOM      5  C   UNL     1     138.849 131.765 141.063  1.00  0.00     0.047 A 
ATOM      6  C   UNL     1     138.996 132.626 139.965  1.00  0.00     0.130 A 
ENDROOT
BRANCH   1   7
ATOM      7  C   UNL     1     140.482 134.061 138.491  1.00  0.00     0.341 C 
ATOM      8  O   UNL     1     141.355 133.805 137.617  1.00  0.00    -0.246 OA
BRANCH   7   9
ATOM      9  O   UNL     1     139.702 135.217 138.374  1.00  0.00    -0.465 OA
ATOM     10  C   UNL     1     139.684 136.235 139.368  1.00  0.00     0.282 C 
ENDBRANCH   7   9
ENDBRANCH   1   7
BRANCH   6  11
ATOM     11  O   UNL     1     137.876 132.958 139.203  1.00  0.00    -0.507 OA
ATOM     12  H   UNL     1     137.952 133.202 138.222  1.00  0.00     0.293 HD
ENDBRANCH   6  11
TORSDOF 3
ENDMDL
MODEL 3
REMARK VINA RESULT:    -3.542      9.144     10.476
REMARK INTER + INTRA:          -4.417
REMARK INTER:                  -4.066
REMARK INTRA:                  -0.351
REMARK UNBOUND:                -0.358
REMARK SMILES COC(=O)c1ccccc1O
REMARK SMILES IDX 5 1 6 2 7 3 8 4 9 5 10 6 3 7 4 8 2 9 1 10 11 11
REMARK H PARENT 11 12
REMARK Flexibility Score: inf
ROOT
ATOM      1  C   UNL     1     133.786 141.573 139.550  1.00  0.00     0.101 A 
ATOM      2  C   UNL     1     133.165 140.410 140.047  1.00  0.00     0.019 A 
ATOM      3  C   UNL     1     132.064 140.498 140.901  1.00  0.00     0.001 A 
ATOM      4  C   UNL     1     131.564 141.746 141.274  1.00  0.00     0.004 A 
ATOM      5  C   UNL     1     132.166 142.910 140.792  1.00  0.00     0.047 A 
ATOM      6  C   UNL     1     133.273 142.836 139.934  1.00  0.00     0.130 A 
ENDROOT
BRANCH   1   7
ATOM      7  C   UNL     1     134.955 141.440 138.644  1.00  0.00     0.341 C 
ATOM      8  O   UNL     1     134.872 140.764 137.582  1.00  0.00    -0.246 OA
BRANCH   7   9
ATOM      9  O   UNL     1     136.160 142.073 138.971  1.00  0.00    -0.465 OA
ATOM     10  C   UNL     1     136.866 141.806 140.177  1.00  0.00     0.282 C 
ENDBRANCH   7   9
ENDBRANCH   1   7
BRANCH   6  11
ATOM     11  O   UNL     1     133.855 144.015 139.467  1.00  0.00    -0.507 OA
ATOM     12  H   UNL     1     134.658 144.004 138.849  1.00  0.00     0.293 HD
ENDBRANCH   6  11
TORSDOF 3
ENDMDL
MODEL 4
REMARK VINA RESULT:    -3.536      9.642     11.004
REMARK INTER + INTRA:          -4.411
REMARK INTER:                  -4.057
REMARK INTRA:                  -0.354
REMARK UNBOUND:                -0.358
REMARK SMILES COC(=O)c1ccccc1O
REMARK SMILES IDX 5 1 6 2 7 3 8 4 9 5 10 6 3 7 4 8 2 9 1 10 11 11
REMARK H PARENT 11 12
REMARK Flexibility Score: inf
ROOT
ATOM      1  C   UNL     1     148.272 140.129 139.515  1.00  0.00     0.101 A 
ATOM      2  C   UNL     1     148.683 141.267 140.236  1.00  0.00     0.019 A 
ATOM      3  C   UNL     1     149.601 141.155 141.283  1.00  0.00     0.001 A 
ATOM      4  C   UNL     1     150.122 139.908 141.628  1.00  0.00     0.004 A 
ATOM      5  C   UNL     1     149.727 138.769 140.926  1.00  0.00     0.047 A 
ATOM      6  C   UNL     1     148.805 138.866 139.872  1.00  0.00     0.130 A 
ENDROOT
BRANCH   1   7
ATOM      7  C   UNL     1     147.295 140.285 138.408  1.00  0.00     0.341 C 
ATOM      8  O   UNL     1     147.511 141.101 137.470  1.00  0.00    -0.246 OA
BRANCH   7   9
ATOM      9  O   UNL     1     146.122 139.520 138.405  1.00  0.00    -0.465 OA
ATOM     10  C   UNL     1     145.153 139.595 139.444  1.00  0.00     0.282 C 
ENDBRANCH   7   9
ENDBRANCH   1   7
BRANCH   6  11
ATOM     11  O   UNL     1     148.428 137.711 139.187  1.00  0.00    -0.507 OA
ATOM     12  H   UNL     1     148.628 136.786 139.550  1.00  0.00     0.293 HD
ENDBRANCH   6  11
TORSDOF 3
ENDMDL
MODEL 5
REMARK VINA RESULT:    -3.452      0.979      2.149
REMARK INTER + INTRA:          -4.314
REMARK INTER:                  -3.970
REMARK INTRA:                  -0.344
REMARK UNBOUND:                -0.358
REMARK SMILES COC(=O)c1ccccc1O
REMARK SMILES IDX 5 1 6 2 7 3 8 4 9 5 10 6 3 7 4 8 2 9 1 10 11 11
REMARK H PARENT 11 12
REMARK Flexibility Score: inf
ROOT
ATOM      1  C   UNL     1     141.821 148.570 139.617  1.00  0.00     0.101 A 
ATOM      2  C   UNL     1     142.921 149.160 140.268  1.00  0.00     0.019 A 
ATOM      3  C   UNL     1     142.738 149.951 141.405  1.00  0.00     0.001 A 
ATOM      4  C   UNL     1     141.455 150.166 141.909  1.00  0.00     0.004 A 
ATOM      5  C   UNL     1     140.352 149.590 141.277  1.00  0.00     0.047 A 
ATOM      6  C   UNL     1     140.522 148.794 140.134  1.00  0.00     0.130 A 
ENDROOT
BRANCH   1   7
ATOM      7  C   UNL     1     142.054 147.735 138.411  1.00  0.00     0.341 C 
ATOM      8  O   UNL     1     142.816 148.136 137.489  1.00  0.00    -0.246 OA
BRANCH   7   9
ATOM      9  O   UNL     1     141.422 146.491 138.297  1.00  0.00    -0.465 OA
ATOM     10  C   UNL     1     141.921 145.316 138.923  1.00  0.00     0.282 C 
ENDBRANCH   7   9
ENDBRANCH   1   7
BRANCH   6  11
ATOM     11  O   UNL     1     139.402 148.230 139.523  1.00  0.00    -0.507 OA
ATOM     12  H   UNL     1     139.411 147.949 138.549  1.00  0.00     0.293 HD
ENDBRANCH   6  11
TORSDOF 3
ENDMDL
MODEL 6
REMARK VINA RESULT:    -3.437      9.713     11.000
REMARK INTER + INTRA:          -4.297
REMARK INTER:                  -3.943
REMARK INTRA:                  -0.354
REMARK UNBOUND:                -0.358
REMARK SMILES COC(=O)c1ccccc1O
REMARK SMILES IDX 5 1 6 2 7 3 8 4 9 5 10 6 3 7 4 8 2 9 1 10 11 11
REMARK H PARENT 11 12
REMARK Flexibility Score: inf
ROOT
ATOM      1  C   UNL     1     133.130 141.873 139.540  1.00  0.00     0.101 A 
ATOM      2  C   UNL     1     132.510 142.982 140.148  1.00  0.00     0.019 A 
ATOM      3  C   UNL     1     131.666 142.813 141.248  1.00  0.00     0.001 A 
ATOM      4  C   UNL     1     131.429 141.537 141.760  1.00  0.00     0.004 A 
ATOM      5  C   UNL     1     132.035 140.426 141.171  1.00  0.00     0.047 A 
ATOM      6  C   UNL     1     132.884 140.581 140.065  1.00  0.00     0.130 A 
ENDROOT
BRANCH   1   7
ATOM      7  C   UNL     1     134.020 142.091 138.371  1.00  0.00     0.341 C 
ATOM      8  O   UNL     1     133.619 142.746 137.371  1.00  0.00    -0.246 OA
BRANCH   7   9
ATOM      9  O   UNL     1     135.318 141.564 138.381  1.00  0.00    -0.465 OA
ATOM     10  C   UNL     1     136.330 142.031 139.264  1.00  0.00     0.282 C 
ENDBRANCH   7   9
ENDBRANCH   1   7
BRANCH   6  11
ATOM     11  O   UNL     1     133.477 139.454 139.496  1.00  0.00    -0.507 OA
ATOM     12  H   UNL     1     133.437 139.277 138.499  1.00  0.00     0.293 HD
ENDBRANCH   6  11
TORSDOF 3
ENDMDL
MODEL 7
REMARK VINA RESULT:    -3.364     10.491     11.591
REMARK INTER + INTRA:          -4.213
REMARK INTER:                  -3.899
REMARK INTRA:                  -0.314
REMARK UNBOUND:                -0.358
REMARK SMILES COC(=O)c1ccccc1O
REMARK SMILES IDX 5 1 6 2 7 3 8 4 9 5 10 6 3 7 4 8 2 9 1 10 11 11
REMARK H PARENT 11 12
REMARK Flexibility Score: inf
ROOT
ATOM      1  C   UNL     1     148.561 139.637 139.287  1.00  0.00     0.101 A 
ATOM      2  C   UNL     1     148.487 140.615 138.276  1.00  0.00     0.019 A 
ATOM      3  C   UNL     1     147.298 140.825 137.573  1.00  0.00     0.001 A 
ATOM      4  C   UNL     1     146.166 140.065 137.867  1.00  0.00     0.004 A 
ATOM      5  C   UNL     1     146.220 139.091 138.865  1.00  0.00     0.047 A 
ATOM      6  C   UNL     1     147.407 138.869 139.579  1.00  0.00     0.130 A 
ENDROOT
BRANCH   1   7
ATOM      7  C   UNL     1     149.841 139.441 140.013  1.00  0.00     0.341 C 
ATOM      8  O   UNL     1     150.428 138.324 139.992  1.00  0.00    -0.246 OA
BRANCH   7   9
ATOM      9  O   UNL     1     150.403 140.505 140.728  1.00  0.00    -0.465 OA
ATOM     10  C   UNL     1     149.683 141.231 141.717  1.00  0.00     0.282 C 
ENDBRANCH   7   9
ENDBRANCH   1   7
BRANCH   6  11
ATOM     11  O   UNL     1     147.433 137.889 140.572  1.00  0.00    -0.507 OA
ATOM     12  H   UNL     1     146.730 137.850 141.300  1.00  0.00     0.293 HD
ENDBRANCH   6  11
TORSDOF 3
ENDMDL
MODEL 8
REMARK VINA RESULT:    -3.355      9.975     11.533
REMARK INTER + INTRA:          -4.202
REMARK INTER:                  -3.918
REMARK INTRA:                  -0.284
REMARK UNBOUND:                -0.358
REMARK SMILES COC(=O)c1ccccc1O
REMARK SMILES IDX 5 1 6 2 7 3 8 4 9 5 10 6 3 7 4 8 2 9 1 10 11 11
REMARK H PARENT 11 12
REMARK Flexibility Score: inf
ROOT
ATOM      1  C   UNL     1     148.686 139.167 139.541  1.00  0.00     0.101 A 
ATOM      2  C   UNL     1     149.641 138.764 140.495  1.00  0.00     0.019 A 
ATOM      3  C   UNL     1     150.143 139.673 141.429  1.00  0.00     0.001 A 
ATOM      4  C   UNL     1     149.702 140.996 141.427  1.00  0.00     0.004 A 
ATOM      5  C   UNL     1     148.756 141.414 140.490  1.00  0.00     0.047 A 
ATOM      6  C   UNL     1     148.243 140.512 139.545  1.00  0.00     0.130 A 
ENDROOT
BRANCH   1   7
ATOM      7  C   UNL     1     148.175 138.173 138.563  1.00  0.00     0.341 C 
ATOM      8  O   UNL     1     148.972 137.487 137.867  1.00  0.00    -0.246 OA
BRANCH   7   9
ATOM      9  O   UNL     1     146.794 137.996 138.413  1.00  0.00    -0.465 OA
ATOM     10  C   UNL     1     146.235 137.036 137.525  1.00  0.00     0.282 C 
ENDBRANCH   7   9
ENDBRANCH   1   7
BRANCH   6  11
ATOM     11  O   UNL     1     147.298 140.956 138.620  1.00  0.00    -0.507 OA
ATOM     12  H   UNL     1     146.736 140.308 138.080  1.00  0.00     0.293 HD
ENDBRANCH   6  11
TORSDOF 3
ENDMDL
MODEL 9
REMARK VINA RESULT:    -3.345      9.634     11.075
REMARK INTER + INTRA:          -4.192
REMARK INTER:                  -3.879
REMARK INTRA:                  -0.313
REMARK UNBOUND:                -0.358
REMARK SMILES COC(=O)c1ccccc1O
REMARK SMILES IDX 5 1 6 2 7 3 8 4 9 5 10 6 3 7 4 8 2 9 1 10 11 11
REMARK H PARENT 11 12
REMARK Flexibility Score: inf
ROOT
ATOM      1  C   UNL     1     133.031 141.942 139.331  1.00  0.00     0.101 A 
ATOM      2  C   UNL     1     133.113 140.956 138.329  1.00  0.00     0.019 A 
ATOM      3  C   UNL     1     134.296 140.768 137.609  1.00  0.00     0.001 A 
ATOM      4  C   UNL     1     135.413 141.559 137.877  1.00  0.00     0.004 A 
ATOM      5  C   UNL     1     135.350 142.541 138.867  1.00  0.00     0.047 A 
ATOM      6  C   UNL     1     134.169 142.742 139.597  1.00  0.00     0.130 A 
ENDROOT
BRANCH   1   7
ATOM      7  C   UNL     1     131.757 142.114 140.076  1.00  0.00     0.341 C 
ATOM      8  O   UNL     1     131.152 143.221 140.067  1.00  0.00    -0.246 OA
BRANCH   7   9
ATOM      9  O   UNL     1     131.224 141.038 140.794  1.00  0.00    -0.465 OA
ATOM     10  C   UNL     1     131.966 140.327 141.778  1.00  0.00     0.282 C 
ENDBRANCH   7   9
ENDBRANCH   1   7
BRANCH   6  11
ATOM     11  O   UNL     1     134.134 143.730 140.581  1.00  0.00    -0.507 OA
ATOM     12  H   UNL     1     134.981 144.161 140.933  1.00  0.00     0.293 HD
ENDBRANCH   6  11
TORSDOF 3
ENDMDL
