MODEL 1
REMARK VINA RESULT:    -4.064      0.000      0.000
REMARK INTER + INTRA:          -4.602
REMARK INTER:                  -4.421
REMARK INTRA:                  -0.181
REMARK UNBOUND:                -0.181
REMARK SMILES C=C(C)[C@H]1CC[C@H](C)C[C@@H]1O
REMARK SMILES IDX 8 1 7 2 6 3 5 4 4 5 10 6 9 7 11 8 2 10 1 11 3 12
REMARK H PARENT 11 9
REMARK Flexibility Score: inf
ROOT
ATOM      1  C   UNL     1     126.237 140.107 149.347  1.00  0.00     0.008 C 
ATOM      2  C   UNL     1     126.161 138.719 148.702  1.00  0.00    -0.012 C 
ATOM      3  C   UNL     1     124.723 138.170 148.771  1.00  0.00     0.004 C 
ATOM      4  C   UNL     1     124.630 136.785 148.118  1.00  0.00     0.011 C 
ATOM      5  C   UNL     1     125.116 136.830 146.655  1.00  0.00     0.043 C 
ATOM      6  C   UNL     1     126.560 137.388 146.574  1.00  0.00     0.121 C 
ATOM      7  C   UNL     1     126.650 138.774 147.241  1.00  0.00     0.035 C 
ENDROOT
BRANCH   6   8
ATOM      8  O   UNL     1     126.998 137.461 145.240  1.00  0.00    -0.392 OA
ATOM      9  H   UNL     1     126.268 137.117 144.663  1.00  0.00     0.210 HD
ENDBRANCH   6   8
BRANCH   5  10
ATOM     10  C   UNL     1     125.004 135.459 145.997  1.00  0.00    -0.075 C 
ATOM     11  C   UNL     1     125.511 134.360 146.581  1.00  0.00     0.008 C 
ATOM     12  C   UNL     1     124.319 135.316 144.662  1.00  0.00     0.039 C 
ENDBRANCH   5  10
TORSDOF 2
ENDMDL
MODEL 2
REMARK VINA RESULT:    -3.919     12.632     14.063
REMARK INTER + INTRA:          -4.443
REMARK INTER:                  -4.277
REMARK INTRA:                  -0.166
REMARK UNBOUND:                -0.181
REMARK SMILES C=C(C)[C@H]1CC[C@H](C)C[C@@H]1O
REMARK SMILES IDX 8 1 7 2 6 3 5 4 4 5 10 6 9 7 11 8 2 10 1 11 3 12
REMARK H PARENT 11 9
REMARK Flexibility Score: inf
ROOT
ATOM      1  C   UNL     1     134.889 135.796 142.842  1.00  0.00     0.008 C 
ATOM      2  C   UNL     1     136.421 135.824 142.889  1.00  0.00    -0.012 C 
ATOM      3  C   UNL     1     136.994 136.248 141.523  1.00  0.00     0.004 C 
ATOM      4  C   UNL     1     138.528 136.292 141.560  1.00  0.00     0.011 C 
ATOM      5  C   UNL     1     139.028 137.239 142.669  1.00  0.00     0.043 C 
ATOM      6  C   UNL     1     138.450 136.824 144.046  1.00  0.00     0.121 C 
ATOM      7  C   UNL     1     136.910 136.772 144.001  1.00  0.00     0.035 C 
ENDROOT
BRANCH   6   8
ATOM      8  O   UNL     1     138.877 137.703 145.058  1.00  0.00    -0.392 OA
ATOM      9  H   UNL     1     139.540 138.324 144.658  1.00  0.00     0.210 HD
ENDBRANCH   6   8
BRANCH   5  10
ATOM     10  C   UNL     1     140.551 137.301 142.693  1.00  0.00    -0.075 C 
ATOM     11  C   UNL     1     141.215 138.373 142.229  1.00  0.00     0.008 C 
ATOM     12  C   UNL     1     141.345 136.143 143.241  1.00  0.00     0.039 C 
ENDBRANCH   5  10
TORSDOF 2
ENDMDL
MODEL 3
REMARK VINA RESULT:    -3.801     11.942     13.109
REMARK INTER + INTRA:          -4.315
REMARK INTER:                  -4.122
REMARK INTRA:                  -0.193
REMARK UNBOUND:                -0.181
REMARK SMILES C=C(C)[C@H]1CC[C@H](C)C[C@@H]1O
REMARK SMILES IDX 8 1 7 2 6 3 5 4 4 5 10 6 9 7 11 8 2 10 1 11 3 12
REMARK H PARENT 11 9
REMARK Flexibility Score: inf
ROOT
ATOM      1  C   UNL     1     141.035 137.849 142.662  1.00  0.00     0.008 C 
ATOM      2  C   UNL     1     139.572 137.640 142.255  1.00  0.00    -0.012 C 
ATOM      3  C   UNL     1     139.417 136.334 141.453  1.00  0.00     0.004 C 
ATOM      4  C   UNL     1     137.954 136.107 141.048  1.00  0.00     0.011 C 
ATOM      5  C   UNL     1     137.034 136.089 142.286  1.00  0.00     0.043 C 
ATOM      6  C   UNL     1     137.190 137.397 143.103  1.00  0.00     0.121 C 
ATOM      7  C   UNL     1     138.662 137.625 143.498  1.00  0.00     0.035 C 
ENDROOT
BRANCH   6   8
ATOM      8  O   UNL     1     136.376 137.374 144.251  1.00  0.00    -0.392 OA
ATOM      9  H   UNL     1     136.169 136.425 144.454  1.00  0.00     0.210 HD
ENDBRANCH   6   8
BRANCH   5  10
ATOM     10  C   UNL     1     135.583 135.842 141.888  1.00  0.00    -0.075 C 
ATOM     11  C   UNL     1     134.920 134.751 142.307  1.00  0.00     0.008 C 
ATOM     12  C   UNL     1     134.864 136.829 141.004  1.00  0.00     0.039 C 
ENDBRANCH   5  10
TORSDOF 2
ENDMDL
MODEL 4
REMARK VINA RESULT:    -3.754     14.447     16.205
REMARK INTER + INTRA:          -4.264
REMARK INTER:                  -4.071
REMARK INTRA:                  -0.193
REMARK UNBOUND:                -0.181
REMARK SMILES C=C(C)[C@H]1CC[C@H](C)C[C@@H]1O
REMARK SMILES IDX 8 1 7 2 6 3 5 4 4 5 10 6 9 7 11 8 2 10 1 11 3 12
REMARK H PARENT 11 9
REMARK Flexibility Score: inf
ROOT
ATOM      1  C   UNL     1     132.643 127.797 139.379  1.00  0.00     0.008 C 
ATOM      2  C   UNL     1     133.716 128.124 138.334  1.00  0.00    -0.012 C 
ATOM      3  C   UNL     1     133.200 127.814 136.916  1.00  0.00     0.004 C 
ATOM      4  C   UNL     1     134.260 128.147 135.858  1.00  0.00     0.011 C 
ATOM      5  C   UNL     1     134.697 129.623 135.959  1.00  0.00     0.043 C 
ATOM      6  C   UNL     1     135.211 129.946 137.385  1.00  0.00     0.121 C 
ATOM      7  C   UNL     1     134.146 129.600 138.444  1.00  0.00     0.035 C 
ENDROOT
BRANCH   6   8
ATOM      8  O   UNL     1     135.582 131.299 137.493  1.00  0.00    -0.392 OA
ATOM      9  H   UNL     1     136.482 131.333 137.911  1.00  0.00     0.210 HD
ENDBRANCH   6   8
BRANCH   5  10
ATOM     10  C   UNL     1     135.735 129.962 134.895  1.00  0.00    -0.075 C 
ATOM     11  C   UNL     1     136.868 129.249 134.772  1.00  0.00     0.008 C 
ATOM     12  C   UNL     1     135.506 131.120 133.958  1.00  0.00     0.039 C 
ENDBRANCH   5  10
TORSDOF 2
ENDMDL
MODEL 5
REMARK VINA RESULT:    -3.723     11.911     13.003
REMARK INTER + INTRA:          -4.230
REMARK INTER:                  -4.034
REMARK INTRA:                  -0.196
REMARK UNBOUND:                -0.181
REMARK SMILES C=C(C)[C@H]1CC[C@H](C)C[C@@H]1O
REMARK SMILES IDX 8 1 7 2 6 3 5 4 4 5 10 6 9 7 11 8 2 10 1 11 3 12
REMARK H PARENT 11 9
REMARK Flexibility Score: inf
ROOT
ATOM      1  C   UNL     1     140.815 137.478 143.142  1.00  0.00     0.008 C 
ATOM      2  C   UNL     1     139.436 136.834 142.961  1.00  0.00    -0.012 C 
ATOM      3  C   UNL     1     138.334 137.754 143.521  1.00  0.00     0.004 C 
ATOM      4  C   UNL     1     136.946 137.126 143.336  1.00  0.00     0.011 C 
ATOM      5  C   UNL     1     136.676 136.809 141.851  1.00  0.00     0.043 C 
ATOM      6  C   UNL     1     137.784 135.890 141.277  1.00  0.00     0.121 C 
ATOM      7  C   UNL     1     139.177 136.520 141.475  1.00  0.00     0.035 C 
ENDROOT
BRANCH   6   8
ATOM      8  O   UNL     1     137.561 135.621 139.914  1.00  0.00    -0.392 OA
ATOM      9  H   UNL     1     138.378 135.884 139.417  1.00  0.00     0.210 HD
ENDBRANCH   6   8
BRANCH   5  10
ATOM     10  C   UNL     1     135.289 136.205 141.662  1.00  0.00    -0.075 C 
ATOM     11  C   UNL     1     134.926 135.076 142.295  1.00  0.00     0.008 C 
ATOM     12  C   UNL     1     134.293 136.871 140.748  1.00  0.00     0.039 C 
ENDBRANCH   5  10
TORSDOF 2
ENDMDL
MODEL 6
REMARK VINA RESULT:    -3.715     14.103     15.461
REMARK INTER + INTRA:          -4.222
REMARK INTER:                  -4.025
REMARK INTRA:                  -0.196
REMARK UNBOUND:                -0.181
REMARK SMILES C=C(C)[C@H]1CC[C@H](C)C[C@@H]1O
REMARK SMILES IDX 8 1 7 2 6 3 5 4 4 5 10 6 9 7 11 8 2 10 1 11 3 12
REMARK H PARENT 11 9
REMARK Flexibility Score: inf
ROOT
ATOM      1  C   UNL     1     142.850 136.648 140.075  1.00  0.00     0.008 C 
ATOM      2  C   UNL     1     141.851 136.669 141.236  1.00  0.00    -0.012 C 
ATOM      3  C   UNL     1     141.617 138.113 141.721  1.00  0.00     0.004 C 
ATOM      4  C   UNL     1     140.609 138.149 142.877  1.00  0.00     0.011 C 
ATOM      5  C   UNL     1     139.272 137.499 142.466  1.00  0.00     0.043 C 
ATOM      6  C   UNL     1     139.499 136.048 141.970  1.00  0.00     0.121 C 
ATOM      7  C   UNL     1     140.520 136.016 140.816  1.00  0.00     0.035 C 
ENDROOT
BRANCH   6   8
ATOM      8  O   UNL     1     138.287 135.460 141.564  1.00  0.00    -0.392 OA
ATOM      9  H   UNL     1     138.010 135.893 140.715  1.00  0.00     0.210 HD
ENDBRANCH   6   8
BRANCH   5  10
ATOM     10  C   UNL     1     138.262 137.553 143.607  1.00  0.00    -0.075 C 
ATOM     11  C   UNL     1     138.528 137.000 144.803  1.00  0.00     0.008 C 
ATOM     12  C   UNL     1     136.932 138.233 143.406  1.00  0.00     0.039 C 
ENDBRANCH   5  10
TORSDOF 2
ENDMDL
MODEL 7
REMARK VINA RESULT:    -3.709     17.242     19.045
REMARK INTER + INTRA:          -4.216
REMARK INTER:                  -4.027
REMARK INTRA:                  -0.189
REMARK UNBOUND:                -0.181
REMARK SMILES C=C(C)[C@H]1CC[C@H](C)C[C@@H]1O
REMARK SMILES IDX 8 1 7 2 6 3 5 4 4 5 10 6 9 7 11 8 2 10 1 11 3 12
REMARK H PARENT 11 9
REMARK Flexibility Score: inf
ROOT
ATOM      1  C   UNL     1     137.337 128.629 130.639  1.00  0.00     0.008 C 
ATOM      2  C   UNL     1     137.117 129.167 132.057  1.00  0.00    -0.012 C 
ATOM      3  C   UNL     1     138.245 130.143 132.445  1.00  0.00     0.004 C 
ATOM      4  C   UNL     1     138.032 130.698 133.859  1.00  0.00     0.011 C 
ATOM      5  C   UNL     1     136.659 131.391 133.980  1.00  0.00     0.043 C 
ATOM      6  C   UNL     1     135.518 130.419 133.585  1.00  0.00     0.121 C 
ATOM      7  C   UNL     1     135.743 129.856 132.168  1.00  0.00     0.035 C 
ENDROOT
BRANCH   6   8
ATOM      8  O   UNL     1     134.265 131.054 133.663  1.00  0.00    -0.392 OA
ATOM      9  H   UNL     1     133.871 131.056 132.752  1.00  0.00     0.210 HD
ENDBRANCH   6   8
BRANCH   5  10
ATOM     10  C   UNL     1     136.454 131.962 135.378  1.00  0.00    -0.075 C 
ATOM     11  C   UNL     1     136.413 133.288 135.592  1.00  0.00     0.008 C 
ATOM     12  C   UNL     1     136.295 131.036 136.557  1.00  0.00     0.039 C 
ENDBRANCH   5  10
TORSDOF 2
ENDMDL
MODEL 8
REMARK VINA RESULT:    -3.682     13.895     14.771
REMARK INTER + INTRA:          -4.186
REMARK INTER:                  -4.006
REMARK INTRA:                  -0.180
REMARK UNBOUND:                -0.181
REMARK SMILES C=C(C)[C@H]1CC[C@H](C)C[C@@H]1O
REMARK SMILES IDX 8 1 7 2 6 3 5 4 4 5 10 6 9 7 11 8 2 10 1 11 3 12
REMARK H PARENT 11 9
REMARK Flexibility Score: inf
ROOT
ATOM      1  C   UNL     1     135.705 130.060 140.873  1.00  0.00     0.008 C 
ATOM      2  C   UNL     1     135.067 129.215 139.765  1.00  0.00    -0.012 C 
ATOM      3  C   UNL     1     133.678 128.712 140.202  1.00  0.00     0.004 C 
ATOM      4  C   UNL     1     133.023 127.873 139.097  1.00  0.00     0.011 C 
ATOM      5  C   UNL     1     132.913 128.677 137.785  1.00  0.00     0.043 C 
ATOM      6  C   UNL     1     134.306 129.194 137.341  1.00  0.00     0.121 C 
ATOM      7  C   UNL     1     134.963 130.026 138.459  1.00  0.00     0.035 C 
ENDROOT
BRANCH   6   8
ATOM      8  O   UNL     1     134.208 129.954 136.161  1.00  0.00    -0.392 OA
ATOM      9  H   UNL     1     135.008 129.755 135.607  1.00  0.00     0.210 HD
ENDBRANCH   6   8
BRANCH   5  10
ATOM     10  C   UNL     1     132.243 127.853 136.691  1.00  0.00    -0.075 C 
ATOM     11  C   UNL     1     132.832 126.758 136.180  1.00  0.00     0.008 C 
ATOM     12  C   UNL     1     130.895 128.262 136.157  1.00  0.00     0.039 C 
ENDBRANCH   5  10
TORSDOF 2
ENDMDL
