MODEL 1
REMARK VINA RESULT:    -5.051      0.000      0.000
REMARK INTER + INTRA:          -7.936
REMARK INTER:                  -7.708
REMARK INTRA:                  -0.228
REMARK UNBOUND:                -0.228
REMARK SMILES CCCCCCCCCC=CC(=O)[O-]
REMARK SMILES IDX 7 1 8 2 9 3 10 4 11 5 12 6 13 7 14 8 6 9 5 10 4 11 3 12 2 13
REMARK SMILES IDX 1 14
REMARK H PARENT
REMARK Flexibility Score: inf
ROOT
ATOM      1  C   UNL     1     148.205 143.531 157.709  1.00  0.00     0.000 C 
ENDROOT
BRANCH   1   2
ATOM      2  C   UNL     1     146.978 144.357 158.124  1.00  0.00     0.004 C 
BRANCH   2   3
ATOM      3  C   UNL     1     147.204 145.869 157.957  1.00  0.00     0.027 C 
BRANCH   3   4
ATOM      4  C   UNL     1     146.211 146.463 156.994  1.00  0.00    -0.025 C 
ATOM      5  C   UNL     1     146.283 147.686 156.444  1.00  0.00     0.020 C 
BRANCH   5   6
ATOM      6  C   UNL     1     147.317 148.711 156.698  1.00  0.00     0.064 C 
ATOM      7  O   UNL     1     148.543 148.476 156.541  1.00  0.00    -0.545 OA
ATOM      8  O   UNL     1     146.924 149.965 157.146  1.00  0.00    -0.545 OA
ENDBRANCH   5   6
ENDBRANCH   3   4
ENDBRANCH   2   3
ENDBRANCH   1   2
BRANCH   1   9
ATOM      9  C   UNL     1     148.084 142.053 158.121  1.00  0.00     0.000 C 
BRANCH   9  10
ATOM     10  C   UNL     1     146.635 141.542 158.080  1.00  0.00     0.000 C 
BRANCH  10  11
ATOM     11  C   UNL     1     146.535 140.092 157.573  1.00  0.00    -0.000 C 
BRANCH  11  12
ATOM     12  C   UNL     1     145.134 139.493 157.775  1.00  0.00    -0.000 C 
BRANCH  12  13
ATOM     13  C   UNL     1     144.386 139.274 156.452  1.00  0.00    -0.003 C 
ATOM     14  C   UNL     1     143.281 138.233 156.612  1.00  0.00     0.004 C 
ENDBRANCH  12  13
ENDBRANCH  11  12
ENDBRANCH  10  11
ENDBRANCH   9  10
ENDBRANCH   1   9
TORSDOF 9
ENDMDL
MODEL 2
REMARK VINA RESULT:    -5.037      3.844      7.713
REMARK INTER + INTRA:          -7.915
REMARK INTER:                  -7.482
REMARK INTRA:                  -0.433
REMARK UNBOUND:                -0.228
REMARK SMILES CCCCCCCCCC=CC(=O)[O-]
REMARK SMILES IDX 7 1 8 2 9 3 10 4 11 5 12 6 13 7 14 8 6 9 5 10 4 11 3 12 2 13
REMARK SMILES IDX 1 14
REMARK H PARENT
REMARK Flexibility Score: inf
ROOT
ATOM      1  C   UNL     1     148.217 143.875 157.470  1.00  0.00     0.000 C 
ENDROOT
BRANCH   1   2
ATOM      2  C   UNL     1     148.414 142.499 158.125  1.00  0.00     0.004 C 
BRANCH   2   3
ATOM      3  C   UNL     1     147.149 141.627 158.051  1.00  0.00     0.027 C 
BRANCH   3   4
ATOM      4  C   UNL     1     147.475 140.240 157.565  1.00  0.00    -0.025 C 
ATOM      5  C   UNL     1     146.584 139.307 157.190  1.00  0.00     0.020 C 
BRANCH   5   6
ATOM      6  C   UNL     1     145.111 139.431 157.217  1.00  0.00     0.064 C 
ATOM      7  O   UNL     1     144.393 138.716 157.963  1.00  0.00    -0.545 OA
ATOM      8  O   UNL     1     144.499 140.351 156.377  1.00  0.00    -0.545 OA
ENDBRANCH   5   6
ENDBRANCH   3   4
ENDBRANCH   2   3
ENDBRANCH   1   2
BRANCH   1   9
ATOM      9  C   UNL     1     147.082 144.681 158.125  1.00  0.00     0.000 C 
BRANCH   9  10
ATOM     10  C   UNL     1     147.048 146.145 157.657  1.00  0.00     0.000 C 
BRANCH  10  11
ATOM     11  C   UNL     1     147.679 146.335 156.267  1.00  0.00    -0.000 C 
BRANCH  11  12
ATOM     12  C   UNL     1     147.862 147.817 155.900  1.00  0.00    -0.000 C 
BRANCH  12  13
ATOM     13  C   UNL     1     146.592 148.647 156.138  1.00  0.00    -0.003 C 
ATOM     14  C   UNL     1     146.889 149.867 157.007  1.00  0.00     0.004 C 
ENDBRANCH  12  13
ENDBRANCH  11  12
ENDBRANCH  10  11
ENDBRANCH   9  10
ENDBRANCH   1   9
TORSDOF 9
ENDMDL
MODEL 3
REMARK VINA RESULT:    -4.903      5.280     11.263
REMARK INTER + INTRA:          -7.710
REMARK INTER:                  -7.316
REMARK INTRA:                  -0.394
REMARK UNBOUND:                -0.228
REMARK SMILES CCCCCCCCCC=CC(=O)[O-]
REMARK SMILES IDX 7 1 8 2 9 3 10 4 11 5 12 6 13 7 14 8 6 9 5 10 4 11 3 12 2 13
REMARK SMILES IDX 1 14
REMARK H PARENT
REMARK Flexibility Score: inf
ROOT
ATOM      1  C   UNL     1     147.711 151.768 158.018  1.00  0.00     0.000 C 
ENDROOT
BRANCH   1   2
ATOM      2  C   UNL     1     146.529 151.032 157.369  1.00  0.00     0.004 C 
BRANCH   2   3
ATOM      3  C   UNL     1     146.914 149.631 156.865  1.00  0.00     0.027 C 
BRANCH   3   4
ATOM      4  C   UNL     1     148.163 149.136 157.543  1.00  0.00    -0.025 C 
ATOM      5  C   UNL     1     148.696 147.910 157.413  1.00  0.00     0.020 C 
BRANCH   5   6
ATOM      6  C   UNL     1     148.152 146.789 156.619  1.00  0.00     0.064 C 
ATOM      7  O   UNL     1     147.614 145.787 157.157  1.00  0.00    -0.545 OA
ATOM      8  O   UNL     1     148.257 146.834 155.235  1.00  0.00    -0.545 OA
ENDBRANCH   5   6
ENDBRANCH   3   4
ENDBRANCH   2   3
ENDBRANCH   1   2
BRANCH   1   9
ATOM      9  C   UNL     1     147.524 153.296 158.017  1.00  0.00     0.000 C 
BRANCH   9  10
ATOM     10  C   UNL     1     148.855 154.056 158.124  1.00  0.00     0.000 C 
BRANCH  10  11
ATOM     11  C   UNL     1     149.085 155.013 156.941  1.00  0.00    -0.000 C 
BRANCH  11  12
ATOM     12  C   UNL     1     150.529 155.537 156.878  1.00  0.00    -0.000 C 
BRANCH  12  13
ATOM     13  C   UNL     1     150.821 156.600 157.947  1.00  0.00    -0.003 C 
ATOM     14  C   UNL     1     151.468 157.837 157.329  1.00  0.00     0.004 C 
ENDBRANCH  12  13
ENDBRANCH  11  12
ENDBRANCH  10  11
ENDBRANCH   9  10
ENDBRANCH   1   9
TORSDOF 9
ENDMDL
MODEL 4
REMARK VINA RESULT:    -4.885      4.592     10.460
REMARK INTER + INTRA:          -7.683
REMARK INTER:                  -7.272
REMARK INTRA:                  -0.411
REMARK UNBOUND:                -0.228
REMARK SMILES CCCCCCCCCC=CC(=O)[O-]
REMARK SMILES IDX 7 1 8 2 9 3 10 4 11 5 12 6 13 7 14 8 6 9 5 10 4 11 3 12 2 13
REMARK SMILES IDX 1 14
REMARK H PARENT
REMARK Flexibility Score: inf
ROOT
ATOM      1  C   UNL     1     147.241 150.550 157.435  1.00  0.00     0.000 C 
ENDROOT
BRANCH   1   2
ATOM      2  C   UNL     1     148.631 150.077 157.886  1.00  0.00     0.004 C 
BRANCH   2   3
ATOM      3  C   UNL     1     148.745 148.544 157.930  1.00  0.00     0.027 C 
BRANCH   3   4
ATOM      4  C   UNL     1     148.707 147.958 156.544  1.00  0.00    -0.025 C 
ATOM      5  C   UNL     1     148.362 146.698 156.231  1.00  0.00     0.020 C 
BRANCH   5   6
ATOM      6  C   UNL     1     147.991 145.623 157.175  1.00  0.00     0.064 C 
ATOM      7  O   UNL     1     148.721 144.615 157.361  1.00  0.00    -0.545 OA
ATOM      8  O   UNL     1     146.789 145.719 157.863  1.00  0.00    -0.545 OA
ENDBRANCH   5   6
ENDBRANCH   3   4
ENDBRANCH   2   3
ENDBRANCH   1   2
BRANCH   1   9
ATOM      9  C   UNL     1     146.937 151.991 157.882  1.00  0.00     0.000 C 
BRANCH   9  10
ATOM     10  C   UNL     1     148.209 152.818 158.125  1.00  0.00     0.000 C 
BRANCH  10  11
ATOM     11  C   UNL     1     147.947 154.334 158.074  1.00  0.00    -0.000 C 
BRANCH  11  12
ATOM     12  C   UNL     1     148.763 155.036 156.977  1.00  0.00    -0.000 C 
BRANCH  12  13
ATOM     13  C   UNL     1     150.220 155.289 157.392  1.00  0.00    -0.003 C 
ATOM     14  C   UNL     1     150.635 156.726 157.091  1.00  0.00     0.004 C 
ENDBRANCH  12  13
ENDBRANCH  11  12
ENDBRANCH  10  11
ENDBRANCH   9  10
ENDBRANCH   1   9
TORSDOF 9
ENDMDL
MODEL 5
REMARK VINA RESULT:    -4.804      5.120      8.185
REMARK INTER + INTRA:          -7.559
REMARK INTER:                  -7.274
REMARK INTRA:                  -0.286
REMARK UNBOUND:                -0.228
REMARK SMILES CCCCCCCCCC=CC(=O)[O-]
REMARK SMILES IDX 7 1 8 2 9 3 10 4 11 5 12 6 13 7 14 8 6 9 5 10 4 11 3 12 2 13
REMARK SMILES IDX 1 14
REMARK H PARENT
REMARK Flexibility Score: inf
ROOT
ATOM      1  C   UNL     1     147.119 151.339 157.568  1.00  0.00     0.000 C 
ENDROOT
BRANCH   1   2
ATOM      2  C   UNL     1     146.907 152.756 158.124  1.00  0.00     0.004 C 
BRANCH   2   3
ATOM      3  C   UNL     1     148.175 153.620 158.033  1.00  0.00     0.027 C 
BRANCH   3   4
ATOM      4  C   UNL     1     147.853 155.006 157.544  1.00  0.00    -0.025 C 
ATOM      5  C   UNL     1     148.741 155.914 157.107  1.00  0.00     0.020 C 
BRANCH   5   6
ATOM      6  C   UNL     1     150.210 155.758 157.053  1.00  0.00     0.064 C 
ATOM      7  O   UNL     1     150.766 154.917 156.299  1.00  0.00    -0.545 OA
ATOM      8  O   UNL     1     150.999 156.549 157.875  1.00  0.00    -0.545 OA
ENDBRANCH   5   6
ENDBRANCH   3   4
ENDBRANCH   2   3
ENDBRANCH   1   2
BRANCH   1   9
ATOM      9  C   UNL     1     148.391 150.674 158.123  1.00  0.00     0.000 C 
BRANCH   9  10
ATOM     10  C   UNL     1     148.355 149.141 158.010  1.00  0.00     0.000 C 
BRANCH  10  11
ATOM     11  C   UNL     1     148.080 148.661 156.574  1.00  0.00    -0.000 C 
BRANCH  11  12
ATOM     12  C   UNL     1     146.721 147.955 156.439  1.00  0.00    -0.000 C 
BRANCH  12  13
ATOM     13  C   UNL     1     146.740 146.524 156.997  1.00  0.00    -0.003 C 
ATOM     14  C   UNL     1     148.134 145.911 156.891  1.00  0.00     0.004 C 
ENDBRANCH  12  13
ENDBRANCH  11  12
ENDBRANCH  10  11
ENDBRANCH   9  10
ENDBRANCH   1   9
TORSDOF 9
ENDMDL
MODEL 6
REMARK VINA RESULT:    -4.732      4.999     11.112
REMARK INTER + INTRA:          -7.450
REMARK INTER:                  -7.245
REMARK INTRA:                  -0.205
REMARK UNBOUND:                -0.228
REMARK SMILES CCCCCCCCCC=CC(=O)[O-]
REMARK SMILES IDX 7 1 8 2 9 3 10 4 11 5 12 6 13 7 14 8 6 9 5 10 4 11 3 12 2 13
REMARK SMILES IDX 1 14
REMARK H PARENT
REMARK Flexibility Score: inf
ROOT
ATOM      1  C   UNL     1     147.537 151.880 158.119  1.00  0.00     0.000 C 
ENDROOT
BRANCH   1   2
ATOM      2  C   UNL     1     146.589 150.938 157.361  1.00  0.00     0.004 C 
BRANCH   2   3
ATOM      3  C   UNL     1     147.260 149.607 156.984  1.00  0.00     0.027 C 
BRANCH   3   4
ATOM      4  C   UNL     1     146.249 148.616 156.473  1.00  0.00    -0.025 C 
ATOM      5  C   UNL     1     146.347 147.279 156.555  1.00  0.00     0.020 C 
BRANCH   5   6
ATOM      6  C   UNL     1     147.474 146.508 157.120  1.00  0.00     0.064 C 
ATOM      7  O   UNL     1     147.305 145.622 157.997  1.00  0.00    -0.545 OA
ATOM      8  O   UNL     1     148.762 146.785 156.683  1.00  0.00    -0.545 OA
ENDBRANCH   5   6
ENDBRANCH   3   4
ENDBRANCH   2   3
ENDBRANCH   1   2
BRANCH   1   9
ATOM      9  C   UNL     1     147.038 153.336 158.124  1.00  0.00     0.000 C 
BRANCH   9  10
ATOM     10  C   UNL     1     148.185 154.356 158.023  1.00  0.00     0.000 C 
BRANCH  10  11
ATOM     11  C   UNL     1     147.688 155.768 157.666  1.00  0.00    -0.000 C 
BRANCH  11  12
ATOM     12  C   UNL     1     148.841 156.763 157.459  1.00  0.00    -0.000 C 
BRANCH  12  13
ATOM     13  C   UNL     1     150.215 156.153 157.773  1.00  0.00    -0.003 C 
ATOM     14  C   UNL     1     151.167 156.307 156.591  1.00  0.00     0.004 C 
ENDBRANCH  12  13
ENDBRANCH  11  12
ENDBRANCH  10  11
ENDBRANCH   9  10
ENDBRANCH   1   9
TORSDOF 9
ENDMDL
MODEL 7
REMARK VINA RESULT:    -4.729      1.372      2.590
REMARK INTER + INTRA:          -7.444
REMARK INTER:                  -7.029
REMARK INTRA:                  -0.415
REMARK UNBOUND:                -0.228
REMARK SMILES CCCCCCCCCC=CC(=O)[O-]
REMARK SMILES IDX 7 1 8 2 9 3 10 4 11 5 12 6 13 7 14 8 6 9 5 10 4 11 3 12 2 13
REMARK SMILES IDX 1 14
REMARK H PARENT
REMARK Flexibility Score: inf
ROOT
ATOM      1  C   UNL     1     147.435 145.720 157.159  1.00  0.00     0.000 C 
ENDROOT
BRANCH   1   2
ATOM      2  C   UNL     1     148.739 146.075 156.429  1.00  0.00     0.004 C 
BRANCH   2   3
ATOM      3  C   UNL     1     148.840 147.574 156.100  1.00  0.00     0.027 C 
BRANCH   3   4
ATOM      4  C   UNL     1     148.915 148.400 157.356  1.00  0.00    -0.025 C 
ATOM      5  C   UNL     1     148.016 149.318 157.750  1.00  0.00     0.020 C 
BRANCH   5   6
ATOM      6  C   UNL     1     146.800 149.733 157.020  1.00  0.00     0.064 C 
ATOM      7  O   UNL     1     146.000 148.899 156.523  1.00  0.00    -0.545 OA
ATOM      8  O   UNL     1     146.543 151.088 156.861  1.00  0.00    -0.545 OA
ENDBRANCH   5   6
ENDBRANCH   3   4
ENDBRANCH   2   3
ENDBRANCH   1   2
BRANCH   1   9
ATOM      9  C   UNL     1     147.602 144.523 158.112  1.00  0.00     0.000 C 
BRANCH   9  10
ATOM     10  C   UNL     1     148.553 143.451 157.557  1.00  0.00     0.000 C 
BRANCH  10  11
ATOM     11  C   UNL     1     148.255 142.050 158.120  1.00  0.00    -0.000 C 
BRANCH  11  12
ATOM     12  C   UNL     1     146.791 141.631 157.914  1.00  0.00    -0.000 C 
BRANCH  12  13
ATOM     13  C   UNL     1     146.637 140.128 157.638  1.00  0.00    -0.003 C 
ATOM     14  C   UNL     1     145.236 139.805 157.127  1.00  0.00     0.004 C 
ENDBRANCH  12  13
ENDBRANCH  11  12
ENDBRANCH  10  11
ENDBRANCH   9  10
ENDBRANCH   1   9
TORSDOF 9
ENDMDL
MODEL 8
REMARK VINA RESULT:    -4.724      4.861      8.150
REMARK INTER + INTRA:          -7.437
REMARK INTER:                  -7.143
REMARK INTRA:                  -0.294
REMARK UNBOUND:                -0.228
REMARK SMILES CCCCCCCCCC=CC(=O)[O-]
REMARK SMILES IDX 7 1 8 2 9 3 10 4 11 5 12 6 13 7 14 8 6 9 5 10 4 11 3 12 2 13
REMARK SMILES IDX 1 14
REMARK H PARENT
REMARK Flexibility Score: inf
ROOT
ATOM      1  C   UNL     1     146.912 151.456 157.439  1.00  0.00     0.000 C 
ENDROOT
BRANCH   1   2
ATOM      2  C   UNL     1     147.998 152.300 158.125  1.00  0.00     0.004 C 
BRANCH   2   3
ATOM      3  C   UNL     1     147.700 153.807 158.062  1.00  0.00     0.027 C 
BRANCH   3   4
ATOM      4  C   UNL     1     148.832 154.557 157.413  1.00  0.00    -0.025 C 
ATOM      5  C   UNL     1     148.842 155.867 157.120  1.00  0.00     0.020 C 
BRANCH   5   6
ATOM      6  C   UNL     1     147.740 156.830 157.333  1.00  0.00     0.064 C 
ATOM      7  O   UNL     1     146.604 156.669 156.818  1.00  0.00    -0.545 OA
ATOM      8  O   UNL     1     147.974 157.957 158.108  1.00  0.00    -0.545 OA
ENDBRANCH   5   6
ENDBRANCH   3   4
ENDBRANCH   2   3
ENDBRANCH   1   2
BRANCH   1   9
ATOM      9  C   UNL     1     147.268 149.960 157.398  1.00  0.00     0.000 C 
BRANCH   9  10
ATOM     10  C   UNL     1     146.230 149.124 156.632  1.00  0.00     0.000 C 
BRANCH  10  11
ATOM     11  C   UNL     1     146.736 147.707 156.309  1.00  0.00    -0.000 C 
BRANCH  11  12
ATOM     12  C   UNL     1     148.162 147.458 156.828  1.00  0.00    -0.000 C 
BRANCH  12  13
ATOM     13  C   UNL     1     148.576 145.982 156.737  1.00  0.00    -0.003 C 
ATOM     14  C   UNL     1     147.776 145.125 157.715  1.00  0.00     0.004 C 
ENDBRANCH  12  13
ENDBRANCH  11  12
ENDBRANCH  10  11
ENDBRANCH   9  10
ENDBRANCH   1   9
TORSDOF 9
ENDMDL
MODEL 9
REMARK VINA RESULT:    -4.678      5.605      8.944
REMARK INTER + INTRA:          -7.368
REMARK INTER:                  -7.149
REMARK INTRA:                  -0.218
REMARK UNBOUND:                -0.228
REMARK SMILES CCCCCCCCCC=CC(=O)[O-]
REMARK SMILES IDX 7 1 8 2 9 3 10 4 11 5 12 6 13 7 14 8 6 9 5 10 4 11 3 12 2 13
REMARK SMILES IDX 1 14
REMARK H PARENT
REMARK Flexibility Score: inf
ROOT
ATOM      1  C   UNL     1     148.069 152.288 157.988  1.00  0.00     0.000 C 
ENDROOT
BRANCH   1   2
ATOM      2  C   UNL     1     147.488 153.706 158.101  1.00  0.00     0.004 C 
BRANCH   2   3
ATOM      3  C   UNL     1     148.580 154.789 158.122  1.00  0.00     0.027 C 
BRANCH   3   4
ATOM      4  C   UNL     1     149.614 154.536 157.058  1.00  0.00    -0.025 C 
ATOM      5  C   UNL     1     150.565 155.398 156.663  1.00  0.00     0.020 C 
BRANCH   5   6
ATOM      6  C   UNL     1     150.768 156.777 157.157  1.00  0.00     0.064 C 
ATOM      7  O   UNL     1     149.813 157.582 157.302  1.00  0.00    -0.545 OA
ATOM      8  O   UNL     1     152.057 157.202 157.449  1.00  0.00    -0.545 OA
ENDBRANCH   5   6
ENDBRANCH   3   4
ENDBRANCH   2   3
ENDBRANCH   1   2
BRANCH   1   9
ATOM      9  C   UNL     1     146.990 151.233 157.689  1.00  0.00     0.000 C 
BRANCH   9  10
ATOM     10  C   UNL     1     147.585 149.854 157.357  1.00  0.00     0.000 C 
BRANCH  10  11
ATOM     11  C   UNL     1     146.588 148.945 156.616  1.00  0.00    -0.000 C 
BRANCH  11  12
ATOM     12  C   UNL     1     147.258 148.116 155.509  1.00  0.00    -0.000 C 
BRANCH  12  13
ATOM     13  C   UNL     1     148.295 147.124 156.056  1.00  0.00    -0.003 C 
ATOM     14  C   UNL     1     147.652 146.137 157.027  1.00  0.00     0.004 C 
ENDBRANCH  12  13
ENDBRANCH  11  12
ENDBRANCH  10  11
ENDBRANCH   9  10
ENDBRANCH   1   9
TORSDOF 9
ENDMDL
