MODEL 1
REMARK VINA RESULT:    -3.716      0.000      0.000
REMARK INTER + INTRA:          -4.689
REMARK INTER:                  -4.585
REMARK INTRA:                  -0.104
REMARK UNBOUND:                -0.104
REMARK SMILES CCCCCC(=O)[O-]
REMARK SMILES IDX 4 1 5 2 6 3 7 4 8 5 3 6 2 7 1 8
REMARK H PARENT
REMARK Flexibility Score: inf
ROOT
ATOM      1  C   UNL     1       3.129  42.949  68.998  1.00  0.00     0.006 C 
ENDROOT
BRANCH   1   2
ATOM      2  C   UNL     1       2.646  43.939  67.929  1.00  0.00     0.053 C 
BRANCH   2   3
ATOM      3  C   UNL     1       3.181  43.556  66.585  1.00  0.00     0.041 C 
ATOM      4  O   UNL     1       3.466  42.355  66.336  1.00  0.00    -0.550 OA
ATOM      5  O   UNL     1       3.411  44.532  65.624  1.00  0.00    -0.550 OA
ENDBRANCH   2   3
ENDBRANCH   1   2
BRANCH   1   6
ATOM      6  C   UNL     1       2.346  43.073  70.315  1.00  0.00     0.000 C 
BRANCH   6   7
ATOM      7  C   UNL     1       3.166  43.738  71.429  1.00  0.00    -0.003 C 
ATOM      8  C   UNL     1       4.663  43.570  71.184  1.00  0.00     0.004 C 
ENDBRANCH   6   7
ENDBRANCH   1   6
TORSDOF 4
ENDMDL
MODEL 2
REMARK VINA RESULT:    -3.475      9.192      9.848
REMARK INTER + INTRA:          -4.391
REMARK INTER:                  -4.256
REMARK INTRA:                  -0.135
REMARK UNBOUND:                -0.104
REMARK SMILES CCCCCC(=O)[O-]
REMARK SMILES IDX 4 1 5 2 6 3 7 4 8 5 3 6 2 7 1 8
REMARK H PARENT
REMARK Flexibility Score: inf
ROOT
ATOM      1  C   UNL     1       7.329  33.719  69.759  1.00  0.00     0.006 C 
ENDROOT
BRANCH   1   2
ATOM      2  C   UNL     1       7.605  34.756  68.663  1.00  0.00     0.053 C 
BRANCH   2   3
ATOM      3  C   UNL     1       7.369  34.161  67.311  1.00  0.00     0.041 C 
ATOM      4  O   UNL     1       6.616  34.742  66.485  1.00  0.00    -0.550 OA
ATOM      5  O   UNL     1       7.942  32.940  66.979  1.00  0.00    -0.550 OA
ENDBRANCH   2   3
ENDBRANCH   1   2
BRANCH   1   6
ATOM      6  C   UNL     1       6.216  34.159  70.724  1.00  0.00     0.000 C 
BRANCH   6   7
ATOM      7  C   UNL     1       5.660  35.551  70.388  1.00  0.00    -0.003 C 
ATOM      8  C   UNL     1       4.180  35.652  70.748  1.00  0.00     0.004 C 
ENDBRANCH   6   7
ENDBRANCH   1   6
TORSDOF 4
ENDMDL
MODEL 3
REMARK VINA RESULT:    -3.450      9.144      9.739
REMARK INTER + INTRA:          -4.360
REMARK INTER:                  -4.236
REMARK INTRA:                  -0.124
REMARK UNBOUND:                -0.104
REMARK SMILES CCCCCC(=O)[O-]
REMARK SMILES IDX 4 1 5 2 6 3 7 4 8 5 3 6 2 7 1 8
REMARK H PARENT
REMARK Flexibility Score: inf
ROOT
ATOM      1  C   UNL     1       7.184  33.709  69.821  1.00  0.00     0.006 C 
ENDROOT
BRANCH   1   2
ATOM      2  C   UNL     1       7.474  34.773  68.755  1.00  0.00     0.053 C 
BRANCH   2   3
ATOM      3  C   UNL     1       7.354  34.185  67.384  1.00  0.00     0.041 C 
ATOM      4  O   UNL     1       7.965  33.122  67.096  1.00  0.00    -0.550 OA
ATOM      5  O   UNL     1       6.606  34.836  66.411  1.00  0.00    -0.550 OA
ENDBRANCH   2   3
ENDBRANCH   1   2
BRANCH   1   6
ATOM      6  C   UNL     1       6.077  34.136  70.798  1.00  0.00     0.000 C 
BRANCH   6   7
ATOM      7  C   UNL     1       5.476  35.505  70.447  1.00  0.00    -0.003 C 
ATOM      8  C   UNL     1       4.053  35.634  70.984  1.00  0.00     0.004 C 
ENDBRANCH   6   7
ENDBRANCH   1   6
TORSDOF 4
ENDMDL
MODEL 4
REMARK VINA RESULT:    -3.417      2.807      4.433
REMARK INTER + INTRA:          -4.320
REMARK INTER:                  -4.218
REMARK INTRA:                  -0.102
REMARK UNBOUND:                -0.104
REMARK SMILES CCCCCC(=O)[O-]
REMARK SMILES IDX 4 1 5 2 6 3 7 4 8 5 3 6 2 7 1 8
REMARK H PARENT
REMARK Flexibility Score: inf
ROOT
ATOM      1  C   UNL     1       2.425  44.005  68.661  1.00  0.00     0.006 C 
ENDROOT
BRANCH   1   2
ATOM      2  C   UNL     1       3.230  42.846  69.264  1.00  0.00     0.053 C 
BRANCH   2   3
ATOM      3  C   UNL     1       3.693  43.195  70.643  1.00  0.00     0.041 C 
ATOM      4  O   UNL     1       4.888  42.986  70.982  1.00  0.00    -0.550 OA
ATOM      5  O   UNL     1       2.794  43.707  71.570  1.00  0.00    -0.550 OA
ENDBRANCH   2   3
ENDBRANCH   1   2
BRANCH   1   6
ATOM      6  C   UNL     1       2.439  43.998  67.124  1.00  0.00     0.000 C 
BRANCH   6   7
ATOM      7  C   UNL     1       3.213  42.804  66.546  1.00  0.00    -0.003 C 
ATOM      8  C   UNL     1       3.511  43.010  65.064  1.00  0.00     0.004 C 
ENDBRANCH   6   7
ENDBRANCH   1   6
TORSDOF 4
ENDMDL
MODEL 5
REMARK VINA RESULT:    -3.396     13.564     15.197
REMARK INTER + INTRA:          -4.293
REMARK INTER:                  -4.104
REMARK INTRA:                  -0.190
REMARK UNBOUND:                -0.104
REMARK SMILES CCCCCC(=O)[O-]
REMARK SMILES IDX 4 1 5 2 6 3 7 4 8 5 3 6 2 7 1 8
REMARK H PARENT
REMARK Flexibility Score: inf
ROOT
ATOM      1  C   UNL     1      17.885  41.739  74.008  1.00  0.00     0.006 C 
ENDROOT
BRANCH   1   2
ATOM      2  C   UNL     1      17.858  40.498  74.911  1.00  0.00     0.053 C 
BRANCH   2   3
ATOM      3  C   UNL     1      17.191  39.358  74.209  1.00  0.00     0.041 C 
ATOM      4  O   UNL     1      17.884  38.457  73.664  1.00  0.00    -0.550 OA
ATOM      5  O   UNL     1      15.806  39.313  74.114  1.00  0.00    -0.550 OA
ENDBRANCH   2   3
ENDBRANCH   1   2
BRANCH   1   6
ATOM      6  C   UNL     1      17.045  42.897  74.570  1.00  0.00     0.000 C 
BRANCH   6   7
ATOM      7  C   UNL     1      15.916  43.322  73.621  1.00  0.00    -0.003 C 
ATOM      8  C   UNL     1      14.619  42.585  73.945  1.00  0.00     0.004 C 
ENDBRANCH   6   7
ENDBRANCH   1   6
TORSDOF 4
ENDMDL
MODEL 6
REMARK VINA RESULT:    -3.370     10.284     10.835
REMARK INTER + INTRA:          -4.261
REMARK INTER:                  -4.213
REMARK INTRA:                  -0.048
REMARK UNBOUND:                -0.104
REMARK SMILES CCCCCC(=O)[O-]
REMARK SMILES IDX 4 1 5 2 6 3 7 4 8 5 3 6 2 7 1 8
REMARK H PARENT
REMARK Flexibility Score: inf
ROOT
ATOM      1  C   UNL     1       7.409  33.282  69.888  1.00  0.00     0.006 C 
ENDROOT
BRANCH   1   2
ATOM      2  C   UNL     1       7.194  34.516  69.002  1.00  0.00     0.053 C 
BRANCH   2   3
ATOM      3  C   UNL     1       7.374  34.161  67.560  1.00  0.00     0.041 C 
ATOM      4  O   UNL     1       8.120  33.198  67.233  1.00  0.00    -0.550 OA
ATOM      5  O   UNL     1       6.759  34.920  66.573  1.00  0.00    -0.550 OA
ENDBRANCH   2   3
ENDBRANCH   1   2
BRANCH   1   6
ATOM      6  C   UNL     1       7.180  33.578  71.379  1.00  0.00     0.000 C 
BRANCH   6   7
ATOM      7  C   UNL     1       7.413  32.347  72.267  1.00  0.00    -0.003 C 
ATOM      8  C   UNL     1       8.138  32.729  73.554  1.00  0.00     0.004 C 
ENDBRANCH   6   7
ENDBRANCH   1   6
TORSDOF 4
ENDMDL
MODEL 7
REMARK VINA RESULT:    -3.337     15.764     17.312
REMARK INTER + INTRA:          -4.220
REMARK INTER:                  -4.058
REMARK INTRA:                  -0.162
REMARK UNBOUND:                -0.104
REMARK SMILES CCCCCC(=O)[O-]
REMARK SMILES IDX 4 1 5 2 6 3 7 4 8 5 3 6 2 7 1 8
REMARK H PARENT
REMARK Flexibility Score: inf
ROOT
ATOM      1  C   UNL     1      18.071  38.746  76.589  1.00  0.00     0.006 C 
ENDROOT
BRANCH   1   2
ATOM      2  C   UNL     1      17.820  39.850  75.553  1.00  0.00     0.053 C 
BRANCH   2   3
ATOM      3  C   UNL     1      17.149  39.285  74.341  1.00  0.00     0.041 C 
ATOM      4  O   UNL     1      17.787  38.535  73.555  1.00  0.00    -0.550 OA
ATOM      5  O   UNL     1      15.833  39.623  74.053  1.00  0.00    -0.550 OA
ENDBRANCH   2   3
ENDBRANCH   1   2
BRANCH   1   6
ATOM      6  C   UNL     1      19.488  38.157  76.493  1.00  0.00     0.000 C 
BRANCH   6   7
ATOM      7  C   UNL     1      19.484  36.626  76.378  1.00  0.00    -0.003 C 
ATOM      8  C   UNL     1      19.915  36.179  74.984  1.00  0.00     0.004 C 
ENDBRANCH   6   7
ENDBRANCH   1   6
TORSDOF 4
ENDMDL
MODEL 8
REMARK VINA RESULT:    -3.313     10.831     11.516
REMARK INTER + INTRA:          -4.191
REMARK INTER:                  -3.924
REMARK INTRA:                  -0.267
REMARK UNBOUND:                -0.104
REMARK SMILES CCCCCC(=O)[O-]
REMARK SMILES IDX 4 1 5 2 6 3 7 4 8 5 3 6 2 7 1 8
REMARK H PARENT
REMARK Flexibility Score: inf
ROOT
ATOM      1  C   UNL     1       7.246  34.159  67.194  1.00  0.00     0.006 C 
ENDROOT
BRANCH   1   2
ATOM      2  C   UNL     1       7.020  32.643  67.262  1.00  0.00     0.053 C 
BRANCH   2   3
ATOM      3  C   UNL     1       8.286  31.943  67.643  1.00  0.00     0.041 C 
ATOM      4  O   UNL     1       9.310  32.045  66.915  1.00  0.00    -0.550 OA
ATOM      5  O   UNL     1       8.324  31.140  68.775  1.00  0.00    -0.550 OA
ENDBRANCH   2   3
ENDBRANCH   1   2
BRANCH   1   6
ATOM      6  C   UNL     1       7.691  34.751  68.541  1.00  0.00     0.000 C 
BRANCH   6   7
ATOM      7  C   UNL     1       6.610  34.631  69.625  1.00  0.00    -0.003 C 
ATOM      8  C   UNL     1       7.117  33.829  70.820  1.00  0.00     0.004 C 
ENDBRANCH   6   7
ENDBRANCH   1   6
TORSDOF 4
ENDMDL
MODEL 9
REMARK VINA RESULT:    -3.310     12.965     14.411
REMARK INTER + INTRA:          -4.188
REMARK INTER:                  -4.076
REMARK INTRA:                  -0.112
REMARK UNBOUND:                -0.104
REMARK SMILES CCCCCC(=O)[O-]
REMARK SMILES IDX 4 1 5 2 6 3 7 4 8 5 3 6 2 7 1 8
REMARK H PARENT
REMARK Flexibility Score: inf
ROOT
ATOM      1  C   UNL     1      16.889  42.742  73.956  1.00  0.00     0.006 C 
ENDROOT
BRANCH   1   2
ATOM      2  C   UNL     1      15.363  42.588  73.908  1.00  0.00     0.053 C 
BRANCH   2   3
ATOM      3  C   UNL     1      14.700  43.785  74.512  1.00  0.00     0.041 C 
ATOM      4  O   UNL     1      15.286  44.901  74.513  1.00  0.00    -0.550 OA
ATOM      5  O   UNL     1      13.456  43.661  75.117  1.00  0.00    -0.550 OA
ENDBRANCH   2   3
ENDBRANCH   1   2
BRANCH   1   6
ATOM      6  C   UNL     1      17.604  41.430  74.317  1.00  0.00     0.000 C 
BRANCH   6   7
ATOM      7  C   UNL     1      16.668  40.214  74.267  1.00  0.00    -0.003 C 
ATOM      8  C   UNL     1      17.454  38.925  74.044  1.00  0.00     0.004 C 
ENDBRANCH   6   7
ENDBRANCH   1   6
TORSDOF 4
ENDMDL
