MODEL 1
REMARK VINA RESULT:    -3.530      0.000      0.000
REMARK INTER + INTRA:          -4.704
REMARK INTER:                  -4.562
REMARK INTRA:                  -0.142
REMARK UNBOUND:                -0.142
REMARK SMILES CCCCCCC(=O)[O-]
REMARK SMILES IDX 5 1 6 2 7 3 8 4 9 5 4 6 3 7 2 8 1 9
REMARK H PARENT
REMARK Flexibility Score: inf
ROOT
ATOM      1  C   UNL     1      -3.285   3.903   2.816  1.00  0.00     0.006 C 
ENDROOT
BRANCH   1   2
ATOM      2  C   UNL     1      -3.614   2.419   3.027  1.00  0.00     0.053 C 
BRANCH   2   3
ATOM      3  C   UNL     1      -3.322   1.979   4.428  1.00  0.00     0.041 C 
ATOM      4  O   UNL     1      -3.870   2.558   5.402  1.00  0.00    -0.550 OA
ATOM      5  O   UNL     1      -2.417   0.950   4.659  1.00  0.00    -0.550 OA
ENDBRANCH   2   3
ENDBRANCH   1   2
BRANCH   1   6
ATOM      6  C   UNL     1      -4.316   4.606   1.921  1.00  0.00     0.000 C 
BRANCH   6   7
ATOM      7  C   UNL     1      -3.716   5.866   1.278  1.00  0.00    -0.000 C 
BRANCH   7   8
ATOM      8  C   UNL     1      -3.507   7.002   2.291  1.00  0.00    -0.003 C 
ATOM      9  C   UNL     1      -2.299   7.877   1.958  1.00  0.00     0.004 C 
ENDBRANCH   7   8
ENDBRANCH   6   7
ENDBRANCH   1   6
TORSDOF 5
ENDMDL
MODEL 2
REMARK VINA RESULT:    -3.174      1.498      2.378
REMARK INTER + INTRA:          -4.244
REMARK INTER:                  -4.000
REMARK INTRA:                  -0.244
REMARK UNBOUND:                -0.142
REMARK SMILES CCCCCCC(=O)[O-]
REMARK SMILES IDX 5 1 6 2 7 3 8 4 9 5 4 6 3 7 2 8 1 9
REMARK H PARENT
REMARK Flexibility Score: inf
ROOT
ATOM      1  C   UNL     1      -3.313   4.916   2.603  1.00  0.00     0.006 C 
ENDROOT
BRANCH   1   2
ATOM      2  C   UNL     1      -3.978   3.564   2.314  1.00  0.00     0.053 C 
BRANCH   2   3
ATOM      3  C   UNL     1      -3.685   2.561   3.386  1.00  0.00     0.041 C 
ATOM      4  O   UNL     1      -3.259   1.416   3.084  1.00  0.00    -0.550 OA
ATOM      5  O   UNL     1      -3.916   2.880   4.718  1.00  0.00    -0.550 OA
ENDBRANCH   2   3
ENDBRANCH   1   2
BRANCH   1   6
ATOM      6  C   UNL     1      -3.697   5.986   1.570  1.00  0.00     0.000 C 
BRANCH   6   7
ATOM      7  C   UNL     1      -5.208   5.966   1.296  1.00  0.00    -0.000 C 
BRANCH   7   8
ATOM      8  C   UNL     1      -5.544   6.234  -0.180  1.00  0.00    -0.003 C 
ATOM      9  C   UNL     1      -4.390   5.891  -1.121  1.00  0.00     0.004 C 
ENDBRANCH   7   8
ENDBRANCH   6   7
ENDBRANCH   1   6
TORSDOF 5
ENDMDL
MODEL 3
REMARK VINA RESULT:    -3.164      3.627      5.530
REMARK INTER + INTRA:          -4.232
REMARK INTER:                  -4.127
REMARK INTRA:                  -0.104
REMARK UNBOUND:                -0.142
REMARK SMILES CCCCCCC(=O)[O-]
REMARK SMILES IDX 5 1 6 2 7 3 8 4 9 5 4 6 3 7 2 8 1 9
REMARK H PARENT
REMARK Flexibility Score: inf
ROOT
ATOM      1  C   UNL     1      -4.033   5.497   1.344  1.00  0.00     0.006 C 
ENDROOT
BRANCH   1   2
ATOM      2  C   UNL     1      -4.135   6.963   1.785  1.00  0.00     0.053 C 
BRANCH   2   3
ATOM      3  C   UNL     1      -3.208   7.843   1.005  1.00  0.00     0.041 C 
ATOM      4  O   UNL     1      -3.557   8.296  -0.116  1.00  0.00    -0.550 OA
ATOM      5  O   UNL     1      -1.944   8.134   1.502  1.00  0.00    -0.550 OA
ENDBRANCH   2   3
ENDBRANCH   1   2
BRANCH   1   6
ATOM      6  C   UNL     1      -3.217   4.648   2.331  1.00  0.00     0.000 C 
BRANCH   6   7
ATOM      7  C   UNL     1      -4.037   3.447   2.829  1.00  0.00    -0.000 C 
BRANCH   7   8
ATOM      8  C   UNL     1      -3.161   2.363   3.476  1.00  0.00    -0.003 C 
ATOM      9  C   UNL     1      -3.494   2.134   4.950  1.00  0.00     0.004 C 
ENDBRANCH   7   8
ENDBRANCH   6   7
ENDBRANCH   1   6
TORSDOF 5
ENDMDL
MODEL 4
REMARK VINA RESULT:    -3.138      3.692      5.626
REMARK INTER + INTRA:          -4.197
REMARK INTER:                  -4.106
REMARK INTRA:                  -0.091
REMARK UNBOUND:                -0.142
REMARK SMILES CCCCCCC(=O)[O-]
REMARK SMILES IDX 5 1 6 2 7 3 8 4 9 5 4 6 3 7 2 8 1 9
REMARK H PARENT
REMARK Flexibility Score: inf
ROOT
ATOM      1  C   UNL     1      -3.372   5.575   1.966  1.00  0.00     0.006 C 
ENDROOT
BRANCH   1   2
ATOM      2  C   UNL     1      -4.256   6.703   1.420  1.00  0.00     0.053 C 
BRANCH   2   3
ATOM      3  C   UNL     1      -4.156   6.816  -0.070  1.00  0.00     0.041 C 
ATOM      4  O   UNL     1      -3.925   5.795  -0.769  1.00  0.00    -0.550 OA
ATOM      5  O   UNL     1      -4.283   8.055  -0.683  1.00  0.00    -0.550 OA
ENDBRANCH   2   3
ENDBRANCH   1   2
BRANCH   1   6
ATOM      6  C   UNL     1      -4.191   4.347   2.392  1.00  0.00     0.000 C 
BRANCH   6   7
ATOM      7  C   UNL     1      -3.270   3.180   2.778  1.00  0.00    -0.000 C 
BRANCH   7   8
ATOM      8  C   UNL     1      -3.601   2.599   4.162  1.00  0.00    -0.003 C 
ATOM      9  C   UNL     1      -3.186   1.136   4.304  1.00  0.00     0.004 C 
ENDBRANCH   7   8
ENDBRANCH   6   7
ENDBRANCH   1   6
TORSDOF 5
ENDMDL
MODEL 5
REMARK VINA RESULT:    -2.939      4.019      5.625
REMARK INTER + INTRA:          -3.941
REMARK INTER:                  -3.850
REMARK INTRA:                  -0.091
REMARK UNBOUND:                -0.142
REMARK SMILES CCCCCCC(=O)[O-]
REMARK SMILES IDX 5 1 6 2 7 3 8 4 9 5 4 6 3 7 2 8 1 9
REMARK H PARENT
REMARK Flexibility Score: inf
ROOT
ATOM      1  C   UNL     1      -3.894   5.222   1.233  1.00  0.00     0.006 C 
ENDROOT
BRANCH   1   2
ATOM      2  C   UNL     1      -5.406   5.477   1.186  1.00  0.00     0.053 C 
BRANCH   2   3
ATOM      3  C   UNL     1      -5.781   6.388   0.059  1.00  0.00     0.041 C 
ATOM      4  O   UNL     1      -5.789   5.961  -1.126  1.00  0.00    -0.550 OA
ATOM      5  O   UNL     1      -6.089   7.718   0.313  1.00  0.00    -0.550 OA
ENDBRANCH   2   3
ENDBRANCH   1   2
BRANCH   1   6
ATOM      6  C   UNL     1      -3.436   4.690   2.599  1.00  0.00     0.000 C 
BRANCH   6   7
ATOM      7  C   UNL     1      -3.578   3.162   2.669  1.00  0.00    -0.000 C 
BRANCH   7   8
ATOM      8  C   UNL     1      -3.633   2.639   4.113  1.00  0.00    -0.003 C 
ATOM      9  C   UNL     1      -3.177   1.186   4.235  1.00  0.00     0.004 C 
ENDBRANCH   7   8
ENDBRANCH   6   7
ENDBRANCH   1   6
TORSDOF 5
ENDMDL
MODEL 6
REMARK VINA RESULT:    -2.672      5.765      7.297
REMARK INTER + INTRA:          -3.596
REMARK INTER:                  -3.231
REMARK INTRA:                  -0.364
REMARK UNBOUND:                -0.142
REMARK SMILES CCCCCCC(=O)[O-]
REMARK SMILES IDX 5 1 6 2 7 3 8 4 9 5 4 6 3 7 2 8 1 9
REMARK H PARENT
REMARK Flexibility Score: inf
ROOT
ATOM      1  C   UNL     1      -1.831   7.849   8.641  1.00  0.00     0.006 C 
ENDROOT
BRANCH   1   2
ATOM      2  C   UNL     1      -2.383   8.295   7.280  1.00  0.00     0.053 C 
BRANCH   2   3
ATOM      3  C   UNL     1      -3.679   7.618   6.958  1.00  0.00     0.041 C 
ATOM      4  O   UNL     1      -3.904   7.200   5.792  1.00  0.00    -0.550 OA
ATOM      5  O   UNL     1      -4.653   7.478   7.939  1.00  0.00    -0.550 OA
ENDBRANCH   2   3
ENDBRANCH   1   2
BRANCH   1   6
ATOM      6  C   UNL     1      -0.723   6.794   8.501  1.00  0.00     0.000 C 
BRANCH   6   7
ATOM      7  C   UNL     1      -1.038   5.553   9.351  1.00  0.00    -0.000 C 
BRANCH   7   8
ATOM      8  C   UNL     1      -2.219   4.741   8.797  1.00  0.00    -0.003 C 
ATOM      9  C   UNL     1      -3.393   4.662   9.772  1.00  0.00     0.004 C 
ENDBRANCH   7   8
ENDBRANCH   6   7
ENDBRANCH   1   6
TORSDOF 5
ENDMDL
MODEL 7
REMARK VINA RESULT:    -2.550      5.990      7.572
REMARK INTER + INTRA:          -3.438
REMARK INTER:                  -3.278
REMARK INTRA:                  -0.160
REMARK UNBOUND:                -0.142
REMARK SMILES CCCCCCC(=O)[O-]
REMARK SMILES IDX 5 1 6 2 7 3 8 4 9 5 4 6 3 7 2 8 1 9
REMARK H PARENT
REMARK Flexibility Score: inf
ROOT
ATOM      1  C   UNL     1      -1.505   7.352   8.176  1.00  0.00     0.006 C 
ENDROOT
BRANCH   1   2
ATOM      2  C   UNL     1      -2.956   6.962   7.868  1.00  0.00     0.053 C 
BRANCH   2   3
ATOM      3  C   UNL     1      -3.520   7.769   6.740  1.00  0.00     0.041 C 
ATOM      4  O   UNL     1      -4.697   7.566   6.341  1.00  0.00    -0.550 OA
ATOM      5  O   UNL     1      -2.734   8.724   6.107  1.00  0.00    -0.550 OA
ENDBRANCH   2   3
ENDBRANCH   1   2
BRANCH   1   6
ATOM      6  C   UNL     1      -0.747   6.239   8.915  1.00  0.00     0.000 C 
BRANCH   6   7
ATOM      7  C   UNL     1      -1.610   4.972   9.030  1.00  0.00    -0.000 C 
BRANCH   7   8
ATOM      8  C   UNL     1      -1.289   4.153  10.290  1.00  0.00    -0.003 C 
ATOM      9  C   UNL     1      -0.059   3.262  10.120  1.00  0.00     0.004 C 
ENDBRANCH   7   8
ENDBRANCH   6   7
ENDBRANCH   1   6
TORSDOF 5
ENDMDL
MODEL 8
REMARK VINA RESULT:    -2.471      6.440      7.008
REMARK INTER + INTRA:          -3.336
REMARK INTER:                  -3.125
REMARK INTRA:                  -0.211
REMARK UNBOUND:                -0.142
REMARK SMILES CCCCCCC(=O)[O-]
REMARK SMILES IDX 5 1 6 2 7 3 8 4 9 5 4 6 3 7 2 8 1 9
REMARK H PARENT
REMARK Flexibility Score: inf
ROOT
ATOM      1  C   UNL     1      -1.000   4.674   9.416  1.00  0.00     0.006 C 
ENDROOT
BRANCH   1   2
ATOM      2  C   UNL     1      -2.427   4.723   8.852  1.00  0.00     0.053 C 
BRANCH   2   3
ATOM      3  C   UNL     1      -3.455   4.562   9.929  1.00  0.00     0.041 C 
ATOM      4  O   UNL     1      -3.123   4.126  11.062  1.00  0.00    -0.550 OA
ATOM      5  O   UNL     1      -4.786   4.863   9.670  1.00  0.00    -0.550 OA
ENDBRANCH   2   3
ENDBRANCH   1   2
BRANCH   1   6
ATOM      6  C   UNL     1      -0.263   6.011   9.251  1.00  0.00     0.000 C 
BRANCH   6   7
ATOM      7  C   UNL     1      -1.073   6.979   8.374  1.00  0.00    -0.000 C 
BRANCH   7   8
ATOM      8  C   UNL     1      -0.408   8.359   8.248  1.00  0.00    -0.003 C 
ATOM      9  C   UNL     1       1.068   8.343   8.644  1.00  0.00     0.004 C 
ENDBRANCH   7   8
ENDBRANCH   6   7
ENDBRANCH   1   6
TORSDOF 5
ENDMDL
MODEL 9
REMARK VINA RESULT:    -2.462      6.663      7.316
REMARK INTER + INTRA:          -3.324
REMARK INTER:                  -3.015
REMARK INTRA:                  -0.309
REMARK UNBOUND:                -0.142
REMARK SMILES CCCCCCC(=O)[O-]
REMARK SMILES IDX 5 1 6 2 7 3 8 4 9 5 4 6 3 7 2 8 1 9
REMARK H PARENT
REMARK Flexibility Score: inf
ROOT
ATOM      1  C   UNL     1      -2.528   4.595   8.898  1.00  0.00     0.006 C 
ENDROOT
BRANCH   1   2
ATOM      2  C   UNL     1      -3.685   4.588   9.906  1.00  0.00     0.053 C 
BRANCH   2   3
ATOM      3  C   UNL     1      -4.275   5.953  10.082  1.00  0.00     0.041 C 
ATOM      4  O   UNL     1      -5.356   6.256   9.512  1.00  0.00    -0.550 OA
ATOM      5  O   UNL     1      -3.613   6.902  10.851  1.00  0.00    -0.550 OA
ENDBRANCH   2   3
ENDBRANCH   1   2
BRANCH   1   6
ATOM      6  C   UNL     1      -1.159   4.477   9.583  1.00  0.00     0.000 C 
BRANCH   6   7
ATOM      7  C   UNL     1      -0.317   5.740   9.347  1.00  0.00    -0.000 C 
BRANCH   7   8
ATOM      8  C   UNL     1      -1.030   6.767   8.453  1.00  0.00    -0.003 C 
ATOM      9  C   UNL     1      -0.302   8.109   8.395  1.00  0.00     0.004 C 
ENDBRANCH   7   8
ENDBRANCH   6   7
ENDBRANCH   1   6
TORSDOF 5
ENDMDL
