MODEL 1
REMARK VINA RESULT:    -6.677      0.000      0.000
REMARK INTER + INTRA:         -10.507
REMARK INTER:                  -9.409
REMARK INTRA:                  -1.098
REMARK UNBOUND:                -1.098
REMARK SMILES OC[C@H]1O[C@@H](O[C@@H]2OC=C[C@H]3[C@H](O)[C@H]4O[C@@]4(CO)[C@H]23)[C@H](O)[C@@H](O)[C@H]1O
REMARK SMILES IDX 6 1 7 2 10 3 9 4 11 5 8 6 19 7 12 8 16 9 14 10 15 11 13 12
REMARK SMILES IDX 17 14 18 15 5 17 20 18 4 19 22 20 3 21 24 22 21 23 23 25
REMARK SMILES IDX 2 27 1 28 25 30
REMARK H PARENT 13 13 18 16 21 24 23 26 1 29 25 31
REMARK Flexibility Score: inf
ROOT
ATOM      1  O   UNL     1     -28.037 -25.393 104.303  1.00  0.00    -0.310 OA
ENDROOT
BRANCH   1   2
ATOM      2  C   UNL     1     -27.025 -24.874 105.165  1.00  0.00     0.315 C 
ATOM      3  C   UNL     1     -24.978 -26.938 105.375  1.00  0.00     0.018 C 
ATOM      4  C   UNL     1     -24.750 -25.842 104.635  1.00  0.00     0.186 C 
ATOM      5  C   UNL     1     -26.347 -27.118 105.956  1.00  0.00     0.059 C 
ATOM      6  O   UNL     1     -25.725 -24.820 104.531  1.00  0.00    -0.472 OA
ATOM      7  C   UNL     1     -26.878 -25.770 106.411  1.00  0.00     0.105 C 
ATOM      8  C   UNL     1     -26.503 -28.013 107.180  1.00  0.00     0.154 C 
ATOM      9  C   UNL     1     -28.059 -26.144 107.300  1.00  0.00     0.130 C 
ATOM     10  C   UNL     1     -27.829 -27.532 107.783  1.00  0.00     0.183 C 
ATOM     11  O   UNL     1     -27.700 -26.415 108.638  1.00  0.00    -0.360 OA
BRANCH   8  12
ATOM     12  O   UNL     1     -26.606 -29.361 106.810  1.00  0.00    -0.390 OA
ATOM     13  H   UNL     1     -27.156 -29.382 105.983  1.00  0.00     0.211 HD
ENDBRANCH   8  12
BRANCH   9  14
ATOM     14  C   UNL     1     -29.501 -25.668 107.089  1.00  0.00     0.195 C 
BRANCH  14  15
ATOM     15  O   UNL     1     -30.111 -26.326 106.009  1.00  0.00    -0.393 OA
ATOM     16  H   UNL     1     -30.346 -27.238 106.321  1.00  0.00     0.210 HD
ENDBRANCH  14  15
ENDBRANCH   9  14
ENDBRANCH   1   2
BRANCH   1  17
ATOM     17  C   UNL     1     -28.886 -24.384 103.769  1.00  0.00     0.286 C 
ATOM     18  C   UNL     1     -28.049 -23.327 103.011  1.00  0.00     0.202 C 
ATOM     19  O   UNL     1     -29.961 -24.926 103.005  1.00  0.00    -0.341 OA
ATOM     20  C   UNL     1     -27.583 -23.830 101.641  1.00  0.00     0.179 C 
ATOM     21  C   UNL     1     -29.602 -25.430 101.720  1.00  0.00     0.178 C 
ATOM     22  C   UNL     1     -28.779 -24.421 100.872  1.00  0.00     0.177 C 
BRANCH  18  23
ATOM     23  O   UNL     1     -28.747 -22.110 102.882  1.00  0.00    -0.385 OA
ATOM     24  H   UNL     1     -28.162 -21.377 103.206  1.00  0.00     0.211 HD
ENDBRANCH  18  23
BRANCH  20  25
ATOM     25  O   UNL     1     -26.565 -24.784 101.821  1.00  0.00    -0.387 OA
ATOM     26  H   UNL     1     -25.712 -24.366 101.533  1.00  0.00     0.211 HD
ENDBRANCH  20  25
BRANCH  21  27
ATOM     27  C   UNL     1     -29.016 -26.850 101.808  1.00  0.00     0.191 C 
BRANCH  27  28
ATOM     28  O   UNL     1     -29.114 -27.494 100.566  1.00  0.00    -0.394 OA
ATOM     29  H   UNL     1     -30.055 -27.382 100.270  1.00  0.00     0.210 HD
ENDBRANCH  27  28
ENDBRANCH  21  27
BRANCH  22  30
ATOM     30  O   UNL     1     -28.401 -24.952  99.625  1.00  0.00    -0.387 OA
ATOM     31  H   UNL     1     -28.132 -25.896  99.754  1.00  0.00     0.211 HD
ENDBRANCH  22  30
ENDBRANCH   1  17
TORSDOF 10
ENDMDL
MODEL 2
REMARK VINA RESULT:    -6.581      3.041      5.514
REMARK INTER + INTRA:         -10.373
REMARK INTER:                  -9.016
REMARK INTRA:                  -1.356
REMARK UNBOUND:                -1.098
REMARK SMILES OC[C@H]1O[C@@H](O[C@@H]2OC=C[C@H]3[C@H](O)[C@H]4O[C@@]4(CO)[C@H]23)[C@H](O)[C@@H](O)[C@H]1O
REMARK SMILES IDX 6 1 7 2 10 3 9 4 11 5 8 6 19 7 12 8 16 9 14 10 15 11 13 12
REMARK SMILES IDX 17 14 18 15 5 17 20 18 4 19 22 20 3 21 24 22 21 23 23 25
REMARK SMILES IDX 2 27 1 28 25 30
REMARK H PARENT 13 13 18 16 21 24 23 26 1 29 25 31
REMARK Flexibility Score: inf
ROOT
ATOM      1  O   UNL     1     -28.301 -22.342 103.958  1.00  0.00    -0.310 OA
ENDROOT
BRANCH   1   2
ATOM      2  C   UNL     1     -27.204 -23.242 104.105  1.00  0.00     0.315 C 
ATOM      3  C   UNL     1     -26.036 -23.564 101.455  1.00  0.00     0.018 C 
ATOM      4  C   UNL     1     -25.406 -22.823 102.378  1.00  0.00     0.186 C 
ATOM      5  C   UNL     1     -27.400 -24.085 101.787  1.00  0.00     0.059 C 
ATOM      6  O   UNL     1     -25.947 -22.665 103.677  1.00  0.00    -0.472 OA
ATOM      7  C   UNL     1     -27.433 -24.503 103.247  1.00  0.00     0.105 C 
ATOM      8  C   UNL     1     -27.910 -25.311 101.038  1.00  0.00     0.154 C 
ATOM      9  C   UNL     1     -28.702 -25.343 103.341  1.00  0.00     0.130 C 
ATOM     10  C   UNL     1     -28.999 -25.850 101.974  1.00  0.00     0.183 C 
ATOM     11  O   UNL     1     -28.512 -26.699 102.994  1.00  0.00    -0.360 OA
BRANCH   8  12
ATOM     12  O   UNL     1     -28.473 -24.951  99.806  1.00  0.00    -0.390 OA
ATOM     13  H   UNL     1     -28.960 -24.100  99.960  1.00  0.00     0.211 HD
ENDBRANCH   8  12
BRANCH   9  14
ATOM     14  C   UNL     1     -29.870 -25.064 104.293  1.00  0.00     0.195 C 
BRANCH  14  15
ATOM     15  O   UNL     1     -30.647 -23.979 103.856  1.00  0.00    -0.393 OA
ATOM     16  H   UNL     1     -30.243 -23.657 103.009  1.00  0.00     0.210 HD
ENDBRANCH  14  15
ENDBRANCH   9  14
ENDBRANCH   1   2
BRANCH   1  17
ATOM     17  C   UNL     1     -27.924 -20.976 104.089  1.00  0.00     0.286 C 
ATOM     18  C   UNL     1     -28.786 -20.092 103.157  1.00  0.00     0.202 C 
ATOM     19  O   UNL     1     -27.913 -20.543 105.447  1.00  0.00    -0.341 OA
ATOM     20  C   UNL     1     -30.201 -19.880 103.703  1.00  0.00     0.179 C 
ATOM     21  C   UNL     1     -29.197 -20.338 106.033  1.00  0.00     0.178 C 
ATOM     22  C   UNL     1     -30.126 -19.434 105.175  1.00  0.00     0.177 C 
BRANCH  18  23
ATOM     23  O   UNL     1     -28.163 -18.855 102.896  1.00  0.00    -0.385 OA
ATOM     24  H   UNL     1     -28.416 -18.219 103.615  1.00  0.00     0.211 HD
ENDBRANCH  18  23
BRANCH  20  25
ATOM     25  O   UNL     1     -30.934 -21.073 103.564  1.00  0.00    -0.387 OA
ATOM     26  H   UNL     1     -31.624 -20.918 102.869  1.00  0.00     0.211 HD
ENDBRANCH  20  25
BRANCH  21  27
ATOM     27  C   UNL     1     -29.823 -21.660 106.513  1.00  0.00     0.191 C 
BRANCH  27  28
ATOM     28  O   UNL     1     -30.584 -21.445 107.671  1.00  0.00    -0.394 OA
ATOM     29  H   UNL     1     -30.400 -22.215 108.270  1.00  0.00     0.210 HD
ENDBRANCH  27  28
ENDBRANCH  21  27
BRANCH  22  30
ATOM     30  O   UNL     1     -31.401 -19.278 105.750  1.00  0.00    -0.387 OA
ATOM     31  H   UNL     1     -32.028 -19.897 105.299  1.00  0.00     0.211 HD
ENDBRANCH  22  30
ENDBRANCH   1  17
TORSDOF 10
ENDMDL
MODEL 3
REMARK VINA RESULT:    -6.569      1.301      2.866
REMARK INTER + INTRA:         -10.355
REMARK INTER:                  -9.239
REMARK INTRA:                  -1.116
REMARK UNBOUND:                -1.098
REMARK SMILES OC[C@H]1O[C@@H](O[C@@H]2OC=C[C@H]3[C@H](O)[C@H]4O[C@@]4(CO)[C@H]23)[C@H](O)[C@@H](O)[C@H]1O
REMARK SMILES IDX 6 1 7 2 10 3 9 4 11 5 8 6 19 7 12 8 16 9 14 10 15 11 13 12
REMARK SMILES IDX 17 14 18 15 5 17 20 18 4 19 22 20 3 21 24 22 21 23 23 25
REMARK SMILES IDX 2 27 1 28 25 30
REMARK H PARENT 13 13 18 16 21 24 23 26 1 29 25 31
REMARK Flexibility Score: inf
ROOT
ATOM      1  O   UNL     1     -28.079 -24.893 104.403  1.00  0.00    -0.310 OA
ENDROOT
BRANCH   1   2
ATOM      2  C   UNL     1     -26.977 -24.527 105.233  1.00  0.00     0.315 C 
ATOM      3  C   UNL     1     -25.126 -26.778 105.192  1.00  0.00     0.018 C 
ATOM      4  C   UNL     1     -24.837 -25.660 104.508  1.00  0.00     0.186 C 
ATOM      5  C   UNL     1     -26.472 -26.872 105.841  1.00  0.00     0.059 C 
ATOM      6  O   UNL     1     -25.714 -24.549 104.526  1.00  0.00    -0.472 OA
ATOM      7  C   UNL     1     -26.848 -25.515 106.410  1.00  0.00     0.105 C 
ATOM      8  C   UNL     1     -26.646 -27.829 107.015  1.00  0.00     0.154 C 
ATOM      9  C   UNL     1     -28.010 -25.838 107.344  1.00  0.00     0.130 C 
ATOM     10  C   UNL     1     -27.886 -27.271 107.725  1.00  0.00     0.183 C 
ATOM     11  O   UNL     1     -27.605 -26.230 108.639  1.00  0.00    -0.360 OA
BRANCH   8  12
ATOM     12  O   UNL     1     -26.896 -29.133 106.569  1.00  0.00    -0.390 OA
ATOM     13  H   UNL     1     -27.714 -29.086 106.009  1.00  0.00     0.211 HD
ENDBRANCH   8  12
BRANCH   9  14
ATOM     14  C   UNL     1     -29.409 -25.220 107.250  1.00  0.00     0.195 C 
BRANCH  14  15
ATOM     15  O   UNL     1     -30.140 -25.753 106.176  1.00  0.00    -0.393 OA
ATOM     16  H   UNL     1     -29.567 -25.678 105.370  1.00  0.00     0.210 HD
ENDBRANCH  14  15
ENDBRANCH   9  14
ENDBRANCH   1   2
BRANCH   1  17
ATOM     17  C   UNL     1     -27.996 -24.344 103.093  1.00  0.00     0.286 C 
ATOM     18  C   UNL     1     -29.136 -24.902 102.207  1.00  0.00     0.202 C 
ATOM     19  O   UNL     1     -27.917 -22.921 103.103  1.00  0.00    -0.341 OA
ATOM     20  C   UNL     1     -30.487 -24.254 102.525  1.00  0.00     0.179 C 
ATOM     21  C   UNL     1     -29.135 -22.245 103.407  1.00  0.00     0.178 C 
ATOM     22  C   UNL     1     -30.336 -22.722 102.543  1.00  0.00     0.177 C 
BRANCH  18  23
ATOM     23  O   UNL     1     -28.835 -24.775 100.837  1.00  0.00    -0.385 OA
ATOM     24  H   UNL     1     -29.668 -24.538 100.353  1.00  0.00     0.211 HD
ENDBRANCH  18  23
BRANCH  20  25
ATOM     25  O   UNL     1     -30.953 -24.739 103.761  1.00  0.00    -0.387 OA
ATOM     26  H   UNL     1     -31.726 -25.332 103.575  1.00  0.00     0.211 HD
ENDBRANCH  20  25
BRANCH  21  27
ATOM     27  C   UNL     1     -29.395 -22.190 104.924  1.00  0.00     0.191 C 
BRANCH  27  28
ATOM     28  O   UNL     1     -30.157 -21.058 105.246  1.00  0.00    -0.394 OA
ATOM     29  H   UNL     1     -29.574 -20.484 105.810  1.00  0.00     0.210 HD
ENDBRANCH  27  28
ENDBRANCH  21  27
BRANCH  22  30
ATOM     30  O   UNL     1     -31.535 -22.072 102.886  1.00  0.00    -0.387 OA
ATOM     31  H   UNL     1     -31.789 -22.344 103.804  1.00  0.00     0.211 HD
ENDBRANCH  22  30
ENDBRANCH   1  17
TORSDOF 10
ENDMDL
MODEL 4
REMARK VINA RESULT:    -6.454      2.694      5.170
REMARK INTER + INTRA:         -10.193
REMARK INTER:                  -9.284
REMARK INTRA:                  -0.910
REMARK UNBOUND:                -1.098
REMARK SMILES OC[C@H]1O[C@@H](O[C@@H]2OC=C[C@H]3[C@H](O)[C@H]4O[C@@]4(CO)[C@H]23)[C@H](O)[C@@H](O)[C@H]1O
REMARK SMILES IDX 6 1 7 2 10 3 9 4 11 5 8 6 19 7 12 8 16 9 14 10 15 11 13 12
REMARK SMILES IDX 17 14 18 15 5 17 20 18 4 19 22 20 3 21 24 22 21 23 23 25
REMARK SMILES IDX 2 27 1 28 25 30
REMARK H PARENT 13 13 18 16 21 24 23 26 1 29 25 31
REMARK Flexibility Score: inf
ROOT
ATOM      1  O   UNL     1     -28.056 -23.496 103.785  1.00  0.00    -0.310 OA
ENDROOT
BRANCH   1   2
ATOM      2  C   UNL     1     -27.114 -22.788 104.590  1.00  0.00     0.315 C 
ATOM      3  C   UNL     1     -28.237 -22.678 107.277  1.00  0.00     0.018 C 
ATOM      4  C   UNL     1     -27.218 -23.508 107.012  1.00  0.00     0.186 C 
ATOM      5  C   UNL     1     -28.853 -21.937 106.130  1.00  0.00     0.059 C 
ATOM      6  O   UNL     1     -26.646 -23.567 105.718  1.00  0.00    -0.472 OA
ATOM      7  C   UNL     1     -27.759 -21.512 105.166  1.00  0.00     0.105 C 
ATOM      8  C   UNL     1     -29.612 -20.647 106.424  1.00  0.00     0.154 C 
ATOM      9  C   UNL     1     -28.452 -20.473 104.289  1.00  0.00     0.130 C 
ATOM     10  C   UNL     1     -29.598 -19.931 105.067  1.00  0.00     0.183 C 
ATOM     11  O   UNL     1     -28.432 -19.169 104.831  1.00  0.00    -0.360 OA
BRANCH   8  12
ATOM     12  O   UNL     1     -30.931 -20.916 106.810  1.00  0.00    -0.390 OA
ATOM     13  H   UNL     1     -31.128 -20.312 107.573  1.00  0.00     0.211 HD
ENDBRANCH   8  12
BRANCH   9  14
ATOM     14  C   UNL     1     -28.568 -20.551 102.763  1.00  0.00     0.195 C 
BRANCH  14  15
ATOM     15  O   UNL     1     -27.555 -19.814 102.128  1.00  0.00    -0.393 OA
ATOM     16  H   UNL     1     -27.993 -19.036 101.694  1.00  0.00     0.210 HD
ENDBRANCH  14  15
ENDBRANCH   9  14
ENDBRANCH   1   2
BRANCH   1  17
ATOM     17  C   UNL     1     -27.703 -24.859 103.582  1.00  0.00     0.286 C 
ATOM     18  C   UNL     1     -28.951 -25.679 103.173  1.00  0.00     0.202 C 
ATOM     19  O   UNL     1     -26.598 -25.009 102.694  1.00  0.00    -0.341 OA
ATOM     20  C   UNL     1     -29.350 -25.437 101.714  1.00  0.00     0.179 C 
ATOM     21  C   UNL     1     -26.888 -24.784 101.316  1.00  0.00     0.178 C 
ATOM     22  C   UNL     1     -28.114 -25.591 100.807  1.00  0.00     0.177 C 
BRANCH  18  23
ATOM     23  O   UNL     1     -28.768 -27.054 103.417  1.00  0.00    -0.385 OA
ATOM     24  H   UNL     1     -28.887 -27.219 104.388  1.00  0.00     0.211 HD
ENDBRANCH  18  23
BRANCH  20  25
ATOM     25  O   UNL     1     -29.917 -24.156 101.596  1.00  0.00    -0.387 OA
ATOM     26  H   UNL     1     -29.595 -23.766 100.741  1.00  0.00     0.211 HD
ENDBRANCH  20  25
BRANCH  21  27
ATOM     27  C   UNL     1     -26.896 -23.284 100.972  1.00  0.00     0.191 C 
BRANCH  27  28
ATOM     28  O   UNL     1     -27.972 -22.986 100.123  1.00  0.00    -0.394 OA
ATOM     29  H   UNL     1     -27.623 -23.065  99.197  1.00  0.00     0.210 HD
ENDBRANCH  27  28
ENDBRANCH  21  27
BRANCH  22  30
ATOM     30  O   UNL     1     -28.408 -25.325  99.457  1.00  0.00    -0.387 OA
ATOM     31  H   UNL     1     -27.561 -25.324  98.944  1.00  0.00     0.211 HD
ENDBRANCH  22  30
ENDBRANCH   1  17
TORSDOF 10
ENDMDL
MODEL 5
REMARK VINA RESULT:    -6.413      1.766      6.053
REMARK INTER + INTRA:         -10.136
REMARK INTER:                  -9.242
REMARK INTRA:                  -0.894
REMARK UNBOUND:                -1.098
REMARK SMILES OC[C@H]1O[C@@H](O[C@@H]2OC=C[C@H]3[C@H](O)[C@H]4O[C@@]4(CO)[C@H]23)[C@H](O)[C@@H](O)[C@H]1O
REMARK SMILES IDX 6 1 7 2 10 3 9 4 11 5 8 6 19 7 12 8 16 9 14 10 15 11 13 12
REMARK SMILES IDX 17 14 18 15 5 17 20 18 4 19 22 20 3 21 24 22 21 23 23 25
REMARK SMILES IDX 2 27 1 28 25 30
REMARK H PARENT 13 13 18 16 21 24 23 26 1 29 25 31
REMARK Flexibility Score: inf
ROOT
ATOM      1  O   UNL     1     -27.585 -24.411 104.850  1.00  0.00    -0.310 OA
ENDROOT
BRANCH   1   2
ATOM      2  C   UNL     1     -27.760 -23.031 104.535  1.00  0.00     0.315 C 
ATOM      3  C   UNL     1     -29.922 -22.894 102.585  1.00  0.00     0.018 C 
ATOM      4  C   UNL     1     -30.140 -22.516 103.854  1.00  0.00     0.186 C 
ATOM      5  C   UNL     1     -28.597 -23.509 102.256  1.00  0.00     0.059 C 
ATOM      6  O   UNL     1     -29.101 -22.560 104.815  1.00  0.00    -0.472 OA
ATOM      7  C   UNL     1     -27.506 -22.792 103.033  1.00  0.00     0.105 C 
ATOM      8  C   UNL     1     -28.115 -23.463 100.811  1.00  0.00     0.154 C 
ATOM      9  C   UNL     1     -26.228 -23.240 102.333  1.00  0.00     0.130 C 
ATOM     10  C   UNL     1     -26.600 -23.653 100.954  1.00  0.00     0.183 C 
ATOM     11  O   UNL     1     -25.892 -22.456 101.207  1.00  0.00    -0.360 OA
BRANCH   8  12
ATOM     12  O   UNL     1     -28.661 -24.516 100.064  1.00  0.00    -0.390 OA
ATOM     13  H   UNL     1     -27.900 -24.957  99.604  1.00  0.00     0.211 HD
ENDBRANCH   8  12
BRANCH   9  14
ATOM     14  C   UNL     1     -25.052 -23.943 103.021  1.00  0.00     0.195 C 
BRANCH  14  15
ATOM     15  O   UNL     1     -23.831 -23.309 102.736  1.00  0.00    -0.393 OA
ATOM     16  H   UNL     1     -23.328 -23.911 102.128  1.00  0.00     0.210 HD
ENDBRANCH  14  15
ENDBRANCH   9  14
ENDBRANCH   1   2
BRANCH   1  17
ATOM     17  C   UNL     1     -27.940 -24.727 106.191  1.00  0.00     0.286 C 
ATOM     18  C   UNL     1     -29.175 -25.659 106.211  1.00  0.00     0.202 C 
ATOM     19  O   UNL     1     -26.834 -25.218 106.945  1.00  0.00    -0.341 OA
ATOM     20  C   UNL     1     -28.820 -27.101 105.837  1.00  0.00     0.179 C 
ATOM     21  C   UNL     1     -26.433 -26.552 106.642  1.00  0.00     0.178 C 
ATOM     22  C   UNL     1     -27.609 -27.568 106.666  1.00  0.00     0.177 C 
BRANCH  18  23
ATOM     23  O   UNL     1     -29.834 -25.616 107.456  1.00  0.00    -0.385 OA
ATOM     24  H   UNL     1     -29.331 -25.008 108.057  1.00  0.00     0.211 HD
ENDBRANCH  18  23
BRANCH  20  25
ATOM     25  O   UNL     1     -28.554 -27.168 104.457  1.00  0.00    -0.387 OA
ATOM     26  H   UNL     1     -29.425 -27.112 103.984  1.00  0.00     0.211 HD
ENDBRANCH  20  25
BRANCH  21  27
ATOM     27  C   UNL     1     -25.539 -26.609 105.390  1.00  0.00     0.191 C 
BRANCH  27  28
ATOM     28  O   UNL     1     -24.567 -27.609 105.532  1.00  0.00    -0.394 OA
ATOM     29  H   UNL     1     -24.288 -27.590 106.485  1.00  0.00     0.210 HD
ENDBRANCH  27  28
ENDBRANCH  21  27
BRANCH  22  30
ATOM     30  O   UNL     1     -27.200 -28.870 106.325  1.00  0.00    -0.387 OA
ATOM     31  H   UNL     1     -27.241 -28.965 105.340  1.00  0.00     0.211 HD
ENDBRANCH  22  30
ENDBRANCH   1  17
TORSDOF 10
ENDMDL
MODEL 6
REMARK VINA RESULT:    -6.361      3.150      6.090
REMARK INTER + INTRA:         -10.062
REMARK INTER:                  -8.956
REMARK INTRA:                  -1.106
REMARK UNBOUND:                -1.098
REMARK SMILES OC[C@H]1O[C@@H](O[C@@H]2OC=C[C@H]3[C@H](O)[C@H]4O[C@@]4(CO)[C@H]23)[C@H](O)[C@@H](O)[C@H]1O
REMARK SMILES IDX 6 1 7 2 10 3 9 4 11 5 8 6 19 7 12 8 16 9 14 10 15 11 13 12
REMARK SMILES IDX 17 14 18 15 5 17 20 18 4 19 22 20 3 21 24 22 21 23 23 25
REMARK SMILES IDX 2 27 1 28 25 30
REMARK H PARENT 13 13 18 16 21 24 23 26 1 29 25 31
REMARK Flexibility Score: inf
ROOT
ATOM      1  O   UNL     1     -28.654 -22.509 103.785  1.00  0.00    -0.310 OA
ENDROOT
BRANCH   1   2
ATOM      2  C   UNL     1     -27.905 -21.788 104.762  1.00  0.00     0.315 C 
ATOM      3  C   UNL     1     -29.767 -21.107 106.898  1.00  0.00     0.018 C 
ATOM      4  C   UNL     1     -28.862 -22.079 107.084  1.00  0.00     0.186 C 
ATOM      5  C   UNL     1     -29.874 -20.502 105.532  1.00  0.00     0.059 C 
ATOM      6  O   UNL     1     -27.937 -22.417 106.066  1.00  0.00    -0.472 OA
ATOM      7  C   UNL     1     -28.483 -20.369 104.935  1.00  0.00     0.105 C 
ATOM      8  C   UNL     1     -30.470 -19.105 105.402  1.00  0.00     0.154 C 
ATOM      9  C   UNL     1     -28.698 -19.419 103.761  1.00  0.00     0.130 C 
ATOM     10  C   UNL     1     -29.926 -18.631 104.049  1.00  0.00     0.183 C 
ATOM     11  O   UNL     1     -28.637 -18.054 104.117  1.00  0.00    -0.360 OA
BRANCH   8  12
ATOM     12  O   UNL     1     -31.870 -19.156 105.364  1.00  0.00    -0.390 OA
ATOM     13  H   UNL     1     -32.112 -20.113 105.257  1.00  0.00     0.211 HD
ENDBRANCH   8  12
BRANCH   9  14
ATOM     14  C   UNL     1     -28.350 -19.735 102.302  1.00  0.00     0.195 C 
BRANCH  14  15
ATOM     15  O   UNL     1     -27.302 -18.927 101.832  1.00  0.00    -0.393 OA
ATOM     16  H   UNL     1     -27.306 -18.101 102.381  1.00  0.00     0.210 HD
ENDBRANCH  14  15
ENDBRANCH   9  14
ENDBRANCH   1   2
BRANCH   1  17
ATOM     17  C   UNL     1     -27.837 -23.108 102.786  1.00  0.00     0.286 C 
ATOM     18  C   UNL     1     -26.874 -24.135 103.429  1.00  0.00     0.202 C 
ATOM     19  O   UNL     1     -28.600 -23.633 101.702  1.00  0.00    -0.341 OA
ATOM     20  C   UNL     1     -27.583 -25.439 103.804  1.00  0.00     0.179 C 
ATOM     21  C   UNL     1     -29.304 -24.842 101.980  1.00  0.00     0.178 C 
ATOM     22  C   UNL     1     -28.406 -25.946 102.605  1.00  0.00     0.177 C 
BRANCH  18  23
ATOM     23  O   UNL     1     -25.765 -24.393 102.598  1.00  0.00    -0.385 OA
ATOM     24  H   UNL     1     -26.076 -24.916 101.814  1.00  0.00     0.211 HD
ENDBRANCH  18  23
BRANCH  20  25
ATOM     25  O   UNL     1     -28.399 -25.215 104.928  1.00  0.00    -0.387 OA
ATOM     26  H   UNL     1     -28.011 -24.450 105.428  1.00  0.00     0.211 HD
ENDBRANCH  20  25
BRANCH  21  27
ATOM     27  C   UNL     1     -30.629 -24.575 102.717  1.00  0.00     0.191 C 
BRANCH  27  28
ATOM     28  O   UNL     1     -31.576 -25.553 102.382  1.00  0.00    -0.394 OA
ATOM     29  H   UNL     1     -31.365 -26.345 102.943  1.00  0.00     0.210 HD
ENDBRANCH  27  28
ENDBRANCH  21  27
BRANCH  22  30
ATOM     30  O   UNL     1     -29.127 -27.115 102.909  1.00  0.00    -0.387 OA
ATOM     31  H   UNL     1     -29.556 -27.445 102.079  1.00  0.00     0.211 HD
ENDBRANCH  22  30
ENDBRANCH   1  17
TORSDOF 10
ENDMDL
MODEL 7
REMARK VINA RESULT:    -6.320      4.001      6.347
REMARK INTER + INTRA:         -10.004
REMARK INTER:                  -8.634
REMARK INTRA:                  -1.370
REMARK UNBOUND:                -1.098
REMARK SMILES OC[C@H]1O[C@@H](O[C@@H]2OC=C[C@H]3[C@H](O)[C@H]4O[C@@]4(CO)[C@H]23)[C@H](O)[C@@H](O)[C@H]1O
REMARK SMILES IDX 6 1 7 2 10 3 9 4 11 5 8 6 19 7 12 8 16 9 14 10 15 11 13 12
REMARK SMILES IDX 17 14 18 15 5 17 20 18 4 19 22 20 3 21 24 22 21 23 23 25
REMARK SMILES IDX 2 27 1 28 25 30
REMARK H PARENT 13 13 18 16 21 24 23 26 1 29 25 31
REMARK Flexibility Score: inf
ROOT
ATOM      1  O   UNL     1     -29.262 -21.842 105.176  1.00  0.00    -0.310 OA
ENDROOT
BRANCH   1   2
ATOM      2  C   UNL     1     -28.547 -21.037 106.112  1.00  0.00     0.315 C 
ATOM      3  C   UNL     1     -30.054 -21.131 108.605  1.00  0.00     0.018 C 
ATOM      4  C   UNL     1     -28.907 -21.817 108.490  1.00  0.00     0.186 C 
ATOM      5  C   UNL     1     -30.588 -20.450 107.383  1.00  0.00     0.059 C 
ATOM      6  O   UNL     1     -28.151 -21.774 107.294  1.00  0.00    -0.472 OA
ATOM      7  C   UNL     1     -29.431 -19.867 106.591  1.00  0.00     0.105 C 
ATOM      8  C   UNL     1     -31.543 -19.277 107.566  1.00  0.00     0.154 C 
ATOM      9  C   UNL     1     -30.118 -18.907 105.625  1.00  0.00     0.130 C 
ATOM     10  C   UNL     1     -31.427 -18.535 106.228  1.00  0.00     0.183 C 
ATOM     11  O   UNL     1     -30.348 -17.624 106.168  1.00  0.00    -0.360 OA
BRANCH   8  12
ATOM     12  O   UNL     1     -32.859 -19.722 107.753  1.00  0.00    -0.390 OA
ATOM     13  H   UNL     1     -33.125 -20.171 106.908  1.00  0.00     0.211 HD
ENDBRANCH   8  12
BRANCH   9  14
ATOM     14  C   UNL     1     -30.001 -18.965 104.099  1.00  0.00     0.195 C 
BRANCH  14  15
ATOM     15  O   UNL     1     -30.707 -20.055 103.565  1.00  0.00    -0.393 OA
ATOM     16  H   UNL     1     -30.729 -20.756 104.267  1.00  0.00     0.210 HD
ENDBRANCH  14  15
ENDBRANCH   9  14
ENDBRANCH   1   2
BRANCH   1  17
ATOM     17  C   UNL     1     -28.889 -23.214 105.221  1.00  0.00     0.286 C 
ATOM     18  C   UNL     1     -30.118 -24.111 104.938  1.00  0.00     0.202 C 
ATOM     19  O   UNL     1     -27.764 -23.499 104.394  1.00  0.00    -0.341 OA
ATOM     20  C   UNL     1     -30.489 -24.135 103.452  1.00  0.00     0.179 C 
ATOM     21  C   UNL     1     -28.027 -23.524 102.992  1.00  0.00     0.178 C 
ATOM     22  C   UNL     1     -29.233 -24.426 102.610  1.00  0.00     0.177 C 
BRANCH  18  23
ATOM     23  O   UNL     1     -29.924 -25.420 105.423  1.00  0.00    -0.385 OA
ATOM     24  H   UNL     1     -28.953 -25.561 105.566  1.00  0.00     0.211 HD
ENDBRANCH  18  23
BRANCH  20  25
ATOM     25  O   UNL     1     -31.069 -22.902 103.101  1.00  0.00    -0.387 OA
ATOM     26  H   UNL     1     -31.888 -23.099 102.576  1.00  0.00     0.211 HD
ENDBRANCH  20  25
BRANCH  21  27
ATOM     27  C   UNL     1     -28.046 -22.107 102.390  1.00  0.00     0.191 C 
BRANCH  27  28
ATOM     28  O   UNL     1     -27.654 -22.146 101.044  1.00  0.00    -0.394 OA
ATOM     29  H   UNL     1     -28.422 -21.792 100.523  1.00  0.00     0.210 HD
ENDBRANCH  27  28
ENDBRANCH  21  27
BRANCH  22  30
ATOM     30  O   UNL     1     -29.502 -24.405 101.229  1.00  0.00    -0.387 OA
ATOM     31  H   UNL     1     -28.687 -24.102 100.754  1.00  0.00     0.211 HD
ENDBRANCH  22  30
ENDBRANCH   1  17
TORSDOF 10
ENDMDL
MODEL 8
REMARK VINA RESULT:    -6.298      2.914      4.729
REMARK INTER + INTRA:          -9.974
REMARK INTER:                  -8.678
REMARK INTRA:                  -1.296
REMARK UNBOUND:                -1.098
REMARK SMILES OC[C@H]1O[C@@H](O[C@@H]2OC=C[C@H]3[C@H](O)[C@H]4O[C@@]4(CO)[C@H]23)[C@H](O)[C@@H](O)[C@H]1O
REMARK SMILES IDX 6 1 7 2 10 3 9 4 11 5 8 6 19 7 12 8 16 9 14 10 15 11 13 12
REMARK SMILES IDX 17 14 18 15 5 17 20 18 4 19 22 20 3 21 24 22 21 23 23 25
REMARK SMILES IDX 2 27 1 28 25 30
REMARK H PARENT 13 13 18 16 21 24 23 26 1 29 25 31
REMARK Flexibility Score: inf
ROOT
ATOM      1  O   UNL     1     -28.625 -22.668 103.786  1.00  0.00    -0.310 OA
ENDROOT
BRANCH   1   2
ATOM      2  C   UNL     1     -27.618 -22.030 104.570  1.00  0.00     0.315 C 
ATOM      3  C   UNL     1     -27.944 -23.011 107.295  1.00  0.00     0.018 C 
ATOM      4  C   UNL     1     -26.923 -23.449 106.544  1.00  0.00     0.186 C 
ATOM      5  C   UNL     1     -28.965 -22.130 106.643  1.00  0.00     0.059 C 
ATOM      6  O   UNL     1     -26.736 -22.976 105.223  1.00  0.00    -0.472 OA
ATOM      7  C   UNL     1     -28.267 -21.183 105.683  1.00  0.00     0.105 C 
ATOM      8  C   UNL     1     -29.803 -21.213 107.527  1.00  0.00     0.154 C 
ATOM      9  C   UNL     1     -29.331 -20.128 105.399  1.00  0.00     0.130 C 
ATOM     10  C   UNL     1     -30.283 -20.141 106.542  1.00  0.00     0.183 C 
ATOM     11  O   UNL     1     -29.365 -19.084 106.349  1.00  0.00    -0.360 OA
BRANCH   8  12
ATOM     12  O   UNL     1     -30.902 -21.897 108.064  1.00  0.00    -0.390 OA
ATOM     13  H   UNL     1     -31.588 -21.931 107.347  1.00  0.00     0.211 HD
ENDBRANCH   8  12
BRANCH   9  14
ATOM     14  C   UNL     1     -29.859 -19.767 104.006  1.00  0.00     0.195 C 
BRANCH  14  15
ATOM     15  O   UNL     1     -30.780 -20.719 103.537  1.00  0.00    -0.393 OA
ATOM     16  H   UNL     1     -31.394 -20.920 104.290  1.00  0.00     0.210 HD
ENDBRANCH  14  15
ENDBRANCH   9  14
ENDBRANCH   1   2
BRANCH   1  17
ATOM     17  C   UNL     1     -28.353 -22.630 102.391  1.00  0.00     0.286 C 
ATOM     18  C   UNL     1     -27.114 -23.499 102.065  1.00  0.00     0.202 C 
ATOM     19  O   UNL     1     -29.499 -22.943 101.604  1.00  0.00    -0.341 OA
ATOM     20  C   UNL     1     -27.434 -24.997 102.086  1.00  0.00     0.179 C 
ATOM     21  C   UNL     1     -29.871 -24.320 101.586  1.00  0.00     0.178 C 
ATOM     22  C   UNL     1     -28.691 -25.270 101.239  1.00  0.00     0.177 C 
BRANCH  18  23
ATOM     23  O   UNL     1     -26.535 -23.132 100.834  1.00  0.00    -0.385 OA
ATOM     24  H   UNL     1     -27.258 -22.829 100.225  1.00  0.00     0.211 HD
ENDBRANCH  18  23
BRANCH  20  25
ATOM     25  O   UNL     1     -27.612 -25.413 103.418  1.00  0.00    -0.387 OA
ATOM     26  H   UNL     1     -26.804 -25.927 103.679  1.00  0.00     0.211 HD
ENDBRANCH  20  25
BRANCH  21  27
ATOM     27  C   UNL     1     -30.684 -24.708 102.834  1.00  0.00     0.191 C 
BRANCH  27  28
ATOM     28  O   UNL     1     -31.617 -25.705 102.516  1.00  0.00    -0.394 OA
ATOM     29  H   UNL     1     -31.756 -26.229 103.348  1.00  0.00     0.210 HD
ENDBRANCH  27  28
ENDBRANCH  21  27
BRANCH  22  30
ATOM     30  O   UNL     1     -29.068 -26.625 101.266  1.00  0.00    -0.387 OA
ATOM     31  H   UNL     1     -29.890 -26.734 100.724  1.00  0.00     0.211 HD
ENDBRANCH  22  30
ENDBRANCH   1  17
TORSDOF 10
ENDMDL
MODEL 9
REMARK VINA RESULT:    -6.116      1.964      3.803
REMARK INTER + INTRA:          -9.716
REMARK INTER:                  -8.360
REMARK INTRA:                  -1.356
REMARK UNBOUND:                -1.098
REMARK SMILES OC[C@H]1O[C@@H](O[C@@H]2OC=C[C@H]3[C@H](O)[C@H]4O[C@@]4(CO)[C@H]23)[C@H](O)[C@@H](O)[C@H]1O
REMARK SMILES IDX 6 1 7 2 10 3 9 4 11 5 8 6 19 7 12 8 16 9 14 10 15 11 13 12
REMARK SMILES IDX 17 14 18 15 5 17 20 18 4 19 22 20 3 21 24 22 21 23 23 25
REMARK SMILES IDX 2 27 1 28 25 30
REMARK H PARENT 13 13 18 16 21 24 23 26 1 29 25 31
REMARK Flexibility Score: inf
ROOT
ATOM      1  O   UNL     1     -28.231 -24.429 104.452  1.00  0.00    -0.310 OA
ENDROOT
BRANCH   1   2
ATOM      2  C   UNL     1     -27.404 -24.453 105.614  1.00  0.00     0.315 C 
ATOM      3  C   UNL     1     -28.535 -26.464 107.395  1.00  0.00     0.018 C 
ATOM      4  C   UNL     1     -27.404 -26.726 106.722  1.00  0.00     0.186 C 
ATOM      5  C   UNL     1     -29.251 -25.184 107.090  1.00  0.00     0.059 C 
ATOM      6  O   UNL     1     -26.829 -25.758 105.863  1.00  0.00    -0.472 OA
ATOM      7  C   UNL     1     -28.230 -24.083 106.863  1.00  0.00     0.105 C 
ATOM      8  C   UNL     1     -30.190 -24.610 108.144  1.00  0.00     0.154 C 
ATOM      9  C   UNL     1     -29.065 -22.810 106.949  1.00  0.00     0.130 C 
ATOM     10  C   UNL     1     -30.280 -23.131 107.746  1.00  0.00     0.183 C 
ATOM     11  O   UNL     1     -29.237 -22.331 108.266  1.00  0.00    -0.360 OA
BRANCH   8  12
ATOM     12  O   UNL     1     -31.457 -25.204 108.067  1.00  0.00    -0.390 OA
ATOM     13  H   UNL     1     -31.666 -25.293 107.101  1.00  0.00     0.211 HD
ENDBRANCH   8  12
BRANCH   9  14
ATOM     14  C   UNL     1     -29.168 -21.752 105.845  1.00  0.00     0.195 C 
BRANCH  14  15
ATOM     15  O   UNL     1     -29.994 -22.178 104.793  1.00  0.00    -0.393 OA
ATOM     16  H   UNL     1     -30.877 -21.746 104.925  1.00  0.00     0.210 HD
ENDBRANCH  14  15
ENDBRANCH   9  14
ENDBRANCH   1   2
BRANCH   1  17
ATOM     17  C   UNL     1     -27.752 -25.269 103.409  1.00  0.00     0.286 C 
ATOM     18  C   UNL     1     -28.909 -25.642 102.450  1.00  0.00     0.202 C 
ATOM     19  O   UNL     1     -26.611 -24.724 102.752  1.00  0.00    -0.341 OA
ATOM     20  C   UNL     1     -29.282 -24.487 101.515  1.00  0.00     0.179 C 
ATOM     21  C   UNL     1     -26.877 -23.632 101.873  1.00  0.00     0.178 C 
ATOM     22  C   UNL     1     -28.010 -23.927 100.852  1.00  0.00     0.177 C 
BRANCH  18  23
ATOM     23  O   UNL     1     -28.613 -26.804 101.711  1.00  0.00    -0.385 OA
ATOM     24  H   UNL     1     -27.877 -27.288 102.169  1.00  0.00     0.211 HD
ENDBRANCH  18  23
BRANCH  20  25
ATOM     25  O   UNL     1     -29.957 -23.496 102.251  1.00  0.00    -0.387 OA
ATOM     26  H   UNL     1     -29.586 -22.618 101.975  1.00  0.00     0.211 HD
ENDBRANCH  20  25
BRANCH  21  27
ATOM     27  C   UNL     1     -27.008 -22.303 102.638  1.00  0.00     0.191 C 
BRANCH  27  28
ATOM     28  O   UNL     1     -26.812 -21.220 101.769  1.00  0.00    -0.394 OA
ATOM     29  H   UNL     1     -26.202 -21.545 101.056  1.00  0.00     0.210 HD
ENDBRANCH  27  28
ENDBRANCH  21  27
BRANCH  22  30
ATOM     30  O   UNL     1     -28.284 -22.824 100.022  1.00  0.00    -0.387 OA
ATOM     31  H   UNL     1     -28.191 -21.996 100.558  1.00  0.00     0.211 HD
ENDBRANCH  22  30
ENDBRANCH   1  17
TORSDOF 10
ENDMDL
