MODEL 1
REMARK VINA RESULT:    -3.448      0.000      0.000
REMARK INTER + INTRA:          -4.174
REMARK INTER:                  -4.052
REMARK INTRA:                  -0.121
REMARK UNBOUND:                -0.121
REMARK SMILES O=C([O-])CCC(=O)[O-]
REMARK SMILES IDX 4 1 2 2 1 3 3 4 5 5 6 6 7 7 8 8
REMARK H PARENT
REMARK Flexibility Score: inf
ROOT
ATOM      1  C   UNL     1      27.073   4.726   9.620  1.00  0.00     0.059 C 
ENDROOT
BRANCH   1   2
ATOM      2  C   UNL     1      27.282   3.999   8.328  1.00  0.00     0.042 C 
ATOM      3  O   UNL     1      27.995   2.962   8.293  1.00  0.00    -0.550 OA
ATOM      4  O   UNL     1      26.732   4.496   7.155  1.00  0.00    -0.550 OA
ENDBRANCH   1   2
BRANCH   1   5
ATOM      5  C   UNL     1      28.383   5.353  10.099  1.00  0.00     0.059 C 
BRANCH   5   6
ATOM      6  C   UNL     1      28.773   4.794  11.431  1.00  0.00     0.042 C 
ATOM      7  O   UNL     1      29.063   5.566  12.382  1.00  0.00    -0.550 OA
ATOM      8  O   UNL     1      28.862   3.419  11.609  1.00  0.00    -0.550 OA
ENDBRANCH   5   6
ENDBRANCH   1   5
TORSDOF 3
ENDMDL
MODEL 2
REMARK VINA RESULT:    -3.414      0.217      3.930
REMARK INTER + INTRA:          -4.133
REMARK INTER:                  -4.024
REMARK INTRA:                  -0.109
REMARK UNBOUND:                -0.121
REMARK SMILES O=C([O-])CCC(=O)[O-]
REMARK SMILES IDX 4 1 2 2 1 3 3 4 5 5 6 6 7 7 8 8
REMARK H PARENT
REMARK Flexibility Score: inf
ROOT
ATOM      1  C   UNL     1      28.011   5.420  10.233  1.00  0.00     0.059 C 
ENDROOT
BRANCH   1   2
ATOM      2  C   UNL     1      28.663   4.833  11.445  1.00  0.00     0.042 C 
ATOM      3  O   UNL     1      29.110   5.584  12.351  1.00  0.00    -0.550 OA
ATOM      4  O   UNL     1      28.823   3.457  11.550  1.00  0.00    -0.550 OA
ENDBRANCH   1   2
BRANCH   1   5
ATOM      5  C   UNL     1      26.925   4.483   9.703  1.00  0.00     0.059 C 
BRANCH   5   6
ATOM      6  C   UNL     1      27.259   4.025   8.319  1.00  0.00     0.042 C 
ATOM      7  O   UNL     1      26.840   4.666   7.320  1.00  0.00    -0.550 OA
ATOM      8  O   UNL     1      27.995   2.862   8.131  1.00  0.00    -0.550 OA
ENDBRANCH   5   6
ENDBRANCH   1   5
TORSDOF 3
ENDMDL
MODEL 3
REMARK VINA RESULT:    -3.404      1.600      4.060
REMARK INTER + INTRA:          -4.122
REMARK INTER:                  -4.093
REMARK INTRA:                  -0.029
REMARK UNBOUND:                -0.121
REMARK SMILES O=C([O-])CCC(=O)[O-]
REMARK SMILES IDX 4 1 2 2 1 3 3 4 5 5 6 6 7 7 8 8
REMARK H PARENT
REMARK Flexibility Score: inf
ROOT
ATOM      1  C   UNL     1      28.368   5.126  10.137  1.00  0.00     0.059 C 
ENDROOT
BRANCH   1   2
ATOM      2  C   UNL     1      28.854   4.699  11.486  1.00  0.00     0.042 C 
ATOM      3  O   UNL     1      29.123   5.560  12.365  1.00  0.00    -0.550 OA
ATOM      4  O   UNL     1      29.060   3.352  11.756  1.00  0.00    -0.550 OA
ENDBRANCH   1   2
BRANCH   1   5
ATOM      5  C   UNL     1      26.909   5.576  10.212  1.00  0.00     0.059 C 
BRANCH   5   6
ATOM      6  C   UNL     1      26.548   6.385   9.007  1.00  0.00     0.042 C 
ATOM      7  O   UNL     1      26.235   7.598   9.128  1.00  0.00    -0.550 OA
ATOM      8  O   UNL     1      26.512   5.786   7.753  1.00  0.00    -0.550 OA
ENDBRANCH   5   6
ENDBRANCH   1   5
TORSDOF 3
ENDMDL
MODEL 4
REMARK VINA RESULT:    -3.390      1.786      3.821
REMARK INTER + INTRA:          -4.106
REMARK INTER:                  -3.950
REMARK INTRA:                  -0.156
REMARK UNBOUND:                -0.121
REMARK SMILES O=C([O-])CCC(=O)[O-]
REMARK SMILES IDX 4 1 2 2 1 3 3 4 5 5 6 6 7 7 8 8
REMARK H PARENT
REMARK Flexibility Score: inf
ROOT
ATOM      1  C   UNL     1      28.664   5.005  10.068  1.00  0.00     0.059 C 
ENDROOT
BRANCH   1   2
ATOM      2  C   UNL     1      28.947   4.644  11.492  1.00  0.00     0.042 C 
ATOM      3  O   UNL     1      29.069   5.546  12.363  1.00  0.00    -0.550 OA
ATOM      4  O   UNL     1      29.125   3.314  11.850  1.00  0.00    -0.550 OA
ENDBRANCH   1   2
BRANCH   1   5
ATOM      5  C   UNL     1      27.449   5.930   9.982  1.00  0.00     0.059 C 
BRANCH   5   6
ATOM      6  C   UNL     1      26.189   5.162  10.229  1.00  0.00     0.042 C 
ATOM      7  O   UNL     1      25.944   4.117   9.572  1.00  0.00    -0.550 OA
ATOM      8  O   UNL     1      25.263   5.627  11.154  1.00  0.00    -0.550 OA
ENDBRANCH   5   6
ENDBRANCH   1   5
TORSDOF 3
ENDMDL
MODEL 5
REMARK VINA RESULT:    -3.373      1.953      2.361
REMARK INTER + INTRA:          -4.086
REMARK INTER:                  -4.043
REMARK INTRA:                  -0.043
REMARK UNBOUND:                -0.121
REMARK SMILES O=C([O-])CCC(=O)[O-]
REMARK SMILES IDX 4 1 2 2 1 3 3 4 5 5 6 6 7 7 8 8
REMARK H PARENT
REMARK Flexibility Score: inf
ROOT
ATOM      1  C   UNL     1      26.682   5.400  10.390  1.00  0.00     0.059 C 
ENDROOT
BRANCH   1   2
ATOM      2  C   UNL     1      26.182   6.520   9.534  1.00  0.00     0.042 C 
ATOM      3  O   UNL     1      26.943   7.059   8.687  1.00  0.00    -0.550 OA
ATOM      4  O   UNL     1      24.892   7.003   9.706  1.00  0.00    -0.550 OA
ENDBRANCH   1   2
BRANCH   1   5
ATOM      5  C   UNL     1      28.200   5.263  10.260  1.00  0.00     0.059 C 
BRANCH   5   6
ATOM      6  C   UNL     1      28.797   4.814  11.555  1.00  0.00     0.042 C 
ATOM      7  O   UNL     1      29.095   5.656  12.443  1.00  0.00    -0.550 OA
ATOM      8  O   UNL     1      29.070   3.468  11.765  1.00  0.00    -0.550 OA
ENDBRANCH   5   6
ENDBRANCH   1   5
TORSDOF 3
ENDMDL
MODEL 6
REMARK VINA RESULT:    -3.359      0.390      3.861
REMARK INTER + INTRA:          -4.069
REMARK INTER:                  -3.960
REMARK INTRA:                  -0.109
REMARK UNBOUND:                -0.121
REMARK SMILES O=C([O-])CCC(=O)[O-]
REMARK SMILES IDX 4 1 2 2 1 3 3 4 5 5 6 6 7 7 8 8
REMARK H PARENT
REMARK Flexibility Score: inf
ROOT
ATOM      1  C   UNL     1      28.119   5.324  10.267  1.00  0.00     0.059 C 
ENDROOT
BRANCH   1   2
ATOM      2  C   UNL     1      28.768   4.822  11.518  1.00  0.00     0.042 C 
ATOM      3  O   UNL     1      28.952   3.587  11.685  1.00  0.00    -0.550 OA
ATOM      4  O   UNL     1      29.125   5.712  12.522  1.00  0.00    -0.550 OA
ENDBRANCH   1   2
BRANCH   1   5
ATOM      5  C   UNL     1      26.960   4.412   9.862  1.00  0.00     0.059 C 
BRANCH   5   6
ATOM      6  C   UNL     1      27.276   3.702   8.584  1.00  0.00     0.042 C 
ATOM      7  O   UNL     1      27.031   4.249   7.477  1.00  0.00    -0.550 OA
ATOM      8  O   UNL     1      27.797   2.414   8.615  1.00  0.00    -0.550 OA
ENDBRANCH   5   6
ENDBRANCH   1   5
TORSDOF 3
ENDMDL
MODEL 7
REMARK VINA RESULT:    -3.146      1.554      1.873
REMARK INTER + INTRA:          -3.819
REMARK INTER:                  -3.777
REMARK INTRA:                  -0.042
REMARK UNBOUND:                -0.121
REMARK SMILES O=C([O-])CCC(=O)[O-]
REMARK SMILES IDX 4 1 2 2 1 3 3 4 5 5 6 6 7 7 8 8
REMARK H PARENT
REMARK Flexibility Score: inf
ROOT
ATOM      1  C   UNL     1      27.977   3.834   8.769  1.00  0.00     0.059 C 
ENDROOT
BRANCH   1   2
ATOM      2  C   UNL     1      27.649   2.447   8.314  1.00  0.00     0.042 C 
ATOM      3  O   UNL     1      27.999   1.454   9.006  1.00  0.00    -0.550 OA
ATOM      4  O   UNL     1      27.003   2.248   7.102  1.00  0.00    -0.550 OA
ENDBRANCH   1   2
BRANCH   1   5
ATOM      5  C   UNL     1      28.279   3.848  10.268  1.00  0.00     0.059 C 
BRANCH   5   6
ATOM      6  C   UNL     1      28.223   5.245  10.800  1.00  0.00     0.042 C 
ATOM      7  O   UNL     1      27.676   6.158  10.127  1.00  0.00    -0.550 OA
ATOM      8  O   UNL     1      28.817   5.550  12.018  1.00  0.00    -0.550 OA
ENDBRANCH   5   6
ENDBRANCH   1   5
TORSDOF 3
ENDMDL
MODEL 8
REMARK VINA RESULT:    -3.141      2.347      4.420
REMARK INTER + INTRA:          -3.813
REMARK INTER:                  -3.758
REMARK INTRA:                  -0.055
REMARK UNBOUND:                -0.121
REMARK SMILES O=C([O-])CCC(=O)[O-]
REMARK SMILES IDX 4 1 2 2 1 3 3 4 5 5 6 6 7 7 8 8
REMARK H PARENT
REMARK Flexibility Score: inf
ROOT
ATOM      1  C   UNL     1      26.935   6.437   9.586  1.00  0.00     0.059 C 
ENDROOT
BRANCH   1   2
ATOM      2  C   UNL     1      27.949   5.484  10.137  1.00  0.00     0.042 C 
ATOM      3  O   UNL     1      28.425   5.663  11.290  1.00  0.00    -0.550 OA
ATOM      4  O   UNL     1      28.406   4.429   9.360  1.00  0.00    -0.550 OA
ENDBRANCH   1   2
BRANCH   1   5
ATOM      5  C   UNL     1      26.392   5.926   8.251  1.00  0.00     0.059 C 
BRANCH   5   6
ATOM      6  C   UNL     1      26.385   7.024   7.235  1.00  0.00     0.042 C 
ATOM      7  O   UNL     1      26.160   8.212   7.586  1.00  0.00    -0.550 OA
ATOM      8  O   UNL     1      26.579   6.729   5.891  1.00  0.00    -0.550 OA
ENDBRANCH   5   6
ENDBRANCH   1   5
TORSDOF 3
ENDMDL
MODEL 9
REMARK VINA RESULT:    -3.109      1.600      4.041
REMARK INTER + INTRA:          -3.776
REMARK INTER:                  -3.735
REMARK INTRA:                  -0.041
REMARK UNBOUND:                -0.121
REMARK SMILES O=C([O-])CCC(=O)[O-]
REMARK SMILES IDX 4 1 2 2 1 3 3 4 5 5 6 6 7 7 8 8
REMARK H PARENT
REMARK Flexibility Score: inf
ROOT
ATOM      1  C   UNL     1      28.061   3.843  10.407  1.00  0.00     0.059 C 
ENDROOT
BRANCH   1   2
ATOM      2  C   UNL     1      28.124   5.267  10.862  1.00  0.00     0.042 C 
ATOM      3  O   UNL     1      27.607   6.179  10.163  1.00  0.00    -0.550 OA
ATOM      4  O   UNL     1      28.796   5.594  12.032  1.00  0.00    -0.550 OA
ENDBRANCH   1   2
BRANCH   1   5
ATOM      5  C   UNL     1      27.976   3.772   8.882  1.00  0.00     0.059 C 
BRANCH   5   6
ATOM      6  C   UNL     1      27.299   2.508   8.455  1.00  0.00     0.042 C 
ATOM      7  O   UNL     1      27.981   1.484   8.185  1.00  0.00    -0.550 OA
ATOM      8  O   UNL     1      25.918   2.473   8.309  1.00  0.00    -0.550 OA
ENDBRANCH   5   6
ENDBRANCH   1   5
TORSDOF 3
ENDMDL
