MODEL 1
REMARK VINA RESULT:    -5.224      0.000      0.000
REMARK INTER + INTRA:          -8.159
REMARK INTER:                  -7.973
REMARK INTRA:                  -0.186
REMARK UNBOUND:                -0.186
REMARK SMILES CC1=CCC[C@H](C)C(=O)C[C@@H](C(C)C)C(=O)C1
REMARK SMILES IDX 8 1 9 2 6 3 7 4 5 5 4 6 3 7 2 8 1 9 10 11 11 12 15 13 16 14
REMARK SMILES IDX 17 15 12 17 13 18 14 19
REMARK H PARENT
REMARK Flexibility Score: 70.00
ROOT
ATOM      1  C   UNL     1      -8.817  32.524  25.305  1.00  0.00     0.136 C 
ATOM      2  O   UNL     1      -8.473  31.908  26.304  1.00  0.00    -0.299 OA
ENDROOT
BRANCH   1   3
ATOM      3  C   UNL     1      -8.630  34.026  25.239  1.00  0.00     0.053 C 
ATOM      4  C   UNL     1      -8.251  34.547  26.629  1.00  0.00     0.016 C 
BRANCH   3   5
ATOM      5  C   UNL     1      -7.567  34.456  24.200  1.00  0.00     0.015 C 
BRANCH   5   6
ATOM      6  C   UNL     1      -8.151  35.190  22.980  1.00  0.00     0.028 C 
BRANCH   6   7
ATOM      7  C   UNL     1      -7.529  34.699  21.692  1.00  0.00    -0.028 C 
ATOM      8  C   UNL     1      -8.018  33.708  20.913  1.00  0.00    -0.070 CG0
ATOM      9  C   UNL     1      -7.244  33.336  19.672  1.00  0.00     0.039 C 
ATOM     10  G   UNL     1      -9.302  32.968  21.227  1.00  0.00     0.000 G0
ENDBRANCH   6   7
ENDBRANCH   5   6
ENDBRANCH   3   5
ENDBRANCH   1   3
BRANCH   1  11
ATOM     11  C   UNL     1      -9.502  31.782  24.182  1.00  0.00     0.087 C 
BRANCH  11  12
ATOM     12  C   UNL     1      -8.507  31.296  23.099  1.00  0.00     0.066 C 
BRANCH  12  13
ATOM     13  C   UNL     1      -9.094  31.554  21.719  1.00  0.00     0.140 C 
ATOM     14  O   UNL     1      -9.336  30.608  20.982  1.00  0.00    -0.299 OA
BRANCH  13  15
ATOM     15  C   UNL     1      -9.317  32.956  21.207  1.00  0.00     0.106 CG0
ATOM     16  G   UNL     1      -8.017  33.686  20.939  1.00  0.00     0.000 G0
ENDBRANCH  13  15
ENDBRANCH  12  13
BRANCH  12  17
ATOM     17  C   UNL     1      -8.150  29.784  23.263  1.00  0.00    -0.006 C 
ATOM     18  C   UNL     1      -9.054  29.080  24.291  1.00  0.00     0.008 C 
ATOM     19  C   UNL     1      -6.681  29.599  23.689  1.00  0.00     0.008 C 
ENDBRANCH  12  17
ENDBRANCH  11  12
ENDBRANCH   1  11
TORSDOF 1
ENDMDL
MODEL 2
REMARK VINA RESULT:    -5.024      2.204      5.194
REMARK INTER + INTRA:          -7.854
REMARK INTER:                  -7.626
REMARK INTRA:                  -0.228
REMARK UNBOUND:                -0.186
REMARK SMILES CC1=CCC[C@H](C)C(=O)C[C@@H](C(C)C)C(=O)C1
REMARK SMILES IDX 8 1 9 2 6 3 7 4 5 5 4 6 3 7 2 8 1 9 10 11 11 12 15 13 16 14
REMARK SMILES IDX 17 15 12 17 13 18 14 19
REMARK H PARENT
REMARK Flexibility Score: 70.00
ROOT
ATOM      1  C   UNL     1      -8.276  33.545  22.230  1.00  0.00     0.136 C 
ATOM      2  O   UNL     1      -7.615  34.547  22.000  1.00  0.00    -0.299 OA
ENDROOT
BRANCH   1   3
ATOM      3  C   UNL     1      -8.220  32.365  21.281  1.00  0.00     0.053 C 
ATOM      4  C   UNL     1      -7.503  32.788  19.995  1.00  0.00     0.016 C 
BRANCH   3   5
ATOM      5  C   UNL     1      -7.524  31.128  21.898  1.00  0.00     0.015 C 
BRANCH   5   6
ATOM      6  C   UNL     1      -8.500  30.105  22.507  1.00  0.00     0.028 C 
BRANCH   6   7
ATOM      7  C   UNL     1      -8.035  29.644  23.869  1.00  0.00    -0.028 C 
ATOM      8  C   UNL     1      -8.521  30.081  25.053  1.00  0.00    -0.070 CG0
ATOM      9  C   UNL     1      -7.914  29.523  26.317  1.00  0.00     0.039 C 
ATOM     10  G   UNL     1      -9.644  31.091  25.162  1.00  0.00     0.000 G0
ENDBRANCH   6   7
ENDBRANCH   5   6
ENDBRANCH   3   5
ENDBRANCH   1   3
BRANCH   1  11
ATOM     11  C   UNL     1      -9.207  33.533  23.419  1.00  0.00     0.087 C 
BRANCH  11  12
ATOM     12  C   UNL     1      -8.449  33.411  24.765  1.00  0.00     0.066 C 
BRANCH  12  13
ATOM     13  C   UNL     1      -9.179  32.432  25.671  1.00  0.00     0.140 C 
ATOM     14  O   UNL     1      -9.346  32.713  26.850  1.00  0.00    -0.299 OA
BRANCH  13  15
ATOM     15  C   UNL     1      -9.642  31.086  25.168  1.00  0.00     0.106 CG0
ATOM     16  G   UNL     1      -8.504  30.093  25.049  1.00  0.00     0.000 G0
ENDBRANCH  13  15
ENDBRANCH  12  13
BRANCH  12  17
ATOM     17  C   UNL     1      -8.285  34.792  25.476  1.00  0.00    -0.006 C 
ATOM     18  C   UNL     1      -9.203  35.871  24.874  1.00  0.00     0.008 C 
ATOM     19  C   UNL     1      -6.828  35.288  25.407  1.00  0.00     0.008 C 
ENDBRANCH  12  17
ENDBRANCH  11  12
ENDBRANCH   1  11
TORSDOF 1
ENDMDL
MODEL 3
REMARK VINA RESULT:    -4.629      2.355      4.256
REMARK INTER + INTRA:          -7.251
REMARK INTER:                  -7.374
REMARK INTRA:                   0.124
REMARK UNBOUND:                -0.186
REMARK SMILES CC1=CCC[C@H](C)C(=O)C[C@@H](C(C)C)C(=O)C1
REMARK SMILES IDX 8 1 9 2 6 3 7 4 5 5 4 6 3 7 2 8 1 9 10 11 11 12 15 13 16 14
REMARK SMILES IDX 17 15 12 17 13 18 14 19
REMARK H PARENT
REMARK Flexibility Score: 70.00
ROOT
ATOM      1  C   UNL     1      -8.170  33.026  22.888  1.00  0.00     0.136 C 
ATOM      2  O   UNL     1      -9.065  32.876  22.069  1.00  0.00    -0.299 OA
ENDROOT
BRANCH   1   3
ATOM      3  C   UNL     1      -7.639  34.413  23.186  1.00  0.00     0.053 C 
ATOM      4  C   UNL     1      -7.396  35.152  21.867  1.00  0.00     0.016 C 
BRANCH   3   5
ATOM      5  C   UNL     1      -8.583  35.237  24.094  1.00  0.00     0.015 C 
BRANCH   5   6
ATOM      6  C   UNL     1      -9.411  34.382  25.070  1.00  0.00     0.028 C 
BRANCH   6   7
ATOM      7  C   UNL     1      -8.576  33.921  26.243  1.00  0.00    -0.028 C 
ATOM      8  C   UNL     1      -8.601  32.683  26.784  1.00  0.00    -0.070 CG0
ATOM      9  C   UNL     1      -7.713  32.412  27.973  1.00  0.00     0.039 C 
ATOM     10  G   UNL     1      -9.468  31.563  26.246  1.00  0.00     0.000 G0
ENDBRANCH   6   7
ENDBRANCH   5   6
ENDBRANCH   3   5
ENDBRANCH   1   3
BRANCH   1  11
ATOM     11  C   UNL     1      -7.550  31.808  23.531  1.00  0.00     0.087 C 
BRANCH  11  12
ATOM     12  C   UNL     1      -8.599  30.725  23.887  1.00  0.00     0.066 C 
BRANCH  12  13
ATOM     13  C   UNL     1      -8.685  30.580  25.399  1.00  0.00     0.140 C 
ATOM     14  O   UNL     1      -8.160  29.618  25.941  1.00  0.00    -0.299 OA
BRANCH  13  15
ATOM     15  C   UNL     1      -9.466  31.558  26.242  1.00  0.00     0.106 CG0
ATOM     16  G   UNL     1      -8.597  32.676  26.781  1.00  0.00     0.000 G0
ENDBRANCH  13  15
ENDBRANCH  12  13
BRANCH  12  17
ATOM     17  C   UNL     1      -8.271  29.348  23.226  1.00  0.00    -0.006 C 
ATOM     18  C   UNL     1      -6.761  29.156  22.998  1.00  0.00     0.008 C 
ATOM     19  C   UNL     1      -9.000  29.187  21.878  1.00  0.00     0.008 C 
ENDBRANCH  12  17
ENDBRANCH  11  12
ENDBRANCH   1  11
TORSDOF 1
ENDMDL
MODEL 4
REMARK VINA RESULT:    -4.502      1.601      3.918
REMARK INTER + INTRA:          -7.056
REMARK INTER:                  -7.306
REMARK INTRA:                   0.250
REMARK UNBOUND:                -0.186
REMARK SMILES CC1=CCC[C@H](C)C(=O)C[C@@H](C(C)C)C(=O)C1
REMARK SMILES IDX 8 1 9 2 6 3 7 4 5 5 4 6 3 7 2 8 1 9 10 11 11 12 15 13 16 14
REMARK SMILES IDX 17 15 12 17 13 18 14 19
REMARK H PARENT
REMARK Flexibility Score: 70.00
ROOT
ATOM      1  C   UNL     1      -8.773  31.368  25.181  1.00  0.00     0.136 C 
ATOM      2  O   UNL     1      -9.873  31.504  25.698  1.00  0.00    -0.299 OA
ENDROOT
BRANCH   1   3
ATOM      3  C   UNL     1      -8.269  29.985  24.824  1.00  0.00     0.053 C 
ATOM      4  C   UNL     1      -9.463  29.035  24.689  1.00  0.00     0.016 C 
BRANCH   3   5
ATOM      5  C   UNL     1      -7.424  29.968  23.527  1.00  0.00     0.015 C 
BRANCH   5   6
ATOM      6  C   UNL     1      -8.264  30.000  22.238  1.00  0.00     0.028 C 
BRANCH   6   7
ATOM      7  C   UNL     1      -7.686  30.964  21.228  1.00  0.00    -0.028 C 
ATOM      8  C   UNL     1      -8.048  32.259  21.083  1.00  0.00    -0.070 CG0
ATOM      9  C   UNL     1      -7.376  33.064  19.998  1.00  0.00     0.039 C 
ATOM     10  G   UNL     1      -9.084  32.930  21.962  1.00  0.00     0.000 G0
ENDBRANCH   6   7
ENDBRANCH   5   6
ENDBRANCH   3   5
ENDBRANCH   1   3
BRANCH   1  11
ATOM     11  C   UNL     1      -7.897  32.582  24.983  1.00  0.00     0.087 C 
BRANCH  11  12
ATOM     12  C   UNL     1      -8.685  33.799  24.436  1.00  0.00     0.066 C 
BRANCH  12  13
ATOM     13  C   UNL     1      -8.451  33.923  22.938  1.00  0.00     0.140 C 
ATOM     14  O   UNL     1      -7.794  34.861  22.507  1.00  0.00    -0.299 OA
BRANCH  13  15
ATOM     15  C   UNL     1      -9.072  32.955  21.961  1.00  0.00     0.106 CG0
ATOM     16  G   UNL     1      -8.038  32.275  21.088  1.00  0.00     0.000 G0
ENDBRANCH  13  15
ENDBRANCH  12  13
BRANCH  12  17
ATOM     17  C   UNL     1      -8.293  35.128  25.159  1.00  0.00    -0.006 C 
ATOM     18  C   UNL     1      -8.076  34.927  26.670  1.00  0.00     0.008 C 
ATOM     19  C   UNL     1      -9.365  36.214  24.953  1.00  0.00     0.008 C 
ENDBRANCH  12  17
ENDBRANCH  11  12
ENDBRANCH   1  11
TORSDOF 1
ENDMDL
MODEL 5
REMARK VINA RESULT:    -4.392      1.820      2.421
REMARK INTER + INTRA:          -6.889
REMARK INTER:                  -6.671
REMARK INTRA:                  -0.217
REMARK UNBOUND:                -0.186
REMARK SMILES CC1=CCC[C@H](C)C(=O)C[C@@H](C(C)C)C(=O)C1
REMARK SMILES IDX 8 1 9 2 6 3 7 4 5 5 4 6 3 7 2 8 1 9 10 11 11 12 15 13 16 14
REMARK SMILES IDX 17 15 12 17 13 18 14 19
REMARK H PARENT
REMARK Flexibility Score: 70.00
ROOT
ATOM      1  C   UNL     1      -8.693  33.836  25.447  1.00  0.00     0.136 C 
ATOM      2  O   UNL     1      -7.965  34.010  26.414  1.00  0.00    -0.299 OA
ENDROOT
BRANCH   1   3
ATOM      3  C   UNL     1      -8.881  34.943  24.430  1.00  0.00     0.053 C 
ATOM      4  C   UNL     1      -9.260  36.236  25.160  1.00  0.00     0.016 C 
BRANCH   3   5
ATOM      5  C   UNL     1      -7.628  35.174  23.552  1.00  0.00     0.015 C 
BRANCH   5   6
ATOM      6  C   UNL     1      -7.128  33.905  22.838  1.00  0.00     0.028 C 
BRANCH   6   7
ATOM      7  C   UNL     1      -8.185  33.336  21.920  1.00  0.00    -0.028 C 
ATOM      8  C   UNL     1      -8.530  32.032  21.834  1.00  0.00    -0.070 CG0
ATOM      9  C   UNL     1      -9.595  31.644  20.838  1.00  0.00     0.039 C 
ATOM     10  G   UNL     1      -7.904  30.954  22.696  1.00  0.00     0.000 G0
ENDBRANCH   6   7
ENDBRANCH   5   6
ENDBRANCH   3   5
ENDBRANCH   1   3
BRANCH   1  11
ATOM     11  C   UNL     1      -9.461  32.541  25.327  1.00  0.00     0.087 C 
BRANCH  11  12
ATOM     12  C   UNL     1      -8.531  31.305  25.245  1.00  0.00     0.066 C 
BRANCH  12  13
ATOM     13  C   UNL     1      -8.735  30.604  23.910  1.00  0.00     0.140 C 
ATOM     14  O   UNL     1      -9.553  29.699  23.824  1.00  0.00    -0.299 OA
BRANCH  13  15
ATOM     15  C   UNL     1      -7.899  30.951  22.702  1.00  0.00     0.106 CG0
ATOM     16  G   UNL     1      -8.527  32.043  21.860  1.00  0.00     0.000 G0
ENDBRANCH  13  15
ENDBRANCH  12  13
BRANCH  12  17
ATOM     17  C   UNL     1      -8.771  30.308  26.424  1.00  0.00    -0.006 C 
ATOM     18  C   UNL     1      -9.252  31.021  27.701  1.00  0.00     0.008 C 
ATOM     19  C   UNL     1      -7.494  29.512  26.753  1.00  0.00     0.008 C 
ENDBRANCH  12  17
ENDBRANCH  11  12
ENDBRANCH   1  11
TORSDOF 1
ENDMDL
MODEL 6
REMARK VINA RESULT:    -4.278      2.668      4.540
REMARK INTER + INTRA:          -6.714
REMARK INTER:                  -6.866
REMARK INTRA:                   0.151
REMARK UNBOUND:                -0.186
REMARK SMILES CC1=CCC[C@H](C)C(=O)C[C@@H](C(C)C)C(=O)C1
REMARK SMILES IDX 8 1 9 2 6 3 7 4 5 5 4 6 3 7 2 8 1 9 10 11 11 12 15 13 16 14
REMARK SMILES IDX 17 15 12 17 13 18 14 19
REMARK H PARENT
REMARK Flexibility Score: 70.00
ROOT
ATOM      1  C   UNL     1      -7.878  34.011  23.945  1.00  0.00     0.136 C 
ATOM      2  O   UNL     1      -7.960  34.777  22.995  1.00  0.00    -0.299 OA
ENDROOT
BRANCH   1   3
ATOM      3  C   UNL     1      -7.999  34.541  25.359  1.00  0.00     0.053 C 
ATOM      4  C   UNL     1      -8.825  35.831  25.343  1.00  0.00     0.016 C 
BRANCH   3   5
ATOM      5  C   UNL     1      -8.628  33.517  26.334  1.00  0.00     0.015 C 
BRANCH   5   6
ATOM      6  C   UNL     1      -7.604  32.574  26.991  1.00  0.00     0.028 C 
BRANCH   6   7
ATOM      7  C   UNL     1      -8.237  31.258  27.380  1.00  0.00    -0.028 C 
ATOM      8  C   UNL     1      -8.354  30.177  26.576  1.00  0.00    -0.070 CG0
ATOM      9  C   UNL     1      -9.041  28.954  27.131  1.00  0.00     0.039 C 
ATOM     10  G   UNL     1      -7.822  30.141  25.158  1.00  0.00     0.000 G0
ENDBRANCH   6   7
ENDBRANCH   5   6
ENDBRANCH   3   5
ENDBRANCH   1   3
BRANCH   1  11
ATOM     11  C   UNL     1      -7.573  32.554  23.692  1.00  0.00     0.087 C 
BRANCH  11  12
ATOM     12  C   UNL     1      -8.836  31.740  23.315  1.00  0.00     0.066 C 
BRANCH  12  13
ATOM     13  C   UNL     1      -8.868  30.451  24.123  1.00  0.00     0.140 C 
ATOM     14  O   UNL     1      -9.798  29.671  23.974  1.00  0.00    -0.299 OA
BRANCH  13  15
ATOM     15  C   UNL     1      -7.814  30.143  25.158  1.00  0.00     0.106 CG0
ATOM     16  G   UNL     1      -8.362  30.190  26.570  1.00  0.00     0.000 G0
ENDBRANCH  13  15
ENDBRANCH  12  13
BRANCH  12  17
ATOM     17  C   UNL     1      -8.899  31.425  21.786  1.00  0.00    -0.006 C 
ATOM     18  C   UNL     1      -7.509  31.459  21.126  1.00  0.00     0.008 C 
ATOM     19  C   UNL     1      -9.821  32.416  21.049  1.00  0.00     0.008 C 
ENDBRANCH  12  17
ENDBRANCH  11  12
ENDBRANCH   1  11
TORSDOF 1
ENDMDL
MODEL 7
REMARK VINA RESULT:    -4.212      2.193      3.711
REMARK INTER + INTRA:          -6.614
REMARK INTER:                  -7.058
REMARK INTRA:                   0.443
REMARK UNBOUND:                -0.186
REMARK SMILES CC1=CCC[C@H](C)C(=O)C[C@@H](C(C)C)C(=O)C1
REMARK SMILES IDX 8 1 9 2 6 3 7 4 5 5 4 6 3 7 2 8 1 9 10 11 11 12 15 13 16 14
REMARK SMILES IDX 17 15 12 17 13 18 14 19
REMARK H PARENT
REMARK Flexibility Score: 70.00
ROOT
ATOM      1  C   UNL     1      -9.609  30.035  25.111  1.00  0.00     0.136 C 
ATOM      2  O   UNL     1      -9.882  28.904  24.736  1.00  0.00    -0.299 OA
ENDROOT
BRANCH   1   3
ATOM      3  C   UNL     1      -9.074  30.262  26.510  1.00  0.00     0.053 C 
ATOM      4  C   UNL     1      -7.567  29.985  26.522  1.00  0.00     0.016 C 
BRANCH   3   5
ATOM      5  C   UNL     1      -9.359  31.687  27.040  1.00  0.00     0.015 C 
BRANCH   5   6
ATOM      6  C   UNL     1      -8.170  32.653  26.897  1.00  0.00     0.028 C 
BRANCH   6   7
ATOM      7  C   UNL     1      -8.622  34.021  26.438  1.00  0.00    -0.028 C 
ATOM      8  C   UNL     1      -8.367  34.565  25.227  1.00  0.00    -0.070 CG0
ATOM      9  C   UNL     1      -8.880  35.958  24.955  1.00  0.00     0.039 C 
ATOM     10  G   UNL     1      -7.603  33.839  24.139  1.00  0.00     0.000 G0
ENDBRANCH   6   7
ENDBRANCH   5   6
ENDBRANCH   3   5
ENDBRANCH   1   3
BRANCH   1  11
ATOM     11  C   UNL     1      -9.892  31.203  24.196  1.00  0.00     0.087 C 
BRANCH  11  12
ATOM     12  C   UNL     1      -8.686  31.550  23.288  1.00  0.00     0.066 C 
BRANCH  12  13
ATOM     13  C   UNL     1      -8.540  33.062  23.194  1.00  0.00     0.140 C 
ATOM     14  O   UNL     1      -9.138  33.670  22.317  1.00  0.00    -0.299 OA
BRANCH  13  15
ATOM     15  C   UNL     1      -7.619  33.824  24.115  1.00  0.00     0.106 CG0
ATOM     16  G   UNL     1      -8.373  34.576  25.192  1.00  0.00     0.000 G0
ENDBRANCH  13  15
ENDBRANCH  12  13
BRANCH  12  17
ATOM     17  C   UNL     1      -8.823  30.928  21.862  1.00  0.00    -0.006 C 
ATOM     18  C   UNL     1      -8.678  29.395  21.878  1.00  0.00     0.008 C 
ATOM     19  C   UNL     1      -7.778  31.513  20.893  1.00  0.00     0.008 C 
ENDBRANCH  12  17
ENDBRANCH  11  12
ENDBRANCH   1  11
TORSDOF 1
ENDMDL
MODEL 8
REMARK VINA RESULT:    -3.777      2.159      4.395
REMARK INTER + INTRA:          -5.951
REMARK INTER:                  -6.101
REMARK INTRA:                   0.150
REMARK UNBOUND:                -0.186
REMARK SMILES CC1=CCC[C@H](C)C(=O)C[C@@H](C(C)C)C(=O)C1
REMARK SMILES IDX 8 1 9 2 6 3 7 4 5 5 4 6 3 7 2 8 1 9 10 11 11 12 15 13 16 14
REMARK SMILES IDX 17 15 12 17 13 18 14 19
REMARK H PARENT
REMARK Flexibility Score: 70.00
ROOT
ATOM      1  C   UNL     1      -8.850  31.711  26.911  1.00  0.00     0.136 C 
ATOM      2  O   UNL     1      -9.856  32.250  27.350  1.00  0.00    -0.299 OA
ENDROOT
BRANCH   1   3
ATOM      3  C   UNL     1      -8.430  30.350  27.430  1.00  0.00     0.053 C 
ATOM      4  C   UNL     1      -9.376  29.930  28.559  1.00  0.00     0.016 C 
BRANCH   3   5
ATOM      5  C   UNL     1      -8.404  29.267  26.325  1.00  0.00     0.015 C 
BRANCH   5   6
ATOM      6  C   UNL     1      -9.463  29.472  25.227  1.00  0.00     0.028 C 
BRANCH   6   7
ATOM      7  C   UNL     1      -8.829  29.550  23.857  1.00  0.00    -0.028 C 
ATOM      8  C   UNL     1      -8.969  30.574  22.986  1.00  0.00    -0.070 CG0
ATOM      9  C   UNL     1      -8.279  30.464  21.648  1.00  0.00     0.039 C 
ATOM     10  G   UNL     1      -9.773  31.819  23.297  1.00  0.00     0.000 G0
ENDBRANCH   6   7
ENDBRANCH   5   6
ENDBRANCH   3   5
ENDBRANCH   1   3
BRANCH   1  11
ATOM     11  C   UNL     1      -7.992  32.453  25.914  1.00  0.00     0.087 C 
BRANCH  11  12
ATOM     12  C   UNL     1      -8.801  33.483  25.087  1.00  0.00     0.066 C 
BRANCH  12  13
ATOM     13  C   UNL     1      -8.909  33.005  23.647  1.00  0.00     0.140 C 
ATOM     14  O   UNL     1      -8.324  33.617  22.764  1.00  0.00    -0.299 OA
BRANCH  13  15
ATOM     15  C   UNL     1      -9.782  31.833  23.268  1.00  0.00     0.106 CG0
ATOM     16  G   UNL     1      -8.976  30.580  22.993  1.00  0.00     0.000 G0
ENDBRANCH  13  15
ENDBRANCH  12  13
BRANCH  12  17
ATOM     17  C   UNL     1      -8.166  34.910  25.140  1.00  0.00    -0.006 C 
ATOM     18  C   UNL     1      -7.625  35.255  26.539  1.00  0.00     0.008 C 
ATOM     19  C   UNL     1      -9.182  35.990  24.722  1.00  0.00     0.008 C 
ENDBRANCH  12  17
ENDBRANCH  11  12
ENDBRANCH   1  11
TORSDOF 1
ENDMDL
MODEL 9
REMARK VINA RESULT:    -3.607     17.225     18.817
REMARK INTER + INTRA:          -5.692
REMARK INTER:                  -5.972
REMARK INTRA:                   0.280
REMARK UNBOUND:                -0.186
REMARK SMILES CC1=CCC[C@H](C)C(=O)C[C@@H](C(C)C)C(=O)C1
REMARK SMILES IDX 8 1 9 2 6 3 7 4 5 5 4 6 3 7 2 8 1 9 10 11 11 12 15 13 16 14
REMARK SMILES IDX 17 15 12 17 13 18 14 19
REMARK H PARENT
REMARK Flexibility Score: 70.00
ROOT
ATOM      1  C   UNL     1      -1.496  47.825  17.621  1.00  0.00     0.136 C 
ATOM      2  O   UNL     1      -2.647  47.412  17.622  1.00  0.00    -0.299 OA
ENDROOT
BRANCH   1   3
ATOM      3  C   UNL     1      -0.762  48.026  18.931  1.00  0.00     0.053 C 
ATOM      4  C   UNL     1      -1.580  47.404  20.067  1.00  0.00     0.016 C 
BRANCH   3   5
ATOM      5  C   UNL     1       0.668  47.434  18.918  1.00  0.00     0.015 C 
BRANCH   5   6
ATOM      6  C   UNL     1       1.769  48.473  18.637  1.00  0.00     0.028 C 
BRANCH   6   7
ATOM      7  C   UNL     1       2.946  47.849  17.922  1.00  0.00    -0.028 C 
ATOM      8  C   UNL     1       3.022  47.617  16.593  1.00  0.00    -0.070 CG0
ATOM      9  C   UNL     1       4.271  46.960  16.059  1.00  0.00     0.039 C 
ATOM     10  G   UNL     1       1.920  47.994  15.624  1.00  0.00     0.000 G0
ENDBRANCH   6   7
ENDBRANCH   5   6
ENDBRANCH   3   5
ENDBRANCH   1   3
BRANCH   1  11
ATOM     11  C   UNL     1      -0.851  48.209  16.310  1.00  0.00     0.087 C 
BRANCH  11  12
ATOM     12  C   UNL     1      -0.519  46.978  15.430  1.00  0.00     0.066 C 
BRANCH  12  13
ATOM     13  C   UNL     1       0.991  46.836  15.306  1.00  0.00     0.140 C 
ATOM     14  O   UNL     1       1.470  45.749  15.015  1.00  0.00    -0.299 OA
BRANCH  13  15
ATOM     15  C   UNL     1       1.918  47.988  15.605  1.00  0.00     0.106 CG0
ATOM     16  G   UNL     1       3.002  47.614  16.595  1.00  0.00     0.000 G0
ENDBRANCH  13  15
ENDBRANCH  12  13
BRANCH  12  17
ATOM     17  C   UNL     1      -1.174  47.071  14.015  1.00  0.00    -0.006 C 
ATOM     18  C   UNL     1      -2.468  47.904  14.026  1.00  0.00     0.008 C 
ATOM     19  C   UNL     1      -1.491  45.672  13.452  1.00  0.00     0.008 C 
ENDBRANCH  12  17
ENDBRANCH  11  12
ENDBRANCH   1  11
TORSDOF 1
ENDMDL
