MODEL 1
REMARK VINA RESULT:    -3.400      0.000      0.000
REMARK INTER + INTRA:          -3.745
REMARK INTER:                  -3.699
REMARK INTRA:                  -0.046
REMARK UNBOUND:                -0.046
REMARK SMILES COc1ccccc1O
REMARK SMILES IDX 3 1 4 2 5 3 6 4 7 5 8 6 2 7 1 8 9 9
REMARK H PARENT 9 10
REMARK Flexibility Score: inf
ROOT
ATOM      1  C   UNL     1       6.685  38.849   8.678  1.00  0.00     0.160 A 
ATOM      2  C   UNL     1       6.232  39.871   7.820  1.00  0.00     0.050 A 
ATOM      3  C   UNL     1       5.071  39.694   7.062  1.00  0.00     0.004 A 
ATOM      4  C   UNL     1       4.352  38.501   7.151  1.00  0.00     0.004 A 
ATOM      5  C   UNL     1       4.791  37.482   7.998  1.00  0.00     0.050 A 
ATOM      6  C   UNL     1       5.952  37.649   8.762  1.00  0.00     0.157 A 
ENDROOT
BRANCH   1   7
ATOM      7  O   UNL     1       7.846  38.991   9.455  1.00  0.00    -0.493 OA
ATOM      8  C   UNL     1       7.924  39.747  10.659  1.00  0.00     0.278 C 
ENDBRANCH   1   7
BRANCH   6   9
ATOM      9  O   UNL     1       6.363  36.611   9.598  1.00  0.00    -0.504 OA
ATOM     10  H   UNL     1       7.258  36.150   9.487  1.00  0.00     0.293 HD
ENDBRANCH   6   9
TORSDOF 2
ENDMDL
MODEL 2
REMARK VINA RESULT:    -3.339      5.705      6.817
REMARK INTER + INTRA:          -3.677
REMARK INTER:                  -3.652
REMARK INTRA:                  -0.025
REMARK UNBOUND:                -0.046
REMARK SMILES COc1ccccc1O
REMARK SMILES IDX 3 1 4 2 5 3 6 4 7 5 8 6 2 7 1 8 9 9
REMARK H PARENT 9 10
REMARK Flexibility Score: inf
ROOT
ATOM      1  C   UNL     1       0.385  37.543   6.511  1.00  0.00     0.160 A 
ATOM      2  C   UNL     1       1.473  37.062   5.754  1.00  0.00     0.050 A 
ATOM      3  C   UNL     1       1.500  35.733   5.323  1.00  0.00     0.004 A 
ATOM      4  C   UNL     1       0.447  34.873   5.638  1.00  0.00     0.004 A 
ATOM      5  C   UNL     1      -0.635  35.339   6.387  1.00  0.00     0.050 A 
ATOM      6  C   UNL     1      -0.673  36.668   6.824  1.00  0.00     0.157 A 
ENDROOT
BRANCH   1   7
ATOM      7  O   UNL     1       0.324  38.872   6.962  1.00  0.00    -0.493 OA
ATOM      8  C   UNL     1       1.405  39.796   6.900  1.00  0.00     0.278 C 
ENDBRANCH   1   7
BRANCH   6   9
ATOM      9  O   UNL     1      -1.769  37.101   7.570  1.00  0.00    -0.504 OA
ATOM     10  H   UNL     1      -1.843  36.937   8.567  1.00  0.00     0.293 HD
ENDBRANCH   6   9
TORSDOF 2
ENDMDL
MODEL 3
REMARK VINA RESULT:    -3.325      5.601      7.324
REMARK INTER + INTRA:          -3.663
REMARK INTER:                  -3.622
REMARK INTRA:                  -0.041
REMARK UNBOUND:                -0.046
REMARK SMILES COc1ccccc1O
REMARK SMILES IDX 3 1 4 2 5 3 6 4 7 5 8 6 2 7 1 8 9 9
REMARK H PARENT 9 10
REMARK Flexibility Score: inf
ROOT
ATOM      1  C   UNL     1      -0.112  36.554   6.107  1.00  0.00     0.160 A 
ATOM      2  C   UNL     1       0.818  35.800   5.363  1.00  0.00     0.050 A 
ATOM      3  C   UNL     1       2.160  36.188   5.309  1.00  0.00     0.004 A 
ATOM      4  C   UNL     1       2.587  37.327   5.992  1.00  0.00     0.004 A 
ATOM      5  C   UNL     1       1.675  38.082   6.732  1.00  0.00     0.050 A 
ATOM      6  C   UNL     1       0.329  37.703   6.794  1.00  0.00     0.157 A 
ENDROOT
BRANCH   1   7
ATOM      7  O   UNL     1      -1.468  36.195   6.185  1.00  0.00    -0.493 OA
ATOM      8  C   UNL     1      -1.952  35.000   6.787  1.00  0.00     0.278 C 
ENDBRANCH   1   7
BRANCH   6   9
ATOM      9  O   UNL     1      -0.556  38.479   7.542  1.00  0.00    -0.504 OA
ATOM     10  H   UNL     1      -0.349  39.436   7.800  1.00  0.00     0.293 HD
ENDBRANCH   6   9
TORSDOF 2
ENDMDL
MODEL 4
REMARK VINA RESULT:    -3.287      5.911      7.132
REMARK INTER + INTRA:          -3.622
REMARK INTER:                  -3.578
REMARK INTRA:                  -0.044
REMARK UNBOUND:                -0.046
REMARK SMILES COc1ccccc1O
REMARK SMILES IDX 3 1 4 2 5 3 6 4 7 5 8 6 2 7 1 8 9 9
REMARK H PARENT 9 10
REMARK Flexibility Score: inf
ROOT
ATOM      1  C   UNL     1      -0.134  36.536   6.228  1.00  0.00     0.160 A 
ATOM      2  C   UNL     1       0.161  37.887   6.502  1.00  0.00     0.050 A 
ATOM      3  C   UNL     1       1.424  38.407   6.208  1.00  0.00     0.004 A 
ATOM      4  C   UNL     1       2.404  37.590   5.640  1.00  0.00     0.004 A 
ATOM      5  C   UNL     1       2.122  36.251   5.365  1.00  0.00     0.050 A 
ATOM      6  C   UNL     1       0.860  35.719   5.654  1.00  0.00     0.157 A 
ENDROOT
BRANCH   1   7
ATOM      7  O   UNL     1      -1.392  35.978   6.509  1.00  0.00    -0.493 OA
ATOM      8  C   UNL     1      -1.774  35.445   7.773  1.00  0.00     0.278 C 
ENDBRANCH   1   7
BRANCH   6   9
ATOM      9  O   UNL     1       0.612  34.377   5.366  1.00  0.00    -0.504 OA
ATOM     10  H   UNL     1       0.873  33.631   6.001  1.00  0.00     0.293 HD
ENDBRANCH   6   9
TORSDOF 2
ENDMDL
MODEL 5
REMARK VINA RESULT:    -3.277      6.804      7.820
REMARK INTER + INTRA:          -3.610
REMARK INTER:                  -3.582
REMARK INTRA:                  -0.029
REMARK UNBOUND:                -0.046
REMARK SMILES COc1ccccc1O
REMARK SMILES IDX 3 1 4 2 5 3 6 4 7 5 8 6 2 7 1 8 9 9
REMARK H PARENT 9 10
REMARK Flexibility Score: inf
ROOT
ATOM      1  C   UNL     1      -0.887  36.622   6.821  1.00  0.00     0.160 A 
ATOM      2  C   UNL     1       0.154  37.513   6.490  1.00  0.00     0.050 A 
ATOM      3  C   UNL     1       1.284  37.057   5.806  1.00  0.00     0.004 A 
ATOM      4  C   UNL     1       1.389  35.712   5.446  1.00  0.00     0.004 A 
ATOM      5  C   UNL     1       0.365  34.820   5.769  1.00  0.00     0.050 A 
ATOM      6  C   UNL     1      -0.772  35.267   6.453  1.00  0.00     0.157 A 
ENDROOT
BRANCH   1   7
ATOM      7  O   UNL     1      -2.037  37.044   7.507  1.00  0.00    -0.493 OA
ATOM      8  C   UNL     1      -2.672  38.304   7.318  1.00  0.00     0.278 C 
ENDBRANCH   1   7
BRANCH   6   9
ATOM      9  O   UNL     1      -1.776  34.349   6.760  1.00  0.00    -0.504 OA
ATOM     10  H   UNL     1      -1.819  33.431   6.334  1.00  0.00     0.293 HD
ENDBRANCH   6   9
TORSDOF 2
ENDMDL
MODEL 6
REMARK VINA RESULT:    -3.269      2.638      4.373
REMARK INTER + INTRA:          -3.602
REMARK INTER:                  -3.556
REMARK INTRA:                  -0.046
REMARK UNBOUND:                -0.046
REMARK SMILES COc1ccccc1O
REMARK SMILES IDX 3 1 4 2 5 3 6 4 7 5 8 6 2 7 1 8 9 9
REMARK H PARENT 9 10
REMARK Flexibility Score: inf
ROOT
ATOM      1  C   UNL     1       4.282  38.286   7.040  1.00  0.00     0.160 A 
ATOM      2  C   UNL     1       4.633  37.508   8.162  1.00  0.00     0.050 A 
ATOM      3  C   UNL     1       5.935  37.547   8.669  1.00  0.00     0.004 A 
ATOM      4  C   UNL     1       6.898  38.358   8.065  1.00  0.00     0.004 A 
ATOM      5  C   UNL     1       6.561  39.132   6.953  1.00  0.00     0.050 A 
ATOM      6  C   UNL     1       5.260  39.101   6.437  1.00  0.00     0.157 A 
ENDROOT
BRANCH   1   7
ATOM      7  O   UNL     1       2.984  38.272   6.503  1.00  0.00    -0.493 OA
ATOM      8  C   UNL     1       2.485  37.270   5.624  1.00  0.00     0.278 C 
ENDBRANCH   1   7
BRANCH   6   9
ATOM      9  O   UNL     1       4.957  39.886   5.325  1.00  0.00    -0.504 OA
ATOM     10  H   UNL     1       4.189  40.547   5.323  1.00  0.00     0.293 HD
ENDBRANCH   6   9
TORSDOF 2
ENDMDL
MODEL 7
REMARK VINA RESULT:    -3.196      5.592      6.567
REMARK INTER + INTRA:          -3.522
REMARK INTER:                  -3.480
REMARK INTRA:                  -0.042
REMARK UNBOUND:                -0.046
REMARK SMILES COc1ccccc1O
REMARK SMILES IDX 3 1 4 2 5 3 6 4 7 5 8 6 2 7 1 8 9 9
REMARK H PARENT 9 10
REMARK Flexibility Score: inf
ROOT
ATOM      1  C   UNL     1       0.628  37.534   6.076  1.00  0.00     0.160 A 
ATOM      2  C   UNL     1      -0.558  36.827   6.362  1.00  0.00     0.050 A 
ATOM      3  C   UNL     1      -0.617  35.443   6.178  1.00  0.00     0.004 A 
ATOM      4  C   UNL     1       0.501  34.750   5.709  1.00  0.00     0.004 A 
ATOM      5  C   UNL     1       1.680  35.440   5.423  1.00  0.00     0.050 A 
ATOM      6  C   UNL     1       1.751  36.826   5.603  1.00  0.00     0.157 A 
ENDROOT
BRANCH   1   7
ATOM      7  O   UNL     1       0.724  38.924   6.248  1.00  0.00    -0.493 OA
ATOM      8  C   UNL     1       0.664  39.587   7.507  1.00  0.00     0.278 C 
ENDBRANCH   1   7
BRANCH   6   9
ATOM      9  O   UNL     1       2.944  37.485   5.307  1.00  0.00    -0.504 OA
ATOM     10  H   UNL     1       2.964  38.424   4.928  1.00  0.00     0.293 HD
ENDBRANCH   6   9
TORSDOF 2
ENDMDL
MODEL 8
REMARK VINA RESULT:    -3.122      2.662      3.653
REMARK INTER + INTRA:          -3.441
REMARK INTER:                  -3.396
REMARK INTRA:                  -0.045
REMARK UNBOUND:                -0.046
REMARK SMILES COc1ccccc1O
REMARK SMILES IDX 3 1 4 2 5 3 6 4 7 5 8 6 2 7 1 8 9 9
REMARK H PARENT 9 10
REMARK Flexibility Score: inf
ROOT
ATOM      1  C   UNL     1       4.958  39.066   6.524  1.00  0.00     0.160 A 
ATOM      2  C   UNL     1       6.337  39.191   6.788  1.00  0.00     0.050 A 
ATOM      3  C   UNL     1       6.926  38.465   7.827  1.00  0.00     0.004 A 
ATOM      4  C   UNL     1       6.151  37.611   8.612  1.00  0.00     0.004 A 
ATOM      5  C   UNL     1       4.784  37.479   8.360  1.00  0.00     0.050 A 
ATOM      6  C   UNL     1       4.183  38.201   7.322  1.00  0.00     0.157 A 
ENDROOT
BRANCH   1   7
ATOM      7  O   UNL     1       4.331  39.779   5.489  1.00  0.00    -0.493 OA
ATOM      8  C   UNL     1       3.863  41.119   5.601  1.00  0.00     0.278 C 
ENDBRANCH   1   7
BRANCH   6   9
ATOM      9  O   UNL     1       2.815  38.046   7.098  1.00  0.00    -0.504 OA
ATOM     10  H   UNL     1       2.210  37.572   7.757  1.00  0.00     0.293 HD
ENDBRANCH   6   9
TORSDOF 2
ENDMDL
MODEL 9
REMARK VINA RESULT:    -3.065      5.847      7.040
REMARK INTER + INTRA:          -3.380
REMARK INTER:                  -3.345
REMARK INTRA:                  -0.035
REMARK UNBOUND:                -0.046
REMARK SMILES COc1ccccc1O
REMARK SMILES IDX 3 1 4 2 5 3 6 4 7 5 8 6 2 7 1 8 9 9
REMARK H PARENT 9 10
REMARK Flexibility Score: inf
ROOT
ATOM      1  C   UNL     1       0.858  36.654   5.789  1.00  0.00     0.160 A 
ATOM      2  C   UNL     1       0.245  37.848   6.219  1.00  0.00     0.050 A 
ATOM      3  C   UNL     1      -1.082  37.842   6.657  1.00  0.00     0.004 A 
ATOM      4  C   UNL     1      -1.810  36.651   6.672  1.00  0.00     0.004 A 
ATOM      5  C   UNL     1      -1.212  35.463   6.248  1.00  0.00     0.050 A 
ATOM      6  C   UNL     1       0.116  35.457   5.807  1.00  0.00     0.157 A 
ENDROOT
BRANCH   1   7
ATOM      7  O   UNL     1       2.189  36.621   5.342  1.00  0.00    -0.493 OA
ATOM      8  C   UNL     1       2.717  37.458   4.318  1.00  0.00     0.278 C 
ENDBRANCH   1   7
BRANCH   6   9
ATOM      9  O   UNL     1       0.682  34.252   5.390  1.00  0.00    -0.504 OA
ATOM     10  H   UNL     1       1.592  33.943   5.711  1.00  0.00     0.293 HD
ENDBRANCH   6   9
TORSDOF 2
ENDMDL
