MODEL 1
REMARK VINA RESULT:    -3.882      0.000      0.000
REMARK INTER + INTRA:          -4.620
REMARK INTER:                  -4.563
REMARK INTRA:                  -0.057
REMARK UNBOUND:                -0.057
REMARK SMILES CCCCC(=O)[O-]
REMARK SMILES IDX 4 1 5 2 6 3 7 4 3 5 2 6 1 7
REMARK H PARENT
REMARK Flexibility Score: inf
ROOT
ATOM      1  C   UNL     1      25.518  -3.592  61.261  1.00  0.00     0.053 C 
ENDROOT
BRANCH   1   2
ATOM      2  C   UNL     1      24.708  -3.704  60.009  1.00  0.00     0.041 C 
ATOM      3  O   UNL     1      25.228  -3.448  58.892  1.00  0.00    -0.550 OA
ATOM      4  O   UNL     1      23.363  -4.045  60.080  1.00  0.00    -0.550 OA
ENDBRANCH   1   2
BRANCH   1   5
ATOM      5  C   UNL     1      25.163  -2.308  62.017  1.00  0.00     0.006 C 
BRANCH   5   6
ATOM      6  C   UNL     1      25.969  -1.116  61.485  1.00  0.00    -0.003 C 
ATOM      7  C   UNL     1      25.603   0.169  62.221  1.00  0.00     0.004 C 
ENDBRANCH   5   6
ENDBRANCH   1   5
TORSDOF 3
ENDMDL
MODEL 2
REMARK VINA RESULT:    -3.846      5.494      6.890
REMARK INTER + INTRA:          -4.578
REMARK INTER:                  -4.523
REMARK INTRA:                  -0.055
REMARK UNBOUND:                -0.057
REMARK SMILES CCCCC(=O)[O-]
REMARK SMILES IDX 4 1 5 2 6 3 7 4 3 5 2 6 1 7
REMARK H PARENT
REMARK Flexibility Score: inf
ROOT
ATOM      1  C   UNL     1      25.570   3.607  63.120  1.00  0.00     0.053 C 
ENDROOT
BRANCH   1   2
ATOM      2  C   UNL     1      24.740   3.709  64.360  1.00  0.00     0.041 C 
ATOM      3  O   UNL     1      25.214   3.356  65.471  1.00  0.00    -0.550 OA
ATOM      4  O   UNL     1      23.424   4.148  64.282  1.00  0.00    -0.550 OA
ENDBRANCH   1   2
BRANCH   1   5
ATOM      5  C   UNL     1      25.191   2.357  62.322  1.00  0.00     0.006 C 
BRANCH   5   6
ATOM      6  C   UNL     1      25.992   1.138  62.797  1.00  0.00    -0.003 C 
ATOM      7  C   UNL     1      25.532  -0.134  62.091  1.00  0.00     0.004 C 
ENDBRANCH   5   6
ENDBRANCH   1   5
TORSDOF 3
ENDMDL
MODEL 3
REMARK VINA RESULT:    -3.769      1.250      1.634
REMARK INTER + INTRA:          -4.487
REMARK INTER:                  -4.378
REMARK INTRA:                  -0.109
REMARK UNBOUND:                -0.057
REMARK SMILES CCCCC(=O)[O-]
REMARK SMILES IDX 4 1 5 2 6 3 7 4 3 5 2 6 1 7
REMARK H PARENT
REMARK Flexibility Score: inf
ROOT
ATOM      1  C   UNL     1      23.732  -3.777  60.391  1.00  0.00     0.053 C 
ENDROOT
BRANCH   1   2
ATOM      2  C   UNL     1      23.967  -3.178  59.041  1.00  0.00     0.041 C 
ATOM      3  O   UNL     1      25.131  -3.128  58.563  1.00  0.00    -0.550 OA
ATOM      4  O   UNL     1      22.907  -2.630  58.329  1.00  0.00    -0.550 OA
ENDBRANCH   1   2
BRANCH   1   5
ATOM      5  C   UNL     1      23.755  -2.691  61.471  1.00  0.00     0.006 C 
BRANCH   5   6
ATOM      6  C   UNL     1      25.163  -2.526  62.054  1.00  0.00    -0.003 C 
ATOM      7  C   UNL     1      25.748  -1.161  61.704  1.00  0.00     0.004 C 
ENDBRANCH   5   6
ENDBRANCH   1   5
TORSDOF 3
ENDMDL
MODEL 4
REMARK VINA RESULT:    -3.762      5.334      6.822
REMARK INTER + INTRA:          -4.479
REMARK INTER:                  -4.405
REMARK INTRA:                  -0.074
REMARK UNBOUND:                -0.057
REMARK SMILES CCCCC(=O)[O-]
REMARK SMILES IDX 4 1 5 2 6 3 7 4 3 5 2 6 1 7
REMARK H PARENT
REMARK Flexibility Score: inf
ROOT
ATOM      1  C   UNL     1      25.200   3.754  63.043  1.00  0.00     0.053 C 
ENDROOT
BRANCH   1   2
ATOM      2  C   UNL     1      24.126   3.638  64.077  1.00  0.00     0.041 C 
ATOM      3  O   UNL     1      22.919   3.799  63.760  1.00  0.00    -0.550 OA
ATOM      4  O   UNL     1      24.462   3.400  65.405  1.00  0.00    -0.550 OA
ENDBRANCH   1   2
BRANCH   1   5
ATOM      5  C   UNL     1      25.219   2.512  62.148  1.00  0.00     0.006 C 
BRANCH   5   6
ATOM      6  C   UNL     1      25.896   1.333  62.858  1.00  0.00    -0.003 C 
ATOM      7  C   UNL     1      25.597   0.016  62.147  1.00  0.00     0.004 C 
ENDBRANCH   5   6
ENDBRANCH   1   5
TORSDOF 3
ENDMDL
MODEL 5
REMARK VINA RESULT:    -3.749      5.349      6.023
REMARK INTER + INTRA:          -4.463
REMARK INTER:                  -4.371
REMARK INTRA:                  -0.092
REMARK UNBOUND:                -0.057
REMARK SMILES CCCCC(=O)[O-]
REMARK SMILES IDX 4 1 5 2 6 3 7 4 3 5 2 6 1 7
REMARK H PARENT
REMARK Flexibility Score: inf
ROOT
ATOM      1  C   UNL     1      25.390   3.044  62.288  1.00  0.00     0.053 C 
ENDROOT
BRANCH   1   2
ATOM      2  C   UNL     1      23.961   2.987  61.851  1.00  0.00     0.041 C 
ATOM      3  O   UNL     1      23.540   3.764  60.955  1.00  0.00    -0.550 OA
ATOM      4  O   UNL     1      23.079   2.108  62.468  1.00  0.00    -0.550 OA
ENDBRANCH   1   2
BRANCH   1   5
ATOM      5  C   UNL     1      25.736   1.827  63.151  1.00  0.00     0.006 C 
BRANCH   5   6
ATOM      6  C   UNL     1      26.281   2.260  64.518  1.00  0.00    -0.003 C 
ATOM      7  C   UNL     1      25.243   3.063  65.295  1.00  0.00     0.004 C 
ENDBRANCH   5   6
ENDBRANCH   1   5
TORSDOF 3
ENDMDL
MODEL 6
REMARK VINA RESULT:    -3.745      2.056      2.987
REMARK INTER + INTRA:          -4.459
REMARK INTER:                  -4.369
REMARK INTRA:                  -0.090
REMARK UNBOUND:                -0.057
REMARK SMILES CCCCC(=O)[O-]
REMARK SMILES IDX 4 1 5 2 6 3 7 4 3 5 2 6 1 7
REMARK H PARENT
REMARK Flexibility Score: inf
ROOT
ATOM      1  C   UNL     1      25.412  -2.977  62.008  1.00  0.00     0.053 C 
ENDROOT
BRANCH   1   2
ATOM      2  C   UNL     1      23.964  -2.934  62.380  1.00  0.00     0.041 C 
ATOM      3  O   UNL     1      23.519  -3.685  63.287  1.00  0.00    -0.550 OA
ATOM      4  O   UNL     1      23.093  -2.100  61.689  1.00  0.00    -0.550 OA
ENDBRANCH   1   2
BRANCH   1   5
ATOM      5  C   UNL     1      25.780  -1.766  61.146  1.00  0.00     0.006 C 
BRANCH   5   6
ATOM      6  C   UNL     1      26.344  -2.209  59.790  1.00  0.00    -0.003 C 
ATOM      7  C   UNL     1      25.291  -2.946  58.969  1.00  0.00     0.004 C 
ENDBRANCH   5   6
ENDBRANCH   1   5
TORSDOF 3
ENDMDL
MODEL 7
REMARK VINA RESULT:    -3.735      1.701      2.705
REMARK INTER + INTRA:          -4.447
REMARK INTER:                  -4.351
REMARK INTRA:                  -0.096
REMARK UNBOUND:                -0.057
REMARK SMILES CCCCC(=O)[O-]
REMARK SMILES IDX 4 1 5 2 6 3 7 4 3 5 2 6 1 7
REMARK H PARENT
REMARK Flexibility Score: inf
ROOT
ATOM      1  C   UNL     1      25.775  -1.844  61.084  1.00  0.00     0.053 C 
ENDROOT
BRANCH   1   2
ATOM      2  C   UNL     1      26.236  -2.223  59.713  1.00  0.00     0.041 C 
ATOM      3  O   UNL     1      27.386  -1.901  59.318  1.00  0.00    -0.550 OA
ATOM      4  O   UNL     1      25.375  -2.891  58.850  1.00  0.00    -0.550 OA
ENDBRANCH   1   2
BRANCH   1   5
ATOM      5  C   UNL     1      25.477  -3.096  61.915  1.00  0.00     0.006 C 
BRANCH   5   6
ATOM      6  C   UNL     1      24.048  -3.058  62.472  1.00  0.00    -0.003 C 
ATOM      7  C   UNL     1      23.028  -3.416  61.395  1.00  0.00     0.004 C 
ENDBRANCH   5   6
ENDBRANCH   1   5
TORSDOF 3
ENDMDL
MODEL 8
REMARK VINA RESULT:    -3.726      6.044      6.665
REMARK INTER + INTRA:          -4.436
REMARK INTER:                  -4.337
REMARK INTRA:                  -0.099
REMARK UNBOUND:                -0.057
REMARK SMILES CCCCC(=O)[O-]
REMARK SMILES IDX 4 1 5 2 6 3 7 4 3 5 2 6 1 7
REMARK H PARENT
REMARK Flexibility Score: inf
ROOT
ATOM      1  C   UNL     1      25.816   1.842  63.180  1.00  0.00     0.053 C 
ENDROOT
BRANCH   1   2
ATOM      2  C   UNL     1      26.251   2.230  64.557  1.00  0.00     0.041 C 
ATOM      3  O   UNL     1      27.392   1.905  64.977  1.00  0.00    -0.550 OA
ATOM      4  O   UNL     1      25.377   2.909  65.397  1.00  0.00    -0.550 OA
ENDBRANCH   1   2
BRANCH   1   5
ATOM      5  C   UNL     1      25.489   3.086  62.350  1.00  0.00     0.006 C 
BRANCH   5   6
ATOM      6  C   UNL     1      24.057   3.021  61.804  1.00  0.00    -0.003 C 
ATOM      7  C   UNL     1      23.050   3.518  62.837  1.00  0.00     0.004 C 
ENDBRANCH   5   6
ENDBRANCH   1   5
TORSDOF 3
ENDMDL
MODEL 9
REMARK VINA RESULT:    -3.686      4.830      6.104
REMARK INTER + INTRA:          -4.389
REMARK INTER:                  -4.289
REMARK INTRA:                  -0.100
REMARK UNBOUND:                -0.057
REMARK SMILES CCCCC(=O)[O-]
REMARK SMILES IDX 4 1 5 2 6 3 7 4 3 5 2 6 1 7
REMARK H PARENT
REMARK Flexibility Score: inf
ROOT
ATOM      1  C   UNL     1      26.120   2.126  64.303  1.00  0.00     0.053 C 
ENDROOT
BRANCH   1   2
ATOM      2  C   UNL     1      25.825   1.783  62.878  1.00  0.00     0.041 C 
ATOM      3  O   UNL     1      25.463   2.678  62.071  1.00  0.00    -0.550 OA
ATOM      4  O   UNL     1      25.902   0.463  62.450  1.00  0.00    -0.550 OA
ENDBRANCH   1   2
BRANCH   1   5
ATOM      5  C   UNL     1      25.387   3.408  64.709  1.00  0.00     0.006 C 
BRANCH   5   6
ATOM      6  C   UNL     1      24.054   3.085  65.397  1.00  0.00    -0.003 C 
ATOM      7  C   UNL     1      22.878   3.311  64.452  1.00  0.00     0.004 C 
ENDBRANCH   5   6
ENDBRANCH   1   5
TORSDOF 3
ENDMDL
