MODEL 1
REMARK VINA RESULT:    -6.660      0.000      0.000
REMARK INTER + INTRA:          -7.245
REMARK INTER:                  -7.245
REMARK INTRA:                   0.000
REMARK UNBOUND:                 0.000
REMARK SMILES Cc1cc(O)c2c(c1)C(=O)c1cc(O)cc(O)c1C2=O
REMARK SMILES IDX 1 1 2 2 8 3 7 4 6 5 4 6 3 7 19 8 20 9 18 10 11 11 9 12 10 13
REMARK SMILES IDX 12 14 13 15 15 16 16 17 5 18 17 20 14 22
REMARK H PARENT 5 19 17 21 14 23
REMARK Flexibility Score: inf
ROOT
ATOM      1  C   UNL     1      49.514 -42.304   7.576  1.00  0.00     0.044 C 
ATOM      2  C   UNL     1      49.501 -41.176   8.566  1.00  0.00    -0.047 A 
ATOM      3  C   UNL     1      49.992 -39.916   8.204  1.00  0.00     0.016 A 
ATOM      4  C   UNL     1      49.952 -38.841   9.111  1.00  0.00     0.038 A 
ATOM      5  C   UNL     1      49.399 -39.028  10.398  1.00  0.00     0.076 A 
ATOM      6  C   UNL     1      48.886 -40.300  10.749  1.00  0.00     0.127 A 
ATOM      7  C   UNL     1      48.935 -41.356   9.831  1.00  0.00     0.050 A 
ATOM      8  C   UNL     1      49.365 -37.882  11.351  1.00  0.00     0.201 C 
ATOM      9  O   UNL     1      48.880 -38.042  12.504  1.00  0.00    -0.288 OA
ATOM     10  C   UNL     1      49.901 -36.550  10.953  1.00  0.00     0.076 A 
ATOM     11  C   UNL     1      50.447 -36.381   9.661  1.00  0.00     0.041 A 
ATOM     12  C   UNL     1      50.486 -37.518   8.714  1.00  0.00     0.194 C 
ATOM     13  O   UNL     1      50.978 -37.360   7.563  1.00  0.00    -0.289 OA
ATOM     14  C   UNL     1      50.956 -35.127   9.276  1.00  0.00     0.059 A 
ATOM     15  C   UNL     1      50.926 -34.047  10.156  1.00  0.00     0.120 A 
ATOM     16  C   UNL     1      50.387 -34.206  11.434  1.00  0.00     0.093 A 
ATOM     17  C   UNL     1      49.875 -35.446  11.841  1.00  0.00     0.131 A 
ENDROOT
BRANCH   6  18
ATOM     18  O   UNL     1      48.323 -40.521  12.006  1.00  0.00    -0.507 OA
ATOM     19  H   UNL     1      47.810 -39.799  12.498  1.00  0.00     0.293 HD
ENDBRANCH   6  18
BRANCH  17  20
ATOM     20  O   UNL     1      49.343 -35.570  13.125  1.00  0.00    -0.507 OA
ATOM     21  H   UNL     1      49.685 -35.015  13.901  1.00  0.00     0.293 HD
ENDBRANCH  17  20
BRANCH  15  22
ATOM     22  O   UNL     1      51.436 -32.816   9.749  1.00  0.00    -0.508 OA
ATOM     23  H   UNL     1      51.099 -31.945  10.144  1.00  0.00     0.293 HD
ENDBRANCH  15  22
TORSDOF 3
ENDMDL
MODEL 2
REMARK VINA RESULT:    -6.625      1.449      6.236
REMARK INTER + INTRA:          -7.206
REMARK INTER:                  -7.206
REMARK INTRA:                   0.000
REMARK UNBOUND:                 0.000
REMARK SMILES Cc1cc(O)c2c(c1)C(=O)c1cc(O)cc(O)c1C2=O
REMARK SMILES IDX 1 1 2 2 8 3 7 4 6 5 4 6 3 7 19 8 20 9 18 10 11 11 9 12 10 13
REMARK SMILES IDX 12 14 13 15 15 16 16 17 5 18 17 20 14 22
REMARK H PARENT 5 19 17 21 14 23
REMARK Flexibility Score: inf
ROOT
ATOM      1  C   UNL     1      51.025 -32.735  11.393  1.00  0.00     0.044 C 
ATOM      2  C   UNL     1      50.729 -34.082  10.801  1.00  0.00    -0.047 A 
ATOM      3  C   UNL     1      50.176 -35.094  11.594  1.00  0.00     0.016 A 
ATOM      4  C   UNL     1      49.860 -36.349  11.043  1.00  0.00     0.038 A 
ATOM      5  C   UNL     1      50.090 -36.591   9.669  1.00  0.00     0.076 A 
ATOM      6  C   UNL     1      50.631 -35.556   8.869  1.00  0.00     0.127 A 
ATOM      7  C   UNL     1      50.938 -34.314   9.438  1.00  0.00     0.050 A 
ATOM      8  C   UNL     1      49.754 -37.926   9.097  1.00  0.00     0.201 C 
ATOM      9  O   UNL     1      49.964 -38.153   7.875  1.00  0.00    -0.288 OA
ATOM     10  C   UNL     1      49.175 -38.995   9.958  1.00  0.00     0.076 A 
ATOM     11  C   UNL     1      48.948 -38.734  11.328  1.00  0.00     0.041 A 
ATOM     12  C   UNL     1      49.286 -37.411  11.900  1.00  0.00     0.194 C 
ATOM     13  O   UNL     1      49.083 -37.186  13.125  1.00  0.00    -0.289 OA
ATOM     14  C   UNL     1      48.402 -39.737  12.150  1.00  0.00     0.059 A 
ATOM     15  C   UNL     1      48.080 -40.988  11.626  1.00  0.00     0.120 A 
ATOM     16  C   UNL     1      48.300 -41.252  10.273  1.00  0.00     0.093 A 
ATOM     17  C   UNL     1      48.844 -40.270   9.435  1.00  0.00     0.131 A 
ENDROOT
BRANCH   6  18
ATOM     18  O   UNL     1      50.863 -35.753   7.507  1.00  0.00    -0.507 OA
ATOM     19  H   UNL     1      50.437 -36.517   6.996  1.00  0.00     0.293 HD
ENDBRANCH   6  18
BRANCH  17  20
ATOM     20  O   UNL     1      49.051 -40.568   8.088  1.00  0.00    -0.507 OA
ATOM     21  H   UNL     1      48.848 -41.484   7.706  1.00  0.00     0.293 HD
ENDBRANCH  17  20
BRANCH  15  22
ATOM     22  O   UNL     1      47.540 -41.963  12.462  1.00  0.00    -0.508 OA
ATOM     23  H   UNL     1      47.146 -41.729  13.366  1.00  0.00     0.293 HD
ENDBRANCH  15  22
TORSDOF 3
ENDMDL
MODEL 3
REMARK VINA RESULT:    -6.388     13.621     14.958
REMARK INTER + INTRA:          -6.949
REMARK INTER:                  -6.949
REMARK INTRA:                   0.000
REMARK UNBOUND:                 0.000
REMARK SMILES Cc1cc(O)c2c(c1)C(=O)c1cc(O)cc(O)c1C2=O
REMARK SMILES IDX 1 1 2 2 8 3 7 4 6 5 4 6 3 7 19 8 20 9 18 10 11 11 9 12 10 13
REMARK SMILES IDX 12 14 13 15 15 16 16 17 5 18 17 20 14 22
REMARK H PARENT 5 19 17 21 14 23
REMARK Flexibility Score: inf
ROOT
ATOM      1  C   UNL     1      44.678 -38.381  -5.679  1.00  0.00     0.044 C 
ATOM      2  C   UNL     1      46.076 -38.345  -5.135  1.00  0.00    -0.047 A 
ATOM      3  C   UNL     1      46.750 -39.538  -4.848  1.00  0.00     0.016 A 
ATOM      4  C   UNL     1      48.074 -39.519  -4.372  1.00  0.00     0.038 A 
ATOM      5  C   UNL     1      48.740 -38.285  -4.195  1.00  0.00     0.076 A 
ATOM      6  C   UNL     1      48.058 -37.084  -4.507  1.00  0.00     0.127 A 
ATOM      7  C   UNL     1      46.741 -37.126  -4.979  1.00  0.00     0.050 A 
ATOM      8  C   UNL     1      50.141 -38.278  -3.688  1.00  0.00     0.201 C 
ATOM      9  O   UNL     1      50.739 -37.181  -3.519  1.00  0.00    -0.288 OA
ATOM     10  C   UNL     1      50.841 -39.557  -3.377  1.00  0.00     0.076 A 
ATOM     11  C   UNL     1      50.161 -40.781  -3.564  1.00  0.00     0.041 A 
ATOM     12  C   UNL     1      48.767 -40.790  -4.063  1.00  0.00     0.194 C 
ATOM     13  O   UNL     1      48.166 -41.888  -4.225  1.00  0.00    -0.289 OA
ATOM     14  C   UNL     1      50.813 -41.993  -3.273  1.00  0.00     0.059 A 
ATOM     15  C   UNL     1      52.125 -42.000  -2.803  1.00  0.00     0.120 A 
ATOM     16  C   UNL     1      52.803 -40.794  -2.617  1.00  0.00     0.093 A 
ATOM     17  C   UNL     1      52.175 -39.574  -2.898  1.00  0.00     0.131 A 
ENDROOT
BRANCH   6  18
ATOM     18  O   UNL     1      48.684 -35.846  -4.355  1.00  0.00    -0.507 OA
ATOM     19  H   UNL     1      49.606 -35.662  -4.734  1.00  0.00     0.293 HD
ENDBRANCH   6  18
BRANCH  17  20
ATOM     20  O   UNL     1      52.881 -38.387  -2.701  1.00  0.00    -0.507 OA
ATOM     21  H   UNL     1      53.892 -38.351  -2.761  1.00  0.00     0.293 HD
ENDBRANCH  17  20
BRANCH  15  22
ATOM     22  O   UNL     1      52.747 -43.215  -2.523  1.00  0.00    -0.508 OA
ATOM     23  H   UNL     1      52.241 -43.986  -2.102  1.00  0.00     0.293 HD
ENDBRANCH  15  22
TORSDOF 3
ENDMDL
MODEL 4
REMARK VINA RESULT:    -6.258     14.281     15.193
REMARK INTER + INTRA:          -6.806
REMARK INTER:                  -6.806
REMARK INTRA:                   0.000
REMARK UNBOUND:                 0.000
REMARK SMILES Cc1cc(O)c2c(c1)C(=O)c1cc(O)cc(O)c1C2=O
REMARK SMILES IDX 1 1 2 2 8 3 7 4 6 5 4 6 3 7 19 8 20 9 18 10 11 11 9 12 10 13
REMARK SMILES IDX 12 14 13 15 15 16 16 17 5 18 17 20 14 22
REMARK H PARENT 5 19 17 21 14 23
REMARK Flexibility Score: inf
ROOT
ATOM      1  C   UNL     1      51.361 -41.951  -3.015  1.00  0.00     0.044 C 
ATOM      2  C   UNL     1      50.239 -41.026  -3.386  1.00  0.00    -0.047 A 
ATOM      3  C   UNL     1      50.514 -39.774  -3.948  1.00  0.00     0.016 A 
ATOM      4  C   UNL     1      49.471 -38.913  -4.333  1.00  0.00     0.038 A 
ATOM      5  C   UNL     1      48.127 -39.319  -4.165  1.00  0.00     0.076 A 
ATOM      6  C   UNL     1      47.857 -40.595  -3.615  1.00  0.00     0.127 A 
ATOM      7  C   UNL     1      48.911 -41.436  -3.238  1.00  0.00     0.050 A 
ATOM      8  C   UNL     1      47.030 -38.396  -4.574  1.00  0.00     0.201 C 
ATOM      9  O   UNL     1      45.829 -38.747  -4.420  1.00  0.00    -0.288 OA
ATOM     10  C   UNL     1      47.341 -37.062  -5.162  1.00  0.00     0.076 A 
ATOM     11  C   UNL     1      48.690 -36.676  -5.325  1.00  0.00     0.041 A 
ATOM     12  C   UNL     1      49.782 -37.588  -4.915  1.00  0.00     0.194 C 
ATOM     13  O   UNL     1      50.984 -37.234  -5.062  1.00  0.00    -0.289 OA
ATOM     14  C   UNL     1      48.994 -35.418  -5.878  1.00  0.00     0.059 A 
ATOM     15  C   UNL     1      47.978 -34.549  -6.269  1.00  0.00     0.120 A 
ATOM     16  C   UNL     1      46.642 -34.925  -6.111  1.00  0.00     0.093 A 
ATOM     17  C   UNL     1      46.315 -36.171  -5.562  1.00  0.00     0.131 A 
ENDROOT
BRANCH   6  18
ATOM     18  O   UNL     1      46.544 -41.035  -3.442  1.00  0.00    -0.507 OA
ATOM     19  H   UNL     1      46.211 -41.900  -3.853  1.00  0.00     0.293 HD
ENDBRANCH   6  18
BRANCH  17  20
ATOM     20  O   UNL     1      44.970 -36.516  -5.418  1.00  0.00    -0.507 OA
ATOM     21  H   UNL     1      44.229 -35.959  -5.828  1.00  0.00     0.293 HD
ENDBRANCH  17  20
BRANCH  15  22
ATOM     22  O   UNL     1      48.306 -33.310  -6.815  1.00  0.00    -0.508 OA
ATOM     23  H   UNL     1      49.046 -32.737  -6.424  1.00  0.00     0.293 HD
ENDBRANCH  15  22
TORSDOF 3
ENDMDL
MODEL 5
REMARK VINA RESULT:    -6.195     11.359     13.510
REMARK INTER + INTRA:          -6.738
REMARK INTER:                  -6.738
REMARK INTRA:                   0.000
REMARK UNBOUND:                 0.000
REMARK SMILES Cc1cc(O)c2c(c1)C(=O)c1cc(O)cc(O)c1C2=O
REMARK SMILES IDX 1 1 2 2 8 3 7 4 6 5 4 6 3 7 19 8 20 9 18 10 11 11 9 12 10 13
REMARK SMILES IDX 12 14 13 15 15 16 16 17 5 18 17 20 14 22
REMARK H PARENT 5 19 17 21 14 23
REMARK Flexibility Score: inf
ROOT
ATOM      1  C   UNL     1      51.837 -38.018  -7.051  1.00  0.00     0.044 C 
ATOM      2  C   UNL     1      50.998 -38.509  -5.908  1.00  0.00    -0.047 A 
ATOM      3  C   UNL     1      50.562 -37.618  -4.921  1.00  0.00     0.016 A 
ATOM      4  C   UNL     1      49.745 -38.058  -3.864  1.00  0.00     0.038 A 
ATOM      5  C   UNL     1      49.346 -39.413  -3.802  1.00  0.00     0.076 A 
ATOM      6  C   UNL     1      49.774 -40.304  -4.815  1.00  0.00     0.127 A 
ATOM      7  C   UNL     1      50.587 -39.844  -5.858  1.00  0.00     0.050 A 
ATOM      8  C   UNL     1      48.483 -39.868  -2.675  1.00  0.00     0.201 C 
ATOM      9  O   UNL     1      48.129 -41.076  -2.608  1.00  0.00    -0.288 OA
ATOM     10  C   UNL     1      48.036 -38.907  -1.627  1.00  0.00     0.076 A 
ATOM     11  C   UNL     1      48.442 -37.556  -1.708  1.00  0.00     0.041 A 
ATOM     12  C   UNL     1      49.303 -37.103  -2.822  1.00  0.00     0.194 C 
ATOM     13  O   UNL     1      49.663 -35.895  -2.886  1.00  0.00    -0.289 OA
ATOM     14  C   UNL     1      48.025 -36.642  -0.723  1.00  0.00     0.059 A 
ATOM     15  C   UNL     1      47.214 -37.054   0.333  1.00  0.00     0.120 A 
ATOM     16  C   UNL     1      46.809 -38.387   0.418  1.00  0.00     0.093 A 
ATOM     17  C   UNL     1      47.211 -39.317  -0.550  1.00  0.00     0.131 A 
ENDROOT
BRANCH   6  18
ATOM     18  O   UNL     1      49.394 -41.646  -4.794  1.00  0.00    -0.507 OA
ATOM     19  H   UNL     1      48.495 -41.953  -5.149  1.00  0.00     0.293 HD
ENDBRANCH   6  18
BRANCH  17  20
ATOM     20  O   UNL     1      46.788 -40.641  -0.434  1.00  0.00    -0.507 OA
ATOM     21  H   UNL     1      45.812 -40.881  -0.302  1.00  0.00     0.293 HD
ENDBRANCH  17  20
BRANCH  15  22
ATOM     22  O   UNL     1      46.816 -36.128   1.295  1.00  0.00    -0.508 OA
ATOM     23  H   UNL     1      46.625 -36.404   2.251  1.00  0.00     0.293 HD
ENDBRANCH  15  22
TORSDOF 3
ENDMDL
MODEL 6
REMARK VINA RESULT:    -6.189     14.559     15.984
REMARK INTER + INTRA:          -6.732
REMARK INTER:                  -6.732
REMARK INTRA:                   0.000
REMARK UNBOUND:                 0.000
REMARK SMILES Cc1cc(O)c2c(c1)C(=O)c1cc(O)cc(O)c1C2=O
REMARK SMILES IDX 1 1 2 2 8 3 7 4 6 5 4 6 3 7 19 8 20 9 18 10 11 11 9 12 10 13
REMARK SMILES IDX 12 14 13 15 15 16 16 17 5 18 17 20 14 22
REMARK H PARENT 5 19 17 21 14 23
REMARK Flexibility Score: inf
ROOT
ATOM      1  C   UNL     1      49.106 -33.169  -6.805  1.00  0.00     0.044 C 
ATOM      2  C   UNL     1      48.625 -34.484  -6.265  1.00  0.00    -0.047 A 
ATOM      3  C   UNL     1      49.538 -35.508  -5.991  1.00  0.00     0.016 A 
ATOM      4  C   UNL     1      49.105 -36.733  -5.451  1.00  0.00     0.038 A 
ATOM      5  C   UNL     1      47.734 -36.929  -5.167  1.00  0.00     0.076 A 
ATOM      6  C   UNL     1      46.820 -35.881  -5.427  1.00  0.00     0.127 A 
ATOM      7  C   UNL     1      47.273 -34.670  -5.966  1.00  0.00     0.050 A 
ATOM      8  C   UNL     1      47.287 -38.232  -4.597  1.00  0.00     0.201 C 
ATOM      9  O   UNL     1      46.065 -38.419  -4.348  1.00  0.00    -0.288 OA
ATOM     10  C   UNL     1      48.271 -39.316  -4.320  1.00  0.00     0.076 A 
ATOM     11  C   UNL     1      49.638 -39.100  -4.607  1.00  0.00     0.041 A 
ATOM     12  C   UNL     1      50.084 -37.809  -5.178  1.00  0.00     0.194 C 
ATOM     13  O   UNL     1      51.306 -37.625  -5.433  1.00  0.00    -0.289 OA
ATOM     14  C   UNL     1      50.575 -40.117  -4.350  1.00  0.00     0.059 A 
ATOM     15  C   UNL     1      50.170 -41.338  -3.813  1.00  0.00     0.120 A 
ATOM     16  C   UNL     1      48.821 -41.558  -3.526  1.00  0.00     0.093 A 
ATOM     17  C   UNL     1      47.869 -40.560  -3.775  1.00  0.00     0.131 A 
ENDROOT
BRANCH   6  18
ATOM     18  O   UNL     1      45.460 -36.033  -5.152  1.00  0.00    -0.507 OA
ATOM     19  H   UNL     1      44.795 -35.287  -5.316  1.00  0.00     0.293 HD
ENDBRANCH   6  18
BRANCH  17  20
ATOM     20  O   UNL     1      46.530 -40.813  -3.476  1.00  0.00    -0.507 OA
ATOM     21  H   UNL     1      45.917 -40.091  -3.115  1.00  0.00     0.293 HD
ENDBRANCH  17  20
BRANCH  15  22
ATOM     22  O   UNL     1      51.119 -42.328  -3.567  1.00  0.00    -0.508 OA
ATOM     23  H   UNL     1      50.880 -43.183  -3.076  1.00  0.00     0.293 HD
ENDBRANCH  15  22
TORSDOF 3
ENDMDL
MODEL 7
REMARK VINA RESULT:    -6.175     12.846     14.679
REMARK INTER + INTRA:          -6.717
REMARK INTER:                  -6.717
REMARK INTRA:                   0.000
REMARK UNBOUND:                 0.000
REMARK SMILES Cc1cc(O)c2c(c1)C(=O)c1cc(O)cc(O)c1C2=O
REMARK SMILES IDX 1 1 2 2 8 3 7 4 6 5 4 6 3 7 19 8 20 9 18 10 11 11 9 12 10 13
REMARK SMILES IDX 12 14 13 15 15 16 16 17 5 18 17 20 14 22
REMARK H PARENT 5 19 17 21 14 23
REMARK Flexibility Score: inf
ROOT
ATOM      1  C   UNL     1      51.863 -38.765  -6.728  1.00  0.00     0.044 C 
ATOM      2  C   UNL     1      50.715 -38.298  -5.882  1.00  0.00    -0.047 A 
ATOM      3  C   UNL     1      49.877 -39.229  -5.257  1.00  0.00     0.016 A 
ATOM      4  C   UNL     1      48.819 -38.804  -4.432  1.00  0.00     0.038 A 
ATOM      5  C   UNL     1      48.605 -37.423  -4.220  1.00  0.00     0.076 A 
ATOM      6  C   UNL     1      49.469 -36.489  -4.839  1.00  0.00     0.127 A 
ATOM      7  C   UNL     1      50.516 -36.933  -5.656  1.00  0.00     0.050 A 
ATOM      8  C   UNL     1      47.479 -36.986  -3.346  1.00  0.00     0.201 C 
ATOM      9  O   UNL     1      47.276 -35.756  -3.158  1.00  0.00    -0.288 OA
ATOM     10  C   UNL     1      46.591 -37.990  -2.696  1.00  0.00     0.076 A 
ATOM     11  C   UNL     1      46.823 -39.366  -2.917  1.00  0.00     0.041 A 
ATOM     12  C   UNL     1      47.937 -39.803  -3.788  1.00  0.00     0.194 C 
ATOM     13  O   UNL     1      48.136 -41.034  -3.983  1.00  0.00    -0.289 OA
ATOM     14  C   UNL     1      45.989 -40.322  -2.308  1.00  0.00     0.059 A 
ATOM     15  C   UNL     1      44.936 -39.926  -1.485  1.00  0.00     0.120 A 
ATOM     16  C   UNL     1      44.701 -38.567  -1.261  1.00  0.00     0.093 A 
ATOM     17  C   UNL     1      45.517 -37.597  -1.858  1.00  0.00     0.131 A 
ENDROOT
BRANCH   6  18
ATOM     18  O   UNL     1      49.296 -35.118  -4.646  1.00  0.00    -0.507 OA
ATOM     19  H   UNL     1      48.557 -34.749  -4.059  1.00  0.00     0.293 HD
ENDBRANCH   6  18
BRANCH  17  20
ATOM     20  O   UNL     1      45.255 -36.248  -1.613  1.00  0.00    -0.507 OA
ATOM     21  H   UNL     1      45.388 -35.836  -0.697  1.00  0.00     0.293 HD
ENDBRANCH  17  20
BRANCH  15  22
ATOM     22  O   UNL     1      44.125 -40.892  -0.894  1.00  0.00    -0.508 OA
ATOM     23  H   UNL     1      44.515 -41.735  -0.487  1.00  0.00     0.293 HD
ENDBRANCH  15  22
TORSDOF 3
ENDMDL
MODEL 8
REMARK VINA RESULT:    -6.074     13.786     14.523
REMARK INTER + INTRA:          -6.606
REMARK INTER:                  -6.606
REMARK INTRA:                   0.000
REMARK UNBOUND:                 0.000
REMARK SMILES Cc1cc(O)c2c(c1)C(=O)c1cc(O)cc(O)c1C2=O
REMARK SMILES IDX 1 1 2 2 8 3 7 4 6 5 4 6 3 7 19 8 20 9 18 10 11 11 9 12 10 13
REMARK SMILES IDX 12 14 13 15 15 16 16 17 5 18 17 20 14 22
REMARK H PARENT 5 19 17 21 14 23
REMARK Flexibility Score: inf
ROOT
ATOM      1  C   UNL     1      44.020 -35.431  -4.115  1.00  0.00     0.044 C 
ATOM      2  C   UNL     1      44.939 -36.606  -3.952  1.00  0.00    -0.047 A 
ATOM      3  C   UNL     1      46.325 -36.416  -3.913  1.00  0.00     0.016 A 
ATOM      4  C   UNL     1      47.196 -37.504  -3.724  1.00  0.00     0.038 A 
ATOM      5  C   UNL     1      46.669 -38.805  -3.557  1.00  0.00     0.076 A 
ATOM      6  C   UNL     1      45.265 -38.987  -3.577  1.00  0.00     0.127 A 
ATOM      7  C   UNL     1      44.416 -37.889  -3.767  1.00  0.00     0.050 A 
ATOM      8  C   UNL     1      47.601 -39.951  -3.361  1.00  0.00     0.201 C 
ATOM      9  O   UNL     1      47.140 -41.115  -3.219  1.00  0.00    -0.288 OA
ATOM     10  C   UNL     1      49.076 -39.731  -3.331  1.00  0.00     0.076 A 
ATOM     11  C   UNL     1      49.584 -38.423  -3.496  1.00  0.00     0.041 A 
ATOM     12  C   UNL     1      48.660 -37.285  -3.697  1.00  0.00     0.194 C 
ATOM     13  O   UNL     1      49.122 -36.120  -3.845  1.00  0.00    -0.289 OA
ATOM     14  C   UNL     1      50.974 -38.206  -3.470  1.00  0.00     0.059 A 
ATOM     15  C   UNL     1      51.856 -39.268  -3.282  1.00  0.00     0.120 A 
ATOM     16  C   UNL     1      51.361 -40.563  -3.118  1.00  0.00     0.093 A 
ATOM     17  C   UNL     1      49.981 -40.805  -3.141  1.00  0.00     0.131 A 
ENDROOT
BRANCH   6  18
ATOM     18  O   UNL     1      44.706 -40.254  -3.407  1.00  0.00    -0.507 OA
ATOM     19  H   UNL     1      44.650 -40.921  -4.168  1.00  0.00     0.293 HD
ENDBRANCH   6  18
BRANCH  17  20
ATOM     20  O   UNL     1      49.519 -42.111  -2.974  1.00  0.00    -0.507 OA
ATOM     21  H   UNL     1      48.535 -42.343  -3.042  1.00  0.00     0.293 HD
ENDBRANCH  17  20
BRANCH  15  22
ATOM     22  O   UNL     1      53.228 -39.025  -3.261  1.00  0.00    -0.508 OA
ATOM     23  H   UNL     1      53.602 -38.109  -3.038  1.00  0.00     0.293 HD
ENDBRANCH  15  22
TORSDOF 3
ENDMDL
MODEL 9
REMARK VINA RESULT:    -4.143      1.546      3.326
REMARK INTER + INTRA:          -4.506
REMARK INTER:                  -4.506
REMARK INTRA:                   0.000
REMARK UNBOUND:                 0.000
REMARK SMILES Cc1cc(O)c2c(c1)C(=O)c1cc(O)cc(O)c1C2=O
REMARK SMILES IDX 1 1 2 2 8 3 7 4 6 5 4 6 3 7 19 8 20 9 18 10 11 11 9 12 10 13
REMARK SMILES IDX 12 14 13 15 15 16 16 17 5 18 17 20 14 22
REMARK H PARENT 5 19 17 21 14 23
REMARK Flexibility Score: inf
ROOT
ATOM      1  C   UNL     1      47.250 -41.679  12.387  1.00  0.00     0.044 C 
ATOM      2  C   UNL     1      47.832 -40.606  11.514  1.00  0.00    -0.047 A 
ATOM      3  C   UNL     1      48.270 -39.401  12.076  1.00  0.00     0.016 A 
ATOM      4  C   UNL     1      48.850 -38.402  11.274  1.00  0.00     0.038 A 
ATOM      5  C   UNL     1      49.006 -38.618   9.886  1.00  0.00     0.076 A 
ATOM      6  C   UNL     1      48.580 -39.847   9.328  1.00  0.00     0.127 A 
ATOM      7  C   UNL     1      48.005 -40.828  10.145  1.00  0.00     0.050 A 
ATOM      8  C   UNL     1      49.619 -37.550   9.046  1.00  0.00     0.201 C 
ATOM      9  O   UNL     1      49.756 -37.732   7.806  1.00  0.00    -0.288 OA
ATOM     10  C   UNL     1      50.072 -36.269   9.660  1.00  0.00     0.076 A 
ATOM     11  C   UNL     1      49.910 -36.073  11.050  1.00  0.00     0.041 A 
ATOM     12  C   UNL     1      49.297 -37.129  11.885  1.00  0.00     0.194 C 
ATOM     13  O   UNL     1      49.154 -36.945  13.125  1.00  0.00    -0.289 OA
ATOM     14  C   UNL     1      50.333 -34.867  11.638  1.00  0.00     0.059 A 
ATOM     15  C   UNL     1      50.913 -33.863  10.864  1.00  0.00     0.120 A 
ATOM     16  C   UNL     1      51.076 -34.051   9.490  1.00  0.00     0.093 A 
ATOM     17  C   UNL     1      50.661 -35.243   8.881  1.00  0.00     0.131 A 
ENDROOT
BRANCH   6  18
ATOM     18  O   UNL     1      48.726 -40.102   7.964  1.00  0.00    -0.507 OA
ATOM     19  H   UNL     1      49.569 -40.518   7.585  1.00  0.00     0.293 HD
ENDBRANCH   6  18
BRANCH  17  20
ATOM     20  O   UNL     1      50.839 -35.398   7.506  1.00  0.00    -0.507 OA
ATOM     21  H   UNL     1      50.210 -34.973   6.834  1.00  0.00     0.293 HD
ENDBRANCH  17  20
BRANCH  15  22
ATOM     22  O   UNL     1      51.323 -32.678  11.472  1.00  0.00    -0.508 OA
ATOM     23  H   UNL     1      51.892 -32.681  12.311  1.00  0.00     0.293 HD
ENDBRANCH  15  22
TORSDOF 3
ENDMDL
