MODEL 1
REMARK VINA RESULT:    -3.760      0.000      0.000
REMARK INTER + INTRA:          -4.915
REMARK INTER:                  -4.639
REMARK INTRA:                  -0.276
REMARK UNBOUND:                -0.276
REMARK SMILES COc1cc(-c2oc3cc(O)cc(O)c3c(=O)c2O)ccc1O
REMARK SMILES IDX 6 1 18 2 16 3 17 4 15 5 13 6 12 7 10 8 9 9 8 10 7 11 5 12
REMARK SMILES IDX 3 13 22 14 4 15 21 16 20 17 2 18 1 19 23 20 19 22 14 24
REMARK SMILES IDX 11 26
REMARK H PARENT 23 21 19 23 14 25 11 27
REMARK Flexibility Score: inf
ROOT
ATOM      1  C   UNL     1      12.032 -12.903  28.590  1.00  0.00     0.180 A 
ATOM      2  C   UNL     1      10.718 -12.807  28.100  1.00  0.00     0.208 A 
ATOM      3  C   UNL     1       9.893 -11.769  28.563  1.00  0.00     0.238 A 
ATOM      4  O   UNL     1       8.735 -11.656  28.080  1.00  0.00    -0.285 OA
ATOM      5  C   UNL     1      10.385 -10.850  29.521  1.00  0.00     0.111 A 
ATOM      6  C   UNL     1       9.623  -9.786  30.090  1.00  0.00     0.134 A 
ATOM      7  C   UNL     1      10.253  -8.859  30.930  1.00  0.00     0.093 A 
ATOM      8  C   UNL     1      11.600  -8.998  31.275  1.00  0.00     0.123 A 
ATOM      9  C   UNL     1      12.335 -10.068  30.773  1.00  0.00     0.094 A 
ATOM     10  C   UNL     1      11.745 -10.988  29.903  1.00  0.00     0.146 A 
ATOM     11  O   UNL     1      12.485 -11.988  29.439  1.00  0.00    -0.452 OA
ENDROOT
BRANCH   1  12
ATOM     12  C   UNL     1      12.953 -13.983  28.169  1.00  0.00     0.025 A 
ATOM     13  C   UNL     1      14.118 -16.069  28.685  1.00  0.00     0.161 A 
ATOM     14  C   UNL     1      14.650 -16.086  27.389  1.00  0.00     0.157 A 
ATOM     15  C   UNL     1      13.263 -15.017  29.068  1.00  0.00     0.062 A 
ATOM     16  C   UNL     1      14.326 -15.067  26.484  1.00  0.00     0.051 A 
ATOM     17  C   UNL     1      13.479 -14.026  26.866  1.00  0.00     0.016 A 
BRANCH  13  18
ATOM     18  O   UNL     1      14.461 -17.111  29.561  1.00  0.00    -0.493 OA
ATOM     19  C   UNL     1      14.161 -17.125  30.954  1.00  0.00     0.278 C 
ENDBRANCH  13  18
BRANCH  14  20
ATOM     20  O   UNL     1      15.498 -17.124  27.004  1.00  0.00    -0.504 OA
ATOM     21  H   UNL     1      15.425 -18.047  27.415  1.00  0.00     0.293 HD
ENDBRANCH  14  20
ENDBRANCH   1  12
BRANCH   2  22
ATOM     22  O   UNL     1      10.258 -13.711  27.139  1.00  0.00    -0.502 OA
ATOM     23  H   UNL     1      10.885 -14.237  26.542  1.00  0.00     0.293 HD
ENDBRANCH   2  22
BRANCH   6  24
ATOM     24  O   UNL     1       8.252  -9.610  29.883  1.00  0.00    -0.507 OA
ATOM     25  H   UNL     1       7.671  -8.966  30.398  1.00  0.00     0.293 HD
ENDBRANCH   6  24
BRANCH   8  26
ATOM     26  O   UNL     1      12.214  -8.081  32.125  1.00  0.00    -0.508 OA
ATOM     27  H   UNL     1      11.680  -7.369  32.611  1.00  0.00     0.293 HD
ENDBRANCH   8  26
TORSDOF 6
ENDMDL
MODEL 2
REMARK VINA RESULT:    -2.000      1.115      2.780
REMARK INTER + INTRA:          -2.744
REMARK INTER:                  -2.519
REMARK INTRA:                  -0.225
REMARK UNBOUND:                -0.276
REMARK SMILES COc1cc(-c2oc3cc(O)cc(O)c3c(=O)c2O)ccc1O
REMARK SMILES IDX 6 1 18 2 16 3 17 4 15 5 13 6 12 7 10 8 9 9 8 10 7 11 5 12
REMARK SMILES IDX 3 13 22 14 4 15 21 16 20 17 2 18 1 19 23 20 19 22 14 24
REMARK SMILES IDX 11 26
REMARK H PARENT 23 21 19 23 14 25 11 27
REMARK Flexibility Score: inf
ROOT
ATOM      1  C   UNL     1      12.583 -12.619  29.119  1.00  0.00     0.180 A 
ATOM      2  C   UNL     1      13.249 -11.795  30.043  1.00  0.00     0.208 A 
ATOM      3  C   UNL     1      12.563 -10.704  30.599  1.00  0.00     0.238 A 
ATOM      4  O   UNL     1      13.146 -10.001  31.467  1.00  0.00    -0.285 OA
ATOM      5  C   UNL     1      11.226 -10.440  30.215  1.00  0.00     0.111 A 
ATOM      6  C   UNL     1      10.449  -9.339  30.684  1.00  0.00     0.134 A 
ATOM      7  C   UNL     1       9.095  -9.252  30.337  1.00  0.00     0.093 A 
ATOM      8  C   UNL     1       8.508 -10.189  29.483  1.00  0.00     0.123 A 
ATOM      9  C   UNL     1       9.274 -11.233  28.971  1.00  0.00     0.094 A 
ATOM     10  C   UNL     1      10.618 -11.368  29.329  1.00  0.00     0.146 A 
ATOM     11  O   UNL     1      11.309 -12.385  28.827  1.00  0.00    -0.452 OA
ENDROOT
BRANCH   1  12
ATOM     12  C   UNL     1      13.247 -13.773  28.471  1.00  0.00     0.025 A 
ATOM     13  C   UNL     1      14.231 -16.004  28.653  1.00  0.00     0.161 A 
ATOM     14  C   UNL     1      14.457 -16.011  27.270  1.00  0.00     0.157 A 
ATOM     15  C   UNL     1      13.618 -14.883  29.248  1.00  0.00     0.062 A 
ATOM     16  C   UNL     1      14.070 -14.914  26.490  1.00  0.00     0.051 A 
ATOM     17  C   UNL     1      13.464 -13.805  27.082  1.00  0.00     0.016 A 
BRANCH  13  18
ATOM     18  O   UNL     1      14.626 -17.125  29.400  1.00  0.00    -0.493 OA
ATOM     19  C   UNL     1      14.893 -17.108  30.800  1.00  0.00     0.278 C 
ENDBRANCH  13  18
BRANCH  14  20
ATOM     20  O   UNL     1      15.064 -17.116  26.676  1.00  0.00    -0.504 OA
ATOM     21  H   UNL     1      15.560 -17.039  25.796  1.00  0.00     0.293 HD
ENDBRANCH  14  20
ENDBRANCH   1  12
BRANCH   2  22
ATOM     22  O   UNL     1      14.561 -12.084  30.425  1.00  0.00    -0.502 OA
ATOM     23  H   UNL     1      15.008 -11.640  31.218  1.00  0.00     0.293 HD
ENDBRANCH   2  22
BRANCH   6  24
ATOM     24  O   UNL     1      10.961  -8.300  31.466  1.00  0.00    -0.507 OA
ATOM     25  H   UNL     1      10.466  -7.852  32.222  1.00  0.00     0.293 HD
ENDBRANCH   6  24
BRANCH   8  26
ATOM     26  O   UNL     1       7.165 -10.085  29.130  1.00  0.00    -0.508 OA
ATOM     27  H   UNL     1       6.454 -10.656  29.573  1.00  0.00     0.293 HD
ENDBRANCH   8  26
TORSDOF 6
ENDMDL
