MODEL 1
REMARK VINA RESULT:    -4.491      0.000      0.000
REMARK INTER + INTRA:          -5.807
REMARK INTER:                  -5.542
REMARK INTRA:                  -0.266
REMARK UNBOUND:                -0.266
REMARK SMILES CCCCC=CC(C)=O
REMARK SMILES IDX 4 1 3 2 2 3 1 4 5 5 6 6 7 7 9 8 8 9
REMARK H PARENT
REMARK Flexibility Score: inf
ROOT
ATOM      1  C   UNL     1      13.955 -16.569 -27.542  1.00  0.00     0.027 C 
ENDROOT
BRANCH   1   2
ATOM      2  C   UNL     1      13.735 -15.297 -28.377  1.00  0.00     0.004 C 
BRANCH   2   3
ATOM      3  C   UNL     1      14.630 -14.140 -27.914  1.00  0.00    -0.003 C 
ATOM      4  C   UNL     1      15.382 -13.521 -29.090  1.00  0.00     0.004 C 
ENDBRANCH   2   3
ENDBRANCH   1   2
BRANCH   1   5
ATOM      5  C   UNL     1      12.789 -16.868 -26.635  1.00  0.00    -0.023 C 
ATOM      6  C   UNL     1      11.669 -17.526 -26.980  1.00  0.00     0.042 C 
BRANCH   6   7
ATOM      7  C   UNL     1      11.331 -18.040 -28.327  1.00  0.00     0.152 C 
ATOM      8  O   UNL     1      11.815 -19.117 -28.766  1.00  0.00    -0.295 OA
ATOM      9  C   UNL     1      10.452 -17.225 -29.220  1.00  0.00     0.093 C 
ENDBRANCH   6   7
ENDBRANCH   1   5
TORSDOF 4
ENDMDL
MODEL 2
REMARK VINA RESULT:    -4.459      1.912      3.332
REMARK INTER + INTRA:          -5.767
REMARK INTER:                  -5.150
REMARK INTRA:                  -0.617
REMARK UNBOUND:                -0.266
REMARK SMILES CCCCC=CC(C)=O
REMARK SMILES IDX 4 1 3 2 2 3 1 4 5 5 6 6 7 7 9 8 8 9
REMARK H PARENT
REMARK Flexibility Score: inf
ROOT
ATOM      1  C   UNL     1      12.594 -16.061 -28.855  1.00  0.00     0.027 C 
ENDROOT
BRANCH   1   2
ATOM      2  C   UNL     1      13.656 -15.919 -27.751  1.00  0.00     0.004 C 
BRANCH   2   3
ATOM      3  C   UNL     1      13.294 -16.724 -26.496  1.00  0.00    -0.003 C 
ATOM      4  C   UNL     1      11.859 -17.240 -26.567  1.00  0.00     0.004 C 
ENDBRANCH   2   3
ENDBRANCH   1   2
BRANCH   1   5
ATOM      5  C   UNL     1      13.174 -16.583 -30.144  1.00  0.00    -0.023 C 
ATOM      6  C   UNL     1      13.265 -17.874 -30.503  1.00  0.00     0.042 C 
BRANCH   6   7
ATOM      7  C   UNL     1      12.866 -19.044 -29.687  1.00  0.00     0.152 C 
ATOM      8  O   UNL     1      11.661 -19.386 -29.563  1.00  0.00    -0.295 OA
ATOM      9  C   UNL     1      13.913 -19.795 -28.930  1.00  0.00     0.093 C 
ENDBRANCH   6   7
ENDBRANCH   1   5
TORSDOF 4
ENDMDL
MODEL 3
REMARK VINA RESULT:    -4.354      2.805      3.879
REMARK INTER + INTRA:          -5.638
REMARK INTER:                  -5.154
REMARK INTRA:                  -0.485
REMARK UNBOUND:                -0.266
REMARK SMILES CCCCC=CC(C)=O
REMARK SMILES IDX 4 1 3 2 2 3 1 4 5 5 6 6 7 7 9 8 8 9
REMARK H PARENT
REMARK Flexibility Score: inf
ROOT
ATOM      1  C   UNL     1      12.762 -16.883 -31.149  1.00  0.00     0.027 C 
ENDROOT
BRANCH   1   2
ATOM      2  C   UNL     1      13.720 -16.348 -30.072  1.00  0.00     0.004 C 
BRANCH   2   3
ATOM      3  C   UNL     1      12.997 -16.060 -28.749  1.00  0.00    -0.003 C 
ATOM      4  C   UNL     1      11.494 -16.290 -28.882  1.00  0.00     0.004 C 
ENDBRANCH   2   3
ENDBRANCH   1   2
BRANCH   1   5
ATOM      5  C   UNL     1      13.334 -18.064 -31.890  1.00  0.00    -0.023 C 
ATOM      6  C   UNL     1      13.389 -19.328 -31.439  1.00  0.00     0.042 C 
BRANCH   6   7
ATOM      7  C   UNL     1      12.950 -19.806 -30.108  1.00  0.00     0.152 C 
ATOM      8  O   UNL     1      11.732 -19.873 -29.797  1.00  0.00    -0.295 OA
ATOM      9  C   UNL     1      13.980 -20.150 -29.081  1.00  0.00     0.093 C 
ENDBRANCH   6   7
ENDBRANCH   1   5
TORSDOF 4
ENDMDL
MODEL 4
REMARK VINA RESULT:    -4.354      1.933      3.266
REMARK INTER + INTRA:          -5.637
REMARK INTER:                  -5.051
REMARK INTRA:                  -0.586
REMARK UNBOUND:                -0.266
REMARK SMILES CCCCC=CC(C)=O
REMARK SMILES IDX 4 1 3 2 2 3 1 4 5 5 6 6 7 7 9 8 8 9
REMARK H PARENT
REMARK Flexibility Score: inf
ROOT
ATOM      1  C   UNL     1      12.669 -16.010 -28.798  1.00  0.00     0.027 C 
ENDROOT
BRANCH   1   2
ATOM      2  C   UNL     1      13.692 -15.896 -27.656  1.00  0.00     0.004 C 
BRANCH   2   3
ATOM      3  C   UNL     1      13.302 -16.755 -26.445  1.00  0.00    -0.003 C 
ATOM      4  C   UNL     1      11.864 -17.251 -26.562  1.00  0.00     0.004 C 
ENDBRANCH   2   3
ENDBRANCH   1   2
BRANCH   1   5
ATOM      5  C   UNL     1      13.293 -16.500 -30.079  1.00  0.00    -0.023 C 
ATOM      6  C   UNL     1      13.537 -17.782 -30.398  1.00  0.00     0.042 C 
BRANCH   6   7
ATOM      7  C   UNL     1      13.294 -18.964 -29.539  1.00  0.00     0.152 C 
ATOM      8  O   UNL     1      14.161 -19.383 -28.727  1.00  0.00    -0.295 OA
ATOM      9  C   UNL     1      12.017 -19.725 -29.692  1.00  0.00     0.093 C 
ENDBRANCH   6   7
ENDBRANCH   1   5
TORSDOF 4
ENDMDL
MODEL 5
REMARK VINA RESULT:    -4.273      2.396      4.134
REMARK INTER + INTRA:          -5.538
REMARK INTER:                  -4.973
REMARK INTRA:                  -0.565
REMARK UNBOUND:                -0.266
REMARK SMILES CCCCC=CC(C)=O
REMARK SMILES IDX 4 1 3 2 2 3 1 4 5 5 6 6 7 7 9 8 8 9
REMARK H PARENT
REMARK Flexibility Score: inf
ROOT
ATOM      1  C   UNL     1      13.388 -17.825 -29.952  1.00  0.00     0.027 C 
ENDROOT
BRANCH   1   2
ATOM      2  C   UNL     1      12.320 -18.925 -30.064  1.00  0.00     0.004 C 
BRANCH   2   3
ATOM      3  C   UNL     1      12.694 -20.176 -29.257  1.00  0.00    -0.003 C 
ATOM      4  C   UNL     1      14.167 -20.152 -28.856  1.00  0.00     0.004 C 
ENDBRANCH   2   3
ENDBRANCH   1   2
BRANCH   1   5
ATOM      5  C   UNL     1      12.801 -16.494 -29.557  1.00  0.00    -0.023 C 
ATOM      6  C   UNL     1      12.538 -16.088 -28.304  1.00  0.00     0.042 C 
BRANCH   6   7
ATOM      7  C   UNL     1      12.721 -16.880 -27.066  1.00  0.00     0.152 C 
ATOM      8  O   UNL     1      13.846 -16.995 -26.513  1.00  0.00    -0.295 OA
ATOM      9  C   UNL     1      11.556 -17.625 -26.498  1.00  0.00     0.093 C 
ENDBRANCH   6   7
ENDBRANCH   1   5
TORSDOF 4
ENDMDL
MODEL 6
REMARK VINA RESULT:    -4.252      2.901      4.698
REMARK INTER + INTRA:          -5.512
REMARK INTER:                  -5.278
REMARK INTRA:                  -0.234
REMARK UNBOUND:                -0.266
REMARK SMILES CCCCC=CC(C)=O
REMARK SMILES IDX 4 1 3 2 2 3 1 4 5 5 6 6 7 7 9 8 8 9
REMARK H PARENT
REMARK Flexibility Score: inf
ROOT
ATOM      1  C   UNL     1      13.457 -17.024 -30.528  1.00  0.00     0.027 C 
ENDROOT
BRANCH   1   2
ATOM      2  C   UNL     1      12.899 -17.813 -31.724  1.00  0.00     0.004 C 
BRANCH   2   3
ATOM      3  C   UNL     1      13.399 -19.264 -31.743  1.00  0.00    -0.003 C 
ATOM      4  C   UNL     1      12.468 -20.177 -30.949  1.00  0.00     0.004 C 
ENDBRANCH   2   3
ENDBRANCH   1   2
BRANCH   1   5
ATOM      5  C   UNL     1      12.373 -16.574 -29.582  1.00  0.00    -0.023 C 
ATOM      6  C   UNL     1      12.557 -15.902 -28.433  1.00  0.00     0.042 C 
BRANCH   6   7
ATOM      7  C   UNL     1      13.857 -15.516 -27.838  1.00  0.00     0.152 C 
ATOM      8  O   UNL     1      14.376 -16.172 -26.897  1.00  0.00    -0.295 OA
ATOM      9  C   UNL     1      14.538 -14.275 -28.317  1.00  0.00     0.093 C 
ENDBRANCH   6   7
ENDBRANCH   1   5
TORSDOF 4
ENDMDL
MODEL 7
REMARK VINA RESULT:    -4.245      2.526      3.612
REMARK INTER + INTRA:          -5.503
REMARK INTER:                  -5.059
REMARK INTRA:                  -0.445
REMARK UNBOUND:                -0.266
REMARK SMILES CCCCC=CC(C)=O
REMARK SMILES IDX 4 1 3 2 2 3 1 4 5 5 6 6 7 7 9 8 8 9
REMARK H PARENT
REMARK Flexibility Score: inf
ROOT
ATOM      1  C   UNL     1      11.537 -17.265 -29.811  1.00  0.00     0.027 C 
ENDROOT
BRANCH   1   2
ATOM      2  C   UNL     1      11.702 -16.150 -28.765  1.00  0.00     0.004 C 
BRANCH   2   3
ATOM      3  C   UNL     1      13.177 -15.864 -28.454  1.00  0.00    -0.003 C 
ATOM      4  C   UNL     1      13.626 -16.598 -27.193  1.00  0.00     0.004 C 
ENDBRANCH   2   3
ENDBRANCH   1   2
BRANCH   1   5
ATOM      5  C   UNL     1      12.656 -17.274 -30.820  1.00  0.00    -0.023 C 
ATOM      6  C   UNL     1      13.381 -18.345 -31.186  1.00  0.00     0.042 C 
BRANCH   6   7
ATOM      7  C   UNL     1      13.264 -19.715 -30.636  1.00  0.00     0.152 C 
ATOM      8  O   UNL     1      12.594 -20.608 -31.217  1.00  0.00    -0.295 OA
ATOM      9  C   UNL     1      13.897 -20.028 -29.318  1.00  0.00     0.093 C 
ENDBRANCH   6   7
ENDBRANCH   1   5
TORSDOF 4
ENDMDL
MODEL 8
REMARK VINA RESULT:    -4.062      2.300      3.979
REMARK INTER + INTRA:          -5.277
REMARK INTER:                  -4.753
REMARK INTRA:                  -0.524
REMARK UNBOUND:                -0.266
REMARK SMILES CCCCC=CC(C)=O
REMARK SMILES IDX 4 1 3 2 2 3 1 4 5 5 6 6 7 7 9 8 8 9
REMARK H PARENT
REMARK Flexibility Score: inf
ROOT
ATOM      1  C   UNL     1      13.714 -17.651 -29.797  1.00  0.00     0.027 C 
ENDROOT
BRANCH   1   2
ATOM      2  C   UNL     1      13.024 -18.454 -30.913  1.00  0.00     0.004 C 
BRANCH   2   3
ATOM      3  C   UNL     1      13.032 -19.962 -30.629  1.00  0.00    -0.003 C 
ATOM      4  C   UNL     1      13.191 -20.240 -29.136  1.00  0.00     0.004 C 
ENDBRANCH   2   3
ENDBRANCH   1   2
BRANCH   1   5
ATOM      5  C   UNL     1      12.990 -16.368 -29.483  1.00  0.00    -0.023 C 
ATOM      6  C   UNL     1      11.916 -16.242 -28.686  1.00  0.00     0.042 C 
BRANCH   6   7
ATOM      7  C   UNL     1      11.196 -17.339 -28.000  1.00  0.00     0.152 C 
ATOM      8  O   UNL     1      10.290 -17.998 -28.575  1.00  0.00    -0.295 OA
ATOM      9  C   UNL     1      11.499 -17.625 -26.565  1.00  0.00     0.093 C 
ENDBRANCH   6   7
ENDBRANCH   1   5
TORSDOF 4
ENDMDL
MODEL 9
REMARK VINA RESULT:    -4.035      2.789      3.696
REMARK INTER + INTRA:          -5.244
REMARK INTER:                  -4.636
REMARK INTRA:                  -0.608
REMARK UNBOUND:                -0.266
REMARK SMILES CCCCC=CC(C)=O
REMARK SMILES IDX 4 1 3 2 2 3 1 4 5 5 6 6 7 7 9 8 8 9
REMARK H PARENT
REMARK Flexibility Score: inf
ROOT
ATOM      1  C   UNL     1      12.618 -18.702 -28.502  1.00  0.00     0.027 C 
ENDROOT
BRANCH   1   2
ATOM      2  C   UNL     1      13.540 -17.509 -28.200  1.00  0.00     0.004 C 
BRANCH   2   3
ATOM      3  C   UNL     1      12.921 -16.176 -28.642  1.00  0.00    -0.003 C 
ATOM      4  C   UNL     1      11.486 -16.369 -29.127  1.00  0.00     0.004 C 
ENDBRANCH   2   3
ENDBRANCH   1   2
BRANCH   1   5
ATOM      5  C   UNL     1      13.320 -19.787 -29.276  1.00  0.00    -0.023 C 
ATOM      6  C   UNL     1      13.387 -19.885 -30.615  1.00  0.00     0.042 C 
BRANCH   6   7
ATOM      7  C   UNL     1      12.744 -18.981 -31.596  1.00  0.00     0.152 C 
ATOM      8  O   UNL     1      11.612 -19.232 -32.085  1.00  0.00    -0.295 OA
ATOM      9  C   UNL     1      13.489 -17.776 -32.074  1.00  0.00     0.093 C 
ENDBRANCH   6   7
ENDBRANCH   1   5
TORSDOF 4
ENDMDL
