MODEL 1
REMARK VINA RESULT:    -3.683      0.000      0.000
REMARK INTER + INTRA:          -5.414
REMARK INTER:                  -5.620
REMARK INTRA:                   0.206
REMARK UNBOUND:                 0.206
REMARK SMILES CC1=CCC[C@@H](C)C(=O)C[C@@H](C(C)C)C(=O)C1
REMARK SMILES IDX 8 1 9 2 6 3 7 4 5 5 4 6 3 7 2 8 1 9 10 11 11 12 15 13 16 14
REMARK SMILES IDX 17 15 12 17 13 18 14 19
REMARK H PARENT
REMARK Flexibility Score: 70.00
ROOT
ATOM      1  C   UNL     1      19.768   2.968  23.598  1.00  0.00     0.136 C 
ATOM      2  O   UNL     1      18.590   3.174  23.856  1.00  0.00    -0.299 OA
ENDROOT
BRANCH   1   3
ATOM      3  C   UNL     1      20.792   2.960  24.723  1.00  0.00     0.053 C 
ATOM      4  C   UNL     1      21.991   3.876  24.423  1.00  0.00     0.016 C 
BRANCH   3   5
ATOM      5  C   UNL     1      21.271   1.521  25.030  1.00  0.00     0.015 C 
BRANCH   5   6
ATOM      6  C   UNL     1      20.097   0.521  25.125  1.00  0.00     0.028 C 
BRANCH   6   7
ATOM      7  C   UNL     1      20.356  -0.741  24.338  1.00  0.00    -0.028 C 
ATOM      8  C   UNL     1      19.739  -1.076  23.180  1.00  0.00    -0.070 CG0
ATOM      9  C   UNL     1      20.115  -2.381  22.527  1.00  0.00     0.039 C 
ATOM     10  G   UNL     1      18.716  -0.187  22.492  1.00  0.00     0.000 G0
ENDBRANCH   6   7
ENDBRANCH   5   6
ENDBRANCH   3   5
ENDBRANCH   1   3
BRANCH   1  11
ATOM     11  C   UNL     1      20.161   2.832  22.136  1.00  0.00     0.087 C 
BRANCH  11  12
ATOM     12  C   UNL     1      19.112   2.112  21.231  1.00  0.00     0.066 C 
BRANCH  12  13
ATOM     13  C   UNL     1      19.306   0.604  21.340  1.00  0.00     0.140 C 
ATOM     14  O   UNL     1      19.884   0.011  20.439  1.00  0.00    -0.299 OA
BRANCH  13  15
ATOM     15  C   UNL     1      18.712  -0.187  22.483  1.00  0.00     0.106 CG0
ATOM     16  G   UNL     1      19.751  -1.060  23.169  1.00  0.00     0.000 G0
ENDBRANCH  13  15
ENDBRANCH  12  13
BRANCH  12  17
ATOM     17  C   UNL     1      19.203   2.584  19.740  1.00  0.00    -0.006 C 
ATOM     18  C   UNL     1      20.220   3.732  19.573  1.00  0.00     0.008 C 
ATOM     19  C   UNL     1      17.843   3.065  19.195  1.00  0.00     0.008 C 
ENDBRANCH  12  17
ENDBRANCH  11  12
ENDBRANCH   1  11
TORSDOF 1
ENDMDL
MODEL 2
REMARK VINA RESULT:    -2.977      1.554      3.644
REMARK INTER + INTRA:          -4.337
REMARK INTER:                  -4.777
REMARK INTRA:                   0.440
REMARK UNBOUND:                 0.206
REMARK SMILES CC1=CCC[C@@H](C)C(=O)C[C@@H](C(C)C)C(=O)C1
REMARK SMILES IDX 8 1 9 2 6 3 7 4 5 5 4 6 3 7 2 8 1 9 10 11 11 12 15 13 16 14
REMARK SMILES IDX 17 15 12 17 13 18 14 19
REMARK H PARENT
REMARK Flexibility Score: 70.00
ROOT
ATOM      1  C   UNL     1      19.385  -0.149  21.570  1.00  0.00     0.136 C 
ATOM      2  O   UNL     1      19.734  -0.786  20.586  1.00  0.00    -0.299 OA
ENDROOT
BRANCH   1   3
ATOM      3  C   UNL     1      19.487  -0.785  22.950  1.00  0.00     0.053 C 
ATOM      4  C   UNL     1      20.013  -2.229  22.885  1.00  0.00     0.016 C 
BRANCH   3   5
ATOM      5  C   UNL     1      18.128  -0.734  23.687  1.00  0.00     0.015 C 
BRANCH   5   6
ATOM      6  C   UNL     1      18.050   0.438  24.692  1.00  0.00     0.028 C 
BRANCH   6   7
ATOM      7  C   UNL     1      19.416   0.944  25.088  1.00  0.00    -0.028 C 
ATOM      8  C   UNL     1      20.015   2.045  24.575  1.00  0.00    -0.070 CG0
ATOM      9  C   UNL     1      21.389   2.405  25.081  1.00  0.00     0.039 C 
ATOM     10  G   UNL     1      19.359   2.951  23.545  1.00  0.00     0.000 G0
ENDBRANCH   6   7
ENDBRANCH   5   6
ENDBRANCH   3   5
ENDBRANCH   1   3
BRANCH   1  11
ATOM     11  C   UNL     1      18.764   1.219  21.346  1.00  0.00     0.087 C 
BRANCH  11  12
ATOM     12  C   UNL     1      19.773   2.356  20.990  1.00  0.00     0.066 C 
BRANCH  12  13
ATOM     13  C   UNL     1      20.187   3.079  22.266  1.00  0.00     0.140 C 
ATOM     14  O   UNL     1      21.244   3.696  22.286  1.00  0.00    -0.299 OA
BRANCH  13  15
ATOM     15  C   UNL     1      19.373   2.968  23.534  1.00  0.00     0.106 CG0
ATOM     16  G   UNL     1      20.029   2.048  24.551  1.00  0.00     0.000 G0
ENDBRANCH  13  15
ENDBRANCH  12  13
BRANCH  12  17
ATOM     17  C   UNL     1      19.179   3.358  19.943  1.00  0.00    -0.006 C 
ATOM     18  C   UNL     1      18.137   2.675  19.034  1.00  0.00     0.008 C 
ATOM     19  C   UNL     1      20.269   3.976  19.042  1.00  0.00     0.008 C 
ENDBRANCH  12  17
ENDBRANCH  11  12
ENDBRANCH   1  11
TORSDOF 1
ENDMDL
MODEL 3
REMARK VINA RESULT:    -2.827      1.587      4.060
REMARK INTER + INTRA:          -4.108
REMARK INTER:                  -4.868
REMARK INTRA:                   0.760
REMARK UNBOUND:                 0.206
REMARK SMILES CC1=CCC[C@@H](C)C(=O)C[C@@H](C(C)C)C(=O)C1
REMARK SMILES IDX 8 1 9 2 6 3 7 4 5 5 4 6 3 7 2 8 1 9 10 11 11 12 15 13 16 14
REMARK SMILES IDX 17 15 12 17 13 18 14 19
REMARK H PARENT
REMARK Flexibility Score: 70.00
ROOT
ATOM      1  C   UNL     1      19.129   2.157  21.571  1.00  0.00     0.136 C 
ATOM      2  O   UNL     1      17.921   2.119  21.764  1.00  0.00    -0.299 OA
ENDROOT
BRANCH   1   3
ATOM      3  C   UNL     1      19.755   1.220  20.549  1.00  0.00     0.053 C 
ATOM      4  C   UNL     1      19.362   1.586  19.108  1.00  0.00     0.016 C 
BRANCH   3   5
ATOM      5  C   UNL     1      19.394  -0.254  20.853  1.00  0.00     0.015 C 
BRANCH   5   6
ATOM      6  C   UNL     1      19.620  -0.619  22.337  1.00  0.00     0.028 C 
BRANCH   6   7
ATOM      7  C   UNL     1      18.321  -0.797  23.086  1.00  0.00    -0.028 C 
ATOM      8  C   UNL     1      18.056  -0.288  24.312  1.00  0.00    -0.070 CG0
ATOM      9  C   UNL     1      16.704  -0.567  24.919  1.00  0.00     0.039 C 
ATOM     10  G   UNL     1      19.036   0.577  25.089  1.00  0.00     0.000 G0
ENDBRANCH   6   7
ENDBRANCH   5   6
ENDBRANCH   3   5
ENDBRANCH   1   3
BRANCH   1  11
ATOM     11  C   UNL     1      19.958   3.079  22.449  1.00  0.00     0.087 C 
BRANCH  11  12
ATOM     12  C   UNL     1      20.361   2.488  23.837  1.00  0.00     0.066 C 
BRANCH  12  13
ATOM     13  C   UNL     1      19.111   1.987  24.551  1.00  0.00     0.140 C 
ATOM     14  O   UNL     1      18.188   2.764  24.754  1.00  0.00    -0.299 OA
BRANCH  13  15
ATOM     15  C   UNL     1      19.029   0.582  25.102  1.00  0.00     0.106 CG0
ATOM     16  G   UNL     1      18.048  -0.278  24.320  1.00  0.00     0.000 G0
ENDBRANCH  13  15
ENDBRANCH  12  13
BRANCH  12  17
ATOM     17  C   UNL     1      21.129   3.533  24.716  1.00  0.00    -0.006 C 
ATOM     18  C   UNL     1      20.568   4.956  24.522  1.00  0.00     0.008 C 
ATOM     19  C   UNL     1      22.639   3.565  24.399  1.00  0.00     0.008 C 
ENDBRANCH  12  17
ENDBRANCH  11  12
ENDBRANCH   1  11
TORSDOF 1
ENDMDL
MODEL 4
REMARK VINA RESULT:    -2.775      1.726      3.921
REMARK INTER + INTRA:          -4.029
REMARK INTER:                  -4.815
REMARK INTRA:                   0.786
REMARK UNBOUND:                 0.206
REMARK SMILES CC1=CCC[C@@H](C)C(=O)C[C@@H](C(C)C)C(=O)C1
REMARK SMILES IDX 8 1 9 2 6 3 7 4 5 5 4 6 3 7 2 8 1 9 10 11 11 12 15 13 16 14
REMARK SMILES IDX 17 15 12 17 13 18 14 19
REMARK H PARENT
REMARK Flexibility Score: 70.00
ROOT
ATOM      1  C   UNL     1      19.717   2.692  21.363  1.00  0.00     0.136 C 
ATOM      2  O   UNL     1      20.512   3.544  21.736  1.00  0.00    -0.299 OA
ENDROOT
BRANCH   1   3
ATOM      3  C   UNL     1      19.545   2.427  19.874  1.00  0.00     0.053 C 
ATOM      4  C   UNL     1      18.179   2.906  19.354  1.00  0.00     0.016 C 
BRANCH   3   5
ATOM      5  C   UNL     1      19.756   0.929  19.549  1.00  0.00     0.015 C 
BRANCH   5   6
ATOM      6  C   UNL     1      18.839   0.012  20.389  1.00  0.00     0.028 C 
BRANCH   6   7
ATOM      7  C   UNL     1      19.583  -1.167  20.966  1.00  0.00    -0.028 C 
ATOM      8  C   UNL     1      19.625  -1.492  22.280  1.00  0.00    -0.070 CG0
ATOM      9  C   UNL     1      20.423  -2.705  22.686  1.00  0.00     0.039 C 
ATOM     10  G   UNL     1      18.881  -0.718  23.357  1.00  0.00     0.000 G0
ENDBRANCH   6   7
ENDBRANCH   5   6
ENDBRANCH   3   5
ENDBRANCH   1   3
BRANCH   1  11
ATOM     11  C   UNL     1      18.861   2.011  22.417  1.00  0.00     0.087 C 
BRANCH  11  12
ATOM     12  C   UNL     1      19.551   1.806  23.803  1.00  0.00     0.066 C 
BRANCH  12  13
ATOM     13  C   UNL     1      19.750   0.315  24.048  1.00  0.00     0.140 C 
ATOM     14  O   UNL     1      20.684  -0.055  24.747  1.00  0.00    -0.299 OA
BRANCH  13  15
ATOM     15  C   UNL     1      18.882  -0.719  23.368  1.00  0.00     0.106 CG0
ATOM     16  G   UNL     1      19.639  -1.473  22.287  1.00  0.00     0.000 G0
ENDBRANCH  13  15
ENDBRANCH  12  13
BRANCH  12  17
ATOM     17  C   UNL     1      18.735   2.463  24.967  1.00  0.00    -0.006 C 
ATOM     18  C   UNL     1      17.221   2.216  24.805  1.00  0.00     0.008 C 
ATOM     19  C   UNL     1      18.965   3.986  25.054  1.00  0.00     0.008 C 
ENDBRANCH  12  17
ENDBRANCH  11  12
ENDBRANCH   1  11
TORSDOF 1
ENDMDL
MODEL 5
REMARK VINA RESULT:    -2.772      1.779      4.159
REMARK INTER + INTRA:          -4.024
REMARK INTER:                  -4.781
REMARK INTRA:                   0.757
REMARK UNBOUND:                 0.206
REMARK SMILES CC1=CCC[C@@H](C)C(=O)C[C@@H](C(C)C)C(=O)C1
REMARK SMILES IDX 8 1 9 2 6 3 7 4 5 5 4 6 3 7 2 8 1 9 10 11 11 12 15 13 16 14
REMARK SMILES IDX 17 15 12 17 13 18 14 19
REMARK H PARENT
REMARK Flexibility Score: 70.00
ROOT
ATOM      1  C   UNL     1      20.264   1.328  24.712  1.00  0.00     0.136 C 
ATOM      2  O   UNL     1      21.433   1.177  25.040  1.00  0.00    -0.299 OA
ENDROOT
BRANCH   1   3
ATOM      3  C   UNL     1      19.589   2.672  24.941  1.00  0.00     0.053 C 
ATOM      4  C   UNL     1      18.055   2.569  24.879  1.00  0.00     0.016 C 
BRANCH   3   5
ATOM      5  C   UNL     1      20.102   3.730  23.935  1.00  0.00     0.015 C 
BRANCH   5   6
ATOM      6  C   UNL     1      20.619   3.093  22.626  1.00  0.00     0.028 C 
BRANCH   6   7
ATOM      7  C   UNL     1      19.843   3.561  21.418  1.00  0.00    -0.028 C 
ATOM      8  C   UNL     1      19.322   2.749  20.468  1.00  0.00    -0.070 CG0
ATOM      9  C   UNL     1      18.578   3.386  19.321  1.00  0.00     0.039 C 
ATOM     10  G   UNL     1      19.418   1.233  20.518  1.00  0.00     0.000 G0
ENDBRANCH   6   7
ENDBRANCH   5   6
ENDBRANCH   3   5
ENDBRANCH   1   3
BRANCH   1  11
ATOM     11  C   UNL     1      19.514   0.117  24.183  1.00  0.00     0.087 C 
BRANCH  11  12
ATOM     12  C   UNL     1      19.780  -0.225  22.683  1.00  0.00     0.066 C 
BRANCH  12  13
ATOM     13  C   UNL     1      18.899   0.654  21.803  1.00  0.00     0.140 C 
ATOM     14  O   UNL     1      17.731   0.836  22.121  1.00  0.00    -0.299 OA
BRANCH  13  15
ATOM     15  C   UNL     1      19.405   1.223  20.498  1.00  0.00     0.106 CG0
ATOM     16  G   UNL     1      19.310   2.741  20.466  1.00  0.00     0.000 G0
ENDBRANCH  13  15
ENDBRANCH  12  13
BRANCH  12  17
ATOM     17  C   UNL     1      19.541  -1.743  22.378  1.00  0.00    -0.006 C 
ATOM     18  C   UNL     1      20.476  -2.641  23.213  1.00  0.00     0.008 C 
ATOM     19  C   UNL     1      19.757  -2.081  20.888  1.00  0.00     0.008 C 
ENDBRANCH  12  17
ENDBRANCH  11  12
ENDBRANCH   1  11
TORSDOF 1
ENDMDL
MODEL 6
REMARK VINA RESULT:    -2.355      2.162      4.866
REMARK INTER + INTRA:          -3.388
REMARK INTER:                  -3.412
REMARK INTRA:                   0.023
REMARK UNBOUND:                 0.206
REMARK SMILES CC1=CCC[C@@H](C)C(=O)C[C@@H](C(C)C)C(=O)C1
REMARK SMILES IDX 8 1 9 2 6 3 7 4 5 5 4 6 3 7 2 8 1 9 10 11 11 12 15 13 16 14
REMARK SMILES IDX 17 15 12 17 13 18 14 19
REMARK H PARENT
REMARK Flexibility Score: 70.00
ROOT
ATOM      1  C   UNL     1      18.983  -0.353  22.726  1.00  0.00     0.136 C 
ATOM      2  O   UNL     1      18.040  -0.451  23.498  1.00  0.00    -0.299 OA
ENDROOT
BRANCH   1   3
ATOM      3  C   UNL     1      19.255  -1.471  21.729  1.00  0.00     0.053 C 
ATOM      4  C   UNL     1      20.212  -2.534  22.295  1.00  0.00     0.016 C 
BRANCH   3   5
ATOM      5  C   UNL     1      19.798  -0.906  20.395  1.00  0.00     0.015 C 
BRANCH   5   6
ATOM      6  C   UNL     1      18.762  -0.017  19.669  1.00  0.00     0.028 C 
BRANCH   6   7
ATOM      7  C   UNL     1      19.416   1.044  18.818  1.00  0.00    -0.028 C 
ATOM      8  C   UNL     1      19.400   2.371  19.083  1.00  0.00    -0.070 CG0
ATOM      9  C   UNL     1      20.102   3.296  18.121  1.00  0.00     0.039 C 
ATOM     10  G   UNL     1      18.743   2.970  20.317  1.00  0.00     0.000 G0
ENDBRANCH   6   7
ENDBRANCH   5   6
ENDBRANCH   3   5
ENDBRANCH   1   3
BRANCH   1  11
ATOM     11  C   UNL     1      19.904   0.845  22.878  1.00  0.00     0.087 C 
BRANCH  11  12
ATOM     12  C   UNL     1      19.200   2.237  22.803  1.00  0.00     0.066 C 
BRANCH  12  13
ATOM     13  C   UNL     1      19.629   2.949  21.526  1.00  0.00     0.140 C 
ATOM     14  O   UNL     1      20.678   3.579  21.518  1.00  0.00    -0.299 OA
BRANCH  13  15
ATOM     15  C   UNL     1      18.742   2.977  20.303  1.00  0.00     0.106 CG0
ATOM     16  G   UNL     1      19.424   2.360  19.092  1.00  0.00     0.000 G0
ENDBRANCH  13  15
ENDBRANCH  12  13
BRANCH  12  17
ATOM     17  C   UNL     1      19.503   3.115  24.065  1.00  0.00    -0.006 C 
ATOM     18  C   UNL     1      20.777   2.638  24.792  1.00  0.00     0.008 C 
ATOM     19  C   UNL     1      18.340   3.103  25.078  1.00  0.00     0.008 C 
ENDBRANCH  12  17
ENDBRANCH  11  12
ENDBRANCH   1  11
TORSDOF 1
ENDMDL
MODEL 7
REMARK VINA RESULT:    -1.965      1.637      2.445
REMARK INTER + INTRA:          -2.793
REMARK INTER:                  -3.551
REMARK INTRA:                   0.758
REMARK UNBOUND:                 0.206
REMARK SMILES CC1=CCC[C@@H](C)C(=O)C[C@@H](C(C)C)C(=O)C1
REMARK SMILES IDX 8 1 9 2 6 3 7 4 5 5 4 6 3 7 2 8 1 9 10 11 11 12 15 13 16 14
REMARK SMILES IDX 17 15 12 17 13 18 14 19
REMARK H PARENT
REMARK Flexibility Score: 70.00
ROOT
ATOM      1  C   UNL     1      19.287   2.379  23.017  1.00  0.00     0.136 C 
ATOM      2  O   UNL     1      19.585   3.174  23.898  1.00  0.00    -0.299 OA
ENDROOT
BRANCH   1   3
ATOM      3  C   UNL     1      18.415   1.178  23.355  1.00  0.00     0.053 C 
ATOM      4  C   UNL     1      17.096   1.590  24.031  1.00  0.00     0.016 C 
BRANCH   3   5
ATOM      5  C   UNL     1      19.184   0.164  24.236  1.00  0.00     0.015 C 
BRANCH   5   6
ATOM      6  C   UNL     1      20.115  -0.747  23.405  1.00  0.00     0.028 C 
BRANCH   6   7
ATOM      7  C   UNL     1      19.371  -1.489  22.322  1.00  0.00    -0.028 C 
ATOM      8  C   UNL     1      19.373  -1.156  21.009  1.00  0.00    -0.070 CG0
ATOM      9  C   UNL     1      18.568  -2.007  20.060  1.00  0.00     0.039 C 
ATOM     10  G   UNL     1      20.173   0.007  20.443  1.00  0.00     0.000 G0
ENDBRANCH   6   7
ENDBRANCH   5   6
ENDBRANCH   3   5
ENDBRANCH   1   3
BRANCH   1  11
ATOM     11  C   UNL     1      19.897   2.583  21.640  1.00  0.00     0.087 C 
BRANCH  11  12
ATOM     12  C   UNL     1      18.927   2.338  20.441  1.00  0.00     0.066 C 
BRANCH  12  13
ATOM     13  C   UNL     1      19.306   1.035  19.747  1.00  0.00     0.140 C 
ATOM     14  O   UNL     1      18.827   0.783  18.650  1.00  0.00    -0.299 OA
BRANCH  13  15
ATOM     15  C   UNL     1      20.179   0.005  20.426  1.00  0.00     0.106 CG0
ATOM     16  G   UNL     1      19.361  -1.138  21.007  1.00  0.00     0.000 G0
ENDBRANCH  13  15
ENDBRANCH  12  13
BRANCH  12  17
ATOM     17  C   UNL     1      18.932   3.535  19.431  1.00  0.00    -0.006 C 
ATOM     18  C   UNL     1      17.748   3.448  18.446  1.00  0.00     0.008 C 
ATOM     19  C   UNL     1      20.236   3.601  18.609  1.00  0.00     0.008 C 
ENDBRANCH  12  17
ENDBRANCH  11  12
ENDBRANCH   1  11
TORSDOF 1
ENDMDL
MODEL 8
REMARK VINA RESULT:    -1.830      2.364      5.151
REMARK INTER + INTRA:          -2.586
REMARK INTER:                  -3.805
REMARK INTRA:                   1.219
REMARK UNBOUND:                 0.206
REMARK SMILES CC1=CCC[C@@H](C)C(=O)C[C@@H](C(C)C)C(=O)C1
REMARK SMILES IDX 8 1 9 2 6 3 7 4 5 5 4 6 3 7 2 8 1 9 10 11 11 12 15 13 16 14
REMARK SMILES IDX 17 15 12 17 13 18 14 19
REMARK H PARENT
REMARK Flexibility Score: 70.00
ROOT
ATOM      1  C   UNL     1      19.228  -0.278  22.513  1.00  0.00     0.136 C 
ATOM      2  O   UNL     1      20.071  -1.135  22.288  1.00  0.00    -0.299 OA
ENDROOT
BRANCH   1   3
ATOM      3  C   UNL     1      18.749   0.618  21.379  1.00  0.00     0.053 C 
ATOM      4  C   UNL     1      19.402   0.251  20.035  1.00  0.00     0.016 C 
BRANCH   3   5
ATOM      5  C   UNL     1      18.991   2.110  21.711  1.00  0.00     0.015 C 
BRANCH   5   6
ATOM      6  C   UNL     1      20.485   2.423  21.951  1.00  0.00     0.028 C 
BRANCH   6   7
ATOM      7  C   UNL     1      20.682   3.585  22.894  1.00  0.00    -0.028 C 
ATOM      8  C   UNL     1      20.361   3.581  24.209  1.00  0.00    -0.070 CG0
ATOM      9  C   UNL     1      20.621   4.834  25.007  1.00  0.00     0.039 C 
ATOM     10  G   UNL     1      19.786   2.370  24.926  1.00  0.00     0.000 G0
ENDBRANCH   6   7
ENDBRANCH   5   6
ENDBRANCH   3   5
ENDBRANCH   1   3
BRANCH   1  11
ATOM     11  C   UNL     1      18.776  -0.087  23.950  1.00  0.00     0.087 C 
BRANCH  11  12
ATOM     12  C   UNL     1      17.667   0.993  24.160  1.00  0.00     0.066 C 
BRANCH  12  13
ATOM     13  C   UNL     1      18.290   2.238  24.779  1.00  0.00     0.140 C 
ATOM     14  O   UNL     1      17.570   3.185  25.068  1.00  0.00    -0.299 OA
BRANCH  13  15
ATOM     15  C   UNL     1      19.786   2.369  24.952  1.00  0.00     0.106 CG0
ATOM     16  G   UNL     1      20.339   3.575  24.209  1.00  0.00     0.000 G0
ENDBRANCH  13  15
ENDBRANCH  12  13
BRANCH  12  17
ATOM     17  C   UNL     1      16.488   0.457  25.041  1.00  0.00    -0.006 C 
ATOM     18  C   UNL     1      16.168  -1.017  24.720  1.00  0.00     0.008 C 
ATOM     19  C   UNL     1      15.197   1.279  24.851  1.00  0.00     0.008 C 
ENDBRANCH  12  17
ENDBRANCH  11  12
ENDBRANCH   1  11
TORSDOF 1
ENDMDL
MODEL 9
REMARK VINA RESULT:    -1.042      1.894      4.235
REMARK INTER + INTRA:          -1.384
REMARK INTER:                  -1.886
REMARK INTRA:                   0.502
REMARK UNBOUND:                 0.206
REMARK SMILES CC1=CCC[C@@H](C)C(=O)C[C@@H](C(C)C)C(=O)C1
REMARK SMILES IDX 8 1 9 2 6 3 7 4 5 5 4 6 3 7 2 8 1 9 10 11 11 12 15 13 16 14
REMARK SMILES IDX 17 15 12 17 13 18 14 19
REMARK H PARENT
REMARK Flexibility Score: 70.00
ROOT
ATOM      1  C   UNL     1      18.903   1.610  23.404  1.00  0.00     0.136 C 
ATOM      2  O   UNL     1      18.029   2.001  24.166  1.00  0.00    -0.299 OA
ENDROOT
BRANCH   1   3
ATOM      3  C   UNL     1      20.347   2.026  23.643  1.00  0.00     0.053 C 
ATOM      4  C   UNL     1      20.625   2.330  25.125  1.00  0.00     0.016 C 
BRANCH   3   5
ATOM      5  C   UNL     1      20.729   3.237  22.759  1.00  0.00     0.015 C 
BRANCH   5   6
ATOM      6  C   UNL     1      19.499   3.878  22.079  1.00  0.00     0.028 C 
BRANCH   6   7
ATOM      7  C   UNL     1      19.766   4.243  20.639  1.00  0.00    -0.028 C 
ATOM      8  C   UNL     1      19.353   3.526  19.567  1.00  0.00    -0.070 CG0
ATOM      9  C   UNL     1      19.713   4.033  18.193  1.00  0.00     0.039 C 
ATOM     10  G   UNL     1      18.517   2.261  19.678  1.00  0.00     0.000 G0
ENDBRANCH   6   7
ENDBRANCH   5   6
ENDBRANCH   3   5
ENDBRANCH   1   3
BRANCH   1  11
ATOM     11  C   UNL     1      18.476   0.804  22.189  1.00  0.00     0.087 C 
BRANCH  11  12
ATOM     12  C   UNL     1      19.630   0.414  21.212  1.00  0.00     0.066 C 
BRANCH  12  13
ATOM     13  C   UNL     1      19.357   1.023  19.842  1.00  0.00     0.140 C 
ATOM     14  O   UNL     1      19.897   0.540  18.856  1.00  0.00    -0.299 OA
BRANCH  13  15
ATOM     15  C   UNL     1      18.517   2.270  19.688  1.00  0.00     0.106 CG0
ATOM     16  G   UNL     1      19.373   3.519  19.553  1.00  0.00     0.000 G0
ENDBRANCH  13  15
ENDBRANCH  12  13
BRANCH  12  17
ATOM     17  C   UNL     1      19.809  -1.139  21.111  1.00  0.00    -0.006 C 
ATOM     18  C   UNL     1      18.594  -1.805  20.435  1.00  0.00     0.008 C 
ATOM     19  C   UNL     1      20.010  -1.796  22.492  1.00  0.00     0.008 C 
ENDBRANCH  12  17
ENDBRANCH  11  12
ENDBRANCH   1  11
TORSDOF 1
ENDMDL
