MODEL 1
REMARK VINA RESULT:    -4.063      0.000      0.000
REMARK INTER + INTRA:          -4.771
REMARK INTER:                  -4.657
REMARK INTRA:                  -0.114
REMARK UNBOUND:                -0.114
REMARK SMILES C=Cc1ccc(O)c(OC)c1
REMARK SMILES IDX 8 1 6 2 5 3 4 4 3 5 11 6 9 7 10 8 7 9 2 11 1 12
REMARK H PARENT 7 10
REMARK Flexibility Score: inf
ROOT
ATOM      1  C   UNL     1      79.267  14.935   4.876  1.00  0.00     0.161 A 
ATOM      2  C   UNL     1      79.356  16.332   4.748  1.00  0.00     0.157 A 
ATOM      3  C   UNL     1      79.590  16.907   3.496  1.00  0.00     0.051 A 
ATOM      4  C   UNL     1      79.730  16.102   2.365  1.00  0.00     0.012 A 
ATOM      5  C   UNL     1      79.629  14.706   2.464  1.00  0.00    -0.022 A 
ATOM      6  C   UNL     1      79.409  14.127   3.729  1.00  0.00     0.058 A 
ENDROOT
BRANCH   1   7
ATOM      7  O   UNL     1      79.042  14.387   6.150  1.00  0.00    -0.493 OA
ATOM      8  C   UNL     1      80.061  13.882   7.006  1.00  0.00     0.278 C 
ENDBRANCH   1   7
BRANCH   2   9
ATOM      9  O   UNL     1      79.219  17.168   5.856  1.00  0.00    -0.504 OA
ATOM     10  H   UNL     1      78.857  16.837   6.742  1.00  0.00     0.293 HD
ENDBRANCH   2   9
BRANCH   5  11
ATOM     11  C   UNL     1      79.792  13.896   1.231  1.00  0.00     0.000 C 
ATOM     12  C   UNL     1      79.356  14.268   0.027  1.00  0.00     0.009 C 
ENDBRANCH   5  11
TORSDOF 3
ENDMDL
MODEL 2
REMARK VINA RESULT:    -4.029      2.616      4.295
REMARK INTER + INTRA:          -4.731
REMARK INTER:                  -4.638
REMARK INTRA:                  -0.093
REMARK UNBOUND:                -0.114
REMARK SMILES C=Cc1ccc(O)c(OC)c1
REMARK SMILES IDX 8 1 6 2 5 3 4 4 3 5 11 6 9 7 10 8 7 9 2 11 1 12
REMARK H PARENT 7 10
REMARK Flexibility Score: inf
ROOT
ATOM      1  C   UNL     1      79.323  16.020   1.523  1.00  0.00     0.161 A 
ATOM      2  C   UNL     1      79.471  17.387   1.815  1.00  0.00     0.157 A 
ATOM      3  C   UNL     1      79.793  17.795   3.111  1.00  0.00     0.051 A 
ATOM      4  C   UNL     1      79.977  16.852   4.123  1.00  0.00     0.012 A 
ATOM      5  C   UNL     1      79.850  15.481   3.854  1.00  0.00    -0.022 A 
ATOM      6  C   UNL     1      79.510  15.071   2.550  1.00  0.00     0.058 A 
ENDROOT
BRANCH   1   7
ATOM      7  O   UNL     1      78.988  15.642   0.212  1.00  0.00    -0.493 OA
ATOM      8  C   UNL     1      78.156  14.537  -0.125  1.00  0.00     0.278 C 
ENDBRANCH   1   7
BRANCH   2   9
ATOM      9  O   UNL     1      79.298  18.358   0.828  1.00  0.00    -0.504 OA
ATOM     10  H   UNL     1      78.917  18.139  -0.084  1.00  0.00     0.293 HD
ENDBRANCH   2   9
BRANCH   5  11
ATOM     11  C   UNL     1      80.050  14.521   4.968  1.00  0.00     0.000 C 
ATOM     12  C   UNL     1      79.567  14.689   6.200  1.00  0.00     0.009 C 
ENDBRANCH   5  11
TORSDOF 3
ENDMDL
MODEL 3
REMARK VINA RESULT:    -3.894      2.458      4.543
REMARK INTER + INTRA:          -4.577
REMARK INTER:                  -4.482
REMARK INTRA:                  -0.095
REMARK UNBOUND:                -0.114
REMARK SMILES C=Cc1ccc(O)c(OC)c1
REMARK SMILES IDX 8 1 6 2 5 3 4 4 3 5 11 6 9 7 10 8 7 9 2 11 1 12
REMARK H PARENT 7 10
REMARK Flexibility Score: inf
ROOT
ATOM      1  C   UNL     1      79.503  16.441   2.245  1.00  0.00     0.161 A 
ATOM      2  C   UNL     1      79.119  15.291   1.534  1.00  0.00     0.157 A 
ATOM      3  C   UNL     1      78.868  14.098   2.216  1.00  0.00     0.051 A 
ATOM      4  C   UNL     1      78.989  14.040   3.606  1.00  0.00     0.012 A 
ATOM      5  C   UNL     1      79.354  15.179   4.339  1.00  0.00    -0.022 A 
ATOM      6  C   UNL     1      79.622  16.377   3.649  1.00  0.00     0.058 A 
ENDROOT
BRANCH   1   7
ATOM      7  O   UNL     1      79.758  17.623   1.529  1.00  0.00    -0.493 OA
ATOM      8  C   UNL     1      80.494  18.732   2.034  1.00  0.00     0.278 C 
ENDBRANCH   1   7
BRANCH   2   9
ATOM      9  O   UNL     1      78.986  15.311   0.146  1.00  0.00    -0.504 OA
ATOM     10  H   UNL     1      79.121  14.484  -0.422  1.00  0.00     0.293 HD
ENDBRANCH   2   9
BRANCH   5  11
ATOM     11  C   UNL     1      79.474  15.061   5.814  1.00  0.00     0.000 C 
ATOM     12  C   UNL     1      79.770  13.929   6.454  1.00  0.00     0.009 C 
ENDBRANCH   5  11
TORSDOF 3
ENDMDL
MODEL 4
REMARK VINA RESULT:    -3.715      1.545      2.841
REMARK INTER + INTRA:          -4.372
REMARK INTER:                  -4.304
REMARK INTRA:                  -0.068
REMARK UNBOUND:                -0.114
REMARK SMILES C=Cc1ccc(O)c(OC)c1
REMARK SMILES IDX 8 1 6 2 5 3 4 4 3 5 11 6 9 7 10 8 7 9 2 11 1 12
REMARK H PARENT 7 10
REMARK Flexibility Score: inf
ROOT
ATOM      1  C   UNL     1      79.695  15.926   4.390  1.00  0.00     0.161 A 
ATOM      2  C   UNL     1      80.268  14.678   4.087  1.00  0.00     0.157 A 
ATOM      3  C   UNL     1      80.290  14.220   2.767  1.00  0.00     0.051 A 
ATOM      4  C   UNL     1      79.753  14.997   1.741  1.00  0.00     0.012 A 
ATOM      5  C   UNL     1      79.190  16.252   2.015  1.00  0.00    -0.022 A 
ATOM      6  C   UNL     1      79.153  16.707   3.348  1.00  0.00     0.058 A 
ENDROOT
BRANCH   1   7
ATOM      7  O   UNL     1      79.678  16.354   5.728  1.00  0.00    -0.493 OA
ATOM      8  C   UNL     1      79.376  17.680   6.150  1.00  0.00     0.278 C 
ENDBRANCH   1   7
BRANCH   2   9
ATOM      9  O   UNL     1      80.817  13.875   5.086  1.00  0.00    -0.504 OA
ATOM     10  H   UNL     1      80.578  13.989   6.064  1.00  0.00     0.293 HD
ENDBRANCH   2   9
BRANCH   5  11
ATOM     11  C   UNL     1      78.626  17.036   0.887  1.00  0.00     0.000 C 
ATOM     12  C   UNL     1      78.140  18.273   1.002  1.00  0.00     0.009 C 
ENDBRANCH   5  11
TORSDOF 3
ENDMDL
MODEL 5
REMARK VINA RESULT:    -3.553      2.048      3.251
REMARK INTER + INTRA:          -4.187
REMARK INTER:                  -4.099
REMARK INTRA:                  -0.088
REMARK UNBOUND:                -0.114
REMARK SMILES C=Cc1ccc(O)c(OC)c1
REMARK SMILES IDX 8 1 6 2 5 3 4 4 3 5 11 6 9 7 10 8 7 9 2 11 1 12
REMARK H PARENT 7 10
REMARK Flexibility Score: inf
ROOT
ATOM      1  C   UNL     1      78.635  15.739   3.701  1.00  0.00     0.161 A 
ATOM      2  C   UNL     1      77.891  14.998   2.766  1.00  0.00     0.157 A 
ATOM      3  C   UNL     1      77.871  15.385   1.424  1.00  0.00     0.051 A 
ATOM      4  C   UNL     1      78.592  16.502   1.000  1.00  0.00     0.012 A 
ATOM      5  C   UNL     1      79.355  17.248   1.911  1.00  0.00    -0.022 A 
ATOM      6  C   UNL     1      79.362  16.866   3.267  1.00  0.00     0.058 A 
ENDROOT
BRANCH   1   7
ATOM      7  O   UNL     1      78.626  15.330   5.046  1.00  0.00    -0.493 OA
ATOM      8  C   UNL     1      79.740  14.761   5.726  1.00  0.00     0.278 C 
ENDBRANCH   1   7
BRANCH   2   9
ATOM      9  O   UNL     1      77.160  13.875   3.152  1.00  0.00    -0.504 OA
ATOM     10  H   UNL     1      77.158  13.533   4.106  1.00  0.00     0.293 HD
ENDBRANCH   2   9
BRANCH   5  11
ATOM     11  C   UNL     1      80.099  18.430   1.409  1.00  0.00     0.000 C 
ATOM     12  C   UNL     1      80.976  19.127   2.132  1.00  0.00     0.009 C 
ENDBRANCH   5  11
TORSDOF 3
ENDMDL
MODEL 6
REMARK VINA RESULT:    -3.291     19.010     20.747
REMARK INTER + INTRA:          -3.885
REMARK INTER:                  -3.879
REMARK INTRA:                  -0.007
REMARK UNBOUND:                -0.114
REMARK SMILES C=Cc1ccc(O)c(OC)c1
REMARK SMILES IDX 8 1 6 2 5 3 4 4 3 5 11 6 9 7 10 8 7 9 2 11 1 12
REMARK H PARENT 7 10
REMARK Flexibility Score: inf
ROOT
ATOM      1  C   UNL     1      91.311  27.306  14.457  1.00  0.00     0.161 A 
ATOM      2  C   UNL     1      89.909  27.199  14.493  1.00  0.00     0.157 A 
ATOM      3  C   UNL     1      89.260  26.911  15.696  1.00  0.00     0.051 A 
ATOM      4  C   UNL     1      89.994  26.736  16.870  1.00  0.00     0.012 A 
ATOM      5  C   UNL     1      91.392  26.853  16.863  1.00  0.00    -0.022 A 
ATOM      6  C   UNL     1      92.047  27.128  15.646  1.00  0.00     0.058 A 
ENDROOT
BRANCH   1   7
ATOM      7  O   UNL     1      91.935  27.585  13.229  1.00  0.00    -0.493 OA
ATOM      8  C   UNL     1      92.121  26.640  12.181  1.00  0.00     0.278 C 
ENDBRANCH   1   7
BRANCH   2   9
ATOM      9  O   UNL     1      89.143  27.371  13.340  1.00  0.00    -0.504 OA
ATOM     10  H   UNL     1      89.429  27.986  12.588  1.00  0.00     0.293 HD
ENDBRANCH   2   9
BRANCH   5  11
ATOM     11  C   UNL     1      92.125  26.651  18.138  1.00  0.00     0.000 C 
ATOM     12  C   UNL     1      91.975  27.418  19.219  1.00  0.00     0.009 C 
ENDBRANCH   5  11
TORSDOF 3
ENDMDL
