MODEL 1
REMARK VINA RESULT:    -3.859      0.000      0.000
REMARK INTER + INTRA:         -12.774
REMARK INTER:                  -9.724
REMARK INTRA:                  -3.050
REMARK UNBOUND:                -3.050
REMARK SMILES CCCCCCCCCCCCCCCCCCCCCCCCCCCC(=O)[O-]
REMARK SMILES IDX 15 1 16 2 17 3 18 4 19 5 20 6 21 7 22 8 23 9 24 10 25 11
REMARK SMILES IDX 26 12 27 13 28 14 29 15 30 16 14 17 13 18 12 19 11 20 10 21
REMARK SMILES IDX 9 22 8 23 7 24 6 25 5 26 4 27 3 28 2 29 1 30
REMARK H PARENT
REMARK Flexibility Score: inf
ROOT
ATOM      1  C   UNL     1      15.359   4.870  -6.592  1.00  0.00     0.000 C 
ENDROOT
BRANCH   1   2
ATOM      2  C   UNL     1      16.449   5.667  -7.319  1.00  0.00     0.000 C 
BRANCH   2   3
ATOM      3  C   UNL     1      17.326   4.748  -8.182  1.00  0.00     0.000 C 
BRANCH   3   4
ATOM      4  C   UNL     1      18.816   5.120  -8.113  1.00  0.00     0.000 C 
BRANCH   4   5
ATOM      5  C   UNL     1      19.177   5.874  -6.821  1.00  0.00     0.000 C 
BRANCH   5   6
ATOM      6  C   UNL     1      20.070   7.099  -7.077  1.00  0.00     0.000 C 
BRANCH   6   7
ATOM      7  C   UNL     1      19.257   8.391  -7.277  1.00  0.00     0.000 C 
BRANCH   7   8
ATOM      8  C   UNL     1      20.121   9.663  -7.181  1.00  0.00     0.000 C 
BRANCH   8   9
ATOM      9  C   UNL     1      20.053  10.389  -5.825  1.00  0.00     0.000 C 
BRANCH   9  10
ATOM     10  C   UNL     1      19.739  11.887  -5.964  1.00  0.00     0.000 C 
BRANCH  10  11
ATOM     11  C   UNL     1      18.801  12.146  -7.149  1.00  0.00     0.000 C 
BRANCH  11  12
ATOM     12  C   UNL     1      17.334  11.955  -6.741  1.00  0.00     0.006 C 
BRANCH  12  13
ATOM     13  C   UNL     1      16.388  12.348  -7.881  1.00  0.00     0.053 C 
BRANCH  13  14
ATOM     14  C   UNL     1      15.355  13.317  -7.397  1.00  0.00     0.041 C 
ATOM     15  O   UNL     1      14.211  13.337  -7.923  1.00  0.00    -0.550 OA
ATOM     16  O   UNL     1      15.666  14.222  -6.389  1.00  0.00    -0.550 OA
ENDBRANCH  13  14
ENDBRANCH  12  13
ENDBRANCH  11  12
ENDBRANCH  10  11
ENDBRANCH   9  10
ENDBRANCH   8   9
ENDBRANCH   7   8
ENDBRANCH   6   7
ENDBRANCH   5   6
ENDBRANCH   4   5
ENDBRANCH   3   4
ENDBRANCH   2   3
ENDBRANCH   1   2
BRANCH   1  17
ATOM     17  C   UNL     1      15.859   3.469  -6.224  1.00  0.00     0.000 C 
BRANCH  17  18
ATOM     18  C   UNL     1      16.729   3.508  -4.959  1.00  0.00     0.000 C 
BRANCH  18  19
ATOM     19  C   UNL     1      17.611   2.257  -4.803  1.00  0.00     0.000 C 
BRANCH  19  20
ATOM     20  C   UNL     1      19.103   2.461  -5.143  1.00  0.00     0.000 C 
BRANCH  20  21
ATOM     21  C   UNL     1      19.997   2.838  -3.948  1.00  0.00     0.000 C 
BRANCH  21  22
ATOM     22  C   UNL     1      20.023   4.353  -3.686  1.00  0.00    -0.000 C 
BRANCH  22  23
ATOM     23  C   UNL     1      20.070   4.699  -2.187  1.00  0.00    -0.000 C 
BRANCH  23  24
ATOM     24  C   UNL     1      18.997   5.700  -1.721  1.00  0.00    -0.000 C 
BRANCH  24  25
ATOM     25  C   UNL     1      17.922   5.114  -0.785  1.00  0.00    -0.000 C 
BRANCH  25  26
ATOM     26  C   UNL     1      17.395   3.735  -1.236  1.00  0.00    -0.000 C 
BRANCH  26  27
ATOM     27  C   UNL     1      17.580   2.658  -0.156  1.00  0.00    -0.000 C 
BRANCH  27  28
ATOM     28  C   UNL     1      16.872   3.049   1.146  1.00  0.00    -0.000 C 
BRANCH  28  29
ATOM     29  C   UNL     1      17.873   3.166   2.301  1.00  0.00    -0.003 C 
ATOM     30  C   UNL     1      17.620   4.424   3.127  1.00  0.00     0.004 C 
ENDBRANCH  28  29
ENDBRANCH  27  28
ENDBRANCH  26  27
ENDBRANCH  25  26
ENDBRANCH  24  25
ENDBRANCH  23  24
ENDBRANCH  22  23
ENDBRANCH  21  22
ENDBRANCH  20  21
ENDBRANCH  19  20
ENDBRANCH  18  19
ENDBRANCH  17  18
ENDBRANCH   1  17
TORSDOF 26
ENDMDL
MODEL 2
REMARK VINA RESULT:    -3.709      1.861      4.457
REMARK INTER + INTRA:         -12.397
REMARK INTER:                  -9.704
REMARK INTRA:                  -2.692
REMARK UNBOUND:                -3.050
REMARK SMILES CCCCCCCCCCCCCCCCCCCCCCCCCCCC(=O)[O-]
REMARK SMILES IDX 15 1 16 2 17 3 18 4 19 5 20 6 21 7 22 8 23 9 24 10 25 11
REMARK SMILES IDX 26 12 27 13 28 14 29 15 30 16 14 17 13 18 12 19 11 20 10 21
REMARK SMILES IDX 9 22 8 23 7 24 6 25 5 26 4 27 3 28 2 29 1 30
REMARK H PARENT
REMARK Flexibility Score: inf
ROOT
ATOM      1  C   UNL     1      20.122   8.347  -6.936  1.00  0.00     0.000 C 
ENDROOT
BRANCH   1   2
ATOM      2  C   UNL     1      19.760   9.618  -7.715  1.00  0.00     0.000 C 
BRANCH   2   3
ATOM      3  C   UNL     1      19.708  10.841  -6.787  1.00  0.00     0.000 C 
BRANCH   3   4
ATOM      4  C   UNL     1      18.272  11.338  -6.548  1.00  0.00     0.000 C 
BRANCH   4   5
ATOM      5  C   UNL     1      18.143  12.178  -5.266  1.00  0.00     0.000 C 
BRANCH   5   6
ATOM      6  C   UNL     1      17.266  13.426  -5.458  1.00  0.00     0.000 C 
BRANCH   6   7
ATOM      7  C   UNL     1      18.022  14.732  -5.156  1.00  0.00     0.000 C 
BRANCH   7   8
ATOM      8  C   UNL     1      19.386  14.812  -5.869  1.00  0.00     0.000 C 
BRANCH   8   9
ATOM      9  C   UNL     1      19.353  15.474  -7.258  1.00  0.00     0.000 C 
BRANCH   9  10
ATOM     10  C   UNL     1      19.765  14.518  -8.388  1.00  0.00     0.000 C 
BRANCH  10  11
ATOM     11  C   UNL     1      18.901  14.733  -9.636  1.00  0.00     0.000 C 
BRANCH  11  12
ATOM     12  C   UNL     1      17.408  14.656  -9.292  1.00  0.00     0.006 C 
BRANCH  12  13
ATOM     13  C   UNL     1      16.941  13.201  -9.181  1.00  0.00     0.053 C 
BRANCH  13  14
ATOM     14  C   UNL     1      15.446  13.130  -9.138  1.00  0.00     0.041 C 
ATOM     15  O   UNL     1      14.824  12.398  -9.951  1.00  0.00    -0.550 OA
ATOM     16  O   UNL     1      14.739  13.900  -8.222  1.00  0.00    -0.550 OA
ENDBRANCH  13  14
ENDBRANCH  12  13
ENDBRANCH  11  12
ENDBRANCH  10  11
ENDBRANCH   9  10
ENDBRANCH   8   9
ENDBRANCH   7   8
ENDBRANCH   6   7
ENDBRANCH   5   6
ENDBRANCH   4   5
ENDBRANCH   3   4
ENDBRANCH   2   3
ENDBRANCH   1   2
BRANCH   1  17
ATOM     17  C   UNL     1      19.908   7.098  -7.798  1.00  0.00     0.000 C 
BRANCH  17  18
ATOM     18  C   UNL     1      20.125   5.818  -6.979  1.00  0.00     0.000 C 
BRANCH  18  19
ATOM     19  C   UNL     1      18.864   5.378  -6.215  1.00  0.00     0.000 C 
BRANCH  19  20
ATOM     20  C   UNL     1      17.714   4.846  -7.099  1.00  0.00     0.000 C 
BRANCH  20  21
ATOM     21  C   UNL     1      16.559   4.178  -6.333  1.00  0.00     0.000 C 
BRANCH  21  22
ATOM     22  C   UNL     1      16.748   2.659  -6.189  1.00  0.00    -0.000 C 
BRANCH  22  23
ATOM     23  C   UNL     1      17.501   2.269  -4.906  1.00  0.00    -0.000 C 
BRANCH  23  24
ATOM     24  C   UNL     1      17.151   3.117  -3.668  1.00  0.00    -0.000 C 
BRANCH  24  25
ATOM     25  C   UNL     1      18.260   3.199  -2.601  1.00  0.00    -0.000 C 
BRANCH  25  26
ATOM     26  C   UNL     1      19.148   4.455  -2.726  1.00  0.00    -0.000 C 
BRANCH  26  27
ATOM     27  C   UNL     1      19.138   5.306  -1.448  1.00  0.00    -0.000 C 
BRANCH  27  28
ATOM     28  C   UNL     1      17.786   5.216  -0.730  1.00  0.00    -0.000 C 
BRANCH  28  29
ATOM     29  C   UNL     1      17.977   4.953   0.768  1.00  0.00    -0.003 C 
ATOM     30  C   UNL     1      18.647   6.139   1.456  1.00  0.00     0.004 C 
ENDBRANCH  28  29
ENDBRANCH  27  28
ENDBRANCH  26  27
ENDBRANCH  25  26
ENDBRANCH  24  25
ENDBRANCH  23  24
ENDBRANCH  22  23
ENDBRANCH  21  22
ENDBRANCH  20  21
ENDBRANCH  19  20
ENDBRANCH  18  19
ENDBRANCH  17  18
ENDBRANCH   1  17
TORSDOF 26
ENDMDL
MODEL 3
REMARK VINA RESULT:    -3.707      4.198      9.656
REMARK INTER + INTRA:         -12.390
REMARK INTER:                  -9.970
REMARK INTRA:                  -2.421
REMARK UNBOUND:                -3.050
REMARK SMILES CCCCCCCCCCCCCCCCCCCCCCCCCCCC(=O)[O-]
REMARK SMILES IDX 15 1 16 2 17 3 18 4 19 5 20 6 21 7 22 8 23 9 24 10 25 11
REMARK SMILES IDX 26 12 27 13 28 14 29 15 30 16 14 17 13 18 12 19 11 20 10 21
REMARK SMILES IDX 9 22 8 23 7 24 6 25 5 26 4 27 3 28 2 29 1 30
REMARK H PARENT
REMARK Flexibility Score: inf
ROOT
ATOM      1  C   UNL     1      15.759   4.846  -6.638  1.00  0.00     0.000 C 
ENDROOT
BRANCH   1   2
ATOM      2  C   UNL     1      16.177   3.371  -6.626  1.00  0.00     0.000 C 
BRANCH   2   3
ATOM      3  C   UNL     1      16.611   2.929  -5.221  1.00  0.00     0.000 C 
BRANCH   3   4
ATOM      4  C   UNL     1      18.139   2.833  -5.079  1.00  0.00     0.000 C 
BRANCH   4   5
ATOM      5  C   UNL     1      18.724   3.960  -4.210  1.00  0.00     0.000 C 
BRANCH   5   6
ATOM      6  C   UNL     1      19.797   3.460  -3.230  1.00  0.00     0.000 C 
BRANCH   6   7
ATOM      7  C   UNL     1      19.201   2.646  -2.066  1.00  0.00     0.000 C 
BRANCH   7   8
ATOM      8  C   UNL     1      19.468   3.287  -0.690  1.00  0.00     0.000 C 
BRANCH   8   9
ATOM      9  C   UNL     1      18.332   4.180  -0.161  1.00  0.00     0.000 C 
BRANCH   9  10
ATOM     10  C   UNL     1      18.816   5.577   0.260  1.00  0.00     0.000 C 
BRANCH  10  11
ATOM     11  C   UNL     1      18.481   5.855   1.730  1.00  0.00     0.000 C 
BRANCH  11  12
ATOM     12  C   UNL     1      18.616   4.583   2.576  1.00  0.00     0.006 C 
BRANCH  12  13
ATOM     13  C   UNL     1      17.378   4.369   3.454  1.00  0.00     0.053 C 
BRANCH  13  14
ATOM     14  C   UNL     1      17.031   2.915   3.528  1.00  0.00     0.041 C 
ATOM     15  O   UNL     1      17.105   2.301   4.626  1.00  0.00    -0.550 OA
ATOM     16  O   UNL     1      16.659   2.228   2.379  1.00  0.00    -0.550 OA
ENDBRANCH  13  14
ENDBRANCH  12  13
ENDBRANCH  11  12
ENDBRANCH  10  11
ENDBRANCH   9  10
ENDBRANCH   8   9
ENDBRANCH   7   8
ENDBRANCH   6   7
ENDBRANCH   5   6
ENDBRANCH   4   5
ENDBRANCH   3   4
ENDBRANCH   2   3
ENDBRANCH   1   2
BRANCH   1  17
ATOM     17  C   UNL     1      16.908   5.736  -7.124  1.00  0.00     0.000 C 
BRANCH  17  18
ATOM     18  C   UNL     1      17.710   5.046  -8.236  1.00  0.00     0.000 C 
BRANCH  18  19
ATOM     19  C   UNL     1      19.218   4.980  -7.931  1.00  0.00     0.000 C 
BRANCH  19  20
ATOM     20  C   UNL     1      19.761   6.136  -7.062  1.00  0.00     0.000 C 
BRANCH  20  21
ATOM     21  C   UNL     1      20.124   7.416  -7.835  1.00  0.00     0.000 C 
BRANCH  21  22
ATOM     22  C   UNL     1      20.022   8.679  -6.964  1.00  0.00    -0.000 C 
BRANCH  22  23
ATOM     23  C   UNL     1      19.500   9.900  -7.742  1.00  0.00    -0.000 C 
BRANCH  23  24
ATOM     24  C   UNL     1      18.814  10.973  -6.876  1.00  0.00    -0.000 C 
BRANCH  24  25
ATOM     25  C   UNL     1      18.943  12.415  -7.403  1.00  0.00    -0.000 C 
BRANCH  25  26
ATOM     26  C   UNL     1      18.470  13.486  -6.398  1.00  0.00    -0.000 C 
BRANCH  26  27
ATOM     27  C   UNL     1      17.297  14.316  -6.939  1.00  0.00    -0.000 C 
BRANCH  27  28
ATOM     28  C   UNL     1      15.964  13.850  -6.341  1.00  0.00    -0.000 C 
BRANCH  28  29
ATOM     29  C   UNL     1      15.185  12.989  -7.342  1.00  0.00    -0.003 C 
ATOM     30  C   UNL     1      15.603  13.296  -8.777  1.00  0.00     0.004 C 
ENDBRANCH  28  29
ENDBRANCH  27  28
ENDBRANCH  26  27
ENDBRANCH  25  26
ENDBRANCH  24  25
ENDBRANCH  23  24
ENDBRANCH  22  23
ENDBRANCH  21  22
ENDBRANCH  20  21
ENDBRANCH  19  20
ENDBRANCH  18  19
ENDBRANCH  17  18
ENDBRANCH   1  17
TORSDOF 26
ENDMDL
MODEL 4
REMARK VINA RESULT:    -3.701      1.718      5.226
REMARK INTER + INTRA:         -12.376
REMARK INTER:                  -9.478
REMARK INTRA:                  -2.898
REMARK UNBOUND:                -3.050
REMARK SMILES CCCCCCCCCCCCCCCCCCCCCCCCCCCC(=O)[O-]
REMARK SMILES IDX 15 1 16 2 17 3 18 4 19 5 20 6 21 7 22 8 23 9 24 10 25 11
REMARK SMILES IDX 26 12 27 13 28 14 29 15 30 16 14 17 13 18 12 19 11 20 10 21
REMARK SMILES IDX 9 22 8 23 7 24 6 25 5 26 4 27 3 28 2 29 1 30
REMARK H PARENT
REMARK Flexibility Score: inf
ROOT
ATOM      1  C   UNL     1      19.112   9.858  -7.364  1.00  0.00     0.000 C 
ENDROOT
BRANCH   1   2
ATOM      2  C   UNL     1      19.759  11.207  -7.700  1.00  0.00     0.000 C 
BRANCH   2   3
ATOM      3  C   UNL     1      20.118  11.983  -6.424  1.00  0.00     0.000 C 
BRANCH   3   4
ATOM      4  C   UNL     1      19.175  11.660  -5.253  1.00  0.00     0.000 C 
BRANCH   4   5
ATOM      5  C   UNL     1      17.930  12.564  -5.230  1.00  0.00     0.000 C 
BRANCH   5   6
ATOM      6  C   UNL     1      18.240  13.990  -4.747  1.00  0.00     0.000 C 
BRANCH   6   7
ATOM      7  C   UNL     1      17.877  15.060  -5.794  1.00  0.00     0.000 C 
BRANCH   7   8
ATOM      8  C   UNL     1      18.904  15.149  -6.939  1.00  0.00     0.000 C 
BRANCH   8   9
ATOM      9  C   UNL     1      18.296  15.369  -8.336  1.00  0.00     0.000 C 
BRANCH   9  10
ATOM     10  C   UNL     1      18.995  14.545  -9.429  1.00  0.00     0.000 C 
BRANCH  10  11
ATOM     11  C   UNL     1      18.121  13.368  -9.876  1.00  0.00     0.000 C 
BRANCH  11  12
ATOM     12  C   UNL     1      16.651  13.602  -9.506  1.00  0.00     0.006 C 
BRANCH  12  13
ATOM     13  C   UNL     1      16.174  12.584  -8.465  1.00  0.00     0.053 C 
BRANCH  13  14
ATOM     14  C   UNL     1      15.050  13.148  -7.653  1.00  0.00     0.041 C 
ATOM     15  O   UNL     1      14.239  13.959  -8.173  1.00  0.00    -0.550 OA
ATOM     16  O   UNL     1      14.918  12.806  -6.313  1.00  0.00    -0.550 OA
ENDBRANCH  13  14
ENDBRANCH  12  13
ENDBRANCH  11  12
ENDBRANCH  10  11
ENDBRANCH   9  10
ENDBRANCH   8   9
ENDBRANCH   7   8
ENDBRANCH   6   7
ENDBRANCH   5   6
ENDBRANCH   4   5
ENDBRANCH   3   4
ENDBRANCH   2   3
ENDBRANCH   1   2
BRANCH   1  17
ATOM     17  C   UNL     1      20.125   8.716  -7.506  1.00  0.00     0.000 C 
BRANCH  17  18
ATOM     18  C   UNL     1      19.491   7.368  -7.136  1.00  0.00     0.000 C 
BRANCH  18  19
ATOM     19  C   UNL     1      19.867   6.243  -8.117  1.00  0.00     0.000 C 
BRANCH  19  20
ATOM     20  C   UNL     1      19.141   4.900  -7.883  1.00  0.00     0.000 C 
BRANCH  20  21
ATOM     21  C   UNL     1      17.765   4.778  -8.562  1.00  0.00     0.000 C 
BRANCH  21  22
ATOM     22  C   UNL     1      16.615   5.226  -7.646  1.00  0.00    -0.000 C 
BRANCH  22  23
ATOM     23  C   UNL     1      16.643   4.537  -6.271  1.00  0.00    -0.000 C 
BRANCH  23  24
ATOM     24  C   UNL     1      15.866   3.209  -6.197  1.00  0.00    -0.000 C 
BRANCH  24  25
ATOM     25  C   UNL     1      16.712   1.980  -5.811  1.00  0.00    -0.000 C 
BRANCH  25  26
ATOM     26  C   UNL     1      17.978   2.331  -5.001  1.00  0.00    -0.000 C 
BRANCH  26  27
ATOM     27  C   UNL     1      17.713   2.363  -3.489  1.00  0.00    -0.000 C 
BRANCH  27  28
ATOM     28  C   UNL     1      18.758   3.215  -2.759  1.00  0.00    -0.000 C 
BRANCH  28  29
ATOM     29  C   UNL     1      18.107   4.046  -1.646  1.00  0.00    -0.003 C 
ATOM     30  C   UNL     1      16.972   3.278  -0.976  1.00  0.00     0.004 C 
ENDBRANCH  28  29
ENDBRANCH  27  28
ENDBRANCH  26  27
ENDBRANCH  25  26
ENDBRANCH  24  25
ENDBRANCH  23  24
ENDBRANCH  22  23
ENDBRANCH  21  22
ENDBRANCH  20  21
ENDBRANCH  19  20
ENDBRANCH  18  19
ENDBRANCH  17  18
ENDBRANCH   1  17
TORSDOF 26
ENDMDL
MODEL 5
REMARK VINA RESULT:    -3.607      4.008      9.378
REMARK INTER + INTRA:         -12.140
REMARK INTER:                 -10.040
REMARK INTRA:                  -2.100
REMARK UNBOUND:                -3.050
REMARK SMILES CCCCCCCCCCCCCCCCCCCCCCCCCCCC(=O)[O-]
REMARK SMILES IDX 15 1 16 2 17 3 18 4 19 5 20 6 21 7 22 8 23 9 24 10 25 11
REMARK SMILES IDX 26 12 27 13 28 14 29 15 30 16 14 17 13 18 12 19 11 20 10 21
REMARK SMILES IDX 9 22 8 23 7 24 6 25 5 26 4 27 3 28 2 29 1 30
REMARK H PARENT
REMARK Flexibility Score: inf
ROOT
ATOM      1  C   UNL     1      16.910   5.848  -7.234  1.00  0.00     0.000 C 
ENDROOT
BRANCH   1   2
ATOM      2  C   UNL     1      15.519   5.210  -7.130  1.00  0.00     0.000 C 
BRANCH   2   3
ATOM      3  C   UNL     1      15.456   4.204  -5.971  1.00  0.00     0.000 C 
BRANCH   3   4
ATOM      4  C   UNL     1      15.916   2.797  -6.387  1.00  0.00     0.000 C 
BRANCH   4   5
ATOM      5  C   UNL     1      16.838   2.143  -5.344  1.00  0.00     0.000 C 
BRANCH   5   6
ATOM      6  C   UNL     1      17.256   3.115  -4.228  1.00  0.00     0.000 C 
BRANCH   6   7
ATOM      7  C   UNL     1      18.749   3.487  -4.298  1.00  0.00     0.000 C 
BRANCH   7   8
ATOM      8  C   UNL     1      19.436   3.464  -2.920  1.00  0.00     0.000 C 
BRANCH   8   9
ATOM      9  C   UNL     1      18.704   2.639  -1.846  1.00  0.00     0.000 C 
BRANCH   9  10
ATOM     10  C   UNL     1      18.818   3.250  -0.441  1.00  0.00     0.000 C 
BRANCH  10  11
ATOM     11  C   UNL     1      18.779   4.782  -0.501  1.00  0.00     0.000 C 
BRANCH  11  12
ATOM     12  C   UNL     1      18.368   5.375   0.853  1.00  0.00     0.006 C 
BRANCH  12  13
ATOM     13  C   UNL     1      17.721   4.313   1.749  1.00  0.00     0.053 C 
BRANCH  13  14
ATOM     14  C   UNL     1      18.402   4.262   3.080  1.00  0.00     0.041 C 
ATOM     15  O   UNL     1      18.852   5.316   3.603  1.00  0.00    -0.550 OA
ATOM     16  O   UNL     1      18.571   3.045   3.730  1.00  0.00    -0.550 OA
ENDBRANCH  13  14
ENDBRANCH  12  13
ENDBRANCH  11  12
ENDBRANCH  10  11
ENDBRANCH   9  10
ENDBRANCH   8   9
ENDBRANCH   7   8
ENDBRANCH   6   7
ENDBRANCH   5   6
ENDBRANCH   4   5
ENDBRANCH   3   4
ENDBRANCH   2   3
ENDBRANCH   1   2
BRANCH   1  17
ATOM     17  C   UNL     1      17.830   5.010  -8.129  1.00  0.00     0.000 C 
BRANCH  17  18
ATOM     18  C   UNL     1      19.249   5.594  -8.161  1.00  0.00     0.000 C 
BRANCH  18  19
ATOM     19  C   UNL     1      19.548   6.503  -6.956  1.00  0.00     0.000 C 
BRANCH  19  20
ATOM     20  C   UNL     1      20.124   7.892  -7.310  1.00  0.00     0.000 C 
BRANCH  20  21
ATOM     21  C   UNL     1      19.130   9.060  -7.179  1.00  0.00     0.000 C 
BRANCH  21  22
ATOM     22  C   UNL     1      19.824  10.390  -6.845  1.00  0.00    -0.000 C 
BRANCH  22  23
ATOM     23  C   UNL     1      19.385  10.968  -5.488  1.00  0.00    -0.000 C 
BRANCH  23  24
ATOM     24  C   UNL     1      19.953  12.363  -5.165  1.00  0.00    -0.000 C 
BRANCH  24  25
ATOM     25  C   UNL     1      18.999  13.291  -4.389  1.00  0.00    -0.000 C 
BRANCH  25  26
ATOM     26  C   UNL     1      18.807  14.673  -5.050  1.00  0.00    -0.000 C 
BRANCH  26  27
ATOM     27  C   UNL     1      17.331  15.093  -5.105  1.00  0.00    -0.000 C 
BRANCH  27  28
ATOM     28  C   UNL     1      16.700  14.729  -6.454  1.00  0.00    -0.000 C 
BRANCH  28  29
ATOM     29  C   UNL     1      16.061  13.336  -6.402  1.00  0.00    -0.003 C 
ATOM     30  C   UNL     1      14.932  13.208  -7.421  1.00  0.00     0.004 C 
ENDBRANCH  28  29
ENDBRANCH  27  28
ENDBRANCH  26  27
ENDBRANCH  25  26
ENDBRANCH  24  25
ENDBRANCH  23  24
ENDBRANCH  22  23
ENDBRANCH  21  22
ENDBRANCH  20  21
ENDBRANCH  19  20
ENDBRANCH  18  19
ENDBRANCH  17  18
ENDBRANCH   1  17
TORSDOF 26
ENDMDL
MODEL 6
REMARK VINA RESULT:    -3.473      3.743      8.799
REMARK INTER + INTRA:         -11.802
REMARK INTER:                  -9.358
REMARK INTRA:                  -2.444
REMARK UNBOUND:                -3.050
REMARK SMILES CCCCCCCCCCCCCCCCCCCCCCCCCCCC(=O)[O-]
REMARK SMILES IDX 15 1 16 2 17 3 18 4 19 5 20 6 21 7 22 8 23 9 24 10 25 11
REMARK SMILES IDX 26 12 27 13 28 14 29 15 30 16 14 17 13 18 12 19 11 20 10 21
REMARK SMILES IDX 9 22 8 23 7 24 6 25 5 26 4 27 3 28 2 29 1 30
REMARK H PARENT
REMARK Flexibility Score: inf
ROOT
ATOM      1  C   UNL     1      15.355   4.208  -6.364  1.00  0.00     0.000 C 
ENDROOT
BRANCH   1   2
ATOM      2  C   UNL     1      15.544   2.746  -6.784  1.00  0.00     0.000 C 
BRANCH   2   3
ATOM      3  C   UNL     1      16.972   2.264  -6.490  1.00  0.00     0.000 C 
BRANCH   3   4
ATOM      4  C   UNL     1      17.846   2.206  -7.754  1.00  0.00     0.000 C 
BRANCH   4   5
ATOM      5  C   UNL     1      19.340   2.415  -7.450  1.00  0.00     0.000 C 
BRANCH   5   6
ATOM      6  C   UNL     1      19.672   2.250  -5.957  1.00  0.00     0.000 C 
BRANCH   6   7
ATOM      7  C   UNL     1      19.991   3.592  -5.272  1.00  0.00     0.000 C 
BRANCH   7   8
ATOM      8  C   UNL     1      20.032   3.483  -3.736  1.00  0.00     0.000 C 
BRANCH   8   9
ATOM      9  C   UNL     1      19.036   4.396  -2.997  1.00  0.00     0.000 C 
BRANCH   9  10
ATOM     10  C   UNL     1      19.616   4.992  -1.705  1.00  0.00     0.000 C 
BRANCH  10  11
ATOM     11  C   UNL     1      18.585   5.879  -0.996  1.00  0.00     0.000 C 
BRANCH  11  12
ATOM     12  C   UNL     1      18.595   5.631   0.517  1.00  0.00     0.006 C 
BRANCH  12  13
ATOM     13  C   UNL     1      19.128   4.233   0.845  1.00  0.00     0.053 C 
BRANCH  13  14
ATOM     14  C   UNL     1      18.007   3.244   0.913  1.00  0.00     0.041 C 
ATOM     15  O   UNL     1      18.213   2.032   0.636  1.00  0.00    -0.550 OA
ATOM     16  O   UNL     1      16.726   3.665   1.248  1.00  0.00    -0.550 OA
ENDBRANCH  13  14
ENDBRANCH  12  13
ENDBRANCH  11  12
ENDBRANCH  10  11
ENDBRANCH   9  10
ENDBRANCH   8   9
ENDBRANCH   7   8
ENDBRANCH   6   7
ENDBRANCH   5   6
ENDBRANCH   4   5
ENDBRANCH   3   4
ENDBRANCH   2   3
ENDBRANCH   1   2
BRANCH   1  17
ATOM     17  C   UNL     1      16.707   4.886  -6.118  1.00  0.00     0.000 C 
BRANCH  17  18
ATOM     18  C   UNL     1      17.086   5.804  -7.288  1.00  0.00     0.000 C 
BRANCH  18  19
ATOM     19  C   UNL     1      18.600   5.826  -7.564  1.00  0.00     0.000 C 
BRANCH  19  20
ATOM     20  C   UNL     1      19.393   6.894  -6.780  1.00  0.00     0.000 C 
BRANCH  20  21
ATOM     21  C   UNL     1      20.125   7.931  -7.651  1.00  0.00     0.000 C 
BRANCH  21  22
ATOM     22  C   UNL     1      20.119   9.335  -7.027  1.00  0.00    -0.000 C 
BRANCH  22  23
ATOM     23  C   UNL     1      19.878  10.448  -8.063  1.00  0.00    -0.000 C 
BRANCH  23  24
ATOM     24  C   UNL     1      19.327  11.764  -7.481  1.00  0.00    -0.000 C 
BRANCH  24  25
ATOM     25  C   UNL     1      18.953  11.709  -5.987  1.00  0.00    -0.000 C 
BRANCH  25  26
ATOM     26  C   UNL     1      17.730  12.577  -5.623  1.00  0.00    -0.000 C 
BRANCH  26  27
ATOM     27  C   UNL     1      16.455  12.121  -6.347  1.00  0.00    -0.000 C 
BRANCH  27  28
ATOM     28  C   UNL     1      15.540  13.309  -6.665  1.00  0.00    -0.000 C 
BRANCH  28  29
ATOM     29  C   UNL     1      15.167  13.332  -8.152  1.00  0.00    -0.003 C 
ATOM     30  C   UNL     1      16.395  13.121  -9.033  1.00  0.00     0.004 C 
ENDBRANCH  28  29
ENDBRANCH  27  28
ENDBRANCH  26  27
ENDBRANCH  25  26
ENDBRANCH  24  25
ENDBRANCH  23  24
ENDBRANCH  22  23
ENDBRANCH  21  22
ENDBRANCH  20  21
ENDBRANCH  19  20
ENDBRANCH  18  19
ENDBRANCH  17  18
ENDBRANCH   1  17
TORSDOF 26
ENDMDL
MODEL 7
REMARK VINA RESULT:    -3.419      1.733      2.217
REMARK INTER + INTRA:         -11.666
REMARK INTER:                  -9.531
REMARK INTRA:                  -2.136
REMARK UNBOUND:                -3.050
REMARK SMILES CCCCCCCCCCCCCCCCCCCCCCCCCCCC(=O)[O-]
REMARK SMILES IDX 15 1 16 2 17 3 18 4 19 5 20 6 21 7 22 8 23 9 24 10 25 11
REMARK SMILES IDX 26 12 27 13 28 14 29 15 30 16 14 17 13 18 12 19 11 20 10 21
REMARK SMILES IDX 9 22 8 23 7 24 6 25 5 26 4 27 3 28 2 29 1 30
REMARK H PARENT
REMARK Flexibility Score: inf
ROOT
ATOM      1  C   UNL     1      15.467   5.341  -6.717  1.00  0.00     0.000 C 
ENDROOT
BRANCH   1   2
ATOM      2  C   UNL     1      16.773   5.972  -7.213  1.00  0.00     0.000 C 
BRANCH   2   3
ATOM      3  C   UNL     1      17.439   5.096  -8.285  1.00  0.00     0.000 C 
BRANCH   3   4
ATOM      4  C   UNL     1      18.965   5.014  -8.114  1.00  0.00     0.000 C 
BRANCH   4   5
ATOM      5  C   UNL     1      19.487   5.948  -7.008  1.00  0.00     0.000 C 
BRANCH   5   6
ATOM      6  C   UNL     1      20.121   7.233  -7.564  1.00  0.00     0.000 C 
BRANCH   6   7
ATOM      7  C   UNL     1      19.266   8.482  -7.284  1.00  0.00     0.000 C 
BRANCH   7   8
ATOM      8  C   UNL     1      20.109   9.762  -7.128  1.00  0.00     0.000 C 
BRANCH   8   9
ATOM      9  C   UNL     1      19.325  11.000  -6.657  1.00  0.00     0.000 C 
BRANCH   9  10
ATOM     10  C   UNL     1      18.646  11.753  -7.812  1.00  0.00     0.000 C 
BRANCH  10  11
ATOM     11  C   UNL     1      17.330  12.393  -7.354  1.00  0.00     0.000 C 
BRANCH  11  12
ATOM     12  C   UNL     1      17.269  12.493  -5.824  1.00  0.00     0.006 C 
BRANCH  12  13
ATOM     13  C   UNL     1      17.318  13.954  -5.363  1.00  0.00     0.053 C 
BRANCH  13  14
ATOM     14  C   UNL     1      18.693  14.312  -4.893  1.00  0.00     0.041 C 
ATOM     15  O   UNL     1      19.460  14.984  -5.632  1.00  0.00    -0.550 OA
ATOM     16  O   UNL     1      19.140  13.875  -3.652  1.00  0.00    -0.550 OA
ENDBRANCH  13  14
ENDBRANCH  12  13
ENDBRANCH  11  12
ENDBRANCH  10  11
ENDBRANCH   9  10
ENDBRANCH   8   9
ENDBRANCH   7   8
ENDBRANCH   6   7
ENDBRANCH   5   6
ENDBRANCH   4   5
ENDBRANCH   3   4
ENDBRANCH   2   3
ENDBRANCH   1   2
BRANCH   1  17
ATOM     17  C   UNL     1      15.740   4.317  -5.610  1.00  0.00     0.000 C 
BRANCH  17  18
ATOM     18  C   UNL     1      16.050   2.934  -6.201  1.00  0.00     0.000 C 
BRANCH  18  19
ATOM     19  C   UNL     1      17.383   2.354  -5.695  1.00  0.00     0.000 C 
BRANCH  19  20
ATOM     20  C   UNL     1      18.156   3.256  -4.708  1.00  0.00     0.000 C 
BRANCH  20  21
ATOM     21  C   UNL     1      19.471   2.658  -4.175  1.00  0.00     0.000 C 
BRANCH  21  22
ATOM     22  C   UNL     1      19.551   2.687  -2.640  1.00  0.00    -0.000 C 
BRANCH  22  23
ATOM     23  C   UNL     1      18.991   3.987  -2.036  1.00  0.00    -0.000 C 
BRANCH  23  24
ATOM     24  C   UNL     1      18.959   4.024  -0.497  1.00  0.00    -0.000 C 
BRANCH  24  25
ATOM     25  C   UNL     1      19.210   5.410   0.126  1.00  0.00    -0.000 C 
BRANCH  25  26
ATOM     26  C   UNL     1      18.369   5.681   1.392  1.00  0.00    -0.000 C 
BRANCH  26  27
ATOM     27  C   UNL     1      17.684   4.411   1.919  1.00  0.00    -0.000 C 
BRANCH  27  28
ATOM     28  C   UNL     1      18.519   3.743   3.017  1.00  0.00    -0.000 C 
BRANCH  28  29
ATOM     29  C   UNL     1      17.619   3.016   4.024  1.00  0.00    -0.003 C 
ATOM     30  C   UNL     1      16.387   2.430   3.340  1.00  0.00     0.004 C 
ENDBRANCH  28  29
ENDBRANCH  27  28
ENDBRANCH  26  27
ENDBRANCH  25  26
ENDBRANCH  24  25
ENDBRANCH  23  24
ENDBRANCH  22  23
ENDBRANCH  21  22
ENDBRANCH  20  21
ENDBRANCH  19  20
ENDBRANCH  18  19
ENDBRANCH  17  18
ENDBRANCH   1  17
TORSDOF 26
ENDMDL
MODEL 8
REMARK VINA RESULT:    -2.595      3.396      9.697
REMARK INTER + INTRA:          -9.588
REMARK INTER:                  -7.394
REMARK INTRA:                  -2.194
REMARK UNBOUND:                -3.050
REMARK SMILES CCCCCCCCCCCCCCCCCCCCCCCCCCCC(=O)[O-]
REMARK SMILES IDX 15 1 16 2 17 3 18 4 19 5 20 6 21 7 22 8 23 9 24 10 25 11
REMARK SMILES IDX 26 12 27 13 28 14 29 15 30 16 14 17 13 18 12 19 11 20 10 21
REMARK SMILES IDX 9 22 8 23 7 24 6 25 5 26 4 27 3 28 2 29 1 30
REMARK H PARENT
REMARK Flexibility Score: inf
ROOT
ATOM      1  C   UNL     1      16.960   5.693  -7.108  1.00  0.00     0.000 C 
ENDROOT
BRANCH   1   2
ATOM      2  C   UNL     1      16.381   4.297  -7.362  1.00  0.00     0.000 C 
BRANCH   2   3
ATOM      3  C   UNL     1      15.906   3.647  -6.054  1.00  0.00     0.000 C 
BRANCH   3   4
ATOM      4  C   UNL     1      16.177   2.134  -6.015  1.00  0.00     0.000 C 
BRANCH   4   5
ATOM      5  C   UNL     1      17.113   1.730  -4.863  1.00  0.00     0.000 C 
BRANCH   5   6
ATOM      6  C   UNL     1      18.081   2.855  -4.462  1.00  0.00     0.000 C 
BRANCH   6   7
ATOM      7  C   UNL     1      18.708   2.627  -3.074  1.00  0.00     0.000 C 
BRANCH   7   8
ATOM      8  C   UNL     1      19.172   3.936  -2.405  1.00  0.00     0.000 C 
BRANCH   8   9
ATOM      9  C   UNL     1      19.346   3.855  -0.878  1.00  0.00     0.000 C 
BRANCH   9  10
ATOM     10  C   UNL     1      18.258   3.012  -0.195  1.00  0.00     0.000 C 
BRANCH  10  11
ATOM     11  C   UNL     1      18.446   2.996   1.326  1.00  0.00     0.000 C 
BRANCH  11  12
ATOM     12  C   UNL     1      17.316   3.758   2.029  1.00  0.00     0.006 C 
BRANCH  12  13
ATOM     13  C   UNL     1      17.874   4.857   2.940  1.00  0.00     0.053 C 
BRANCH  13  14
ATOM     14  C   UNL     1      18.752   5.788   2.165  1.00  0.00     0.041 C 
ATOM     15  O   UNL     1      18.271   6.479   1.228  1.00  0.00    -0.550 OA
ATOM     16  O   UNL     1      20.109   5.868   2.454  1.00  0.00    -0.550 OA
ENDBRANCH  13  14
ENDBRANCH  12  13
ENDBRANCH  11  12
ENDBRANCH  10  11
ENDBRANCH   9  10
ENDBRANCH   8   9
ENDBRANCH   7   8
ENDBRANCH   6   7
ENDBRANCH   5   6
ENDBRANCH   4   5
ENDBRANCH   3   4
ENDBRANCH   2   3
ENDBRANCH   1   2
BRANCH   1  17
ATOM     17  C   UNL     1      18.465   5.619  -6.830  1.00  0.00     0.000 C 
BRANCH  17  18
ATOM     18  C   UNL     1      19.258   6.445  -7.853  1.00  0.00     0.000 C 
BRANCH  18  19
ATOM     19  C   UNL     1      20.125   7.534  -7.197  1.00  0.00     0.000 C 
BRANCH  19  20
ATOM     20  C   UNL     1      19.795   8.981  -7.626  1.00  0.00     0.000 C 
BRANCH  20  21
ATOM     21  C   UNL     1      18.643   9.643  -6.848  1.00  0.00     0.000 C 
BRANCH  21  22
ATOM     22  C   UNL     1      18.484  11.134  -7.186  1.00  0.00    -0.000 C 
BRANCH  22  23
ATOM     23  C   UNL     1      19.363  11.575  -8.370  1.00  0.00    -0.000 C 
BRANCH  23  24
ATOM     24  C   UNL     1      19.068  12.990  -8.901  1.00  0.00    -0.000 C 
BRANCH  24  25
ATOM     25  C   UNL     1      17.882  13.084  -9.880  1.00  0.00    -0.000 C 
BRANCH  25  26
ATOM     26  C   UNL     1      16.669  13.851  -9.310  1.00  0.00    -0.000 C 
BRANCH  26  27
ATOM     27  C   UNL     1      15.683  12.925  -8.583  1.00  0.00    -0.000 C 
BRANCH  27  28
ATOM     28  C   UNL     1      15.187  13.556  -7.277  1.00  0.00    -0.000 C 
BRANCH  28  29
ATOM     29  C   UNL     1      16.340  13.730  -6.280  1.00  0.00    -0.003 C 
ATOM     30  C   UNL     1      16.421  15.167  -5.775  1.00  0.00     0.004 C 
ENDBRANCH  28  29
ENDBRANCH  27  28
ENDBRANCH  26  27
ENDBRANCH  25  26
ENDBRANCH  24  25
ENDBRANCH  23  24
ENDBRANCH  22  23
ENDBRANCH  21  22
ENDBRANCH  20  21
ENDBRANCH  19  20
ENDBRANCH  18  19
ENDBRANCH  17  18
ENDBRANCH   1  17
TORSDOF 26
ENDMDL
MODEL 9
REMARK VINA RESULT:    -2.463      4.218      9.407
REMARK INTER + INTRA:          -9.257
REMARK INTER:                  -6.975
REMARK INTRA:                  -2.281
REMARK UNBOUND:                -3.050
REMARK SMILES CCCCCCCCCCCCCCCCCCCCCCCCCCCC(=O)[O-]
REMARK SMILES IDX 15 1 16 2 17 3 18 4 19 5 20 6 21 7 22 8 23 9 24 10 25 11
REMARK SMILES IDX 26 12 27 13 28 14 29 15 30 16 14 17 13 18 12 19 11 20 10 21
REMARK SMILES IDX 9 22 8 23 7 24 6 25 5 26 4 27 3 28 2 29 1 30
REMARK H PARENT
REMARK Flexibility Score: inf
ROOT
ATOM      1  C   UNL     1      16.100   5.481  -6.857  1.00  0.00     0.000 C 
ENDROOT
BRANCH   1   2
ATOM      2  C   UNL     1      15.895   4.224  -6.004  1.00  0.00     0.000 C 
BRANCH   2   3
ATOM      3  C   UNL     1      16.395   2.969  -6.735  1.00  0.00     0.000 C 
BRANCH   3   4
ATOM      4  C   UNL     1      16.769   1.833  -5.769  1.00  0.00     0.000 C 
BRANCH   4   5
ATOM      5  C   UNL     1      17.375   2.352  -4.453  1.00  0.00     0.000 C 
BRANCH   5   6
ATOM      6  C   UNL     1      18.866   2.704  -4.583  1.00  0.00     0.000 C 
BRANCH   6   7
ATOM      7  C   UNL     1      19.241   3.980  -3.806  1.00  0.00     0.000 C 
BRANCH   7   8
ATOM      8  C   UNL     1      19.231   3.775  -2.279  1.00  0.00     0.000 C 
BRANCH   8   9
ATOM      9  C   UNL     1      18.268   4.697  -1.510  1.00  0.00     0.000 C 
BRANCH   9  10
ATOM     10  C   UNL     1      18.379   4.539   0.015  1.00  0.00     0.000 C 
BRANCH  10  11
ATOM     11  C   UNL     1      18.421   5.906   0.709  1.00  0.00     0.000 C 
BRANCH  11  12
ATOM     12  C   UNL     1      18.338   5.751   2.233  1.00  0.00     0.006 C 
BRANCH  12  13
ATOM     13  C   UNL     1      18.967   4.430   2.690  1.00  0.00     0.053 C 
BRANCH  13  14
ATOM     14  C   UNL     1      18.495   4.071   4.064  1.00  0.00     0.041 C 
ATOM     15  O   UNL     1      17.943   2.958   4.273  1.00  0.00    -0.550 OA
ATOM     16  O   UNL     1      18.633   4.978   5.107  1.00  0.00    -0.550 OA
ENDBRANCH  13  14
ENDBRANCH  12  13
ENDBRANCH  11  12
ENDBRANCH  10  11
ENDBRANCH   9  10
ENDBRANCH   8   9
ENDBRANCH   7   8
ENDBRANCH   6   7
ENDBRANCH   5   6
ENDBRANCH   4   5
ENDBRANCH   3   4
ENDBRANCH   2   3
ENDBRANCH   1   2
BRANCH   1  17
ATOM     17  C   UNL     1      17.411   5.398  -7.647  1.00  0.00     0.000 C 
BRANCH  17  18
ATOM     18  C   UNL     1      18.586   5.948  -6.827  1.00  0.00     0.000 C 
BRANCH  18  19
ATOM     19  C   UNL     1      19.535   6.829  -7.660  1.00  0.00     0.000 C 
BRANCH  19  20
ATOM     20  C   UNL     1      20.125   8.044  -6.912  1.00  0.00     0.000 C 
BRANCH  20  21
ATOM     21  C   UNL     1      19.818   9.412  -7.548  1.00  0.00     0.000 C 
BRANCH  21  22
ATOM     22  C   UNL     1      19.481  10.487  -6.502  1.00  0.00    -0.000 C 
BRANCH  22  23
ATOM     23  C   UNL     1      18.057  11.050  -6.662  1.00  0.00    -0.000 C 
BRANCH  23  24
ATOM     24  C   UNL     1      17.834  11.892  -7.932  1.00  0.00    -0.000 C 
BRANCH  24  25
ATOM     25  C   UNL     1      16.813  13.036  -7.783  1.00  0.00    -0.000 C 
BRANCH  25  26
ATOM     26  C   UNL     1      16.331  13.251  -6.333  1.00  0.00    -0.000 C 
BRANCH  26  27
ATOM     27  C   UNL     1      16.730  14.629  -5.784  1.00  0.00    -0.000 C 
BRANCH  27  28
ATOM     28  C   UNL     1      17.552  14.499  -4.498  1.00  0.00    -0.000 C 
BRANCH  28  29
ATOM     29  C   UNL     1      19.027  14.225  -4.815  1.00  0.00    -0.003 C 
ATOM     30  C   UNL     1      19.752  13.636  -3.609  1.00  0.00     0.004 C 
ENDBRANCH  28  29
ENDBRANCH  27  28
ENDBRANCH  26  27
ENDBRANCH  25  26
ENDBRANCH  24  25
ENDBRANCH  23  24
ENDBRANCH  22  23
ENDBRANCH  21  22
ENDBRANCH  20  21
ENDBRANCH  19  20
ENDBRANCH  18  19
ENDBRANCH  17  18
ENDBRANCH   1  17
TORSDOF 26
ENDMDL
