MODEL 1
REMARK VINA RESULT:    -4.563      0.000      0.000
REMARK INTER + INTRA:          -5.393
REMARK INTER:                  -5.096
REMARK INTRA:                  -0.296
REMARK UNBOUND:                -0.296
REMARK SMILES CC(=O)c1ccc(O)cc1O
REMARK SMILES IDX 4 1 10 2 9 3 7 4 6 5 5 6 2 7 1 8 3 9 11 10 8 12
REMARK H PARENT 11 11 8 13
REMARK Flexibility Score: inf
ROOT
ATOM      1  C   UNL     1      13.204  66.744 -29.823  1.00  0.00     0.059 A 
ATOM      2  C   UNL     1      13.016  67.990 -29.176  1.00  0.00     0.130 A 
ATOM      3  C   UNL     1      14.085  68.590 -28.500  1.00  0.00     0.093 A 
ATOM      4  C   UNL     1      15.347  67.990 -28.482  1.00  0.00     0.119 A 
ATOM      5  C   UNL     1      15.545  66.774 -29.144  1.00  0.00     0.047 A 
ATOM      6  C   UNL     1      14.483  66.156 -29.808  1.00  0.00     0.019 A 
ENDROOT
BRANCH   1   7
ATOM      7  C   UNL     1      12.089  66.023 -30.480  1.00  0.00     0.163 C 
ATOM      8  C   UNL     1      12.227  65.482 -31.870  1.00  0.00     0.093 C 
ATOM      9  O   UNL     1      11.028  65.785 -29.840  1.00  0.00    -0.294 OA
ENDBRANCH   1   7
BRANCH   2  10
ATOM     10  O   UNL     1      11.799  68.675 -29.209  1.00  0.00    -0.507 OA
ATOM     11  H   UNL     1      11.006  68.373 -29.757  1.00  0.00     0.293 HD
ENDBRANCH   2  10
BRANCH   4  12
ATOM     12  O   UNL     1      16.395  68.611 -27.808  1.00  0.00    -0.508 OA
ATOM     13  H   UNL     1      17.346  68.572 -28.158  1.00  0.00     0.293 HD
ENDBRANCH   4  12
TORSDOF 3
ENDMDL
MODEL 2
REMARK VINA RESULT:    -4.523      1.484      2.250
REMARK INTER + INTRA:          -5.348
REMARK INTER:                  -5.083
REMARK INTRA:                  -0.265
REMARK UNBOUND:                -0.296
REMARK SMILES CC(=O)c1ccc(O)cc1O
REMARK SMILES IDX 4 1 10 2 9 3 7 4 6 5 5 6 2 7 1 8 3 9 11 10 8 12
REMARK H PARENT 11 11 8 13
REMARK Flexibility Score: inf
ROOT
ATOM      1  C   UNL     1      13.476  66.836 -29.438  1.00  0.00     0.059 A 
ATOM      2  C   UNL     1      14.813  66.614 -29.022  1.00  0.00     0.130 A 
ATOM      3  C   UNL     1      15.632  67.705 -28.706  1.00  0.00     0.093 A 
ATOM      4  C   UNL     1      15.137  69.011 -28.764  1.00  0.00     0.119 A 
ATOM      5  C   UNL     1      13.811  69.232 -29.146  1.00  0.00     0.047 A 
ATOM      6  C   UNL     1      12.987  68.155 -29.480  1.00  0.00     0.019 A 
ENDROOT
BRANCH   1   7
ATOM      7  C   UNL     1      12.592  65.726 -29.865  1.00  0.00     0.163 C 
ATOM      8  C   UNL     1      12.232  65.533 -31.306  1.00  0.00     0.093 C 
ATOM      9  O   UNL     1      12.196  64.876 -29.022  1.00  0.00    -0.294 OA
ENDBRANCH   1   7
BRANCH   2  10
ATOM     10  O   UNL     1      15.350  65.332 -28.881  1.00  0.00    -0.507 OA
ATOM     11  H   UNL     1      14.821  64.542 -28.541  1.00  0.00     0.293 HD
ENDBRANCH   2  10
BRANCH   4  12
ATOM     12  O   UNL     1      15.971  70.077 -28.437  1.00  0.00    -0.508 OA
ATOM     13  H   UNL     1      16.904  70.157 -28.825  1.00  0.00     0.293 HD
ENDBRANCH   4  12
TORSDOF 3
ENDMDL
MODEL 3
REMARK VINA RESULT:    -4.495      8.691      9.665
REMARK INTER + INTRA:          -5.316
REMARK INTER:                  -5.009
REMARK INTRA:                  -0.307
REMARK UNBOUND:                -0.296
REMARK SMILES CC(=O)c1ccc(O)cc1O
REMARK SMILES IDX 4 1 10 2 9 3 7 4 6 5 5 6 2 7 1 8 3 9 11 10 8 12
REMARK H PARENT 11 11 8 13
REMARK Flexibility Score: inf
ROOT
ATOM      1  C   UNL     1       4.934  68.454 -30.431  1.00  0.00     0.059 A 
ATOM      2  C   UNL     1       5.298  68.513 -31.799  1.00  0.00     0.130 A 
ATOM      3  C   UNL     1       5.185  67.368 -32.598  1.00  0.00     0.093 A 
ATOM      4  C   UNL     1       4.686  66.175 -32.069  1.00  0.00     0.119 A 
ATOM      5  C   UNL     1       4.299  66.120 -30.727  1.00  0.00     0.047 A 
ATOM      6  C   UNL     1       4.421  67.249 -29.914  1.00  0.00     0.019 A 
ENDROOT
BRANCH   1   7
ATOM      7  C   UNL     1       5.112  69.609 -29.520  1.00  0.00     0.163 C 
ATOM      8  C   UNL     1       4.087  69.941 -28.480  1.00  0.00     0.093 C 
ATOM      9  O   UNL     1       6.178  70.283 -29.558  1.00  0.00    -0.294 OA
ENDBRANCH   1   7
BRANCH   2  10
ATOM     10  O   UNL     1       5.742  69.690 -32.406  1.00  0.00    -0.507 OA
ATOM     11  H   UNL     1       5.458  69.980 -33.331  1.00  0.00     0.293 HD
ENDBRANCH   2  10
BRANCH   4  12
ATOM     12  O   UNL     1       4.577  65.053 -32.888  1.00  0.00    -0.508 OA
ATOM     13  H   UNL     1       5.303  64.346 -32.914  1.00  0.00     0.293 HD
ENDBRANCH   4  12
TORSDOF 3
ENDMDL
MODEL 4
REMARK VINA RESULT:    -4.469     16.570     17.437
REMARK INTER + INTRA:          -5.288
REMARK INTER:                  -5.016
REMARK INTRA:                  -0.272
REMARK UNBOUND:                -0.296
REMARK SMILES CC(=O)c1ccc(O)cc1O
REMARK SMILES IDX 4 1 10 2 9 3 7 4 6 5 5 6 2 7 1 8 3 9 11 10 8 12
REMARK H PARENT 11 11 8 13
REMARK Flexibility Score: inf
ROOT
ATOM      1  C   UNL     1      -2.637  67.299 -23.408  1.00  0.00     0.059 A 
ATOM      2  C   UNL     1      -2.415  66.981 -24.771  1.00  0.00     0.130 A 
ATOM      3  C   UNL     1      -2.397  68.003 -25.728  1.00  0.00     0.093 A 
ATOM      4  C   UNL     1      -2.564  69.338 -25.352  1.00  0.00     0.119 A 
ATOM      5  C   UNL     1      -2.754  69.659 -24.005  1.00  0.00     0.047 A 
ATOM      6  C   UNL     1      -2.791  68.649 -23.040  1.00  0.00     0.019 A 
ENDROOT
BRANCH   1   7
ATOM      7  C   UNL     1      -2.750  66.252 -22.365  1.00  0.00     0.163 C 
ATOM      8  C   UNL     1      -2.682  66.597 -20.910  1.00  0.00     0.093 C 
ATOM      9  O   UNL     1      -2.988  65.058 -22.695  1.00  0.00    -0.294 OA
ENDBRANCH   1   7
BRANCH   2  10
ATOM     10  O   UNL     1      -2.177  65.675 -25.206  1.00  0.00    -0.507 OA
ATOM     11  H   UNL     1      -1.892  65.446 -26.148  1.00  0.00     0.293 HD
ENDBRANCH   2  10
BRANCH   4  12
ATOM     12  O   UNL     1      -2.534  70.336 -26.323  1.00  0.00    -0.508 OA
ATOM     13  H   UNL     1      -3.078  71.185 -26.225  1.00  0.00     0.293 HD
ENDBRANCH   4  12
TORSDOF 3
ENDMDL
MODEL 5
REMARK VINA RESULT:    -4.348     19.818     20.850
REMARK INTER + INTRA:          -5.152
REMARK INTER:                  -4.851
REMARK INTRA:                  -0.301
REMARK UNBOUND:                -0.296
REMARK SMILES CC(=O)c1ccc(O)cc1O
REMARK SMILES IDX 4 1 10 2 9 3 7 4 6 5 5 6 2 7 1 8 3 9 11 10 8 12
REMARK H PARENT 11 11 8 13
REMARK Flexibility Score: inf
ROOT
ATOM      1  C   UNL     1       0.687  69.721 -14.054  1.00  0.00     0.059 A 
ATOM      2  C   UNL     1      -0.702  69.658 -13.778  1.00  0.00     0.130 A 
ATOM      3  C   UNL     1      -1.572  70.573 -14.383  1.00  0.00     0.093 A 
ATOM      4  C   UNL     1      -1.092  71.528 -15.283  1.00  0.00     0.119 A 
ATOM      5  C   UNL     1       0.273  71.576 -15.580  1.00  0.00     0.047 A 
ATOM      6  C   UNL     1       1.155  70.680 -14.972  1.00  0.00     0.019 A 
ENDROOT
BRANCH   1   7
ATOM      7  C   UNL     1       1.663  68.834 -13.379  1.00  0.00     0.163 C 
ATOM      8  C   UNL     1       2.971  69.362 -12.875  1.00  0.00     0.093 C 
ATOM      9  O   UNL     1       1.365  67.631 -13.146  1.00  0.00    -0.294 OA
ENDBRANCH   1   7
BRANCH   2  10
ATOM     10  O   UNL     1      -1.256  68.688 -12.939  1.00  0.00    -0.507 OA
ATOM     11  H   UNL     1      -0.701  68.048 -12.388  1.00  0.00     0.293 HD
ENDBRANCH   2  10
BRANCH   4  12
ATOM     12  O   UNL     1      -1.981  72.422 -15.876  1.00  0.00    -0.508 OA
ATOM     13  H   UNL     1      -2.656  72.116 -16.566  1.00  0.00     0.293 HD
ENDBRANCH   4  12
TORSDOF 3
ENDMDL
MODEL 6
REMARK VINA RESULT:    -4.327      1.673      2.082
REMARK INTER + INTRA:          -5.129
REMARK INTER:                  -4.819
REMARK INTRA:                  -0.310
REMARK UNBOUND:                -0.296
REMARK SMILES CC(=O)c1ccc(O)cc1O
REMARK SMILES IDX 4 1 10 2 9 3 7 4 6 5 5 6 2 7 1 8 3 9 11 10 8 12
REMARK H PARENT 11 11 8 13
REMARK Flexibility Score: inf
ROOT
ATOM      1  C   UNL     1      13.715  67.542 -29.577  1.00  0.00     0.059 A 
ATOM      2  C   UNL     1      12.623  68.220 -28.980  1.00  0.00     0.130 A 
ATOM      3  C   UNL     1      12.840  69.426 -28.304  1.00  0.00     0.093 A 
ATOM      4  C   UNL     1      14.118  69.988 -28.236  1.00  0.00     0.119 A 
ATOM      5  C   UNL     1      15.193  69.337 -28.848  1.00  0.00     0.047 A 
ATOM      6  C   UNL     1      14.995  68.125 -29.513  1.00  0.00     0.019 A 
ENDROOT
BRANCH   1   7
ATOM      7  C   UNL     1      13.558  66.222 -30.232  1.00  0.00     0.163 C 
ATOM      8  C   UNL     1      14.431  65.064 -29.861  1.00  0.00     0.093 C 
ATOM      9  O   UNL     1      12.623  66.036 -31.058  1.00  0.00    -0.294 OA
ENDBRANCH   1   7
BRANCH   2  10
ATOM     10  O   UNL     1      11.311  67.747 -29.066  1.00  0.00    -0.507 OA
ATOM     11  H   UNL     1      10.535  68.169 -28.575  1.00  0.00     0.293 HD
ENDBRANCH   2  10
BRANCH   4  12
ATOM     12  O   UNL     1      14.305  71.193 -27.563  1.00  0.00    -0.508 OA
ATOM     13  H   UNL     1      15.219  71.473 -27.225  1.00  0.00     0.293 HD
ENDBRANCH   4  12
TORSDOF 3
ENDMDL
MODEL 7
REMARK VINA RESULT:    -4.290     19.586     20.685
REMARK INTER + INTRA:          -5.088
REMARK INTER:                  -4.800
REMARK INTRA:                  -0.287
REMARK UNBOUND:                -0.296
REMARK SMILES CC(=O)c1ccc(O)cc1O
REMARK SMILES IDX 4 1 10 2 9 3 7 4 6 5 5 6 2 7 1 8 3 9 11 10 8 12
REMARK H PARENT 11 11 8 13
REMARK Flexibility Score: inf
ROOT
ATOM      1  C   UNL     1       0.583  69.677 -13.880  1.00  0.00     0.059 A 
ATOM      2  C   UNL     1       1.124  70.688 -14.712  1.00  0.00     0.130 A 
ATOM      3  C   UNL     1       0.265  71.569 -15.382  1.00  0.00     0.093 A 
ATOM      4  C   UNL     1      -1.119  71.483 -15.214  1.00  0.00     0.119 A 
ATOM      5  C   UNL     1      -1.656  70.505 -14.371  1.00  0.00     0.047 A 
ATOM      6  C   UNL     1      -0.812  69.609 -13.710  1.00  0.00     0.019 A 
ENDROOT
BRANCH   1   7
ATOM      7  C   UNL     1       1.439  68.666 -13.215  1.00  0.00     0.163 C 
ATOM      8  C   UNL     1       0.967  67.258 -13.021  1.00  0.00     0.093 C 
ATOM      9  O   UNL     1       2.617  68.963 -12.876  1.00  0.00    -0.294 OA
ENDBRANCH   1   7
BRANCH   2  10
ATOM     10  O   UNL     1       2.500  70.870 -14.873  1.00  0.00    -0.507 OA
ATOM     11  H   UNL     1       2.908  71.712 -15.253  1.00  0.00     0.293 HD
ENDBRANCH   2  10
BRANCH   4  12
ATOM     12  O   UNL     1      -1.950  72.377 -15.886  1.00  0.00    -0.508 OA
ATOM     13  H   UNL     1      -2.934  72.179 -16.026  1.00  0.00     0.293 HD
ENDBRANCH   4  12
TORSDOF 3
ENDMDL
MODEL 8
REMARK VINA RESULT:    -4.155     16.541     17.356
REMARK INTER + INTRA:          -4.937
REMARK INTER:                  -4.665
REMARK INTRA:                  -0.272
REMARK UNBOUND:                -0.296
REMARK SMILES CC(=O)c1ccc(O)cc1O
REMARK SMILES IDX 4 1 10 2 9 3 7 4 6 5 5 6 2 7 1 8 3 9 11 10 8 12
REMARK H PARENT 11 11 8 13
REMARK Flexibility Score: inf
ROOT
ATOM      1  C   UNL     1      -2.366  68.083 -22.766  1.00  0.00     0.059 A 
ATOM      2  C   UNL     1      -1.642  69.296 -22.878  1.00  0.00     0.130 A 
ATOM      3  C   UNL     1      -1.648  69.998 -24.090  1.00  0.00     0.093 A 
ATOM      4  C   UNL     1      -2.386  69.533 -25.181  1.00  0.00     0.119 A 
ATOM      5  C   UNL     1      -3.125  68.352 -25.066  1.00  0.00     0.047 A 
ATOM      6  C   UNL     1      -3.115  67.632 -23.869  1.00  0.00     0.019 A 
ENDROOT
BRANCH   1   7
ATOM      7  C   UNL     1      -2.327  67.256 -21.537  1.00  0.00     0.163 C 
ATOM      8  C   UNL     1      -2.541  65.775 -21.592  1.00  0.00     0.093 C 
ATOM      9  O   UNL     1      -2.029  67.785 -20.431  1.00  0.00    -0.294 OA
ENDBRANCH   1   7
BRANCH   2  10
ATOM     10  O   UNL     1      -0.937  69.849 -21.807  1.00  0.00    -0.507 OA
ATOM     11  H   UNL     1      -1.369  70.414 -21.089  1.00  0.00     0.293 HD
ENDBRANCH   2  10
BRANCH   4  12
ATOM     12  O   UNL     1      -2.381  70.255 -26.373  1.00  0.00    -0.508 OA
ATOM     13  H   UNL     1      -1.796  69.981 -27.154  1.00  0.00     0.293 HD
ENDBRANCH   4  12
TORSDOF 3
ENDMDL
MODEL 9
REMARK VINA RESULT:    -4.111      2.264      4.406
REMARK INTER + INTRA:          -4.887
REMARK INTER:                  -4.639
REMARK INTRA:                  -0.248
REMARK UNBOUND:                -0.296
REMARK SMILES CC(=O)c1ccc(O)cc1O
REMARK SMILES IDX 4 1 10 2 9 3 7 4 6 5 5 6 2 7 1 8 3 9 11 10 8 12
REMARK H PARENT 11 11 8 13
REMARK Flexibility Score: inf
ROOT
ATOM      1  C   UNL     1      13.591  69.519 -28.225  1.00  0.00     0.059 A 
ATOM      2  C   UNL     1      14.927  69.278 -28.629  1.00  0.00     0.130 A 
ATOM      3  C   UNL     1      15.250  68.082 -29.283  1.00  0.00     0.093 A 
ATOM      4  C   UNL     1      14.262  67.136 -29.570  1.00  0.00     0.119 A 
ATOM      5  C   UNL     1      12.937  67.383 -29.198  1.00  0.00     0.047 A 
ATOM      6  C   UNL     1      12.604  68.564 -28.531  1.00  0.00     0.019 A 
ENDROOT
BRANCH   1   7
ATOM      7  C   UNL     1      13.209  70.727 -27.456  1.00  0.00     0.163 C 
ATOM      8  C   UNL     1      11.969  70.752 -26.617  1.00  0.00     0.093 C 
ATOM      9  O   UNL     1      13.975  71.729 -27.436  1.00  0.00    -0.294 OA
ENDBRANCH   1   7
BRANCH   2  10
ATOM     10  O   UNL     1      15.950  70.209 -28.430  1.00  0.00    -0.507 OA
ATOM     11  H   UNL     1      16.309  70.453 -27.519  1.00  0.00     0.293 HD
ENDBRANCH   2  10
BRANCH   4  12
ATOM     12  O   UNL     1      14.609  65.958 -30.227  1.00  0.00    -0.508 OA
ATOM     13  H   UNL     1      13.912  65.261 -30.466  1.00  0.00     0.293 HD
ENDBRANCH   4  12
TORSDOF 3
ENDMDL
