MODEL 1
REMARK VINA RESULT:    -4.556      0.000      0.000
REMARK INTER + INTRA:          -7.222
REMARK INTER:                  -6.952
REMARK INTRA:                  -0.270
REMARK UNBOUND:                -0.270
REMARK SMILES CC1=CCC[C@@H](C)C(=O)C[C@H](C(C)C)C(=O)C1
REMARK SMILES IDX 8 1 9 2 6 3 7 4 5 5 4 6 3 7 2 8 1 9 10 11 11 12 15 13 16 14
REMARK SMILES IDX 17 15 12 17 13 18 14 19
REMARK H PARENT
REMARK Flexibility Score: 70.00
ROOT
ATOM      1  C   UNL     1      -3.137  13.561 -31.732  1.00  0.00     0.136 C 
ATOM      2  O   UNL     1      -2.383  14.366 -32.262  1.00  0.00    -0.299 OA
ENDROOT
BRANCH   1   3
ATOM      3  C   UNL     1      -4.632  13.775 -31.806  1.00  0.00     0.053 C 
ATOM      4  C   UNL     1      -5.072  14.129 -33.231  1.00  0.00     0.016 C 
BRANCH   3   5
ATOM      5  C   UNL     1      -5.033  14.878 -30.796  1.00  0.00     0.015 C 
BRANCH   5   6
ATOM      6  C   UNL     1      -5.948  14.433 -29.639  1.00  0.00     0.028 C 
BRANCH   6   7
ATOM      7  C   UNL     1      -5.383  14.525 -28.238  1.00  0.00    -0.028 C 
ATOM      8  C   UNL     1      -4.555  13.640 -27.633  1.00  0.00    -0.070 CG0
ATOM      9  C   UNL     1      -4.025  13.999 -26.266  1.00  0.00     0.039 C 
ATOM     10  G   UNL     1      -4.197  12.278 -28.202  1.00  0.00     0.000 G0
ENDBRANCH   6   7
ENDBRANCH   5   6
ENDBRANCH   3   5
ENDBRANCH   1   3
BRANCH   1  11
ATOM     11  C   UNL     1      -2.552  12.408 -30.948  1.00  0.00     0.087 C 
BRANCH  11  12
ATOM     12  C   UNL     1      -1.998  12.848 -29.561  1.00  0.00     0.066 C 
BRANCH  12  13
ATOM     13  C   UNL     1      -2.718  12.126 -28.429  1.00  0.00     0.140 C 
ATOM     14  O   UNL     1      -2.069  11.431 -27.659  1.00  0.00    -0.299 OA
BRANCH  13  15
ATOM     15  C   UNL     1      -4.209  12.267 -28.201  1.00  0.00     0.106 CG0
ATOM     16  G   UNL     1      -4.543  13.638 -27.638  1.00  0.00     0.000 G0
ENDBRANCH  13  15
ENDBRANCH  12  13
BRANCH  12  17
ATOM     17  C   UNL     1      -0.451  12.674 -29.423  1.00  0.00    -0.006 C 
ATOM     18  C   UNL     1       0.205  13.919 -28.802  1.00  0.00     0.008 C 
ATOM     19  C   UNL     1       0.260  12.307 -30.739  1.00  0.00     0.008 C 
ENDBRANCH  12  17
ENDBRANCH  11  12
ENDBRANCH   1  11
TORSDOF 1
ENDMDL
MODEL 2
REMARK VINA RESULT:    -4.409      1.679      3.536
REMARK INTER + INTRA:          -6.999
REMARK INTER:                  -8.219
REMARK INTRA:                   1.220
REMARK UNBOUND:                -0.270
REMARK SMILES CC1=CCC[C@@H](C)C(=O)C[C@H](C(C)C)C(=O)C1
REMARK SMILES IDX 8 1 9 2 6 3 7 4 5 5 4 6 3 7 2 8 1 9 10 11 11 12 15 13 16 14
REMARK SMILES IDX 17 15 12 17 13 18 14 19
REMARK H PARENT
REMARK Flexibility Score: 70.00
ROOT
ATOM      1  C   UNL     1      -1.159  12.967 -29.324  1.00  0.00     0.136 C 
ATOM      2  O   UNL     1      -0.178  12.485 -28.775  1.00  0.00    -0.299 OA
ENDROOT
BRANCH   1   3
ATOM      3  C   UNL     1      -1.477  12.591 -30.754  1.00  0.00     0.053 C 
ATOM      4  C   UNL     1      -0.196  12.365 -31.566  1.00  0.00     0.016 C 
BRANCH   3   5
ATOM      5  C   UNL     1      -2.360  13.698 -31.381  1.00  0.00     0.015 C 
BRANCH   5   6
ATOM      6  C   UNL     1      -3.851  13.352 -31.557  1.00  0.00     0.028 C 
BRANCH   6   7
ATOM      7  C   UNL     1      -4.858  14.344 -31.015  1.00  0.00    -0.028 C 
ATOM      8  C   UNL     1      -5.381  14.375 -29.765  1.00  0.00    -0.070 CG0
ATOM      9  C   UNL     1      -6.285  15.531 -29.413  1.00  0.00     0.039 C 
ATOM     10  G   UNL     1      -5.186  13.280 -28.731  1.00  0.00     0.000 G0
ENDBRANCH   6   7
ENDBRANCH   5   6
ENDBRANCH   3   5
ENDBRANCH   1   3
BRANCH   1  11
ATOM     11  C   UNL     1      -1.992  13.989 -28.584  1.00  0.00     0.087 C 
BRANCH  11  12
ATOM     12  C   UNL     1      -2.853  13.352 -27.453  1.00  0.00     0.066 C 
BRANCH  12  13
ATOM     13  C   UNL     1      -4.313  13.764 -27.578  1.00  0.00     0.140 C 
ATOM     14  O   UNL     1      -4.790  14.529 -26.750  1.00  0.00    -0.299 OA
BRANCH  13  15
ATOM     15  C   UNL     1      -5.192  13.286 -28.716  1.00  0.00     0.106 CG0
ATOM     16  G   UNL     1      -5.366  14.375 -29.760  1.00  0.00     0.000 G0
ENDBRANCH  13  15
ENDBRANCH  12  13
BRANCH  12  17
ATOM     17  C   UNL     1      -2.729  11.796 -27.377  1.00  0.00    -0.006 C 
ATOM     18  C   UNL     1      -3.807  11.100 -28.225  1.00  0.00     0.008 C 
ATOM     19  C   UNL     1      -2.744  11.232 -25.944  1.00  0.00     0.008 C 
ENDBRANCH  12  17
ENDBRANCH  11  12
ENDBRANCH   1  11
TORSDOF 1
ENDMDL
MODEL 3
REMARK VINA RESULT:    -4.231      1.961      5.071
REMARK INTER + INTRA:          -6.728
REMARK INTER:                  -7.523
REMARK INTRA:                   0.796
REMARK UNBOUND:                -0.270
REMARK SMILES CC1=CCC[C@@H](C)C(=O)C[C@H](C(C)C)C(=O)C1
REMARK SMILES IDX 8 1 9 2 6 3 7 4 5 5 4 6 3 7 2 8 1 9 10 11 11 12 15 13 16 14
REMARK SMILES IDX 17 15 12 17 13 18 14 19
REMARK H PARENT
REMARK Flexibility Score: 70.00
ROOT
ATOM      1  C   UNL     1      -3.422  11.173 -28.372  1.00  0.00     0.136 C 
ATOM      2  O   UNL     1      -3.148  10.040 -28.742  1.00  0.00    -0.299 OA
ENDROOT
BRANCH   1   3
ATOM      3  C   UNL     1      -2.576  11.838 -27.311  1.00  0.00     0.053 C 
ATOM      4  C   UNL     1      -3.082  11.499 -25.904  1.00  0.00     0.016 C 
BRANCH   3   5
ATOM      5  C   UNL     1      -2.568  13.367 -27.558  1.00  0.00     0.015 C 
BRANCH   5   6
ATOM      6  C   UNL     1      -1.361  13.917 -28.341  1.00  0.00     0.028 C 
BRANCH   6   7
ATOM      7  C   UNL     1      -0.699  12.984 -29.334  1.00  0.00    -0.028 C 
ATOM      8  C   UNL     1      -0.993  12.854 -30.650  1.00  0.00    -0.070 CG0
ATOM      9  C   UNL     1      -0.120  11.940 -31.474  1.00  0.00     0.039 C 
ATOM     10  G   UNL     1      -2.191  13.498 -31.326  1.00  0.00     0.000 G0
ENDBRANCH   6   7
ENDBRANCH   5   6
ENDBRANCH   3   5
ENDBRANCH   1   3
BRANCH   1  11
ATOM     11  C   UNL     1      -4.649  11.856 -28.932  1.00  0.00     0.087 C 
BRANCH  11  12
ATOM     12  C   UNL     1      -4.300  13.135 -29.749  1.00  0.00     0.066 C 
BRANCH  12  13
ATOM     13  C   UNL     1      -3.496  12.788 -30.995  1.00  0.00     0.140 C 
ATOM     14  O   UNL     1      -3.922  11.933 -31.760  1.00  0.00    -0.299 OA
BRANCH  13  15
ATOM     15  C   UNL     1      -2.199  13.491 -31.341  1.00  0.00     0.106 CG0
ATOM     16  G   UNL     1      -1.026  12.846 -30.624  1.00  0.00     0.000 G0
ENDBRANCH  13  15
ENDBRANCH  12  13
BRANCH  12  17
ATOM     17  C   UNL     1      -5.550  13.994 -30.128  1.00  0.00    -0.006 C 
ATOM     18  C   UNL     1      -5.245  14.958 -31.287  1.00  0.00     0.008 C 
ATOM     19  C   UNL     1      -6.162  14.771 -28.947  1.00  0.00     0.008 C 
ENDBRANCH  12  17
ENDBRANCH  11  12
ENDBRANCH   1  11
TORSDOF 1
ENDMDL
MODEL 4
REMARK VINA RESULT:    -4.137      2.141      4.175
REMARK INTER + INTRA:          -6.583
REMARK INTER:                  -6.384
REMARK INTRA:                  -0.199
REMARK UNBOUND:                -0.270
REMARK SMILES CC1=CCC[C@@H](C)C(=O)C[C@H](C(C)C)C(=O)C1
REMARK SMILES IDX 8 1 9 2 6 3 7 4 5 5 4 6 3 7 2 8 1 9 10 11 11 12 15 13 16 14
REMARK SMILES IDX 17 15 12 17 13 18 14 19
REMARK H PARENT
REMARK Flexibility Score: 70.00
ROOT
ATOM      1  C   UNL     1      -4.491  13.999 -29.706  1.00  0.00     0.136 C 
ATOM      2  O   UNL     1      -5.695  14.163 -29.567  1.00  0.00    -0.299 OA
ENDROOT
BRANCH   1   3
ATOM      3  C   UNL     1      -3.957  13.426 -30.999  1.00  0.00     0.053 C 
ATOM      4  C   UNL     1      -4.573  14.130 -32.213  1.00  0.00     0.016 C 
BRANCH   3   5
ATOM      5  C   UNL     1      -4.232  11.902 -31.026  1.00  0.00     0.015 C 
BRANCH   5   6
ATOM      6  C   UNL     1      -2.990  10.992 -30.955  1.00  0.00     0.028 C 
BRANCH   6   7
ATOM      7  C   UNL     1      -1.672  11.588 -31.401  1.00  0.00    -0.028 C 
ATOM      8  C   UNL     1      -0.611  11.898 -30.617  1.00  0.00    -0.070 CG0
ATOM      9  C   UNL     1       0.647  12.376 -31.300  1.00  0.00     0.039 C 
ATOM     10  G   UNL     1      -0.636  11.877 -29.099  1.00  0.00     0.000 G0
ENDBRANCH   6   7
ENDBRANCH   5   6
ENDBRANCH   3   5
ENDBRANCH   1   3
BRANCH   1  11
ATOM     11  C   UNL     1      -3.567  14.303 -28.548  1.00  0.00     0.087 C 
BRANCH  11  12
ATOM     12  C   UNL     1      -2.792  13.044 -28.056  1.00  0.00     0.066 C 
BRANCH  12  13
ATOM     13  C   UNL     1      -1.340  13.081 -28.512  1.00  0.00     0.140 C 
ATOM     14  O   UNL     1      -0.705  14.121 -28.394  1.00  0.00    -0.299 OA
BRANCH  13  15
ATOM     15  C   UNL     1      -0.639  11.862 -29.076  1.00  0.00     0.106 CG0
ATOM     16  G   UNL     1      -0.604  11.912 -30.594  1.00  0.00     0.000 G0
ENDBRANCH  13  15
ENDBRANCH  12  13
BRANCH  12  17
ATOM     17  C   UNL     1      -2.874  12.826 -26.510  1.00  0.00    -0.006 C 
ATOM     18  C   UNL     1      -3.000  11.335 -26.155  1.00  0.00     0.008 C 
ATOM     19  C   UNL     1      -3.995  13.626 -25.820  1.00  0.00     0.008 C 
ENDBRANCH  12  17
ENDBRANCH  11  12
ENDBRANCH   1  11
TORSDOF 1
ENDMDL
MODEL 5
REMARK VINA RESULT:    -3.770      1.972      5.374
REMARK INTER + INTRA:          -6.023
REMARK INTER:                  -6.077
REMARK INTRA:                   0.054
REMARK UNBOUND:                -0.270
REMARK SMILES CC1=CCC[C@@H](C)C(=O)C[C@H](C(C)C)C(=O)C1
REMARK SMILES IDX 8 1 9 2 6 3 7 4 5 5 4 6 3 7 2 8 1 9 10 11 11 12 15 13 16 14
REMARK SMILES IDX 17 15 12 17 13 18 14 19
REMARK H PARENT
REMARK Flexibility Score: 70.00
ROOT
ATOM      1  C   UNL     1      -3.954  13.163 -27.719  1.00  0.00     0.136 C 
ATOM      2  O   UNL     1      -3.276  14.165 -27.542  1.00  0.00    -0.299 OA
ENDROOT
BRANCH   1   3
ATOM      3  C   UNL     1      -3.416  11.813 -27.301  1.00  0.00     0.053 C 
ATOM      4  C   UNL     1      -3.311  11.705 -25.776  1.00  0.00     0.016 C 
BRANCH   3   5
ATOM      5  C   UNL     1      -2.044  11.585 -27.983  1.00  0.00     0.015 C 
BRANCH   5   6
ATOM      6  C   UNL     1      -2.090  11.138 -29.457  1.00  0.00     0.028 C 
BRANCH   6   7
ATOM      7  C   UNL     1      -1.804  12.191 -30.506  1.00  0.00    -0.028 C 
ATOM      8  C   UNL     1      -2.710  12.957 -31.160  1.00  0.00    -0.070 CG0
ATOM      9  C   UNL     1      -2.184  14.027 -32.085  1.00  0.00     0.039 C 
ATOM     10  G   UNL     1      -4.213  12.751 -31.088  1.00  0.00     0.000 G0
ENDBRANCH   6   7
ENDBRANCH   5   6
ENDBRANCH   3   5
ENDBRANCH   1   3
BRANCH   1  11
ATOM     11  C   UNL     1      -5.286  13.287 -28.423  1.00  0.00     0.087 C 
BRANCH  11  12
ATOM     12  C   UNL     1      -5.328  14.487 -29.415  1.00  0.00     0.066 C 
BRANCH  12  13
ATOM     13  C   UNL     1      -4.960  14.045 -30.825  1.00  0.00     0.140 C 
ATOM     14  O   UNL     1      -5.237  14.773 -31.769  1.00  0.00    -0.299 OA
BRANCH  13  15
ATOM     15  C   UNL     1      -4.228  12.746 -31.099  1.00  0.00     0.106 CG0
ATOM     16  G   UNL     1      -2.729  12.975 -31.167  1.00  0.00     0.000 G0
ENDBRANCH  13  15
ENDBRANCH  12  13
BRANCH  12  17
ATOM     17  C   UNL     1      -6.695  15.245 -29.419  1.00  0.00    -0.006 C 
ATOM     18  C   UNL     1      -6.501  16.762 -29.256  1.00  0.00     0.008 C 
ATOM     19  C   UNL     1      -7.704  14.730 -28.375  1.00  0.00     0.008 C 
ENDBRANCH  12  17
ENDBRANCH  11  12
ENDBRANCH   1  11
TORSDOF 1
ENDMDL
MODEL 6
REMARK VINA RESULT:    -3.762      1.566      3.636
REMARK INTER + INTRA:          -6.011
REMARK INTER:                  -7.544
REMARK INTRA:                   1.533
REMARK UNBOUND:                -0.270
REMARK SMILES CC1=CCC[C@@H](C)C(=O)C[C@H](C(C)C)C(=O)C1
REMARK SMILES IDX 8 1 9 2 6 3 7 4 5 5 4 6 3 7 2 8 1 9 10 11 11 12 15 13 16 14
REMARK SMILES IDX 17 15 12 17 13 18 14 19
REMARK H PARENT
REMARK Flexibility Score: 70.00
ROOT
ATOM      1  C   UNL     1      -2.393  13.487 -28.104  1.00  0.00     0.136 C 
ATOM      2  O   UNL     1      -1.927  14.505 -28.595  1.00  0.00    -0.299 OA
ENDROOT
BRANCH   1   3
ATOM      3  C   UNL     1      -3.252  13.579 -26.863  1.00  0.00     0.053 C 
ATOM      4  C   UNL     1      -3.525  12.191 -26.273  1.00  0.00     0.016 C 
BRANCH   3   5
ATOM      5  C   UNL     1      -4.567  14.316 -27.214  1.00  0.00     0.015 C 
BRANCH   5   6
ATOM      6  C   UNL     1      -5.382  13.721 -28.379  1.00  0.00     0.028 C 
BRANCH   6   7
ATOM      7  C   UNL     1      -5.341  14.462 -29.699  1.00  0.00    -0.028 C 
ATOM      8  C   UNL     1      -4.830  14.012 -30.871  1.00  0.00    -0.070 CG0
ATOM      9  C   UNL     1      -5.004  14.884 -32.090  1.00  0.00     0.039 C 
ATOM     10  G   UNL     1      -4.023  12.734 -31.015  1.00  0.00     0.000 G0
ENDBRANCH   6   7
ENDBRANCH   5   6
ENDBRANCH   3   5
ENDBRANCH   1   3
BRANCH   1  11
ATOM     11  C   UNL     1      -2.039  12.147 -28.708  1.00  0.00     0.087 C 
BRANCH  11  12
ATOM     12  C   UNL     1      -1.524  12.270 -30.174  1.00  0.00     0.066 C 
BRANCH  12  13
ATOM     13  C   UNL     1      -2.518  13.030 -31.041  1.00  0.00     0.140 C 
ATOM     14  O   UNL     1      -2.105  13.893 -31.804  1.00  0.00    -0.299 OA
BRANCH  13  15
ATOM     15  C   UNL     1      -4.004  12.729 -31.020  1.00  0.00     0.106 CG0
ATOM     16  G   UNL     1      -4.811  14.005 -30.859  1.00  0.00     0.000 G0
ENDBRANCH  13  15
ENDBRANCH  12  13
BRANCH  12  17
ATOM     17  C   UNL     1      -0.102  12.909 -30.284  1.00  0.00    -0.006 C 
ATOM     18  C   UNL     1       0.719  12.270 -31.416  1.00  0.00     0.008 C 
ATOM     19  C   UNL     1       0.704  12.882 -28.971  1.00  0.00     0.008 C 
ENDBRANCH  12  17
ENDBRANCH  11  12
ENDBRANCH   1  11
TORSDOF 1
ENDMDL
MODEL 7
REMARK VINA RESULT:    -3.614      2.055      3.950
REMARK INTER + INTRA:          -5.786
REMARK INTER:                  -6.018
REMARK INTRA:                   0.232
REMARK UNBOUND:                -0.270
REMARK SMILES CC1=CCC[C@@H](C)C(=O)C[C@H](C(C)C)C(=O)C1
REMARK SMILES IDX 8 1 9 2 6 3 7 4 5 5 4 6 3 7 2 8 1 9 10 11 11 12 15 13 16 14
REMARK SMILES IDX 17 15 12 17 13 18 14 19
REMARK H PARENT
REMARK Flexibility Score: 70.00
ROOT
ATOM      1  C   UNL     1      -5.020  13.603 -28.544  1.00  0.00     0.136 C 
ATOM      2  O   UNL     1      -5.707  12.591 -28.530  1.00  0.00    -0.299 OA
ENDROOT
BRANCH   1   3
ATOM      3  C   UNL     1      -5.422  14.769 -29.418  1.00  0.00     0.053 C 
ATOM      4  C   UNL     1      -6.805  15.304 -29.029  1.00  0.00     0.016 C 
BRANCH   3   5
ATOM      5  C   UNL     1      -5.382  14.323 -30.901  1.00  0.00     0.015 C 
BRANCH   5   6
ATOM      6  C   UNL     1      -3.980  14.173 -31.522  1.00  0.00     0.028 C 
BRANCH   6   7
ATOM      7  C   UNL     1      -3.408  12.774 -31.607  1.00  0.00    -0.028 C 
ATOM      8  C   UNL     1      -2.285  12.314 -31.006  1.00  0.00    -0.070 CG0
ATOM      9  C   UNL     1      -1.971  10.844 -31.140  1.00  0.00     0.039 C 
ATOM     10  G   UNL     1      -1.282  13.196 -30.282  1.00  0.00     0.000 G0
ENDBRANCH   6   7
ENDBRANCH   5   6
ENDBRANCH   3   5
ENDBRANCH   1   3
BRANCH   1  11
ATOM     11  C   UNL     1      -3.739  13.637 -27.740  1.00  0.00     0.087 C 
BRANCH  11  12
ATOM     12  C   UNL     1      -2.739  12.521 -28.163  1.00  0.00     0.066 C 
BRANCH  12  13
ATOM     13  C   UNL     1      -1.481  13.117 -28.781  1.00  0.00     0.140 C 
ATOM     14  O   UNL     1      -0.593  13.528 -28.046  1.00  0.00    -0.299 OA
BRANCH  13  15
ATOM     15  C   UNL     1      -1.275  13.187 -30.281  1.00  0.00     0.106 CG0
ATOM     16  G   UNL     1      -2.282  12.312 -31.007  1.00  0.00     0.000 G0
ENDBRANCH  13  15
ENDBRANCH  12  13
BRANCH  12  17
ATOM     17  C   UNL     1      -2.366  11.545 -27.000  1.00  0.00    -0.006 C 
ATOM     18  C   UNL     1      -2.438  10.076 -27.450  1.00  0.00     0.008 C 
ATOM     19  C   UNL     1      -3.199  11.743 -25.720  1.00  0.00     0.008 C 
ENDBRANCH  12  17
ENDBRANCH  11  12
ENDBRANCH   1  11
TORSDOF 1
ENDMDL
MODEL 8
REMARK VINA RESULT:    -3.583      1.847      4.826
REMARK INTER + INTRA:          -5.739
REMARK INTER:                  -7.892
REMARK INTRA:                   2.153
REMARK UNBOUND:                -0.270
REMARK SMILES CC1=CCC[C@@H](C)C(=O)C[C@H](C(C)C)C(=O)C1
REMARK SMILES IDX 8 1 9 2 6 3 7 4 5 5 4 6 3 7 2 8 1 9 10 11 11 12 15 13 16 14
REMARK SMILES IDX 17 15 12 17 13 18 14 19
REMARK H PARENT
REMARK Flexibility Score: 70.00
ROOT
ATOM      1  C   UNL     1      -1.856  12.689 -27.943  1.00  0.00     0.136 C 
ATOM      2  O   UNL     1      -2.200  11.694 -27.321  1.00  0.00    -0.299 OA
ENDROOT
BRANCH   1   3
ATOM      3  C   UNL     1      -0.511  12.711 -28.634  1.00  0.00     0.053 C 
ATOM      4  C   UNL     1       0.027  14.141 -28.755  1.00  0.00     0.016 C 
BRANCH   3   5
ATOM      5  C   UNL     1      -0.647  12.036 -30.021  1.00  0.00     0.015 C 
BRANCH   5   6
ATOM      6  C   UNL     1      -0.535  12.972 -31.240  1.00  0.00     0.028 C 
BRANCH   6   7
ATOM      7  C   UNL     1      -1.817  13.594 -31.753  1.00  0.00    -0.028 C 
ATOM      8  C   UNL     1      -3.083  13.215 -31.455  1.00  0.00    -0.070 CG0
ATOM      9  C   UNL     1      -4.211  14.059 -31.994  1.00  0.00     0.039 C 
ATOM     10  G   UNL     1      -3.438  11.953 -30.688  1.00  0.00     0.000 G0
ENDBRANCH   6   7
ENDBRANCH   5   6
ENDBRANCH   3   5
ENDBRANCH   1   3
BRANCH   1  11
ATOM     11  C   UNL     1      -2.753  13.906 -27.945  1.00  0.00     0.087 C 
BRANCH  11  12
ATOM     12  C   UNL     1      -4.061  13.682 -28.762  1.00  0.00     0.066 C 
BRANCH  12  13
ATOM     13  C   UNL     1      -4.101  12.282 -29.359  1.00  0.00     0.140 C 
ATOM     14  O   UNL     1      -4.718  11.402 -28.773  1.00  0.00    -0.299 OA
BRANCH  13  15
ATOM     15  C   UNL     1      -3.433  11.947 -30.678  1.00  0.00     0.106 CG0
ATOM     16  G   UNL     1      -3.095  13.210 -31.449  1.00  0.00     0.000 G0
ENDBRANCH  13  15
ENDBRANCH  12  13
BRANCH  12  17
ATOM     17  C   UNL     1      -5.362  13.966 -27.946  1.00  0.00    -0.006 C 
ATOM     18  C   UNL     1      -6.383  14.771 -28.768  1.00  0.00     0.008 C 
ATOM     19  C   UNL     1      -5.118  14.658 -26.591  1.00  0.00     0.008 C 
ENDBRANCH  12  17
ENDBRANCH  11  12
ENDBRANCH   1  11
TORSDOF 1
ENDMDL
MODEL 9
REMARK VINA RESULT:    -3.528      1.625      4.012
REMARK INTER + INTRA:          -5.654
REMARK INTER:                  -5.913
REMARK INTRA:                   0.259
REMARK UNBOUND:                -0.270
REMARK SMILES CC1=CCC[C@@H](C)C(=O)C[C@H](C(C)C)C(=O)C1
REMARK SMILES IDX 8 1 9 2 6 3 7 4 5 5 4 6 3 7 2 8 1 9 10 11 11 12 15 13 16 14
REMARK SMILES IDX 17 15 12 17 13 18 14 19
REMARK H PARENT
REMARK Flexibility Score: 70.00
ROOT
ATOM      1  C   UNL     1      -1.577  13.274 -30.943  1.00  0.00     0.136 C 
ATOM      2  O   UNL     1      -1.632  13.642 -32.108  1.00  0.00    -0.299 OA
ENDROOT
BRANCH   1   3
ATOM      3  C   UNL     1      -0.771  12.047 -30.583  1.00  0.00     0.053 C 
ATOM      4  C   UNL     1       0.646  12.123 -31.163  1.00  0.00     0.016 C 
BRANCH   3   5
ATOM      5  C   UNL     1      -1.522  10.788 -31.082  1.00  0.00     0.015 C 
BRANCH   5   6
ATOM      6  C   UNL     1      -2.458  10.113 -30.061  1.00  0.00     0.028 C 
BRANCH   6   7
ATOM      7  C   UNL     1      -2.239  10.444 -28.600  1.00  0.00    -0.028 C 
ATOM      8  C   UNL     1      -3.127  11.019 -27.753  1.00  0.00    -0.070 CG0
ATOM      9  C   UNL     1      -2.728  11.149 -26.303  1.00  0.00     0.039 C 
ATOM     10  G   UNL     1      -4.455  11.616 -28.184  1.00  0.00     0.000 G0
ENDBRANCH   6   7
ENDBRANCH   5   6
ENDBRANCH   3   5
ENDBRANCH   1   3
BRANCH   1  11
ATOM     11  C   UNL     1      -2.379  14.014 -29.896  1.00  0.00     0.087 C 
BRANCH  11  12
ATOM     12  C   UNL     1      -3.877  13.590 -29.881  1.00  0.00     0.066 C 
BRANCH  12  13
ATOM     13  C   UNL     1      -4.296  13.105 -28.499  1.00  0.00     0.140 C 
ATOM     14  O   UNL     1      -4.539  13.929 -27.627  1.00  0.00    -0.299 OA
BRANCH  13  15
ATOM     15  C   UNL     1      -4.458  11.633 -28.175  1.00  0.00     0.106 CG0
ATOM     16  G   UNL     1      -3.134  11.026 -27.742  1.00  0.00     0.000 G0
ENDBRANCH  13  15
ENDBRANCH  12  13
BRANCH  12  17
ATOM     17  C   UNL     1      -4.847  14.707 -30.385  1.00  0.00    -0.006 C 
ATOM     18  C   UNL     1      -6.207  14.641 -29.670  1.00  0.00     0.008 C 
ATOM     19  C   UNL     1      -5.056  14.719 -31.911  1.00  0.00     0.008 C 
ENDBRANCH  12  17
ENDBRANCH  11  12
ENDBRANCH   1  11
TORSDOF 1
ENDMDL
