MODEL 1
REMARK VINA RESULT:    -5.564      0.000      0.000
REMARK INTER + INTRA:          -6.279
REMARK INTER:                  -6.052
REMARK INTRA:                  -0.227
REMARK UNBOUND:                -0.227
REMARK SMILES O=C([O-])c1ccccc1O
REMARK SMILES IDX 4 1 9 2 5 3 8 4 6 5 7 6 2 7 1 8 3 9 10 10
REMARK H PARENT 10 11
REMARK Flexibility Score: inf
ROOT
ATOM      1  C   UNL     1      16.339  20.385  71.014  1.00  0.00     0.039 A 
ATOM      2  C   UNL     1      17.577  20.444  70.321  1.00  0.00     0.124 A 
ATOM      3  C   UNL     1      15.975  21.457  71.850  1.00  0.00     0.014 A 
ATOM      4  C   UNL     1      18.435  21.531  70.530  1.00  0.00     0.047 A 
ATOM      5  C   UNL     1      16.834  22.543  72.029  1.00  0.00     0.001 A 
ATOM      6  C   UNL     1      18.066  22.576  71.378  1.00  0.00     0.004 A 
ENDROOT
BRANCH   1   7
ATOM      7  C   UNL     1      15.425  19.225  70.924  1.00  0.00     0.075 C 
ATOM      8  O   UNL     1      14.205  19.337  71.213  1.00  0.00    -0.545 OA
ATOM      9  O   UNL     1      15.895  18.005  70.448  1.00  0.00    -0.545 OA
ENDBRANCH   1   7
BRANCH   2  10
ATOM     10  O   UNL     1      17.975  19.471  69.401  1.00  0.00    -0.507 OA
ATOM     11  H   UNL     1      18.630  18.733  69.617  1.00  0.00     0.293 HD
ENDBRANCH   2  10
TORSDOF 2
ENDMDL
MODEL 2
REMARK VINA RESULT:    -4.932      9.681     10.555
REMARK INTER + INTRA:          -5.592
REMARK INTER:                  -5.346
REMARK INTRA:                  -0.245
REMARK UNBOUND:                -0.227
REMARK SMILES O=C([O-])c1ccccc1O
REMARK SMILES IDX 4 1 9 2 5 3 8 4 6 5 7 6 2 7 1 8 3 9 10 10
REMARK H PARENT 10 11
REMARK Flexibility Score: inf
ROOT
ATOM      1  C   UNL     1      14.128  13.228  63.818  1.00  0.00     0.039 A 
ATOM      2  C   UNL     1      14.242  14.094  62.698  1.00  0.00     0.124 A 
ATOM      3  C   UNL     1      13.663  13.753  65.038  1.00  0.00     0.014 A 
ATOM      4  C   UNL     1      13.952  15.456  62.844  1.00  0.00     0.047 A 
ATOM      5  C   UNL     1      13.358  15.109  65.160  1.00  0.00     0.001 A 
ATOM      6  C   UNL     1      13.511  15.962  64.067  1.00  0.00     0.004 A 
ENDROOT
BRANCH   1   7
ATOM      7  C   UNL     1      14.510  11.800  63.768  1.00  0.00     0.075 C 
ATOM      8  O   UNL     1      15.583  11.434  63.220  1.00  0.00    -0.545 OA
ATOM      9  O   UNL     1      13.714  10.846  64.393  1.00  0.00    -0.545 OA
ENDBRANCH   1   7
BRANCH   2  10
ATOM     10  O   UNL     1      14.604  13.640  61.427  1.00  0.00    -0.507 OA
ATOM     11  H   UNL     1      14.102  12.920  60.927  1.00  0.00     0.293 HD
ENDBRANCH   2  10
TORSDOF 2
ENDMDL
MODEL 3
REMARK VINA RESULT:    -4.811     10.021     11.482
REMARK INTER + INTRA:          -5.460
REMARK INTER:                  -5.240
REMARK INTRA:                  -0.221
REMARK UNBOUND:                -0.227
REMARK SMILES O=C([O-])c1ccccc1O
REMARK SMILES IDX 4 1 9 2 5 3 8 4 6 5 7 6 2 7 1 8 3 9 10 10
REMARK H PARENT 10 11
REMARK Flexibility Score: inf
ROOT
ATOM      1  C   UNL     1      18.447  16.584  61.019  1.00  0.00     0.039 A 
ATOM      2  C   UNL     1      17.127  16.441  61.524  1.00  0.00     0.124 A 
ATOM      3  C   UNL     1      18.775  15.975  59.793  1.00  0.00     0.014 A 
ATOM      4  C   UNL     1      16.202  15.652  60.830  1.00  0.00     0.047 A 
ATOM      5  C   UNL     1      17.833  15.209  59.104  1.00  0.00     0.001 A 
ATOM      6  C   UNL     1      16.551  15.039  59.626  1.00  0.00     0.004 A 
ENDROOT
BRANCH   1   7
ATOM      7  C   UNL     1      19.507  17.319  61.743  1.00  0.00     0.075 C 
ATOM      8  O   UNL     1      20.719  17.178  61.435  1.00  0.00    -0.545 OA
ATOM      9  O   UNL     1      19.166  18.232  62.734  1.00  0.00    -0.545 OA
ENDBRANCH   1   7
BRANCH   2  10
ATOM     10  O   UNL     1      16.689  17.088  62.682  1.00  0.00    -0.507 OA
ATOM     11  H   UNL     1      17.062  16.900  63.602  1.00  0.00     0.293 HD
ENDBRANCH   2  10
TORSDOF 2
ENDMDL
MODEL 4
REMARK VINA RESULT:    -4.754     11.503     12.382
REMARK INTER + INTRA:          -5.398
REMARK INTER:                  -5.153
REMARK INTRA:                  -0.246
REMARK UNBOUND:                -0.227
REMARK SMILES O=C([O-])c1ccccc1O
REMARK SMILES IDX 4 1 9 2 5 3 8 4 6 5 7 6 2 7 1 8 3 9 10 10
REMARK H PARENT 10 11
REMARK Flexibility Score: inf
ROOT
ATOM      1  C   UNL     1      17.099  15.836  59.499  1.00  0.00     0.039 A 
ATOM      2  C   UNL     1      18.372  16.267  59.041  1.00  0.00     0.124 A 
ATOM      3  C   UNL     1      16.795  15.945  60.869  1.00  0.00     0.014 A 
ATOM      4  C   UNL     1      19.318  16.731  59.964  1.00  0.00     0.047 A 
ATOM      5  C   UNL     1      17.743  16.430  61.771  1.00  0.00     0.001 A 
ATOM      6  C   UNL     1      19.006  16.813  61.322  1.00  0.00     0.004 A 
ENDROOT
BRANCH   1   7
ATOM      7  C   UNL     1      16.084  15.243  58.601  1.00  0.00     0.075 C 
ATOM      8  O   UNL     1      15.940  15.658  57.421  1.00  0.00    -0.545 OA
ATOM      9  O   UNL     1      15.318  14.165  59.033  1.00  0.00    -0.545 OA
ENDBRANCH   1   7
BRANCH   2  10
ATOM     10  O   UNL     1      18.723  16.283  57.689  1.00  0.00    -0.507 OA
ATOM     11  H   UNL     1      18.059  16.156  56.939  1.00  0.00     0.293 HD
ENDBRANCH   2  10
TORSDOF 2
ENDMDL
MODEL 5
REMARK VINA RESULT:    -4.742     11.306     12.325
REMARK INTER + INTRA:          -5.386
REMARK INTER:                  -5.133
REMARK INTRA:                  -0.253
REMARK UNBOUND:                -0.227
REMARK SMILES O=C([O-])c1ccccc1O
REMARK SMILES IDX 4 1 9 2 5 3 8 4 6 5 7 6 2 7 1 8 3 9 10 10
REMARK H PARENT 10 11
REMARK Flexibility Score: inf
ROOT
ATOM      1  C   UNL     1      17.607  15.949  59.417  1.00  0.00     0.039 A 
ATOM      2  C   UNL     1      17.676  15.258  60.656  1.00  0.00     0.124 A 
ATOM      3  C   UNL     1      18.409  17.090  59.230  1.00  0.00     0.014 A 
ATOM      4  C   UNL     1      18.487  15.758  61.682  1.00  0.00     0.047 A 
ATOM      5  C   UNL     1      19.228  17.562  60.257  1.00  0.00     0.001 A 
ATOM      6  C   UNL     1      19.260  16.902  61.485  1.00  0.00     0.004 A 
ENDROOT
BRANCH   1   7
ATOM      7  C   UNL     1      16.700  15.541  58.321  1.00  0.00     0.075 C 
ATOM      8  O   UNL     1      17.070  15.596  57.120  1.00  0.00    -0.545 OA
ATOM      9  O   UNL     1      15.443  15.024  58.616  1.00  0.00    -0.545 OA
ENDBRANCH   1   7
BRANCH   2  10
ATOM     10  O   UNL     1      16.988  14.066  60.894  1.00  0.00    -0.507 OA
ATOM     11  H   UNL     1      17.030  13.265  60.281  1.00  0.00     0.293 HD
ENDBRANCH   2  10
TORSDOF 2
ENDMDL
MODEL 6
REMARK VINA RESULT:    -4.725     12.010     13.222
REMARK INTER + INTRA:          -5.367
REMARK INTER:                  -5.148
REMARK INTRA:                  -0.219
REMARK UNBOUND:                -0.227
REMARK SMILES O=C([O-])c1ccccc1O
REMARK SMILES IDX 4 1 9 2 5 3 8 4 6 5 7 6 2 7 1 8 3 9 10 10
REMARK H PARENT 10 11
REMARK Flexibility Score: inf
ROOT
ATOM      1  C   UNL     1      17.232  15.257  58.911  1.00  0.00     0.039 A 
ATOM      2  C   UNL     1      16.800  16.488  59.472  1.00  0.00     0.124 A 
ATOM      3  C   UNL     1      16.666  14.058  59.383  1.00  0.00     0.014 A 
ATOM      4  C   UNL     1      15.872  16.481  60.521  1.00  0.00     0.047 A 
ATOM      5  C   UNL     1      15.727  14.072  60.416  1.00  0.00     0.001 A 
ATOM      6  C   UNL     1      15.337  15.281  60.991  1.00  0.00     0.004 A 
ENDROOT
BRANCH   1   7
ATOM      7  C   UNL     1      18.279  15.175  57.869  1.00  0.00     0.075 C 
ATOM      8  O   UNL     1      18.632  16.197  57.224  1.00  0.00    -0.545 OA
ATOM      9  O   UNL     1      18.938  13.973  57.639  1.00  0.00    -0.545 OA
ENDBRANCH   1   7
BRANCH   2  10
ATOM     10  O   UNL     1      17.237  17.727  59.000  1.00  0.00    -0.507 OA
ATOM     11  H   UNL     1      17.844  18.342  59.524  1.00  0.00     0.293 HD
ENDBRANCH   2  10
TORSDOF 2
ENDMDL
MODEL 7
REMARK VINA RESULT:    -4.714      1.491      2.216
REMARK INTER + INTRA:          -5.355
REMARK INTER:                  -5.143
REMARK INTRA:                  -0.212
REMARK UNBOUND:                -0.227
REMARK SMILES O=C([O-])c1ccccc1O
REMARK SMILES IDX 4 1 9 2 5 3 8 4 6 5 7 6 2 7 1 8 3 9 10 10
REMARK H PARENT 10 11
REMARK Flexibility Score: inf
ROOT
ATOM      1  C   UNL     1      16.238  20.037  71.020  1.00  0.00     0.039 A 
ATOM      2  C   UNL     1      17.046  21.200  71.133  1.00  0.00     0.124 A 
ATOM      3  C   UNL     1      14.894  20.100  71.430  1.00  0.00     0.014 A 
ATOM      4  C   UNL     1      16.510  22.360  71.705  1.00  0.00     0.047 A 
ATOM      5  C   UNL     1      14.371  21.272  71.979  1.00  0.00     0.001 A 
ATOM      6  C   UNL     1      15.180  22.398  72.125  1.00  0.00     0.004 A 
ENDROOT
BRANCH   1   7
ATOM      7  C   UNL     1      16.759  18.746  70.519  1.00  0.00     0.075 C 
ATOM      8  O   UNL     1      17.197  18.636  69.344  1.00  0.00    -0.545 OA
ATOM      9  O   UNL     1      16.833  17.649  71.370  1.00  0.00    -0.545 OA
ENDBRANCH   1   7
BRANCH   2  10
ATOM     10  O   UNL     1      18.360  21.255  70.664  1.00  0.00    -0.507 OA
ATOM     11  H   UNL     1      18.607  21.193  69.686  1.00  0.00     0.293 HD
ENDBRANCH   2  10
TORSDOF 2
ENDMDL
MODEL 8
REMARK VINA RESULT:    -4.698     10.171     11.153
REMARK INTER + INTRA:          -5.338
REMARK INTER:                  -5.257
REMARK INTRA:                  -0.081
REMARK UNBOUND:                -0.227
REMARK SMILES O=C([O-])c1ccccc1O
REMARK SMILES IDX 4 1 9 2 5 3 8 4 6 5 7 6 2 7 1 8 3 9 10 10
REMARK H PARENT 10 11
REMARK Flexibility Score: inf
ROOT
ATOM      1  C   UNL     1      16.597  16.138  61.159  1.00  0.00     0.039 A 
ATOM      2  C   UNL     1      18.012  16.008  61.173  1.00  0.00     0.124 A 
ATOM      3  C   UNL     1      15.921  16.075  59.926  1.00  0.00     0.014 A 
ATOM      4  C   UNL     1      18.707  15.884  59.964  1.00  0.00     0.047 A 
ATOM      5  C   UNL     1      16.629  15.930  58.732  1.00  0.00     0.001 A 
ATOM      6  C   UNL     1      18.021  15.844  58.749  1.00  0.00     0.004 A 
ENDROOT
BRANCH   1   7
ATOM      7  C   UNL     1      15.802  16.371  62.384  1.00  0.00     0.075 C 
ATOM      8  O   UNL     1      15.351  15.408  63.058  1.00  0.00    -0.545 OA
ATOM      9  O   UNL     1      15.601  17.667  62.846  1.00  0.00    -0.545 OA
ENDBRANCH   1   7
BRANCH   2  10
ATOM     10  O   UNL     1      18.754  15.964  62.356  1.00  0.00    -0.507 OA
ATOM     11  H   UNL     1      19.322  16.730  62.687  1.00  0.00     0.293 HD
ENDBRANCH   2  10
TORSDOF 2
ENDMDL
MODEL 9
REMARK VINA RESULT:    -4.600     11.041     12.241
REMARK INTER + INTRA:          -5.230
REMARK INTER:                  -5.012
REMARK INTRA:                  -0.218
REMARK UNBOUND:                -0.227
REMARK SMILES O=C([O-])c1ccccc1O
REMARK SMILES IDX 4 1 9 2 5 3 8 4 6 5 7 6 2 7 1 8 3 9 10 10
REMARK H PARENT 10 11
REMARK Flexibility Score: inf
ROOT
ATOM      1  C   UNL     1      17.779  16.046  60.399  1.00  0.00     0.039 A 
ATOM      2  C   UNL     1      17.919  15.512  59.091  1.00  0.00     0.124 A 
ATOM      3  C   UNL     1      16.487  16.273  60.907  1.00  0.00     0.014 A 
ATOM      4  C   UNL     1      16.778  15.282  58.313  1.00  0.00     0.047 A 
ATOM      5  C   UNL     1      15.359  16.018  60.124  1.00  0.00     0.001 A 
ATOM      6  C   UNL     1      15.504  15.532  58.825  1.00  0.00     0.004 A 
ENDROOT
BRANCH   1   7
ATOM      7  C   UNL     1      18.938  16.408  61.245  1.00  0.00     0.075 C 
ATOM      8  O   UNL     1      19.098  15.892  62.381  1.00  0.00    -0.545 OA
ATOM      9  O   UNL     1      19.907  17.279  60.759  1.00  0.00    -0.545 OA
ENDBRANCH   1   7
BRANCH   2  10
ATOM     10  O   UNL     1      19.158  15.169  58.544  1.00  0.00    -0.507 OA
ATOM     11  H   UNL     1      19.842  14.603  59.025  1.00  0.00     0.293 HD
ENDBRANCH   2  10
TORSDOF 2
ENDMDL
