MODEL 1
REMARK VINA RESULT:    -6.005      0.000      0.000
REMARK INTER + INTRA:          -8.016
REMARK INTER:                  -7.409
REMARK INTRA:                  -0.607
REMARK UNBOUND:                -0.607
REMARK SMILES CC(C)=CCC[C@H](C)c1ccc(C)cc1
REMARK SMILES IDX 6 1 7 2 8 3 9 4 13 5 12 6 11 7 14 8 10 9 15 10 5 11 4 12
REMARK SMILES IDX 2 13 1 14 3 15
REMARK H PARENT
REMARK Flexibility Score: inf
ROOT
ATOM      1  C   UNL     1     -15.347 -22.685 -41.341  1.00  0.00     0.012 C 
ENDROOT
BRANCH   1   2
ATOM      2  C   UNL     1     -14.555 -22.930 -42.645  1.00  0.00     0.016 C 
ATOM      3  C   UNL     1     -15.375 -23.707 -43.687  1.00  0.00     0.013 C 
BRANCH   2   4
ATOM      4  C   UNL     1     -13.257 -23.660 -42.346  1.00  0.00    -0.045 A 
ATOM      5  C   UNL     1      -9.594 -25.779 -41.480  1.00  0.00     0.044 C 
ATOM      6  C   UNL     1     -10.852 -25.018 -41.773  1.00  0.00    -0.051 A 
ATOM      7  C   UNL     1     -11.081 -24.495 -43.054  1.00  0.00     0.004 A 
ATOM      8  C   UNL     1     -11.841 -24.881 -40.788  1.00  0.00     0.004 A 
ATOM      9  C   UNL     1     -12.269 -23.817 -43.338  1.00  0.00     0.004 A 
ATOM     10  C   UNL     1     -13.031 -24.203 -41.070  1.00  0.00     0.004 A 
ENDBRANCH   2   4
ENDBRANCH   1   2
BRANCH   1  11
ATOM     11  C   UNL     1     -15.281 -21.223 -40.875  1.00  0.00     0.028 C 
BRANCH  11  12
ATOM     12  C   UNL     1     -15.030 -21.149 -39.388  1.00  0.00    -0.028 C 
ATOM     13  C   UNL     1     -14.781 -20.004 -38.713  1.00  0.00    -0.080 C 
ATOM     14  C   UNL     1     -14.657 -18.671 -39.411  1.00  0.00     0.039 C 
ATOM     15  C   UNL     1     -14.568 -20.045 -37.222  1.00  0.00     0.039 C 
ENDBRANCH  11  12
ENDBRANCH   1  11
TORSDOF 4
ENDMDL
MODEL 2
REMARK VINA RESULT:    -5.905      1.091      1.887
REMARK INTER + INTRA:          -7.893
REMARK INTER:                  -7.025
REMARK INTRA:                  -0.868
REMARK UNBOUND:                -0.607
REMARK SMILES CC(C)=CCC[C@H](C)c1ccc(C)cc1
REMARK SMILES IDX 6 1 7 2 8 3 9 4 13 5 12 6 11 7 14 8 10 9 15 10 5 11 4 12
REMARK SMILES IDX 2 13 1 14 3 15
REMARK H PARENT
REMARK Flexibility Score: inf
ROOT
ATOM      1  C   UNL     1     -16.152 -22.510 -39.855  1.00  0.00     0.012 C 
ENDROOT
BRANCH   1   2
ATOM      2  C   UNL     1     -15.830 -22.269 -41.348  1.00  0.00     0.016 C 
ATOM      3  C   UNL     1     -16.978 -22.709 -42.269  1.00  0.00     0.013 C 
BRANCH   2   4
ATOM      4  C   UNL     1     -14.544 -22.980 -41.733  1.00  0.00    -0.045 A 
ATOM      5  C   UNL     1     -10.904 -25.043 -42.803  1.00  0.00     0.044 C 
ATOM      6  C   UNL     1     -12.152 -24.301 -42.430  1.00  0.00    -0.051 A 
ATOM      7  C   UNL     1     -12.968 -23.744 -43.425  1.00  0.00     0.004 A 
ATOM      8  C   UNL     1     -12.550 -24.217 -41.088  1.00  0.00     0.004 A 
ATOM      9  C   UNL     1     -14.150 -23.084 -43.081  1.00  0.00     0.004 A 
ATOM     10  C   UNL     1     -13.733 -23.557 -40.742  1.00  0.00     0.004 A 
ENDBRANCH   2   4
ENDBRANCH   1   2
BRANCH   1  11
ATOM     11  C   UNL     1     -16.797 -21.288 -39.184  1.00  0.00     0.028 C 
BRANCH  11  12
ATOM     12  C   UNL     1     -16.106 -20.018 -39.617  1.00  0.00    -0.028 C 
ATOM     13  C   UNL     1     -15.049 -19.468 -38.977  1.00  0.00    -0.080 C 
ATOM     14  C   UNL     1     -14.494 -20.049 -37.700  1.00  0.00     0.039 C 
ATOM     15  C   UNL     1     -14.421 -18.208 -39.514  1.00  0.00     0.039 C 
ENDBRANCH  11  12
ENDBRANCH   1  11
TORSDOF 4
ENDMDL
MODEL 3
REMARK VINA RESULT:    -5.761      1.798      2.614
REMARK INTER + INTRA:          -7.716
REMARK INTER:                  -6.945
REMARK INTRA:                  -0.770
REMARK UNBOUND:                -0.607
REMARK SMILES CC(C)=CCC[C@H](C)c1ccc(C)cc1
REMARK SMILES IDX 6 1 7 2 8 3 9 4 13 5 12 6 11 7 14 8 10 9 15 10 5 11 4 12
REMARK SMILES IDX 2 13 1 14 3 15
REMARK H PARENT
REMARK Flexibility Score: inf
ROOT
ATOM      1  C   UNL     1     -14.135 -23.114 -40.591  1.00  0.00     0.012 C 
ENDROOT
BRANCH   1   2
ATOM      2  C   UNL     1     -14.669 -22.751 -41.996  1.00  0.00     0.016 C 
ATOM      3  C   UNL     1     -16.196 -22.897 -42.094  1.00  0.00     0.013 C 
BRANCH   2   4
ATOM      4  C   UNL     1     -13.990 -23.600 -43.056  1.00  0.00    -0.045 A 
ATOM      5  C   UNL     1     -12.090 -25.994 -46.109  1.00  0.00     0.044 C 
ATOM      6  C   UNL     1     -12.746 -25.186 -45.030  1.00  0.00    -0.051 A 
ATOM      7  C   UNL     1     -11.977 -24.354 -44.203  1.00  0.00     0.004 A 
ATOM      8  C   UNL     1     -14.140 -25.202 -44.882  1.00  0.00     0.004 A 
ATOM      9  C   UNL     1     -12.591 -23.572 -43.221  1.00  0.00     0.004 A 
ATOM     10  C   UNL     1     -14.757 -24.421 -43.901  1.00  0.00     0.004 A 
ENDBRANCH   2   4
ENDBRANCH   1   2
BRANCH   1  11
ATOM     11  C   UNL     1     -14.890 -22.391 -39.466  1.00  0.00     0.028 C 
BRANCH  11  12
ATOM     12  C   UNL     1     -14.429 -20.958 -39.351  1.00  0.00    -0.028 C 
ATOM     13  C   UNL     1     -15.248 -19.885 -39.431  1.00  0.00    -0.080 C 
ATOM     14  C   UNL     1     -16.723 -20.021 -39.720  1.00  0.00     0.039 C 
ATOM     15  C   UNL     1     -14.681 -18.497 -39.276  1.00  0.00     0.039 C 
ENDBRANCH  11  12
ENDBRANCH   1  11
TORSDOF 4
ENDMDL
MODEL 4
REMARK VINA RESULT:    -5.369      4.870      6.845
REMARK INTER + INTRA:          -7.232
REMARK INTER:                  -6.739
REMARK INTRA:                  -0.494
REMARK UNBOUND:                -0.607
REMARK SMILES CC(C)=CCC[C@H](C)c1ccc(C)cc1
REMARK SMILES IDX 6 1 7 2 8 3 9 4 13 5 12 6 11 7 14 8 10 9 15 10 5 11 4 12
REMARK SMILES IDX 2 13 1 14 3 15
REMARK H PARENT
REMARK Flexibility Score: inf
ROOT
ATOM      1  C   UNL     1     -10.464 -26.475 -36.255  1.00  0.00     0.012 C 
ENDROOT
BRANCH   1   2
ATOM      2  C   UNL     1      -9.287 -26.806 -37.201  1.00  0.00     0.016 C 
ATOM      3  C   UNL     1      -7.987 -26.102 -36.782  1.00  0.00     0.013 C 
BRANCH   2   4
ATOM      4  C   UNL     1      -9.642 -26.446 -38.633  1.00  0.00    -0.045 A 
ATOM      5  C   UNL     1     -10.618 -25.459 -42.723  1.00  0.00     0.044 C 
ATOM      6  C   UNL     1     -10.283 -25.773 -41.296  1.00  0.00    -0.051 A 
ATOM      7  C   UNL     1     -11.295 -26.141 -40.397  1.00  0.00     0.004 A 
ATOM      8  C   UNL     1      -8.949 -25.767 -40.865  1.00  0.00     0.004 A 
ATOM      9  C   UNL     1     -10.979 -26.469 -39.075  1.00  0.00     0.004 A 
ATOM     10  C   UNL     1      -8.631 -26.096 -39.544  1.00  0.00     0.004 A 
ENDBRANCH   2   4
ENDBRANCH   1   2
BRANCH   1  11
ATOM     11  C   UNL     1     -10.023 -25.672 -35.022  1.00  0.00     0.028 C 
BRANCH  11  12
ATOM     12  C   UNL     1     -11.185 -25.459 -34.082  1.00  0.00    -0.028 C 
ATOM     13  C   UNL     1     -11.196 -24.555 -33.076  1.00  0.00    -0.080 C 
ATOM     14  C   UNL     1      -9.993 -23.705 -32.747  1.00  0.00     0.039 C 
ATOM     15  C   UNL     1     -12.423 -24.411 -32.213  1.00  0.00     0.039 C 
ENDBRANCH  11  12
ENDBRANCH   1  11
TORSDOF 4
ENDMDL
MODEL 5
REMARK VINA RESULT:    -5.321      0.988      2.118
REMARK INTER + INTRA:          -7.173
REMARK INTER:                  -6.040
REMARK INTRA:                  -1.133
REMARK UNBOUND:                -0.607
REMARK SMILES CC(C)=CCC[C@H](C)c1ccc(C)cc1
REMARK SMILES IDX 6 1 7 2 8 3 9 4 13 5 12 6 11 7 14 8 10 9 15 10 5 11 4 12
REMARK SMILES IDX 2 13 1 14 3 15
REMARK H PARENT
REMARK Flexibility Score: inf
ROOT
ATOM      1  C   UNL     1     -14.875 -22.747 -43.016  1.00  0.00     0.012 C 
ENDROOT
BRANCH   1   2
ATOM      2  C   UNL     1     -14.552 -24.254 -43.134  1.00  0.00     0.016 C 
ATOM      3  C   UNL     1     -15.638 -25.133 -42.494  1.00  0.00     0.013 C 
BRANCH   2   4
ATOM      4  C   UNL     1     -13.198 -24.556 -42.515  1.00  0.00    -0.045 A 
ATOM      5  C   UNL     1      -9.332 -25.365 -40.768  1.00  0.00     0.044 C 
ATOM      6  C   UNL     1     -10.676 -25.112 -41.383  1.00  0.00    -0.051 A 
ATOM      7  C   UNL     1     -11.842 -25.257 -40.617  1.00  0.00     0.004 A 
ATOM      8  C   UNL     1     -10.775 -24.664 -42.708  1.00  0.00     0.004 A 
ATOM      9  C   UNL     1     -13.093 -24.987 -41.178  1.00  0.00     0.004 A 
ATOM     10  C   UNL     1     -12.025 -24.393 -43.271  1.00  0.00     0.004 A 
ENDBRANCH   2   4
ENDBRANCH   1   2
BRANCH   1  11
ATOM     11  C   UNL     1     -15.842 -22.437 -41.864  1.00  0.00     0.028 C 
BRANCH  11  12
ATOM     12  C   UNL     1     -15.208 -21.488 -40.877  1.00  0.00    -0.028 C 
ATOM     13  C   UNL     1     -14.936 -21.797 -39.588  1.00  0.00    -0.080 C 
ATOM     14  C   UNL     1     -15.317 -23.126 -38.985  1.00  0.00     0.039 C 
ATOM     15  C   UNL     1     -14.276 -20.777 -38.696  1.00  0.00     0.039 C 
ENDBRANCH  11  12
ENDBRANCH   1  11
TORSDOF 4
ENDMDL
MODEL 6
REMARK VINA RESULT:    -5.307      1.718      5.724
REMARK INTER + INTRA:          -7.156
REMARK INTER:                  -6.344
REMARK INTRA:                  -0.812
REMARK UNBOUND:                -0.607
REMARK SMILES CC(C)=CCC[C@H](C)c1ccc(C)cc1
REMARK SMILES IDX 6 1 7 2 8 3 9 4 13 5 12 6 11 7 14 8 10 9 15 10 5 11 4 12
REMARK SMILES IDX 2 13 1 14 3 15
REMARK H PARENT
REMARK Flexibility Score: inf
ROOT
ATOM      1  C   UNL     1     -10.606 -24.826 -42.350  1.00  0.00     0.012 C 
ENDROOT
BRANCH   1   2
ATOM      2  C   UNL     1     -12.008 -25.098 -42.942  1.00  0.00     0.016 C 
ATOM      3  C   UNL     1     -12.026 -24.974 -44.474  1.00  0.00     0.013 C 
BRANCH   2   4
ATOM      4  C   UNL     1     -13.033 -24.163 -42.326  1.00  0.00    -0.045 A 
ATOM      5  C   UNL     1     -15.911 -21.476 -40.549  1.00  0.00     0.044 C 
ATOM      6  C   UNL     1     -14.932 -22.431 -41.164  1.00  0.00    -0.051 A 
ATOM      7  C   UNL     1     -14.893 -22.606 -42.555  1.00  0.00     0.004 A 
ATOM      8  C   UNL     1     -14.002 -23.105 -40.360  1.00  0.00     0.004 A 
ATOM      9  C   UNL     1     -13.957 -23.469 -43.131  1.00  0.00     0.004 A 
ATOM     10  C   UNL     1     -13.064 -23.968 -40.934  1.00  0.00     0.004 A 
ENDBRANCH   2   4
ENDBRANCH   1   2
BRANCH   1  11
ATOM     11  C   UNL     1      -9.874 -26.115 -41.947  1.00  0.00     0.028 C 
BRANCH  11  12
ATOM     12  C   UNL     1      -9.121 -25.917 -40.653  1.00  0.00    -0.028 C 
ATOM     13  C   UNL     1      -9.624 -26.196 -39.429  1.00  0.00    -0.080 C 
ATOM     14  C   UNL     1     -11.042 -26.673 -39.234  1.00  0.00     0.039 C 
ATOM     15  C   UNL     1      -8.773 -25.983 -38.204  1.00  0.00     0.039 C 
ENDBRANCH  11  12
ENDBRANCH   1  11
TORSDOF 4
ENDMDL
MODEL 7
REMARK VINA RESULT:    -5.275      1.257      5.983
REMARK INTER + INTRA:          -7.116
REMARK INTER:                  -6.420
REMARK INTRA:                  -0.696
REMARK UNBOUND:                -0.607
REMARK SMILES CC(C)=CCC[C@H](C)c1ccc(C)cc1
REMARK SMILES IDX 6 1 7 2 8 3 9 4 13 5 12 6 11 7 14 8 10 9 15 10 5 11 4 12
REMARK SMILES IDX 2 13 1 14 3 15
REMARK H PARENT
REMARK Flexibility Score: inf
ROOT
ATOM      1  C   UNL     1     -15.194 -22.371 -41.931  1.00  0.00     0.012 C 
ENDROOT
BRANCH   1   2
ATOM      2  C   UNL     1     -15.322 -23.226 -40.650  1.00  0.00     0.016 C 
ATOM      3  C   UNL     1     -16.568 -24.126 -40.673  1.00  0.00     0.013 C 
BRANCH   2   4
ATOM      4  C   UNL     1     -15.338 -22.337 -39.418  1.00  0.00    -0.045 A 
ATOM      5  C   UNL     1     -15.394 -19.767 -35.947  1.00  0.00     0.044 C 
ATOM      6  C   UNL     1     -15.354 -20.676 -37.140  1.00  0.00    -0.051 A 
ATOM      7  C   UNL     1     -16.195 -21.797 -37.203  1.00  0.00     0.004 A 
ATOM      8  C   UNL     1     -14.525 -20.376 -38.230  1.00  0.00     0.004 A 
ATOM      9  C   UNL     1     -16.184 -22.624 -38.329  1.00  0.00     0.004 A 
ATOM     10  C   UNL     1     -14.512 -21.202 -39.357  1.00  0.00     0.004 A 
ENDBRANCH   2   4
ENDBRANCH   1   2
BRANCH   1  11
ATOM     11  C   UNL     1     -14.486 -23.116 -43.072  1.00  0.00     0.028 C 
BRANCH  11  12
ATOM     12  C   UNL     1     -13.380 -23.990 -42.531  1.00  0.00    -0.028 C 
ATOM     13  C   UNL     1     -12.128 -24.038 -43.040  1.00  0.00    -0.080 C 
ATOM     14  C   UNL     1     -11.732 -23.258 -44.270  1.00  0.00     0.039 C 
ATOM     15  C   UNL     1     -11.095 -24.931 -42.404  1.00  0.00     0.039 C 
ENDBRANCH  11  12
ENDBRANCH   1  11
TORSDOF 4
ENDMDL
MODEL 8
REMARK VINA RESULT:    -5.195      1.730      5.733
REMARK INTER + INTRA:          -7.017
REMARK INTER:                  -5.850
REMARK INTRA:                  -1.167
REMARK UNBOUND:                -0.607
REMARK SMILES CC(C)=CCC[C@H](C)c1ccc(C)cc1
REMARK SMILES IDX 6 1 7 2 8 3 9 4 13 5 12 6 11 7 14 8 10 9 15 10 5 11 4 12
REMARK SMILES IDX 2 13 1 14 3 15
REMARK H PARENT
REMARK Flexibility Score: inf
ROOT
ATOM      1  C   UNL     1     -14.819 -24.703 -40.060  1.00  0.00     0.012 C 
ENDROOT
BRANCH   1   2
ATOM      2  C   UNL     1     -16.131 -23.909 -39.865  1.00  0.00     0.016 C 
ATOM      3  C   UNL     1     -17.125 -24.136 -41.014  1.00  0.00     0.013 C 
BRANCH   2   4
ATOM      4  C   UNL     1     -15.835 -22.428 -39.709  1.00  0.00    -0.045 A 
ATOM      5  C   UNL     1     -14.954 -18.219 -39.300  1.00  0.00     0.044 C 
ATOM      6  C   UNL     1     -15.267 -19.681 -39.413  1.00  0.00    -0.051 A 
ATOM      7  C   UNL     1     -16.559 -20.103 -39.757  1.00  0.00     0.004 A 
ATOM      8  C   UNL     1     -14.255 -20.636 -39.242  1.00  0.00     0.004 A 
ATOM      9  C   UNL     1     -16.844 -21.464 -39.898  1.00  0.00     0.004 A 
ATOM     10  C   UNL     1     -14.537 -21.998 -39.383  1.00  0.00     0.004 A 
ENDBRANCH   2   4
ENDBRANCH   1   2
BRANCH   1  11
ATOM     11  C   UNL     1     -14.744 -25.394 -41.430  1.00  0.00     0.028 C 
BRANCH  11  12
ATOM     12  C   UNL     1     -13.471 -25.016 -42.148  1.00  0.00    -0.028 C 
ATOM     13  C   UNL     1     -13.333 -23.923 -42.932  1.00  0.00    -0.080 C 
ATOM     14  C   UNL     1     -14.488 -22.997 -43.228  1.00  0.00     0.039 C 
ATOM     15  C   UNL     1     -12.005 -23.629 -43.581  1.00  0.00     0.039 C 
ENDBRANCH  11  12
ENDBRANCH   1  11
TORSDOF 4
ENDMDL
MODEL 9
REMARK VINA RESULT:    -5.188      1.321      2.003
REMARK INTER + INTRA:          -7.009
REMARK INTER:                  -6.471
REMARK INTRA:                  -0.538
REMARK UNBOUND:                -0.607
REMARK SMILES CC(C)=CCC[C@H](C)c1ccc(C)cc1
REMARK SMILES IDX 6 1 7 2 8 3 9 4 13 5 12 6 11 7 14 8 10 9 15 10 5 11 4 12
REMARK SMILES IDX 2 13 1 14 3 15
REMARK H PARENT
REMARK Flexibility Score: inf
ROOT
ATOM      1  C   UNL     1     -14.157 -22.767 -40.851  1.00  0.00     0.012 C 
ENDROOT
BRANCH   1   2
ATOM      2  C   UNL     1     -14.141 -24.311 -40.783  1.00  0.00     0.016 C 
ATOM      3  C   UNL     1     -14.796 -24.844 -39.499  1.00  0.00     0.013 C 
BRANCH   2   4
ATOM      4  C   UNL     1     -12.719 -24.832 -40.903  1.00  0.00    -0.045 A 
ATOM      5  C   UNL     1      -8.694 -26.361 -41.240  1.00  0.00     0.044 C 
ATOM      6  C   UNL     1     -10.081 -25.806 -41.108  1.00  0.00    -0.051 A 
ATOM      7  C   UNL     1     -10.598 -24.953 -42.094  1.00  0.00     0.004 A 
ATOM      8  C   UNL     1     -10.896 -26.190 -40.034  1.00  0.00     0.004 A 
ATOM      9  C   UNL     1     -11.903 -24.465 -41.990  1.00  0.00     0.004 A 
ATOM     10  C   UNL     1     -12.202 -25.703 -39.929  1.00  0.00     0.004 A 
ENDBRANCH   2   4
ENDBRANCH   1   2
BRANCH   1  11
ATOM     11  C   UNL     1     -15.054 -22.137 -39.775  1.00  0.00     0.028 C 
BRANCH  11  12
ATOM     12  C   UNL     1     -15.158 -20.645 -39.976  1.00  0.00    -0.028 C 
ATOM     13  C   UNL     1     -14.748 -19.724 -39.074  1.00  0.00    -0.080 C 
ATOM     14  C   UNL     1     -14.204 -20.113 -37.721  1.00  0.00     0.039 C 
ATOM     15  C   UNL     1     -14.877 -18.256 -39.390  1.00  0.00     0.039 C 
ENDBRANCH  11  12
ENDBRANCH   1  11
TORSDOF 4
ENDMDL
