MODEL 1
REMARK VINA RESULT:    20.324      0.000      0.000
REMARK INTER + INTRA:          25.026
REMARK INTER:                  24.482
REMARK INTRA:                   0.544
REMARK UNBOUND:                 0.544
REMARK SMILES O=c1c(O)c(-c2ccc(O)c(O)c2)oc2cc(O)cc(O)c12
REMARK SMILES IDX 5 1 3 2 2 3 1 4 22 5 20 6 19 7 17 8 16 9 15 10 14 11 6 12
REMARK SMILES IDX 7 13 8 14 9 15 13 16 11 17 10 18 12 20 4 22 21 24 18 26
REMARK H PARENT 10 19 12 21 4 23 21 25 18 27
REMARK Flexibility Score: inf
ROOT
ATOM      1  C   UNL     1     -24.051 -18.381  -1.776  1.00  0.00     0.180 A 
ATOM      2  C   UNL     1     -22.649 -18.397  -1.685  1.00  0.00     0.208 A 
ATOM      3  C   UNL     1     -21.948 -19.511  -2.176  1.00  0.00     0.238 A 
ATOM      4  O   UNL     1     -20.697 -19.544  -2.042  1.00  0.00    -0.285 OA
ATOM      5  C   UNL     1     -22.656 -20.585  -2.766  1.00  0.00     0.111 A 
ATOM      6  C   UNL     1     -22.045 -21.744  -3.332  1.00  0.00     0.134 A 
ATOM      7  C   UNL     1     -22.849 -22.804  -3.771  1.00  0.00     0.093 A 
ATOM      8  C   UNL     1     -24.240 -22.719  -3.725  1.00  0.00     0.123 A 
ATOM      9  C   UNL     1     -24.849 -21.566  -3.229  1.00  0.00     0.094 A 
ATOM     10  C   UNL     1     -24.073 -20.507  -2.750  1.00  0.00     0.146 A 
ATOM     11  O   UNL     1     -24.691 -19.432  -2.276  1.00  0.00    -0.452 OA
ENDROOT
BRANCH   1  12
ATOM     12  C   UNL     1     -24.858 -17.232  -1.303  1.00  0.00     0.025 A 
ATOM     13  C   UNL     1     -26.263 -17.288  -1.274  1.00  0.00     0.016 A 
ATOM     14  C   UNL     1     -27.002 -16.201  -0.800  1.00  0.00     0.051 A 
ATOM     15  C   UNL     1     -26.354 -15.051  -0.340  1.00  0.00     0.157 A 
ATOM     16  C   UNL     1     -24.210 -16.084  -0.820  1.00  0.00     0.062 A 
ATOM     17  C   UNL     1     -24.950 -14.992  -0.345  1.00  0.00     0.158 A 
BRANCH  15  18
ATOM     18  O   UNL     1     -27.119 -13.982   0.125  1.00  0.00    -0.504 OA
ATOM     19  H   UNL     1     -27.019 -13.616   1.064  1.00  0.00     0.293 HD
ENDBRANCH  15  18
BRANCH  17  20
ATOM     20  O   UNL     1     -24.297 -13.852   0.120  1.00  0.00    -0.504 OA
ATOM     21  H   UNL     1     -24.324 -13.586   1.097  1.00  0.00     0.293 HD
ENDBRANCH  17  20
ENDBRANCH   1  12
BRANCH   2  22
ATOM     22  O   UNL     1     -21.971 -17.336  -1.079  1.00  0.00    -0.502 OA
ATOM     23  H   UNL     1     -22.277 -16.374  -1.168  1.00  0.00     0.293 HD
ENDBRANCH   2  22
BRANCH   6  24
ATOM     24  O   UNL     1     -20.666 -21.892  -3.510  1.00  0.00    -0.507 OA
ATOM     25  H   UNL     1     -19.997 -21.139  -3.462  1.00  0.00     0.293 HD
ENDBRANCH   6  24
BRANCH   8  26
ATOM     26  O   UNL     1     -25.009 -23.787  -4.185  1.00  0.00    -0.508 OA
ATOM     27  H   UNL     1     -25.967 -23.657  -4.490  1.00  0.00     0.293 HD
ENDBRANCH   8  26
TORSDOF 6
ENDMDL
MODEL 2
REMARK VINA RESULT:    22.408      1.315      1.898
REMARK INTER + INTRA:          27.537
REMARK INTER:                  27.618
REMARK INTRA:                  -0.080
REMARK UNBOUND:                 0.544
REMARK SMILES O=c1c(O)c(-c2ccc(O)c(O)c2)oc2cc(O)cc(O)c12
REMARK SMILES IDX 5 1 3 2 2 3 1 4 22 5 20 6 19 7 17 8 16 9 15 10 14 11 6 12
REMARK SMILES IDX 7 13 8 14 9 15 13 16 11 17 10 18 12 20 4 22 21 24 18 26
REMARK H PARENT 10 19 12 21 4 23 21 25 18 27
REMARK Flexibility Score: inf
ROOT
ATOM      1  C   UNL     1     -24.018 -19.344  -2.221  1.00  0.00     0.180 A 
ATOM      2  C   UNL     1     -22.696 -19.499  -2.672  1.00  0.00     0.208 A 
ATOM      3  C   UNL     1     -22.323 -20.709  -3.281  1.00  0.00     0.238 A 
ATOM      4  O   UNL     1     -21.124 -20.862  -3.633  1.00  0.00    -0.285 OA
ATOM      5  C   UNL     1     -23.279 -21.739  -3.446  1.00  0.00     0.111 A 
ATOM      6  C   UNL     1     -23.021 -22.988  -4.086  1.00  0.00     0.134 A 
ATOM      7  C   UNL     1     -24.005 -23.985  -4.077  1.00  0.00     0.093 A 
ATOM      8  C   UNL     1     -25.258 -23.755  -3.511  1.00  0.00     0.123 A 
ATOM      9  C   UNL     1     -25.542 -22.516  -2.936  1.00  0.00     0.094 A 
ATOM     10  C   UNL     1     -24.568 -21.514  -2.897  1.00  0.00     0.146 A 
ATOM     11  O   UNL     1     -24.875 -20.353  -2.331  1.00  0.00    -0.452 OA
ENDROOT
BRANCH   1  12
ATOM     12  C   UNL     1     -24.494 -18.090  -1.591  1.00  0.00     0.025 A 
ATOM     13  C   UNL     1     -23.877 -17.571  -0.439  1.00  0.00     0.016 A 
ATOM     14  C   UNL     1     -24.327 -16.373   0.123  1.00  0.00     0.051 A 
ATOM     15  C   UNL     1     -25.386 -15.672  -0.460  1.00  0.00     0.157 A 
ATOM     16  C   UNL     1     -25.543 -17.372  -2.187  1.00  0.00     0.062 A 
ATOM     17  C   UNL     1     -25.997 -16.170  -1.623  1.00  0.00     0.158 A 
BRANCH  15  18
ATOM     18  O   UNL     1     -25.814 -14.481   0.125  1.00  0.00    -0.504 OA
ATOM     19  H   UNL     1     -26.405 -13.821  -0.367  1.00  0.00     0.293 HD
ENDBRANCH  15  18
BRANCH  17  20
ATOM     20  O   UNL     1     -27.048 -15.472  -2.215  1.00  0.00    -0.504 OA
ATOM     21  H   UNL     1     -27.020 -15.195  -3.189  1.00  0.00     0.293 HD
ENDBRANCH  17  20
ENDBRANCH   1  12
BRANCH   2  22
ATOM     22  O   UNL     1     -21.763 -18.477  -2.479  1.00  0.00    -0.502 OA
ATOM     23  H   UNL     1     -21.861 -17.564  -2.907  1.00  0.00     0.293 HD
ENDBRANCH   2  22
BRANCH   6  24
ATOM     24  O   UNL     1     -21.834 -23.289  -4.763  1.00  0.00    -0.507 OA
ATOM     25  H   UNL     1     -21.727 -24.042  -5.424  1.00  0.00     0.293 HD
ENDBRANCH   6  24
BRANCH   8  26
ATOM     26  O   UNL     1     -26.219 -24.764  -3.534  1.00  0.00    -0.508 OA
ATOM     27  H   UNL     1     -27.173 -24.579  -3.818  1.00  0.00     0.293 HD
ENDBRANCH   8  26
TORSDOF 6
ENDMDL
MODEL 3
REMARK VINA RESULT:    22.724      1.309      2.878
REMARK INTER + INTRA:          27.918
REMARK INTER:                  27.482
REMARK INTRA:                   0.436
REMARK UNBOUND:                 0.544
REMARK SMILES O=c1c(O)c(-c2ccc(O)c(O)c2)oc2cc(O)cc(O)c12
REMARK SMILES IDX 5 1 3 2 2 3 1 4 22 5 20 6 19 7 17 8 16 9 15 10 14 11 6 12
REMARK SMILES IDX 7 13 8 14 9 15 13 16 11 17 10 18 12 20 4 22 21 24 18 26
REMARK H PARENT 10 19 12 21 4 23 21 25 18 27
REMARK Flexibility Score: inf
ROOT
ATOM      1  C   UNL     1     -24.864 -17.957  -1.943  1.00  0.00     0.180 A 
ATOM      2  C   UNL     1     -25.740 -19.036  -2.155  1.00  0.00     0.208 A 
ATOM      3  C   UNL     1     -25.218 -20.253  -2.624  1.00  0.00     0.238 A 
ATOM      4  O   UNL     1     -26.014 -21.199  -2.863  1.00  0.00    -0.285 OA
ATOM      5  C   UNL     1     -23.828 -20.381  -2.858  1.00  0.00     0.111 A 
ATOM      6  C   UNL     1     -23.188 -21.579  -3.294  1.00  0.00     0.134 A 
ATOM      7  C   UNL     1     -21.825 -21.555  -3.620  1.00  0.00     0.093 A 
ATOM      8  C   UNL     1     -21.068 -20.394  -3.462  1.00  0.00     0.123 A 
ATOM      9  C   UNL     1     -21.672 -19.233  -2.979  1.00  0.00     0.094 A 
ATOM     10  C   UNL     1     -23.037 -19.217  -2.680  1.00  0.00     0.146 A 
ATOM     11  O   UNL     1     -23.575 -18.088  -2.234  1.00  0.00    -0.452 OA
ENDROOT
BRANCH   1  12
ATOM     12  C   UNL     1     -25.334 -16.651  -1.427  1.00  0.00     0.025 A 
ATOM     13  C   UNL     1     -26.702 -16.327  -1.393  1.00  0.00     0.016 A 
ATOM     14  C   UNL     1     -27.124 -15.099  -0.878  1.00  0.00     0.051 A 
ATOM     15  C   UNL     1     -26.193 -14.183  -0.381  1.00  0.00     0.157 A 
ATOM     16  C   UNL     1     -24.403 -15.737  -0.907  1.00  0.00     0.062 A 
ATOM     17  C   UNL     1     -24.825 -14.502  -0.391  1.00  0.00     0.158 A 
BRANCH  15  18
ATOM     18  O   UNL     1     -26.645 -12.963   0.124  1.00  0.00    -0.504 OA
ATOM     19  H   UNL     1     -27.460 -12.495  -0.251  1.00  0.00     0.293 HD
ENDBRANCH  15  18
BRANCH  17  20
ATOM     20  O   UNL     1     -23.892 -13.597   0.110  1.00  0.00    -0.504 OA
ATOM     21  H   UNL     1     -24.162 -12.670   0.415  1.00  0.00     0.293 HD
ENDBRANCH  17  20
ENDBRANCH   1  12
BRANCH   2  22
ATOM     22  O   UNL     1     -27.111 -18.882  -1.937  1.00  0.00    -0.502 OA
ATOM     23  H   UNL     1     -27.717 -18.411  -2.599  1.00  0.00     0.293 HD
ENDBRANCH   2  22
BRANCH   6  24
ATOM     24  O   UNL     1     -23.831 -22.817  -3.398  1.00  0.00    -0.507 OA
ATOM     25  H   UNL     1     -24.820 -22.937  -3.550  1.00  0.00     0.293 HD
ENDBRANCH   6  24
BRANCH   8  26
ATOM     26  O   UNL     1     -19.711 -20.410  -3.781  1.00  0.00    -0.508 OA
ATOM     27  H   UNL     1     -19.354 -19.924  -4.595  1.00  0.00     0.293 HD
ENDBRANCH   8  26
TORSDOF 6
ENDMDL
MODEL 4
REMARK VINA RESULT:    22.791      1.243      6.772
REMARK INTER + INTRA:          27.998
REMARK INTER:                  27.742
REMARK INTRA:                   0.257
REMARK UNBOUND:                 0.544
REMARK SMILES O=c1c(O)c(-c2ccc(O)c(O)c2)oc2cc(O)cc(O)c12
REMARK SMILES IDX 5 1 3 2 2 3 1 4 22 5 20 6 19 7 17 8 16 9 15 10 14 11 6 12
REMARK SMILES IDX 7 13 8 14 9 15 13 16 11 17 10 18 12 20 4 22 21 24 18 26
REMARK H PARENT 10 19 12 21 4 23 21 25 18 27
REMARK Flexibility Score: inf
ROOT
ATOM      1  C   UNL     1     -23.729 -20.259  -2.528  1.00  0.00     0.180 A 
ATOM      2  C   UNL     1     -22.456 -19.787  -2.166  1.00  0.00     0.208 A 
ATOM      3  C   UNL     1     -22.352 -18.554  -1.501  1.00  0.00     0.238 A 
ATOM      4  O   UNL     1     -21.206 -18.110  -1.227  1.00  0.00    -0.285 OA
ATOM      5  C   UNL     1     -23.521 -17.819  -1.192  1.00  0.00     0.111 A 
ATOM      6  C   UNL     1     -23.536 -16.579  -0.485  1.00  0.00     0.134 A 
ATOM      7  C   UNL     1     -24.739 -15.875  -0.350  1.00  0.00     0.093 A 
ATOM      8  C   UNL     1     -25.937 -16.397  -0.838  1.00  0.00     0.123 A 
ATOM      9  C   UNL     1     -25.944 -17.636  -1.477  1.00  0.00     0.094 A 
ATOM     10  C   UNL     1     -24.753 -18.345  -1.659  1.00  0.00     0.146 A 
ATOM     11  O   UNL     1     -24.802 -19.516  -2.283  1.00  0.00    -0.452 OA
ENDROOT
BRANCH   1  12
ATOM     12  C   UNL     1     -23.922 -21.561  -3.210  1.00  0.00     0.025 A 
ATOM     13  C   UNL     1     -22.960 -22.069  -4.101  1.00  0.00     0.016 A 
ATOM     14  C   UNL     1     -23.152 -23.310  -4.713  1.00  0.00     0.051 A 
ATOM     15  C   UNL     1     -24.294 -24.066  -4.437  1.00  0.00     0.157 A 
ATOM     16  C   UNL     1     -25.058 -22.332  -2.918  1.00  0.00     0.062 A 
ATOM     17  C   UNL     1     -25.253 -23.578  -3.532  1.00  0.00     0.158 A 
BRANCH  15  18
ATOM     18  O   UNL     1     -24.459 -25.301  -5.065  1.00  0.00    -0.504 OA
ATOM     19  H   UNL     1     -25.173 -25.457  -5.766  1.00  0.00     0.293 HD
ENDBRANCH  15  18
BRANCH  17  20
ATOM     20  O   UNL     1     -26.391 -24.330  -3.246  1.00  0.00    -0.504 OA
ATOM     21  H   UNL     1     -26.334 -25.318  -3.032  1.00  0.00     0.293 HD
ENDBRANCH  17  20
ENDBRANCH   1  12
BRANCH   2  22
ATOM     22  O   UNL     1     -21.313 -20.518  -2.499  1.00  0.00    -0.502 OA
ATOM     23  H   UNL     1     -21.164 -21.470  -2.183  1.00  0.00     0.293 HD
ENDBRANCH   2  22
BRANCH   6  24
ATOM     24  O   UNL     1     -22.410 -16.013   0.122  1.00  0.00    -0.507 OA
ATOM     25  H   UNL     1     -22.254 -15.975   1.118  1.00  0.00     0.293 HD
ENDBRANCH   6  24
BRANCH   8  26
ATOM     26  O   UNL     1     -27.118 -15.676  -0.672  1.00  0.00    -0.508 OA
ATOM     27  H   UNL     1     -27.557 -15.581   0.237  1.00  0.00     0.293 HD
ENDBRANCH   8  26
TORSDOF 6
ENDMDL
