MODEL 1
REMARK VINA RESULT:    -3.700      0.000      0.000
REMARK INTER + INTRA:          -5.159
REMARK INTER:                  -4.782
REMARK INTRA:                  -0.378
REMARK UNBOUND:                -0.378
REMARK SMILES C=CC(=O)CCCCC
REMARK SMILES IDX 6 1 7 2 8 3 9 4 5 5 3 6 4 7 2 8 1 9
REMARK H PARENT
REMARK Flexibility Score: inf
ROOT
ATOM      1  C   UNL     1      14.448  61.545  21.890  1.00  0.00     0.008 C 
ENDROOT
BRANCH   1   2
ATOM      2  C   UNL     1      15.518  62.020  20.897  1.00  0.00     0.000 C 
BRANCH   2   3
ATOM      3  C   UNL     1      16.193  60.858  20.154  1.00  0.00    -0.003 C 
ATOM      4  C   UNL     1      16.647  59.740  21.093  1.00  0.00     0.004 C 
ENDBRANCH   2   3
ENDBRANCH   1   2
BRANCH   1   5
ATOM      5  C   UNL     1      13.059  62.043  21.481  1.00  0.00     0.080 C 
BRANCH   5   6
ATOM      6  C   UNL     1      12.529  61.240  20.329  1.00  0.00     0.155 C 
ATOM      7  O   UNL     1      12.281  60.014  20.494  1.00  0.00    -0.295 OA
BRANCH   6   8
ATOM      8  C   UNL     1      12.259  61.894  19.034  1.00  0.00     0.039 C 
ATOM      9  C   UNL     1      11.861  63.161  18.943  1.00  0.00     0.012 C 
ENDBRANCH   6   8
ENDBRANCH   5   6
ENDBRANCH   1   5
TORSDOF 5
ENDMDL
MODEL 2
REMARK VINA RESULT:    -3.494     16.810     18.102
REMARK INTER + INTRA:          -4.893
REMARK INTER:                  -4.550
REMARK INTRA:                  -0.343
REMARK UNBOUND:                -0.378
REMARK SMILES C=CC(=O)CCCCC
REMARK SMILES IDX 6 1 7 2 8 3 9 4 5 5 3 6 4 7 2 8 1 9
REMARK H PARENT
REMARK Flexibility Score: inf
ROOT
ATOM      1  C   UNL     1      16.464  52.533  34.333  1.00  0.00     0.008 C 
ENDROOT
BRANCH   1   2
ATOM      2  C   UNL     1      17.737  51.963  34.976  1.00  0.00     0.000 C 
BRANCH   2   3
ATOM      3  C   UNL     1      18.702  53.061  35.450  1.00  0.00    -0.003 C 
ATOM      4  C   UNL     1      19.454  53.725  34.297  1.00  0.00     0.004 C 
ENDBRANCH   2   3
ENDBRANCH   1   2
BRANCH   1   5
ATOM      5  C   UNL     1      15.224  52.171  35.157  1.00  0.00     0.080 C 
BRANCH   5   6
ATOM      6  C   UNL     1      15.194  52.953  36.436  1.00  0.00     0.155 C 
ATOM      7  O   UNL     1      15.080  54.209  36.390  1.00  0.00    -0.295 OA
BRANCH   6   8
ATOM      8  C   UNL     1      15.253  52.252  37.733  1.00  0.00     0.039 C 
ATOM      9  C   UNL     1      14.726  51.042  37.916  1.00  0.00     0.012 C 
ENDBRANCH   6   8
ENDBRANCH   5   6
ENDBRANCH   1   5
TORSDOF 5
ENDMDL
MODEL 3
REMARK VINA RESULT:    -3.436      1.510      2.952
REMARK INTER + INTRA:          -4.819
REMARK INTER:                  -4.405
REMARK INTRA:                  -0.413
REMARK UNBOUND:                -0.378
REMARK SMILES C=CC(=O)CCCCC
REMARK SMILES IDX 6 1 7 2 8 3 9 4 5 5 3 6 4 7 2 8 1 9
REMARK H PARENT
REMARK Flexibility Score: inf
ROOT
ATOM      1  C   UNL     1      14.421  61.965  21.765  1.00  0.00     0.008 C 
ENDROOT
BRANCH   1   2
ATOM      2  C   UNL     1      13.667  61.321  22.937  1.00  0.00     0.000 C 
BRANCH   2   3
ATOM      3  C   UNL     1      13.130  62.358  23.936  1.00  0.00    -0.003 C 
ATOM      4  C   UNL     1      12.006  63.214  23.353  1.00  0.00     0.004 C 
ENDBRANCH   2   3
ENDBRANCH   1   2
BRANCH   1   5
ATOM      5  C   UNL     1      14.093  61.256  20.447  1.00  0.00     0.080 C 
BRANCH   5   6
ATOM      6  C   UNL     1      12.687  61.560  20.020  1.00  0.00     0.155 C 
ATOM      7  O   UNL     1      11.830  60.634  20.013  1.00  0.00    -0.295 OA
BRANCH   6   8
ATOM      8  C   UNL     1      12.307  62.939  19.658  1.00  0.00     0.039 C 
ATOM      9  C   UNL     1      11.584  63.219  18.575  1.00  0.00     0.012 C 
ENDBRANCH   6   8
ENDBRANCH   5   6
ENDBRANCH   1   5
TORSDOF 5
ENDMDL
MODEL 4
REMARK VINA RESULT:    -3.434      2.031      4.698
REMARK INTER + INTRA:          -4.816
REMARK INTER:                  -4.667
REMARK INTRA:                  -0.148
REMARK UNBOUND:                -0.378
REMARK SMILES C=CC(=O)CCCCC
REMARK SMILES IDX 6 1 7 2 8 3 9 4 5 5 3 6 4 7 2 8 1 9
REMARK H PARENT
REMARK Flexibility Score: inf
ROOT
ATOM      1  C   UNL     1      14.159  61.193  20.537  1.00  0.00     0.008 C 
ENDROOT
BRANCH   1   2
ATOM      2  C   UNL     1      13.048  62.247  20.420  1.00  0.00     0.000 C 
BRANCH   2   3
ATOM      3  C   UNL     1      12.258  62.130  19.108  1.00  0.00    -0.003 C 
ATOM      4  C   UNL     1      11.445  63.386  18.793  1.00  0.00     0.004 C 
ENDBRANCH   2   3
ENDBRANCH   1   2
BRANCH   1   5
ATOM      5  C   UNL     1      15.522  61.856  20.758  1.00  0.00     0.080 C 
BRANCH   5   6
ATOM      6  C   UNL     1      16.468  60.904  21.430  1.00  0.00     0.155 C 
ATOM      7  O   UNL     1      16.602  59.738  20.967  1.00  0.00    -0.295 OA
BRANCH   6   8
ATOM      8  C   UNL     1      17.263  61.348  22.590  1.00  0.00     0.039 C 
ATOM      9  C   UNL     1      17.235  62.602  23.039  1.00  0.00     0.012 C 
ENDBRANCH   6   8
ENDBRANCH   5   6
ENDBRANCH   1   5
TORSDOF 5
ENDMDL
MODEL 5
REMARK VINA RESULT:    -3.398      1.922      4.014
REMARK INTER + INTRA:          -4.769
REMARK INTER:                  -4.350
REMARK INTRA:                  -0.419
REMARK UNBOUND:                -0.378
REMARK SMILES C=CC(=O)CCCCC
REMARK SMILES IDX 6 1 7 2 8 3 9 4 5 5 3 6 4 7 2 8 1 9
REMARK H PARENT
REMARK Flexibility Score: inf
ROOT
ATOM      1  C   UNL     1      13.788  60.873  20.482  1.00  0.00     0.008 C 
ENDROOT
BRANCH   1   2
ATOM      2  C   UNL     1      12.534  61.333  19.723  1.00  0.00     0.000 C 
BRANCH   2   3
ATOM      3  C   UNL     1      12.351  62.858  19.754  1.00  0.00    -0.003 C 
ATOM      4  C   UNL     1      11.419  63.364  18.653  1.00  0.00     0.004 C 
ENDBRANCH   2   3
ENDBRANCH   1   2
BRANCH   1   5
ATOM      5  C   UNL     1      14.300  61.975  21.413  1.00  0.00     0.080 C 
BRANCH   5   6
ATOM      6  C   UNL     1      13.968  61.656  22.841  1.00  0.00     0.155 C 
ATOM      7  O   UNL     1      14.289  60.530  23.312  1.00  0.00    -0.295 OA
BRANCH   6   8
ATOM      8  C   UNL     1      13.314  62.668  23.692  1.00  0.00     0.039 C 
ATOM      9  C   UNL     1      12.090  63.130  23.442  1.00  0.00     0.012 C 
ENDBRANCH   6   8
ENDBRANCH   5   6
ENDBRANCH   1   5
TORSDOF 5
ENDMDL
MODEL 6
REMARK VINA RESULT:    -3.367      2.130      4.404
REMARK INTER + INTRA:          -4.729
REMARK INTER:                  -4.297
REMARK INTRA:                  -0.432
REMARK UNBOUND:                -0.378
REMARK SMILES C=CC(=O)CCCCC
REMARK SMILES IDX 6 1 7 2 8 3 9 4 5 5 3 6 4 7 2 8 1 9
REMARK H PARENT
REMARK Flexibility Score: inf
ROOT
ATOM      1  C   UNL     1      15.330  61.973  21.077  1.00  0.00     0.008 C 
ENDROOT
BRANCH   1   2
ATOM      2  C   UNL     1      13.803  61.901  21.217  1.00  0.00     0.000 C 
BRANCH   2   3
ATOM      3  C   UNL     1      13.107  61.499  19.908  1.00  0.00    -0.003 C 
ATOM      4  C   UNL     1      12.215  62.606  19.348  1.00  0.00     0.004 C 
ENDBRANCH   2   3
ENDBRANCH   1   2
BRANCH   1   5
ATOM      5  C   UNL     1      15.852  60.848  20.178  1.00  0.00     0.080 C 
BRANCH   5   6
ATOM      6  C   UNL     1      16.633  59.850  20.981  1.00  0.00     0.155 C 
ATOM      7  O   UNL     1      17.795  60.147  21.373  1.00  0.00    -0.295 OA
BRANCH   6   8
ATOM      8  C   UNL     1      16.026  58.555  21.342  1.00  0.00     0.039 C 
ATOM      9  C   UNL     1      14.766  58.247  21.040  1.00  0.00     0.012 C 
ENDBRANCH   6   8
ENDBRANCH   5   6
ENDBRANCH   1   5
TORSDOF 5
ENDMDL
MODEL 7
REMARK VINA RESULT:    -3.366      1.558      4.093
REMARK INTER + INTRA:          -4.728
REMARK INTER:                  -4.359
REMARK INTRA:                  -0.369
REMARK UNBOUND:                -0.378
REMARK SMILES C=CC(=O)CCCCC
REMARK SMILES IDX 6 1 7 2 8 3 9 4 5 5 3 6 4 7 2 8 1 9
REMARK H PARENT
REMARK Flexibility Score: inf
ROOT
ATOM      1  C   UNL     1      12.461  60.698  21.215  1.00  0.00     0.008 C 
ENDROOT
BRANCH   1   2
ATOM      2  C   UNL     1      12.495  61.282  19.795  1.00  0.00     0.000 C 
BRANCH   2   3
ATOM      3  C   UNL     1      12.361  62.812  19.781  1.00  0.00    -0.003 C 
ATOM      4  C   UNL     1      11.572  63.326  18.578  1.00  0.00     0.004 C 
ENDBRANCH   2   3
ENDBRANCH   1   2
BRANCH   1   5
ATOM      5  C   UNL     1      13.848  60.203  21.637  1.00  0.00     0.080 C 
BRANCH   5   6
ATOM      6  C   UNL     1      14.750  61.362  21.944  1.00  0.00     0.155 C 
ATOM      7  O   UNL     1      14.466  62.128  22.905  1.00  0.00    -0.295 OA
BRANCH   6   8
ATOM      8  C   UNL     1      15.979  61.571  21.154  1.00  0.00     0.039 C 
ATOM      9  C   UNL     1      16.268  60.843  20.077  1.00  0.00     0.012 C 
ENDBRANCH   6   8
ENDBRANCH   5   6
ENDBRANCH   1   5
TORSDOF 5
ENDMDL
MODEL 8
REMARK VINA RESULT:    -3.354      1.242      1.950
REMARK INTER + INTRA:          -4.712
REMARK INTER:                  -4.225
REMARK INTRA:                  -0.487
REMARK UNBOUND:                -0.378
REMARK SMILES C=CC(=O)CCCCC
REMARK SMILES IDX 6 1 7 2 8 3 9 4 5 5 3 6 4 7 2 8 1 9
REMARK H PARENT
REMARK Flexibility Score: inf
ROOT
ATOM      1  C   UNL     1      14.509  61.622  21.916  1.00  0.00     0.008 C 
ENDROOT
BRANCH   1   2
ATOM      2  C   UNL     1      15.600  62.023  20.912  1.00  0.00     0.000 C 
BRANCH   2   3
ATOM      3  C   UNL     1      16.238  60.811  20.216  1.00  0.00    -0.003 C 
ATOM      4  C   UNL     1      15.976  59.499  20.955  1.00  0.00     0.004 C 
ENDBRANCH   2   3
ENDBRANCH   1   2
BRANCH   1   5
ATOM      5  C   UNL     1      13.130  62.089  21.442  1.00  0.00     0.080 C 
BRANCH   5   6
ATOM      6  C   UNL     1      12.562  61.126  20.442  1.00  0.00     0.155 C 
ATOM      7  O   UNL     1      12.479  61.471  19.231  1.00  0.00    -0.295 OA
BRANCH   6   8
ATOM      8  C   UNL     1      12.148  59.776  20.868  1.00  0.00     0.039 C 
ATOM      9  C   UNL     1      11.354  59.570  21.917  1.00  0.00     0.012 C 
ENDBRANCH   6   8
ENDBRANCH   5   6
ENDBRANCH   1   5
TORSDOF 5
ENDMDL
MODEL 9
REMARK VINA RESULT:    -3.204     16.217     17.717
REMARK INTER + INTRA:          -4.519
REMARK INTER:                  -4.093
REMARK INTRA:                  -0.425
REMARK UNBOUND:                -0.378
REMARK SMILES C=CC(=O)CCCCC
REMARK SMILES IDX 6 1 7 2 8 3 9 4 5 5 3 6 4 7 2 8 1 9
REMARK H PARENT
REMARK Flexibility Score: inf
ROOT
ATOM      1  C   UNL     1      16.530  52.179  34.711  1.00  0.00     0.008 C 
ENDROOT
BRANCH   1   2
ATOM      2  C   UNL     1      15.198  52.030  35.461  1.00  0.00     0.000 C 
BRANCH   2   3
ATOM      3  C   UNL     1      15.339  52.273  36.971  1.00  0.00    -0.003 C 
ATOM      4  C   UNL     1      14.793  51.118  37.810  1.00  0.00     0.004 C 
ENDBRANCH   2   3
ENDBRANCH   1   2
BRANCH   1   5
ATOM      5  C   UNL     1      17.582  52.860  35.592  1.00  0.00     0.080 C 
BRANCH   5   6
ATOM      6  C   UNL     1      18.184  54.036  34.880  1.00  0.00     0.155 C 
ATOM      7  O   UNL     1      19.406  54.010  34.568  1.00  0.00    -0.295 OA
BRANCH   6   8
ATOM      8  C   UNL     1      17.339  55.188  34.513  1.00  0.00     0.039 C 
ATOM      9  C   UNL     1      16.673  55.904  35.418  1.00  0.00     0.012 C 
ENDBRANCH   6   8
ENDBRANCH   5   6
ENDBRANCH   1   5
TORSDOF 5
ENDMDL
