MODEL 1
REMARK VINA RESULT:    -3.145      0.000      0.000
REMARK INTER + INTRA:          -3.118
REMARK INTER:                  -3.880
REMARK INTRA:                   0.763
REMARK UNBOUND:                 0.763
REMARK SMILES CC1=CC=CC(C)(C)CC1=O
REMARK SMILES IDX 1 1 2 2 3 3 10 4 11 5 9 6 4 8 5 9 6 10 7 11 8 12
REMARK H PARENT
REMARK Flexibility Score: 80.00
ROOT
ATOM      1  C   UNL     1      64.573  67.531  40.004  1.00  0.00     0.048 C 
ATOM      2  C   UNL     1      65.797  66.681  40.253  1.00  0.00    -0.008 C 
ATOM      3  C   UNL     1      65.888  65.508  39.591  1.00  0.00     0.007 C 
ENDROOT
BRANCH   2   4
ATOM      4  C   UNL     1      66.838  67.240  41.152  1.00  0.00     0.159 C 
ATOM      5  O   UNL     1      66.749  68.447  41.507  1.00  0.00    -0.295 OA
BRANCH   4   6
ATOM      6  C   UNL     1      67.991  66.441  41.677  1.00  0.00     0.091 CG0
ATOM      7  G   UNL     1      68.877  65.844  40.561  1.00  0.00     0.000 G0
ENDBRANCH   4   6
ENDBRANCH   2   4
BRANCH   3   8
ATOM      8  C   UNL     1      66.962  64.487  39.607  1.00  0.00    -0.003 C 
ATOM      9  C   UNL     1      68.235  64.608  40.002  1.00  0.00    -0.020 C 
BRANCH   9  10
ATOM     10  C   UNL     1      68.886  65.848  40.567  1.00  0.00    -0.010 CG0
ATOM     11  C   UNL     1      69.179  66.855  39.431  1.00  0.00     0.016 C 
ATOM     12  C   UNL     1      70.235  65.442  41.204  1.00  0.00     0.016 C 
ATOM     13  G   UNL     1      67.992  66.446  41.676  1.00  0.00     0.000 G0
ENDBRANCH   9  10
ENDBRANCH   3   8
TORSDOF 0
ENDMDL
MODEL 2
REMARK VINA RESULT:    -3.130      1.492      2.284
REMARK INTER + INTRA:          -3.099
REMARK INTER:                  -3.854
REMARK INTRA:                   0.755
REMARK UNBOUND:                 0.763
REMARK SMILES CC1=CC=CC(C)(C)CC1=O
REMARK SMILES IDX 1 1 2 2 3 3 10 4 11 5 9 6 4 8 5 9 6 10 7 11 8 12
REMARK H PARENT
REMARK Flexibility Score: 80.00
ROOT
ATOM      1  C   UNL     1      64.878  67.620  39.803  1.00  0.00     0.048 C 
ATOM      2  C   UNL     1      66.173  67.423  40.556  1.00  0.00    -0.008 C 
ATOM      3  C   UNL     1      66.106  67.324  41.901  1.00  0.00     0.007 C 
ENDROOT
BRANCH   2   4
ATOM      4  C   UNL     1      67.410  67.279  39.748  1.00  0.00     0.159 C 
ATOM      5  O   UNL     1      67.307  67.113  38.501  1.00  0.00    -0.295 OA
BRANCH   4   6
ATOM      6  C   UNL     1      68.789  67.334  40.331  1.00  0.00     0.091 CG0
ATOM      7  G   UNL     1      69.046  66.238  41.390  1.00  0.00     0.000 G0
ENDBRANCH   4   6
ENDBRANCH   2   4
BRANCH   3   8
ATOM      8  C   UNL     1      67.184  67.105  42.894  1.00  0.00    -0.003 C 
ATOM      9  C   UNL     1      68.423  66.636  42.705  1.00  0.00    -0.020 C 
BRANCH   9  10
ATOM     10  C   UNL     1      69.039  66.234  41.386  1.00  0.00    -0.010 CG0
ATOM     11  C   UNL     1      68.498  64.853  40.950  1.00  0.00     0.016 C 
ATOM     12  C   UNL     1      70.567  66.107  41.582  1.00  0.00     0.016 C 
ATOM     13  G   UNL     1      68.780  67.335  40.333  1.00  0.00     0.000 G0
ENDBRANCH   9  10
ENDBRANCH   3   8
TORSDOF 0
ENDMDL
MODEL 3
REMARK VINA RESULT:    -2.960      1.557      2.922
REMARK INTER + INTRA:          -2.890
REMARK INTER:                  -3.626
REMARK INTRA:                   0.737
REMARK UNBOUND:                 0.763
REMARK SMILES CC1=CC=CC(C)(C)CC1=O
REMARK SMILES IDX 1 1 2 2 3 3 10 4 11 5 9 6 4 8 5 9 6 10 7 11 8 12
REMARK H PARENT
REMARK Flexibility Score: 80.00
ROOT
ATOM      1  C   UNL     1      68.365  69.268  42.079  1.00  0.00     0.048 C 
ATOM      2  C   UNL     1      67.910  68.267  41.042  1.00  0.00    -0.008 C 
ATOM      3  C   UNL     1      68.562  68.250  39.860  1.00  0.00     0.007 C 
ENDROOT
BRANCH   2   4
ATOM      4  C   UNL     1      66.827  67.331  41.435  1.00  0.00     0.159 C 
ATOM      5  O   UNL     1      66.489  67.267  42.649  1.00  0.00    -0.295 OA
BRANCH   4   6
ATOM      6  C   UNL     1      66.095  66.459  40.462  1.00  0.00     0.091 CG0
ATOM      7  G   UNL     1      67.021  65.480  39.705  1.00  0.00     0.000 G0
ENDBRANCH   4   6
ENDBRANCH   2   4
BRANCH   3   8
ATOM      8  C   UNL     1      68.366  67.381  38.677  1.00  0.00    -0.003 C 
ATOM      9  C   UNL     1      67.732  66.205  38.590  1.00  0.00    -0.020 C 
BRANCH   9  10
ATOM     10  C   UNL     1      67.023  65.482  39.710  1.00  0.00    -0.010 CG0
ATOM     11  C   UNL     1      68.056  64.788  40.627  1.00  0.00     0.016 C 
ATOM     12  C   UNL     1      66.125  64.388  39.090  1.00  0.00     0.016 C 
ATOM     13  G   UNL     1      66.116  66.471  40.476  1.00  0.00     0.000 G0
ENDBRANCH   9  10
ENDBRANCH   3   8
TORSDOF 0
ENDMDL
MODEL 4
REMARK VINA RESULT:    -2.958     14.433     15.449
REMARK INTER + INTRA:          -2.888
REMARK INTER:                  -3.646
REMARK INTRA:                   0.758
REMARK UNBOUND:                 0.763
REMARK SMILES CC1=CC=CC(C)(C)CC1=O
REMARK SMILES IDX 1 1 2 2 3 3 10 4 11 5 9 6 4 8 5 9 6 10 7 11 8 12
REMARK H PARENT
REMARK Flexibility Score: 80.00
ROOT
ATOM      1  C   UNL     1      55.622  70.063  33.105  1.00  0.00     0.048 C 
ATOM      2  C   UNL     1      54.462  69.420  33.830  1.00  0.00    -0.008 C 
ATOM      3  C   UNL     1      53.395  69.045  33.094  1.00  0.00     0.007 C 
ENDROOT
BRANCH   2   4
ATOM      4  C   UNL     1      54.622  69.186  35.287  1.00  0.00     0.159 C 
ATOM      5  O   UNL     1      55.762  69.340  35.806  1.00  0.00    -0.295 OA
BRANCH   4   6
ATOM      6  C   UNL     1      53.495  68.787  36.188  1.00  0.00     0.091 CG0
ATOM      7  G   UNL     1      52.831  67.453  35.779  1.00  0.00     0.000 G0
ENDBRANCH   4   6
ENDBRANCH   2   4
BRANCH   3   8
ATOM      8  C   UNL     1      52.138  68.378  33.510  1.00  0.00    -0.003 C 
ATOM      9  C   UNL     1      51.879  67.692  34.630  1.00  0.00    -0.020 C 
BRANCH   9  10
ATOM     10  C   UNL     1      52.829  67.456  35.779  1.00  0.00    -0.010 CG0
ATOM     11  C   UNL     1      53.854  66.363  35.400  1.00  0.00     0.016 C 
ATOM     12  C   UNL     1      52.013  66.946  36.988  1.00  0.00     0.016 C 
ATOM     13  G   UNL     1      53.501  68.788  36.182  1.00  0.00     0.000 G0
ENDBRANCH   9  10
ENDBRANCH   3   8
TORSDOF 0
ENDMDL
MODEL 5
REMARK VINA RESULT:    -2.908      1.669      2.547
REMARK INTER + INTRA:          -2.826
REMARK INTER:                  -3.598
REMARK INTRA:                   0.772
REMARK UNBOUND:                 0.763
REMARK SMILES CC1=CC=CC(C)(C)CC1=O
REMARK SMILES IDX 1 1 2 2 3 3 10 4 11 5 9 6 4 8 5 9 6 10 7 11 8 12
REMARK H PARENT
REMARK Flexibility Score: 80.00
ROOT
ATOM      1  C   UNL     1      64.575  67.093  40.163  1.00  0.00     0.048 C 
ATOM      2  C   UNL     1      66.071  66.961  39.995  1.00  0.00    -0.008 C 
ATOM      3  C   UNL     1      66.844  67.968  40.453  1.00  0.00     0.007 C 
ENDROOT
BRANCH   2   4
ATOM      4  C   UNL     1      66.576  65.696  39.404  1.00  0.00     0.159 C 
ATOM      5  O   UNL     1      65.777  64.729  39.264  1.00  0.00    -0.295 OA
BRANCH   4   6
ATOM      6  C   UNL     1      67.989  65.503  38.948  1.00  0.00     0.091 CG0
ATOM      7  G   UNL     1      69.026  65.708  40.076  1.00  0.00     0.000 G0
ENDBRANCH   4   6
ENDBRANCH   2   4
BRANCH   3   8
ATOM      8  C   UNL     1      68.319  68.112  40.453  1.00  0.00    -0.003 C 
ATOM      9  C   UNL     1      69.258  67.170  40.309  1.00  0.00    -0.020 C 
BRANCH   9  10
ATOM     10  C   UNL     1      69.023  65.696  40.076  1.00  0.00    -0.010 CG0
ATOM     11  C   UNL     1      68.590  65.016  41.394  1.00  0.00     0.016 C 
ATOM     12  C   UNL     1      70.357  65.058  39.625  1.00  0.00     0.016 C 
ATOM     13  G   UNL     1      67.992  65.507  38.941  1.00  0.00     0.000 G0
ENDBRANCH   9  10
ENDBRANCH   3   8
TORSDOF 0
ENDMDL
MODEL 6
REMARK VINA RESULT:    -2.865     10.391     11.468
REMARK INTER + INTRA:          -2.772
REMARK INTER:                  -3.522
REMARK INTRA:                   0.750
REMARK UNBOUND:                 0.763
REMARK SMILES CC1=CC=CC(C)(C)CC1=O
REMARK SMILES IDX 1 1 2 2 3 3 10 4 11 5 9 6 4 8 5 9 6 10 7 11 8 12
REMARK H PARENT
REMARK Flexibility Score: 80.00
ROOT
ATOM      1  C   UNL     1      67.643  67.590  32.752  1.00  0.00     0.048 C 
ATOM      2  C   UNL     1      68.106  68.070  31.396  1.00  0.00    -0.008 C 
ATOM      3  C   UNL     1      68.704  69.278  31.332  1.00  0.00     0.007 C 
ENDROOT
BRANCH   2   4
ATOM      4  C   UNL     1      67.931  67.139  30.253  1.00  0.00     0.159 C 
ATOM      5  O   UNL     1      67.598  65.945  30.487  1.00  0.00    -0.295 OA
BRANCH   4   6
ATOM      6  C   UNL     1      68.116  67.544  28.823  1.00  0.00     0.091 CG0
ATOM      7  G   UNL     1      69.537  68.068  28.517  1.00  0.00     0.000 G0
ENDBRANCH   4   6
ENDBRANCH   2   4
BRANCH   3   8
ATOM      8  C   UNL     1      69.278  69.995  30.169  1.00  0.00    -0.003 C 
ATOM      9  C   UNL     1      69.646  69.511  28.977  1.00  0.00    -0.020 C 
BRANCH   9  10
ATOM     10  C   UNL     1      69.531  68.077  28.516  1.00  0.00    -0.010 CG0
ATOM     11  C   UNL     1      70.654  67.226  29.152  1.00  0.00     0.016 C 
ATOM     12  C   UNL     1      69.718  68.043  26.982  1.00  0.00     0.016 C 
ATOM     13  G   UNL     1      68.119  67.538  28.839  1.00  0.00     0.000 G0
ENDBRANCH   9  10
ENDBRANCH   3   8
TORSDOF 0
ENDMDL
MODEL 7
REMARK VINA RESULT:    -2.807     10.858     12.069
REMARK INTER + INTRA:          -2.701
REMARK INTER:                  -3.456
REMARK INTRA:                   0.755
REMARK UNBOUND:                 0.763
REMARK SMILES CC1=CC=CC(C)(C)CC1=O
REMARK SMILES IDX 1 1 2 2 3 3 10 4 11 5 9 6 4 8 5 9 6 10 7 11 8 12
REMARK H PARENT
REMARK Flexibility Score: 80.00
ROOT
ATOM      1  C   UNL     1      68.630  68.069  32.263  1.00  0.00     0.048 C 
ATOM      2  C   UNL     1      68.844  69.051  31.135  1.00  0.00    -0.008 C 
ATOM      3  C   UNL     1      68.633  70.359  31.396  1.00  0.00     0.007 C 
ENDROOT
BRANCH   2   4
ATOM      4  C   UNL     1      69.340  68.504  29.847  1.00  0.00     0.159 C 
ATOM      5  O   UNL     1      69.731  67.305  29.806  1.00  0.00    -0.295 OA
BRANCH   4   6
ATOM      6  C   UNL     1      69.393  69.298  28.578  1.00  0.00     0.091 CG0
ATOM      7  G   UNL     1      70.266  70.568  28.690  1.00  0.00     0.000 G0
ENDBRANCH   4   6
ENDBRANCH   2   4
BRANCH   3   8
ATOM      8  C   UNL     1      68.783  71.541  30.515  1.00  0.00    -0.003 C 
ATOM      9  C   UNL     1      69.475  71.662  29.376  1.00  0.00    -0.020 C 
BRANCH   9  10
ATOM     10  C   UNL     1      70.268  70.577  28.687  1.00  0.00    -0.010 CG0
ATOM     11  C   UNL     1      71.605  70.348  29.429  1.00  0.00     0.016 C 
ATOM     12  C   UNL     1      70.593  71.050  27.252  1.00  0.00     0.016 C 
ATOM     13  G   UNL     1      69.414  69.293  28.588  1.00  0.00     0.000 G0
ENDBRANCH   9  10
ENDBRANCH   3   8
TORSDOF 0
ENDMDL
MODEL 8
REMARK VINA RESULT:    -2.788      1.361      2.298
REMARK INTER + INTRA:          -2.678
REMARK INTER:                  -3.425
REMARK INTRA:                   0.748
REMARK UNBOUND:                 0.763
REMARK SMILES CC1=CC=CC(C)(C)CC1=O
REMARK SMILES IDX 1 1 2 2 3 3 10 4 11 5 9 6 4 8 5 9 6 10 7 11 8 12
REMARK H PARENT
REMARK Flexibility Score: 80.00
ROOT
ATOM      1  C   UNL     1      67.329  69.105  42.086  1.00  0.00     0.048 C 
ATOM      2  C   UNL     1      67.163  67.790  41.361  1.00  0.00    -0.008 C 
ATOM      3  C   UNL     1      65.985  67.561  40.742  1.00  0.00     0.007 C 
ENDROOT
BRANCH   2   4
ATOM      4  C   UNL     1      68.339  66.885  41.325  1.00  0.00     0.159 C 
ATOM      5  O   UNL     1      69.459  67.327  41.705  1.00  0.00    -0.295 OA
BRANCH   4   6
ATOM      6  C   UNL     1      68.271  65.459  40.872  1.00  0.00     0.091 CG0
ATOM      7  G   UNL     1      67.791  65.307  39.411  1.00  0.00     0.000 G0
ENDBRANCH   4   6
ENDBRANCH   2   4
BRANCH   3   8
ATOM      8  C   UNL     1      65.541  66.395  39.942  1.00  0.00    -0.003 C 
ATOM      9  C   UNL     1      66.279  65.441  39.361  1.00  0.00    -0.020 C 
BRANCH   9  10
ATOM     10  C   UNL     1      67.783  65.312  39.412  1.00  0.00    -0.010 CG0
ATOM     11  C   UNL     1      68.433  66.332  38.450  1.00  0.00     0.016 C 
ATOM     12  C   UNL     1      68.165  63.893  38.933  1.00  0.00     0.016 C 
ATOM     13  G   UNL     1      68.269  65.473  40.870  1.00  0.00     0.000 G0
ENDBRANCH   9  10
ENDBRANCH   3   8
TORSDOF 0
ENDMDL
MODEL 9
REMARK VINA RESULT:    -2.705     11.220     12.127
REMARK INTER + INTRA:          -2.575
REMARK INTER:                  -3.331
REMARK INTRA:                   0.756
REMARK UNBOUND:                 0.763
REMARK SMILES CC1=CC=CC(C)(C)CC1=O
REMARK SMILES IDX 1 1 2 2 3 3 10 4 11 5 9 6 4 8 5 9 6 10 7 11 8 12
REMARK H PARENT
REMARK Flexibility Score: 80.00
ROOT
ATOM      1  C   UNL     1      66.854  66.300  30.950  1.00  0.00     0.048 C 
ATOM      2  C   UNL     1      67.701  66.676  29.756  1.00  0.00    -0.008 C 
ATOM      3  C   UNL     1      67.068  66.889  28.583  1.00  0.00     0.007 C 
ENDROOT
BRANCH   2   4
ATOM      4  C   UNL     1      69.156  66.852  29.988  1.00  0.00     0.159 C 
ATOM      5  O   UNL     1      69.584  66.884  31.175  1.00  0.00    -0.295 OA
BRANCH   4   6
ATOM      6  C   UNL     1      70.159  66.981  28.883  1.00  0.00     0.091 CG0
ATOM      7  G   UNL     1      69.901  68.197  27.965  1.00  0.00     0.000 G0
ENDBRANCH   4   6
ENDBRANCH   2   4
BRANCH   3   8
ATOM      8  C   UNL     1      67.615  67.288  27.265  1.00  0.00    -0.003 C 
ATOM      9  C   UNL     1      68.795  67.851  26.977  1.00  0.00    -0.020 C 
BRANCH   9  10
ATOM     10  C   UNL     1      69.889  68.195  27.959  1.00  0.00    -0.010 CG0
ATOM     11  C   UNL     1      69.517  69.479  28.736  1.00  0.00     0.016 C 
ATOM     12  C   UNL     1      71.185  68.476  27.164  1.00  0.00     0.016 C 
ATOM     13  G   UNL     1      70.150  66.990  28.891  1.00  0.00     0.000 G0
ENDBRANCH   9  10
ENDBRANCH   3   8
TORSDOF 0
ENDMDL
