MODEL 1
REMARK VINA RESULT:    -3.253      0.000      0.000
REMARK INTER + INTRA:          -4.088
REMARK INTER:                  -4.584
REMARK INTRA:                   0.496
REMARK UNBOUND:                 0.496
REMARK SMILES CC1=CCC(=C(C)C)C(=O)CC(C)=CCC1
REMARK SMILES IDX 12 1 14 2 13 3 15 4 16 5 2 6 1 7 3 8 11 10 9 11 10 12 5 13
REMARK SMILES IDX 6 14 7 15 8 16 4 17
REMARK H PARENT
REMARK Flexibility Score: 60.00
ROOT
ATOM      1  C   UNL     1     149.960 158.563 197.967  1.00  0.00    -0.070 C 
ATOM      2  C   UNL     1     149.258 159.542 198.587  1.00  0.00    -0.027 C 
ATOM      3  C   UNL     1     149.758 158.398 196.481  1.00  0.00     0.039 C 
ENDROOT
BRANCH   2   4
ATOM      4  C   UNL     1     149.382 159.950 200.036  1.00  0.00     0.032 C 
BRANCH   4   5
ATOM      5  C   UNL     1     150.586 160.878 200.288  1.00  0.00     0.034 C 
BRANCH   5   6
ATOM      6  C   UNL     1     151.272 160.580 201.607  1.00  0.00    -0.077 C 
ATOM      7  C   UNL     1     150.531 160.887 202.883  1.00  0.00     0.039 C 
ATOM      8  C   UNL     1     152.523 160.077 201.706  1.00  0.00    -0.023 CG0
ATOM      9  G   UNL     1     153.432 159.739 200.549  1.00  0.00     0.000 G0
ENDBRANCH   5   6
ENDBRANCH   4   5
ENDBRANCH   2   4
BRANCH   1  10
ATOM     10  C   UNL     1     150.977 157.679 198.669  1.00  0.00     0.111 C 
BRANCH  10  11
ATOM     11  C   UNL     1     152.336 158.332 198.725  1.00  0.00     0.163 C 
ATOM     12  O   UNL     1     152.805 158.817 197.660  1.00  0.00    -0.294 OA
BRANCH  11  13
ATOM     13  C   UNL     1     153.145 158.371 199.983  1.00  0.00    -0.002 C 
ATOM     14  C   UNL     1     153.632 157.231 200.560  1.00  0.00    -0.069 C 
ATOM     15  C   UNL     1     154.417 157.275 201.853  1.00  0.00     0.039 C 
ATOM     16  C   UNL     1     153.443 155.874 199.918  1.00  0.00     0.039 C 
BRANCH  13  17
ATOM     17  C   UNL     1     153.466 159.740 200.555  1.00  0.00     0.066 CG0
ATOM     18  G   UNL     1     152.518 160.058 201.685  1.00  0.00     0.000 G0
ENDBRANCH  13  17
ENDBRANCH  11  13
ENDBRANCH  10  11
ENDBRANCH   1  10
TORSDOF 0
ENDMDL
MODEL 2
REMARK VINA RESULT:    -3.085      7.391      8.947
REMARK INTER + INTRA:          -3.851
REMARK INTER:                  -4.762
REMARK INTRA:                   0.911
REMARK UNBOUND:                 0.496
REMARK SMILES CC1=CCC(=C(C)C)C(=O)CC(C)=CCC1
REMARK SMILES IDX 12 1 14 2 13 3 15 4 16 5 2 6 1 7 3 8 11 10 9 11 10 12 5 13
REMARK SMILES IDX 6 14 7 15 8 16 4 17
REMARK H PARENT
REMARK Flexibility Score: 60.00
ROOT
ATOM      1  C   UNL     1     158.116 165.190 199.277  1.00  0.00    -0.070 C 
ATOM      2  C   UNL     1     157.226 165.746 198.420  1.00  0.00    -0.027 C 
ATOM      3  C   UNL     1     159.184 166.089 199.849  1.00  0.00     0.039 C 
ENDROOT
BRANCH   2   4
ATOM      4  C   UNL     1     156.022 165.064 197.816  1.00  0.00     0.032 C 
BRANCH   4   5
ATOM      5  C   UNL     1     156.023 165.116 196.276  1.00  0.00     0.034 C 
BRANCH   5   6
ATOM      6  C   UNL     1     156.285 163.757 195.658  1.00  0.00    -0.077 C 
ATOM      7  C   UNL     1     155.127 163.019 195.036  1.00  0.00     0.039 C 
ATOM      8  C   UNL     1     157.496 163.155 195.654  1.00  0.00    -0.023 CG0
ATOM      9  G   UNL     1     158.762 163.715 196.255  1.00  0.00     0.000 G0
ENDBRANCH   5   6
ENDBRANCH   4   5
ENDBRANCH   2   4
BRANCH   1  10
ATOM     10  C   UNL     1     158.055 163.743 199.737  1.00  0.00     0.111 C 
BRANCH  10  11
ATOM     11  C   UNL     1     158.128 162.787 198.571  1.00  0.00     0.163 C 
ATOM     12  O   UNL     1     157.310 161.827 198.540  1.00  0.00    -0.294 OA
BRANCH  11  13
ATOM     13  C   UNL     1     159.163 162.922 197.500  1.00  0.00    -0.002 C 
ATOM     14  C   UNL     1     160.379 162.303 197.593  1.00  0.00    -0.069 C 
ATOM     15  C   UNL     1     161.436 162.476 196.523  1.00  0.00     0.039 C 
ATOM     16  C   UNL     1     160.717 161.388 198.750  1.00  0.00     0.039 C 
BRANCH  13  17
ATOM     17  C   UNL     1     158.778 163.717 196.265  1.00  0.00     0.066 CG0
ATOM     18  G   UNL     1     157.518 163.146 195.662  1.00  0.00     0.000 G0
ENDBRANCH  13  17
ENDBRANCH  11  13
ENDBRANCH  10  11
ENDBRANCH   1  10
TORSDOF 0
ENDMDL
MODEL 3
REMARK VINA RESULT:    -3.073      1.938      3.293
REMARK INTER + INTRA:          -3.835
REMARK INTER:                  -4.194
REMARK INTRA:                   0.359
REMARK UNBOUND:                 0.496
REMARK SMILES CC1=CCC(=C(C)C)C(=O)CC(C)=CCC1
REMARK SMILES IDX 12 1 14 2 13 3 15 4 16 5 2 6 1 7 3 8 11 10 9 11 10 12 5 13
REMARK SMILES IDX 6 14 7 15 8 16 4 17
REMARK H PARENT
REMARK Flexibility Score: 60.00
ROOT
ATOM      1  C   UNL     1     149.814 159.641 199.382  1.00  0.00    -0.070 C 
ATOM      2  C   UNL     1     150.113 159.968 198.102  1.00  0.00    -0.027 C 
ATOM      3  C   UNL     1     148.536 160.195 199.961  1.00  0.00     0.039 C 
ENDROOT
BRANCH   2   4
ATOM      4  C   UNL     1     151.276 159.445 197.294  1.00  0.00     0.032 C 
BRANCH   4   5
ATOM      5  C   UNL     1     152.604 160.142 197.649  1.00  0.00     0.034 C 
BRANCH   5   6
ATOM      6  C   UNL     1     153.726 159.150 197.881  1.00  0.00    -0.077 C 
ATOM      7  C   UNL     1     154.142 158.259 196.738  1.00  0.00     0.039 C 
ATOM      8  C   UNL     1     154.362 158.998 199.065  1.00  0.00    -0.023 CG0
ATOM      9  G   UNL     1     154.066 159.768 200.329  1.00  0.00     0.000 G0
ENDBRANCH   5   6
ENDBRANCH   4   5
ENDBRANCH   2   4
BRANCH   1  10
ATOM     10  C   UNL     1     150.654 158.702 200.231  1.00  0.00     0.111 C 
BRANCH  10  11
ATOM     11  C   UNL     1     151.644 159.459 201.083  1.00  0.00     0.163 C 
ATOM     12  O   UNL     1     151.246 160.503 201.668  1.00  0.00    -0.294 OA
BRANCH  11  13
ATOM     13  C   UNL     1     153.074 159.035 201.201  1.00  0.00    -0.002 C 
ATOM     14  C   UNL     1     153.449 157.985 201.992  1.00  0.00    -0.069 C 
ATOM     15  C   UNL     1     154.902 157.587 202.137  1.00  0.00     0.039 C 
ATOM     16  C   UNL     1     152.430 157.147 202.733  1.00  0.00     0.039 C 
BRANCH  13  17
ATOM     17  C   UNL     1     154.086 159.776 200.346  1.00  0.00     0.066 CG0
ATOM     18  G   UNL     1     154.343 159.005 199.074  1.00  0.00     0.000 G0
ENDBRANCH  13  17
ENDBRANCH  11  13
ENDBRANCH  10  11
ENDBRANCH   1  10
TORSDOF 0
ENDMDL
MODEL 4
REMARK VINA RESULT:    -3.069      2.035      3.886
REMARK INTER + INTRA:          -3.829
REMARK INTER:                  -4.270
REMARK INTRA:                   0.441
REMARK UNBOUND:                 0.496
REMARK SMILES CC1=CCC(=C(C)C)C(=O)CC(C)=CCC1
REMARK SMILES IDX 12 1 14 2 13 3 15 4 16 5 2 6 1 7 3 8 11 10 9 11 10 12 5 13
REMARK SMILES IDX 6 14 7 15 8 16 4 17
REMARK H PARENT
REMARK Flexibility Score: 60.00
ROOT
ATOM      1  C   UNL     1     149.896 160.452 201.924  1.00  0.00    -0.070 C 
ATOM      2  C   UNL     1     148.760 160.501 201.189  1.00  0.00    -0.027 C 
ATOM      3  C   UNL     1     149.757 160.171 203.400  1.00  0.00     0.039 C 
ENDROOT
BRANCH   2   4
ATOM      4  C   UNL     1     148.671 160.661 199.689  1.00  0.00     0.032 C 
BRANCH   4   5
ATOM      5  C   UNL     1     149.047 159.372 198.934  1.00  0.00     0.034 C 
BRANCH   5   6
ATOM      6  C   UNL     1     150.083 159.623 197.856  1.00  0.00    -0.077 C 
ATOM      7  C   UNL     1     149.715 160.527 196.706  1.00  0.00     0.039 C 
ATOM      8  C   UNL     1     151.313 159.061 197.851  1.00  0.00    -0.023 CG0
ATOM      9  G   UNL     1     151.851 158.107 198.890  1.00  0.00     0.000 G0
ENDBRANCH   5   6
ENDBRANCH   4   5
ENDBRANCH   2   4
BRANCH   1  10
ATOM     10  C   UNL     1     151.289 160.596 201.335  1.00  0.00     0.111 C 
BRANCH  10  11
ATOM     11  C   UNL     1     151.971 159.257 201.188  1.00  0.00     0.163 C 
ATOM     12  O   UNL     1     151.983 158.485 202.185  1.00  0.00    -0.294 OA
BRANCH  11  13
ATOM     13  C   UNL     1     152.663 158.856 199.924  1.00  0.00    -0.002 C 
ATOM     14  C   UNL     1     153.995 159.095 199.727  1.00  0.00    -0.069 C 
ATOM     15  C   UNL     1     154.679 158.722 198.429  1.00  0.00     0.039 C 
ATOM     16  C   UNL     1     154.858 159.712 200.805  1.00  0.00     0.039 C 
BRANCH  13  17
ATOM     17  C   UNL     1     151.839 158.103 198.895  1.00  0.00     0.066 CG0
ATOM     18  G   UNL     1     151.340 159.059 197.840  1.00  0.00     0.000 G0
ENDBRANCH  13  17
ENDBRANCH  11  13
ENDBRANCH  10  11
ENDBRANCH   1  10
TORSDOF 0
ENDMDL
MODEL 5
REMARK VINA RESULT:    -3.066      2.025      4.132
REMARK INTER + INTRA:          -3.825
REMARK INTER:                  -4.162
REMARK INTRA:                   0.337
REMARK UNBOUND:                 0.496
REMARK SMILES CC1=CCC(=C(C)C)C(=O)CC(C)=CCC1
REMARK SMILES IDX 12 1 14 2 13 3 15 4 16 5 2 6 1 7 3 8 11 10 9 11 10 12 5 13
REMARK SMILES IDX 6 14 7 15 8 16 4 17
REMARK H PARENT
REMARK Flexibility Score: 60.00
ROOT
ATOM      1  C   UNL     1     149.851 160.274 200.180  1.00  0.00    -0.070 C 
ATOM      2  C   UNL     1     150.643 160.070 201.260  1.00  0.00    -0.027 C 
ATOM      3  C   UNL     1     148.358 160.223 200.393  1.00  0.00     0.039 C 
ENDROOT
BRANCH   2   4
ATOM      4  C   UNL     1     152.149 160.179 201.298  1.00  0.00     0.032 C 
BRANCH   4   5
ATOM      5  C   UNL     1     152.848 158.877 200.863  1.00  0.00     0.034 C 
BRANCH   5   6
ATOM      6  C   UNL     1     153.930 159.126 199.832  1.00  0.00    -0.077 C 
ATOM      7  C   UNL     1     155.174 159.861 200.263  1.00  0.00     0.039 C 
ATOM      8  C   UNL     1     153.835 158.749 198.537  1.00  0.00    -0.023 CG0
ATOM      9  G   UNL     1     152.660 158.037 197.910  1.00  0.00     0.000 G0
ENDBRANCH   5   6
ENDBRANCH   4   5
ENDBRANCH   2   4
BRANCH   1  10
ATOM     10  C   UNL     1     150.381 160.613 198.797  1.00  0.00     0.111 C 
BRANCH  10  11
ATOM     11  C   UNL     1     150.471 159.387 197.921  1.00  0.00     0.163 C 
ATOM     12  O   UNL     1     149.457 158.642 197.839  1.00  0.00    -0.294 OA
BRANCH  11  13
ATOM     13  C   UNL     1     151.730 159.016 197.204  1.00  0.00    -0.002 C 
ATOM     14  C   UNL     1     152.072 159.587 196.010  1.00  0.00    -0.069 C 
ATOM     15  C   UNL     1     153.329 159.179 195.271  1.00  0.00     0.039 C 
ATOM     16  C   UNL     1     151.233 160.679 195.384  1.00  0.00     0.039 C 
BRANCH  13  17
ATOM     17  C   UNL     1     152.653 158.030 197.896  1.00  0.00     0.066 CG0
ATOM     18  G   UNL     1     153.813 158.766 198.521  1.00  0.00     0.000 G0
ENDBRANCH  13  17
ENDBRANCH  11  13
ENDBRANCH  10  11
ENDBRANCH   1  10
TORSDOF 0
ENDMDL
MODEL 6
REMARK VINA RESULT:    -3.031      1.941      4.622
REMARK INTER + INTRA:          -3.776
REMARK INTER:                  -4.347
REMARK INTRA:                   0.571
REMARK UNBOUND:                 0.496
REMARK SMILES CC1=CCC(=C(C)C)C(=O)CC(C)=CCC1
REMARK SMILES IDX 12 1 14 2 13 3 15 4 16 5 2 6 1 7 3 8 11 10 9 11 10 12 5 13
REMARK SMILES IDX 6 14 7 15 8 16 4 17
REMARK H PARENT
REMARK Flexibility Score: 60.00
ROOT
ATOM      1  C   UNL     1     151.389 160.375 201.418  1.00  0.00    -0.070 C 
ATOM      2  C   UNL     1     152.448 159.636 201.825  1.00  0.00    -0.027 C 
ATOM      3  C   UNL     1     150.574 161.067 202.483  1.00  0.00     0.039 C 
ENDROOT
BRANCH   2   4
ATOM      4  C   UNL     1     153.456 158.950 200.934  1.00  0.00     0.032 C 
BRANCH   4   5
ATOM      5  C   UNL     1     153.465 157.420 201.118  1.00  0.00     0.034 C 
BRANCH   5   6
ATOM      6  C   UNL     1     152.066 156.836 201.122  1.00  0.00    -0.077 C 
ATOM      7  C   UNL     1     151.593 156.117 202.360  1.00  0.00     0.039 C 
ATOM      8  C   UNL     1     151.223 156.901 200.066  1.00  0.00    -0.023 CG0
ATOM      9  G   UNL     1     151.526 157.544 198.734  1.00  0.00     0.000 G0
ENDBRANCH   5   6
ENDBRANCH   4   5
ENDBRANCH   2   4
BRANCH   1  10
ATOM     10  C   UNL     1     151.025 160.595 199.959  1.00  0.00     0.111 C 
BRANCH  10  11
ATOM     11  C   UNL     1     150.066 159.541 199.462  1.00  0.00     0.163 C 
ATOM     12  O   UNL     1     148.933 159.463 200.010  1.00  0.00    -0.294 OA
BRANCH  11  13
ATOM     13  C   UNL     1     150.444 158.571 198.387  1.00  0.00    -0.002 C 
ATOM     14  C   UNL     1     149.906 158.643 197.132  1.00  0.00    -0.069 C 
ATOM     15  C   UNL     1     150.265 157.635 196.062  1.00  0.00     0.039 C 
ATOM     16  C   UNL     1     148.955 159.752 196.739  1.00  0.00     0.039 C 
BRANCH  13  17
ATOM     17  C   UNL     1     151.510 157.545 198.728  1.00  0.00     0.066 CG0
ATOM     18  G   UNL     1     151.204 156.915 200.066  1.00  0.00     0.000 G0
ENDBRANCH  13  17
ENDBRANCH  11  13
ENDBRANCH  10  11
ENDBRANCH   1  10
TORSDOF 0
ENDMDL
MODEL 7
REMARK VINA RESULT:    -3.022      7.043      9.010
REMARK INTER + INTRA:          -3.763
REMARK INTER:                  -4.477
REMARK INTRA:                   0.714
REMARK UNBOUND:                 0.496
REMARK SMILES CC1=CCC(=C(C)C)C(=O)CC(C)=CCC1
REMARK SMILES IDX 12 1 14 2 13 3 15 4 16 5 2 6 1 7 3 8 11 10 9 11 10 12 5 13
REMARK SMILES IDX 6 14 7 15 8 16 4 17
REMARK H PARENT
REMARK Flexibility Score: 60.00
ROOT
ATOM      1  C   UNL     1     160.009 163.123 196.586  1.00  0.00    -0.070 C 
ATOM      2  C   UNL     1     160.166 161.905 197.156  1.00  0.00    -0.027 C 
ATOM      3  C   UNL     1     161.235 163.991 196.451  1.00  0.00     0.039 C 
ENDROOT
BRANCH   2   4
ATOM      4  C   UNL     1     159.106 160.839 197.295  1.00  0.00     0.032 C 
BRANCH   4   5
ATOM      5  C   UNL     1     158.632 160.661 198.751  1.00  0.00     0.034 C 
BRANCH   5   6
ATOM      6  C   UNL     1     157.277 161.295 198.992  1.00  0.00    -0.077 C 
ATOM      7  C   UNL     1     156.044 160.453 198.776  1.00  0.00     0.039 C 
ATOM      8  C   UNL     1     157.106 162.583 199.367  1.00  0.00    -0.023 CG0
ATOM      9  G   UNL     1     158.209 163.588 199.598  1.00  0.00     0.000 G0
ENDBRANCH   5   6
ENDBRANCH   4   5
ENDBRANCH   2   4
BRANCH   1  10
ATOM     10  C   UNL     1     158.691 163.627 196.021  1.00  0.00     0.111 C 
BRANCH  10  11
ATOM     11  C   UNL     1     157.765 164.102 197.114  1.00  0.00     0.163 C 
ATOM     12  O   UNL     1     156.528 164.135 196.870  1.00  0.00    -0.294 OA
BRANCH  11  13
ATOM     13  C   UNL     1     158.278 164.575 198.437  1.00  0.00    -0.002 C 
ATOM     14  C   UNL     1     158.741 165.849 198.616  1.00  0.00    -0.069 C 
ATOM     15  C   UNL     1     159.295 166.308 199.947  1.00  0.00     0.039 C 
ATOM     16  C   UNL     1     158.690 166.874 197.504  1.00  0.00     0.039 C 
BRANCH  13  17
ATOM     17  C   UNL     1     158.195 163.599 199.598  1.00  0.00     0.066 CG0
ATOM     18  G   UNL     1     157.091 162.600 199.347  1.00  0.00     0.000 G0
ENDBRANCH  13  17
ENDBRANCH  11  13
ENDBRANCH  10  11
ENDBRANCH   1  10
TORSDOF 0
ENDMDL
MODEL 8
REMARK VINA RESULT:    -3.010      2.016      3.879
REMARK INTER + INTRA:          -3.746
REMARK INTER:                  -4.155
REMARK INTRA:                   0.409
REMARK UNBOUND:                 0.496
REMARK SMILES CC1=CCC(=C(C)C)C(=O)CC(C)=CCC1
REMARK SMILES IDX 12 1 14 2 13 3 15 4 16 5 2 6 1 7 3 8 11 10 9 11 10 12 5 13
REMARK SMILES IDX 6 14 7 15 8 16 4 17
REMARK H PARENT
REMARK Flexibility Score: 60.00
ROOT
ATOM      1  C   UNL     1     150.667 160.159 201.183  1.00  0.00    -0.070 C 
ATOM      2  C   UNL     1     149.772 160.226 200.169  1.00  0.00    -0.027 C 
ATOM      3  C   UNL     1     150.181 160.526 202.564  1.00  0.00     0.039 C 
ENDROOT
BRANCH   2   4
ATOM      4  C   UNL     1     150.009 159.807 198.738  1.00  0.00     0.032 C 
BRANCH   4   5
ATOM      5  C   UNL     1     150.158 158.281 198.585  1.00  0.00     0.034 C 
BRANCH   5   6
ATOM      6  C   UNL     1     151.398 157.903 197.799  1.00  0.00    -0.077 C 
ATOM      7  C   UNL     1     151.557 158.456 196.405  1.00  0.00     0.039 C 
ATOM      8  C   UNL     1     152.360 157.076 198.266  1.00  0.00    -0.023 CG0
ATOM      9  G   UNL     1     152.362 156.399 199.615  1.00  0.00     0.000 G0
ENDBRANCH   5   6
ENDBRANCH   4   5
ENDBRANCH   2   4
BRANCH   1  10
ATOM     10  C   UNL     1     152.098 159.677 201.016  1.00  0.00     0.111 C 
BRANCH  10  11
ATOM     11  C   UNL     1     152.248 158.231 201.423  1.00  0.00     0.163 C 
ATOM     12  O   UNL     1     151.670 157.850 202.478  1.00  0.00    -0.294 OA
BRANCH  11  13
ATOM     13  C   UNL     1     153.093 157.273 200.645  1.00  0.00    -0.002 C 
ATOM     14  C   UNL     1     154.433 157.142 200.880  1.00  0.00    -0.069 C 
ATOM     15  C   UNL     1     155.288 156.198 200.062  1.00  0.00     0.039 C 
ATOM     16  C   UNL     1     155.122 157.906 201.989  1.00  0.00     0.039 C 
BRANCH  13  17
ATOM     17  C   UNL     1     152.382 156.394 199.631  1.00  0.00     0.066 CG0
ATOM     18  G   UNL     1     152.359 157.080 198.287  1.00  0.00     0.000 G0
ENDBRANCH  13  17
ENDBRANCH  11  13
ENDBRANCH  10  11
ENDBRANCH   1  10
TORSDOF 0
ENDMDL
MODEL 9
REMARK VINA RESULT:    -2.919      2.195      4.704
REMARK INTER + INTRA:          -3.617
REMARK INTER:                  -4.480
REMARK INTRA:                   0.862
REMARK UNBOUND:                 0.496
REMARK SMILES CC1=CCC(=C(C)C)C(=O)CC(C)=CCC1
REMARK SMILES IDX 12 1 14 2 13 3 15 4 16 5 2 6 1 7 3 8 11 10 9 11 10 12 5 13
REMARK SMILES IDX 6 14 7 15 8 16 4 17
REMARK H PARENT
REMARK Flexibility Score: 60.00
ROOT
ATOM      1  C   UNL     1     154.123 159.503 200.303  1.00  0.00    -0.070 C 
ATOM      2  C   UNL     1     154.923 158.454 200.608  1.00  0.00    -0.027 C 
ATOM      3  C   UNL     1     154.167 160.023 198.887  1.00  0.00     0.039 C 
ENDROOT
BRANCH   2   4
ATOM      4  C   UNL     1     154.962 157.711 201.922  1.00  0.00     0.032 C 
BRANCH   4   5
ATOM      5  C   UNL     1     154.347 156.302 201.824  1.00  0.00     0.034 C 
BRANCH   5   6
ATOM      6  C   UNL     1     152.953 156.245 202.418  1.00  0.00    -0.077 C 
ATOM      7  C   UNL     1     152.800 155.773 203.842  1.00  0.00     0.039 C 
ATOM      8  C   UNL     1     151.832 156.568 201.733  1.00  0.00    -0.023 CG0
ATOM      9  G   UNL     1     151.777 157.025 200.296  1.00  0.00     0.000 G0
ENDBRANCH   5   6
ENDBRANCH   4   5
ENDBRANCH   2   4
BRANCH   1  10
ATOM     10  C   UNL     1     153.147 160.133 201.283  1.00  0.00     0.111 C 
BRANCH  10  11
ATOM     11  C   UNL     1     151.848 159.368 201.342  1.00  0.00     0.163 C 
ATOM     12  O   UNL     1     151.158 159.451 202.394  1.00  0.00    -0.294 OA
BRANCH  11  13
ATOM     13  C   UNL     1     151.395 158.489 200.219  1.00  0.00    -0.002 C 
ATOM     14  C   UNL     1     150.708 158.988 199.147  1.00  0.00    -0.069 C 
ATOM     15  C   UNL     1     150.220 158.086 198.034  1.00  0.00     0.039 C 
ATOM     16  C   UNL     1     150.432 160.468 199.001  1.00  0.00     0.039 C 
BRANCH  13  17
ATOM     17  C   UNL     1     151.796 157.026 200.284  1.00  0.00     0.066 CG0
ATOM     18  G   UNL     1     151.816 156.565 201.721  1.00  0.00     0.000 G0
ENDBRANCH  13  17
ENDBRANCH  11  13
ENDBRANCH  10  11
ENDBRANCH   1  10
TORSDOF 0
ENDMDL
