MODEL 1
REMARK VINA RESULT:    -6.646      0.000      0.000
REMARK INTER + INTRA:          -7.305
REMARK INTER:                  -7.034
REMARK INTRA:                  -0.271
REMARK UNBOUND:                -0.271
REMARK SMILES CC(C)[C@H]1CC[C@H](C)[C@@H]2C=C[C@@H](C)C[C@@H]21
REMARK SMILES IDX 8 1 7 2 6 3 5 4 4 5 15 6 9 7 10 8 11 9 12 10 14 11 13 12
REMARK SMILES IDX 2 13 1 14 3 15
REMARK H PARENT
REMARK Flexibility Score: inf
ROOT
ATOM      1  C   UNL     1       4.332  12.628   3.819  1.00  0.00     0.008 C 
ATOM      2  C   UNL     1       2.858  12.665   4.252  1.00  0.00    -0.007 C 
ATOM      3  C   UNL     1       2.690  13.375   5.598  1.00  0.00     0.004 C 
ATOM      4  C   UNL     1       1.253  13.210   6.083  1.00  0.00     0.004 C 
ATOM      5  C   UNL     1       0.231  13.825   5.094  1.00  0.00    -0.005 C 
ATOM      6  C   UNL     1       0.424  13.293   3.626  1.00  0.00    -0.000 C 
ATOM      7  C   UNL     1       1.924  13.284   3.183  1.00  0.00     0.018 C 
ATOM      8  C   UNL     1       2.346  14.663   2.726  1.00  0.00    -0.027 C 
ATOM      9  C   UNL     1       1.572  15.337   1.869  1.00  0.00    -0.028 C 
ATOM     10  C   UNL     1       0.247  14.774   1.426  1.00  0.00     0.008 C 
ATOM     11  C   UNL     1      -0.482  14.085   2.608  1.00  0.00     0.012 C 
ATOM     12  C   UNL     1       0.393  13.859   0.203  1.00  0.00     0.012 C 
ENDROOT
BRANCH   5  13
ATOM     13  C   UNL     1      -1.242  13.654   5.620  1.00  0.00    -0.014 C 
ATOM     14  C   UNL     1      -1.489  12.351   6.402  1.00  0.00     0.007 C 
ATOM     15  C   UNL     1      -1.687  14.860   6.462  1.00  0.00     0.007 C 
ENDBRANCH   5  13
TORSDOF 1
ENDMDL
MODEL 2
REMARK VINA RESULT:    -6.181      1.114      4.839
REMARK INTER + INTRA:          -6.814
REMARK INTER:                  -6.580
REMARK INTRA:                  -0.234
REMARK UNBOUND:                -0.271
REMARK SMILES CC(C)[C@H]1CC[C@H](C)[C@@H]2C=C[C@@H](C)C[C@@H]21
REMARK SMILES IDX 8 1 7 2 6 3 5 4 4 5 15 6 9 7 10 8 11 9 12 10 14 11 13 12
REMARK SMILES IDX 2 13 1 14 3 15
REMARK H PARENT
REMARK Flexibility Score: inf
ROOT
ATOM      1  C   UNL     1      -1.807  14.557   1.816  1.00  0.00     0.008 C 
ATOM      2  C   UNL     1      -0.422  14.068   2.272  1.00  0.00    -0.007 C 
ATOM      3  C   UNL     1       0.636  15.160   2.107  1.00  0.00     0.004 C 
ATOM      4  C   UNL     1       2.018  14.573   2.375  1.00  0.00     0.004 C 
ATOM      5  C   UNL     1       2.141  14.009   3.813  1.00  0.00    -0.005 C 
ATOM      6  C   UNL     1       0.990  12.993   4.159  1.00  0.00    -0.000 C 
ATOM      7  C   UNL     1      -0.419  13.510   3.716  1.00  0.00     0.018 C 
ATOM      8  C   UNL     1      -0.974  14.470   4.744  1.00  0.00    -0.027 C 
ATOM      9  C   UNL     1      -0.944  14.137   6.039  1.00  0.00    -0.028 C 
ATOM     10  C   UNL     1      -0.285  12.859   6.487  1.00  0.00     0.008 C 
ATOM     11  C   UNL     1       1.016  12.598   5.684  1.00  0.00     0.012 C 
ATOM     12  C   UNL     1      -1.255  11.670   6.450  1.00  0.00     0.012 C 
ENDROOT
BRANCH   5  13
ATOM     13  C   UNL     1       3.577  13.418   4.072  1.00  0.00    -0.014 C 
ATOM     14  C   UNL     1       3.789  12.000   3.510  1.00  0.00     0.007 C 
ATOM     15  C   UNL     1       4.677  14.356   3.551  1.00  0.00     0.007 C 
ENDBRANCH   5  13
TORSDOF 1
ENDMDL
MODEL 3
REMARK VINA RESULT:    -6.145      2.084      4.889
REMARK INTER + INTRA:          -6.775
REMARK INTER:                  -6.500
REMARK INTRA:                  -0.275
REMARK UNBOUND:                -0.271
REMARK SMILES CC(C)[C@H]1CC[C@H](C)[C@@H]2C=C[C@@H](C)C[C@@H]21
REMARK SMILES IDX 8 1 7 2 6 3 5 4 4 5 15 6 9 7 10 8 11 9 12 10 14 11 13 12
REMARK SMILES IDX 2 13 1 14 3 15
REMARK H PARENT
REMARK Flexibility Score: inf
ROOT
ATOM      1  C   UNL     1       4.324  17.319   2.238  1.00  0.00     0.008 C 
ATOM      2  C   UNL     1       3.101  16.480   1.832  1.00  0.00    -0.007 C 
ATOM      3  C   UNL     1       3.204  16.014   0.378  1.00  0.00     0.004 C 
ATOM      4  C   UNL     1       1.889  15.364  -0.041  1.00  0.00     0.004 C 
ATOM      5  C   UNL     1       1.547  14.128   0.829  1.00  0.00    -0.005 C 
ATOM      6  C   UNL     1       1.583  14.452   2.369  1.00  0.00    -0.000 C 
ATOM      7  C   UNL     1       2.843  15.282   2.779  1.00  0.00     0.018 C 
ATOM      8  C   UNL     1       4.039  14.372   2.954  1.00  0.00    -0.027 C 
ATOM      9  C   UNL     1       3.914  13.256   3.679  1.00  0.00    -0.028 C 
ATOM     10  C   UNL     1       2.577  12.853   4.245  1.00  0.00     0.008 C 
ATOM     11  C   UNL     1       1.440  13.140   3.231  1.00  0.00     0.012 C 
ATOM     12  C   UNL     1       2.322  13.489   5.619  1.00  0.00     0.012 C 
ENDROOT
BRANCH   5  13
ATOM     13  C   UNL     1       0.193  13.469   0.373  1.00  0.00    -0.014 C 
ATOM     14  C   UNL     1      -0.982  14.456   0.245  1.00  0.00     0.007 C 
ATOM     15  C   UNL     1       0.359  12.683  -0.937  1.00  0.00     0.007 C 
ENDBRANCH   5  13
TORSDOF 1
ENDMDL
MODEL 4
REMARK VINA RESULT:    -6.080      1.029      3.555
REMARK INTER + INTRA:          -6.706
REMARK INTER:                  -6.442
REMARK INTRA:                  -0.264
REMARK UNBOUND:                -0.271
REMARK SMILES CC(C)[C@H]1CC[C@H](C)[C@@H]2C=C[C@@H](C)C[C@@H]21
REMARK SMILES IDX 8 1 7 2 6 3 5 4 4 5 15 6 9 7 10 8 11 9 12 10 14 11 13 12
REMARK SMILES IDX 2 13 1 14 3 15
REMARK H PARENT
REMARK Flexibility Score: inf
ROOT
ATOM      1  C   UNL     1       0.861  15.454   0.292  1.00  0.00     0.008 C 
ATOM      2  C   UNL     1       0.517  15.170   1.764  1.00  0.00    -0.007 C 
ATOM      3  C   UNL     1      -0.842  14.480   1.894  1.00  0.00     0.004 C 
ATOM      4  C   UNL     1      -1.233  14.402   3.367  1.00  0.00     0.004 C 
ATOM      5  C   UNL     1      -0.209  13.590   4.199  1.00  0.00    -0.005 C 
ATOM      6  C   UNL     1       1.265  14.108   4.004  1.00  0.00    -0.000 C 
ATOM      7  C   UNL     1       1.616  14.368   2.503  1.00  0.00     0.018 C 
ATOM      8  C   UNL     1       1.994  13.073   1.818  1.00  0.00    -0.027 C 
ATOM      9  C   UNL     1       2.869  12.250   2.405  1.00  0.00    -0.028 C 
ATOM     10  C   UNL     1       3.413  12.559   3.776  1.00  0.00     0.008 C 
ATOM     11  C   UNL     1       2.304  13.141   4.690  1.00  0.00     0.012 C 
ATOM     12  C   UNL     1       4.659  13.452   3.710  1.00  0.00     0.012 C 
ENDROOT
BRANCH   5  13
ATOM     13  C   UNL     1      -0.637  13.514   5.711  1.00  0.00    -0.014 C 
ATOM     14  C   UNL     1      -1.795  14.456   6.090  1.00  0.00     0.007 C 
ATOM     15  C   UNL     1      -0.975  12.076   6.132  1.00  0.00     0.007 C 
ENDBRANCH   5  13
TORSDOF 1
ENDMDL
MODEL 5
REMARK VINA RESULT:    -5.938      1.049      4.070
REMARK INTER + INTRA:          -6.556
REMARK INTER:                  -6.524
REMARK INTRA:                  -0.032
REMARK UNBOUND:                -0.271
REMARK SMILES CC(C)[C@H]1CC[C@H](C)[C@@H]2C=C[C@@H](C)C[C@@H]21
REMARK SMILES IDX 8 1 7 2 6 3 5 4 4 5 15 6 9 7 10 8 11 9 12 10 14 11 13 12
REMARK SMILES IDX 2 13 1 14 3 15
REMARK H PARENT
REMARK Flexibility Score: inf
ROOT
ATOM      1  C   UNL     1      -0.517  11.878   6.860  1.00  0.00     0.008 C 
ATOM      2  C   UNL     1      -0.505  12.467   5.440  1.00  0.00    -0.007 C 
ATOM      3  C   UNL     1      -1.259  13.797   5.381  1.00  0.00     0.004 C 
ATOM      4  C   UNL     1      -1.396  14.239   3.928  1.00  0.00     0.004 C 
ATOM      5  C   UNL     1      -0.018  14.447   3.250  1.00  0.00    -0.005 C 
ATOM      6  C   UNL     1       0.918  13.191   3.400  1.00  0.00    -0.000 C 
ATOM      7  C   UNL     1       0.921  12.615   4.854  1.00  0.00     0.018 C 
ATOM      8  C   UNL     1       1.864  13.407   5.733  1.00  0.00    -0.027 C 
ATOM      9  C   UNL     1       3.098  13.678   5.296  1.00  0.00    -0.028 C 
ATOM     10  C   UNL     1       3.526  13.278   3.907  1.00  0.00     0.008 C 
ATOM     11  C   UNL     1       2.377  13.502   2.891  1.00  0.00     0.012 C 
ATOM     12  C   UNL     1       4.083  11.848   3.869  1.00  0.00     0.012 C 
ENDROOT
BRANCH   5  13
ATOM     13  C   UNL     1      -0.183  14.913   1.756  1.00  0.00    -0.014 C 
ATOM     14  C   UNL     1      -0.045  13.782   0.721  1.00  0.00     0.007 C 
ATOM     15  C   UNL     1      -1.508  15.660   1.539  1.00  0.00     0.007 C 
ENDBRANCH   5  13
TORSDOF 1
ENDMDL
MODEL 6
REMARK VINA RESULT:    -5.722      0.972      4.241
REMARK INTER + INTRA:          -6.328
REMARK INTER:                  -6.054
REMARK INTRA:                  -0.274
REMARK UNBOUND:                -0.271
REMARK SMILES CC(C)[C@H]1CC[C@H](C)[C@@H]2C=C[C@@H](C)C[C@@H]21
REMARK SMILES IDX 8 1 7 2 6 3 5 4 4 5 15 6 9 7 10 8 11 9 12 10 14 11 13 12
REMARK SMILES IDX 2 13 1 14 3 15
REMARK H PARENT
REMARK Flexibility Score: inf
ROOT
ATOM      1  C   UNL     1       3.243  13.390   6.692  1.00  0.00     0.008 C 
ATOM      2  C   UNL     1       2.672  13.747   5.310  1.00  0.00    -0.007 C 
ATOM      3  C   UNL     1       3.168  12.777   4.235  1.00  0.00     0.004 C 
ATOM      4  C   UNL     1       2.746  13.284   2.859  1.00  0.00     0.004 C 
ATOM      5  C   UNL     1       1.205  13.389   2.726  1.00  0.00    -0.005 C 
ATOM      6  C   UNL     1       0.560  14.229   3.890  1.00  0.00    -0.000 C 
ATOM      7  C   UNL     1       1.126  13.842   5.295  1.00  0.00     0.018 C 
ATOM      8  C   UNL     1       0.432  12.604   5.820  1.00  0.00    -0.027 C 
ATOM      9  C   UNL     1      -0.902  12.531   5.777  1.00  0.00    -0.028 C 
ATOM     10  C   UNL     1      -1.711  13.627   5.134  1.00  0.00     0.008 C 
ATOM     11  C   UNL     1      -1.014  14.145   3.850  1.00  0.00     0.012 C 
ATOM     12  C   UNL     1      -2.043  14.752   6.124  1.00  0.00     0.012 C 
ENDROOT
BRANCH   5  13
ATOM     13  C   UNL     1       0.792  13.903   1.297  1.00  0.00    -0.014 C 
ATOM     14  C   UNL     1       1.128  15.383   1.034  1.00  0.00     0.007 C 
ATOM     15  C   UNL     1       1.390  13.027   0.186  1.00  0.00     0.007 C 
ENDBRANCH   5  13
TORSDOF 1
ENDMDL
MODEL 7
REMARK VINA RESULT:    -5.714      1.804      2.995
REMARK INTER + INTRA:          -6.319
REMARK INTER:                  -6.061
REMARK INTRA:                  -0.258
REMARK UNBOUND:                -0.271
REMARK SMILES CC(C)[C@H]1CC[C@H](C)[C@@H]2C=C[C@@H](C)C[C@@H]21
REMARK SMILES IDX 8 1 7 2 6 3 5 4 4 5 15 6 9 7 10 8 11 9 12 10 14 11 13 12
REMARK SMILES IDX 2 13 1 14 3 15
REMARK H PARENT
REMARK Flexibility Score: inf
ROOT
ATOM      1  C   UNL     1       3.431  12.683   3.410  1.00  0.00     0.008 C 
ATOM      2  C   UNL     1       2.050  13.127   2.901  1.00  0.00    -0.007 C 
ATOM      3  C   UNL     1       1.170  13.631   4.047  1.00  0.00     0.004 C 
ATOM      4  C   UNL     1      -0.247  13.866   3.533  1.00  0.00     0.004 C 
ATOM      5  C   UNL     1      -0.288  14.926   2.404  1.00  0.00    -0.005 C 
ATOM      6  C   UNL     1       0.717  14.598   1.238  1.00  0.00    -0.000 C 
ATOM      7  C   UNL     1       2.128  14.174   1.763  1.00  0.00     0.018 C 
ATOM      8  C   UNL     1       2.949  15.396   2.111  1.00  0.00    -0.027 C 
ATOM      9  C   UNL     1       3.019  16.410   1.243  1.00  0.00    -0.028 C 
ATOM     10  C   UNL     1       2.220  16.384  -0.034  1.00  0.00     0.008 C 
ATOM     11  C   UNL     1       0.809  15.791   0.211  1.00  0.00     0.012 C 
ATOM     12  C   UNL     1       2.974  15.675  -1.168  1.00  0.00     0.012 C 
ENDROOT
BRANCH   5  13
ATOM     13  C   UNL     1      -1.759  15.161   1.897  1.00  0.00    -0.014 C 
ATOM     14  C   UNL     1      -2.301  14.045   0.985  1.00  0.00     0.007 C 
ATOM     15  C   UNL     1      -2.730  15.397   3.065  1.00  0.00     0.007 C 
ENDBRANCH   5  13
TORSDOF 1
ENDMDL
MODEL 8
REMARK VINA RESULT:    -5.402      1.348      4.236
REMARK INTER + INTRA:          -5.989
REMARK INTER:                  -5.717
REMARK INTRA:                  -0.272
REMARK UNBOUND:                -0.271
REMARK SMILES CC(C)[C@H]1CC[C@H](C)[C@@H]2C=C[C@@H](C)C[C@@H]21
REMARK SMILES IDX 8 1 7 2 6 3 5 4 4 5 15 6 9 7 10 8 11 9 12 10 14 11 13 12
REMARK SMILES IDX 2 13 1 14 3 15
REMARK H PARENT
REMARK Flexibility Score: inf
ROOT
ATOM      1  C   UNL     1       4.022  13.007   3.847  1.00  0.00     0.008 C 
ATOM      2  C   UNL     1       2.810  13.652   3.156  1.00  0.00    -0.007 C 
ATOM      3  C   UNL     1       2.518  12.987   1.809  1.00  0.00     0.004 C 
ATOM      4  C   UNL     1       1.447  13.783   1.070  1.00  0.00     0.004 C 
ATOM      5  C   UNL     1       0.118  13.847   1.865  1.00  0.00    -0.005 C 
ATOM      6  C   UNL     1       0.325  14.358   3.339  1.00  0.00    -0.000 C 
ATOM      7  C   UNL     1       1.542  13.677   4.045  1.00  0.00     0.018 C 
ATOM      8  C   UNL     1       1.147  12.321   4.584  1.00  0.00    -0.027 C 
ATOM      9  C   UNL     1       0.020  12.198   5.294  1.00  0.00    -0.028 C 
ATOM     10  C   UNL     1      -0.899  13.377   5.485  1.00  0.00     0.008 C 
ATOM     11  C   UNL     1      -0.998  14.214   4.184  1.00  0.00     0.012 C 
ATOM     12  C   UNL     1      -0.504  14.220   6.705  1.00  0.00     0.012 C 
ENDROOT
BRANCH   5  13
ATOM     13  C   UNL     1      -0.975  14.663   1.080  1.00  0.00    -0.014 C 
ATOM     14  C   UNL     1      -0.441  15.926   0.380  1.00  0.00     0.007 C 
ATOM     15  C   UNL     1      -1.722  13.782   0.067  1.00  0.00     0.007 C 
ENDBRANCH   5  13
TORSDOF 1
ENDMDL
MODEL 9
REMARK VINA RESULT:    -5.371      2.012      4.458
REMARK INTER + INTRA:          -5.956
REMARK INTER:                  -5.691
REMARK INTRA:                  -0.265
REMARK UNBOUND:                -0.271
REMARK SMILES CC(C)[C@H]1CC[C@H](C)[C@@H]2C=C[C@@H](C)C[C@@H]21
REMARK SMILES IDX 8 1 7 2 6 3 5 4 4 5 15 6 9 7 10 8 11 9 12 10 14 11 13 12
REMARK SMILES IDX 2 13 1 14 3 15
REMARK H PARENT
REMARK Flexibility Score: inf
ROOT
ATOM      1  C   UNL     1       3.241  17.188  -1.529  1.00  0.00     0.008 C 
ATOM      2  C   UNL     1       3.117  16.119  -0.430  1.00  0.00    -0.007 C 
ATOM      3  C   UNL     1       3.183  16.745   0.965  1.00  0.00     0.004 C 
ATOM      4  C   UNL     1       3.261  15.639   2.014  1.00  0.00     0.004 C 
ATOM      5  C   UNL     1       2.023  14.708   1.971  1.00  0.00    -0.005 C 
ATOM      6  C   UNL     1       1.752  14.137   0.529  1.00  0.00    -0.000 C 
ATOM      7  C   UNL     1       1.854  15.236  -0.580  1.00  0.00     0.018 C 
ATOM      8  C   UNL     1       0.564  16.021  -0.662  1.00  0.00    -0.027 C 
ATOM      9  C   UNL     1      -0.602  15.368  -0.705  1.00  0.00    -0.028 C 
ATOM     10  C   UNL     1      -0.646  13.867  -0.584  1.00  0.00     0.008 C 
ATOM     11  C   UNL     1       0.378  13.369   0.468  1.00  0.00     0.012 C 
ATOM     12  C   UNL     1      -0.482  13.177  -1.946  1.00  0.00     0.012 C 
ENDROOT
BRANCH   5  13
ATOM     13  C   UNL     1       2.120  13.583   3.067  1.00  0.00    -0.014 C 
ATOM     14  C   UNL     1       3.501  13.469   3.737  1.00  0.00     0.007 C 
ATOM     15  C   UNL     1       1.031  13.742   4.139  1.00  0.00     0.007 C 
ENDBRANCH   5  13
TORSDOF 1
ENDMDL
