MODEL 1
REMARK VINA RESULT:    -3.656      0.000      0.000
REMARK INTER + INTRA:          -4.602
REMARK INTER:                  -4.511
REMARK INTRA:                  -0.090
REMARK UNBOUND:                -0.090
REMARK SMILES CCCCCC(=O)[O-]
REMARK SMILES IDX 4 1 5 2 6 3 7 4 8 5 3 6 2 7 1 8
REMARK H PARENT
REMARK Flexibility Score: inf
ROOT
ATOM      1  C   UNL     1      13.129 -31.374  21.136  1.00  0.00     0.006 C 
ENDROOT
BRANCH   1   2
ATOM      2  C   UNL     1      14.331 -32.145  21.703  1.00  0.00     0.053 C 
BRANCH   2   3
ATOM      3  C   UNL     1      14.630 -33.380  20.910  1.00  0.00     0.041 C 
ATOM      4  O   UNL     1      14.220 -33.485  19.723  1.00  0.00    -0.550 OA
ATOM      5  O   UNL     1      15.332 -34.428  21.491  1.00  0.00    -0.550 OA
ENDBRANCH   2   3
ENDBRANCH   1   2
BRANCH   1   6
ATOM      6  C   UNL     1      12.358 -30.535  22.176  1.00  0.00     0.000 C 
BRANCH   6   7
ATOM      7  C   UNL     1      13.106 -30.296  23.499  1.00  0.00    -0.003 C 
ATOM      8  C   UNL     1      12.691 -29.000  24.194  1.00  0.00     0.004 C 
ENDBRANCH   6   7
ENDBRANCH   1   6
TORSDOF 4
ENDMDL
MODEL 2
REMARK VINA RESULT:    -3.639      0.983      1.879
REMARK INTER + INTRA:          -4.580
REMARK INTER:                  -4.455
REMARK INTRA:                  -0.126
REMARK UNBOUND:                -0.090
REMARK SMILES CCCCCC(=O)[O-]
REMARK SMILES IDX 4 1 5 2 6 3 7 4 8 5 3 6 2 7 1 8
REMARK H PARENT
REMARK Flexibility Score: inf
ROOT
ATOM      1  C   UNL     1      12.801 -30.917  22.832  1.00  0.00     0.006 C 
ENDROOT
BRANCH   1   2
ATOM      2  C   UNL     1      13.311 -31.179  21.407  1.00  0.00     0.053 C 
BRANCH   2   3
ATOM      3  C   UNL     1      14.060 -32.472  21.307  1.00  0.00     0.041 C 
ATOM      4  O   UNL     1      14.682 -32.922  22.306  1.00  0.00    -0.550 OA
ATOM      5  O   UNL     1      14.098 -33.165  20.104  1.00  0.00    -0.550 OA
ENDBRANCH   2   3
ENDBRANCH   1   2
BRANCH   1   6
ATOM      6  C   UNL     1      13.564 -29.813  23.593  1.00  0.00     0.000 C 
BRANCH   6   7
ATOM      7  C   UNL     1      12.672 -28.807  24.341  1.00  0.00    -0.003 C 
ATOM      8  C   UNL     1      11.356 -28.523  23.618  1.00  0.00     0.004 C 
ENDBRANCH   6   7
ENDBRANCH   1   6
TORSDOF 4
ENDMDL
MODEL 3
REMARK VINA RESULT:    -3.553      3.500      4.860
REMARK INTER + INTRA:          -4.475
REMARK INTER:                  -4.303
REMARK INTRA:                  -0.172
REMARK UNBOUND:                -0.090
REMARK SMILES CCCCCC(=O)[O-]
REMARK SMILES IDX 4 1 5 2 6 3 7 4 8 5 3 6 2 7 1 8
REMARK H PARENT
REMARK Flexibility Score: inf
ROOT
ATOM      1  C   UNL     1      14.672 -29.874  22.926  1.00  0.00     0.006 C 
ENDROOT
BRANCH   1   2
ATOM      2  C   UNL     1      13.424 -30.242  23.744  1.00  0.00     0.053 C 
BRANCH   2   3
ATOM      3  C   UNL     1      12.404 -29.146  23.737  1.00  0.00     0.041 C 
ATOM      4  O   UNL     1      12.431 -28.250  24.623  1.00  0.00    -0.550 OA
ATOM      5  O   UNL     1      11.405 -29.129  22.772  1.00  0.00    -0.550 OA
ENDBRANCH   2   3
ENDBRANCH   1   2
BRANCH   1   6
ATOM      6  C   UNL     1      14.690 -30.446  21.494  1.00  0.00     0.000 C 
BRANCH   6   7
ATOM      7  C   UNL     1      13.635 -31.531  21.216  1.00  0.00    -0.003 C 
ATOM      8  C   UNL     1      14.249 -32.863  20.784  1.00  0.00     0.004 C 
ENDBRANCH   6   7
ENDBRANCH   1   6
TORSDOF 4
ENDMDL
MODEL 4
REMARK VINA RESULT:    -3.538     10.419     10.834
REMARK INTER + INTRA:          -4.456
REMARK INTER:                  -4.301
REMARK INTRA:                  -0.155
REMARK UNBOUND:                -0.090
REMARK SMILES CCCCCC(=O)[O-]
REMARK SMILES IDX 4 1 5 2 6 3 7 4 8 5 3 6 2 7 1 8
REMARK H PARENT
REMARK Flexibility Score: inf
ROOT
ATOM      1  C   UNL     1      20.786 -25.367  20.046  1.00  0.00     0.006 C 
ENDROOT
BRANCH   1   2
ATOM      2  C   UNL     1      22.150 -24.988  20.642  1.00  0.00     0.053 C 
BRANCH   2   3
ATOM      3  C   UNL     1      23.164 -24.691  19.581  1.00  0.00     0.041 C 
ATOM      4  O   UNL     1      23.261 -25.437  18.571  1.00  0.00    -0.550 OA
ATOM      5  O   UNL     1      24.023 -23.608  19.722  1.00  0.00    -0.550 OA
ENDBRANCH   2   3
ENDBRANCH   1   2
BRANCH   1   6
ATOM      6  C   UNL     1      20.251 -26.743  20.492  1.00  0.00     0.000 C 
BRANCH   6   7
ATOM      7  C   UNL     1      21.334 -27.802  20.763  1.00  0.00    -0.003 C 
ATOM      8  C   UNL     1      20.756 -29.191  21.033  1.00  0.00     0.004 C 
ENDBRANCH   6   7
ENDBRANCH   1   6
TORSDOF 4
ENDMDL
MODEL 5
REMARK VINA RESULT:    -3.535     11.067     11.411
REMARK INTER + INTRA:          -4.452
REMARK INTER:                  -4.344
REMARK INTRA:                  -0.108
REMARK UNBOUND:                -0.090
REMARK SMILES CCCCCC(=O)[O-]
REMARK SMILES IDX 4 1 5 2 6 3 7 4 8 5 3 6 2 7 1 8
REMARK H PARENT
REMARK Flexibility Score: inf
ROOT
ATOM      1  C   UNL     1      22.159 -25.913  20.209  1.00  0.00     0.006 C 
ENDROOT
BRANCH   1   2
ATOM      2  C   UNL     1      22.961 -24.873  19.411  1.00  0.00     0.053 C 
BRANCH   2   3
ATOM      3  C   UNL     1      23.658 -23.895  20.305  1.00  0.00     0.041 C 
ATOM      4  O   UNL     1      24.569 -23.155  19.846  1.00  0.00    -0.550 OA
ATOM      5  O   UNL     1      23.326 -23.822  21.652  1.00  0.00    -0.550 OA
ENDBRANCH   2   3
ENDBRANCH   1   2
BRANCH   1   6
ATOM      6  C   UNL     1      20.628 -25.740  20.130  1.00  0.00     0.000 C 
BRANCH   6   7
ATOM      7  C   UNL     1      19.814 -26.909  20.711  1.00  0.00    -0.003 C 
ATOM      8  C   UNL     1      20.623 -28.201  20.827  1.00  0.00     0.004 C 
ENDBRANCH   6   7
ENDBRANCH   1   6
TORSDOF 4
ENDMDL
MODEL 6
REMARK VINA RESULT:    -3.479      1.389      2.123
REMARK INTER + INTRA:          -4.383
REMARK INTER:                  -4.313
REMARK INTRA:                  -0.071
REMARK UNBOUND:                -0.090
REMARK SMILES CCCCCC(=O)[O-]
REMARK SMILES IDX 4 1 5 2 6 3 7 4 8 5 3 6 2 7 1 8
REMARK H PARENT
REMARK Flexibility Score: inf
ROOT
ATOM      1  C   UNL     1      14.245 -32.719  21.295  1.00  0.00     0.006 C 
ENDROOT
BRANCH   1   2
ATOM      2  C   UNL     1      14.636 -33.649  20.136  1.00  0.00     0.053 C 
BRANCH   2   3
ATOM      3  C   UNL     1      15.564 -34.737  20.578  1.00  0.00     0.041 C 
ATOM      4  O   UNL     1      16.151 -34.656  21.690  1.00  0.00    -0.550 OA
ATOM      5  O   UNL     1      15.808 -35.825  19.749  1.00  0.00    -0.550 OA
ENDBRANCH   2   3
ENDBRANCH   1   2
BRANCH   1   6
ATOM      6  C   UNL     1      13.443 -31.471  20.872  1.00  0.00     0.000 C 
BRANCH   6   7
ATOM      7  C   UNL     1      12.643 -30.801  22.003  1.00  0.00    -0.003 C 
ATOM      8  C   UNL     1      13.336 -30.897  23.363  1.00  0.00     0.004 C 
ENDBRANCH   6   7
ENDBRANCH   1   6
TORSDOF 4
ENDMDL
MODEL 7
REMARK VINA RESULT:    -3.464      7.948      8.805
REMARK INTER + INTRA:          -4.364
REMARK INTER:                  -4.268
REMARK INTRA:                  -0.096
REMARK UNBOUND:                -0.090
REMARK SMILES CCCCCC(=O)[O-]
REMARK SMILES IDX 4 1 5 2 6 3 7 4 8 5 3 6 2 7 1 8
REMARK H PARENT
REMARK Flexibility Score: inf
ROOT
ATOM      1  C   UNL     1      16.919 -36.976  26.824  1.00  0.00     0.006 C 
ENDROOT
BRANCH   1   2
ATOM      2  C   UNL     1      18.209 -37.432  26.124  1.00  0.00     0.053 C 
BRANCH   2   3
ATOM      3  C   UNL     1      19.057 -36.273  25.700  1.00  0.00     0.041 C 
ATOM      4  O   UNL     1      20.309 -36.395  25.633  1.00  0.00    -0.550 OA
ATOM      5  O   UNL     1      18.468 -35.049  25.409  1.00  0.00    -0.550 OA
ENDBRANCH   2   3
ENDBRANCH   1   2
BRANCH   1   6
ATOM      6  C   UNL     1      16.062 -38.123  27.397  1.00  0.00     0.000 C 
BRANCH   6   7
ATOM      7  C   UNL     1      15.843 -38.071  28.919  1.00  0.00    -0.003 C 
ATOM      8  C   UNL     1      17.123 -37.763  29.696  1.00  0.00     0.004 C 
ENDBRANCH   6   7
ENDBRANCH   1   6
TORSDOF 4
ENDMDL
MODEL 8
REMARK VINA RESULT:    -3.346      3.224      5.766
REMARK INTER + INTRA:          -4.219
REMARK INTER:                  -4.093
REMARK INTRA:                  -0.126
REMARK UNBOUND:                -0.090
REMARK SMILES CCCCCC(=O)[O-]
REMARK SMILES IDX 4 1 5 2 6 3 7 4 8 5 3 6 2 7 1 8
REMARK H PARENT
REMARK Flexibility Score: inf
ROOT
ATOM      1  C   UNL     1      16.963 -33.763  19.761  1.00  0.00     0.006 C 
ENDROOT
BRANCH   1   2
ATOM      2  C   UNL     1      15.472 -34.136  19.743  1.00  0.00     0.053 C 
BRANCH   2   3
ATOM      3  C   UNL     1      14.713 -33.469  20.848  1.00  0.00     0.041 C 
ATOM      4  O   UNL     1      13.842 -32.599  20.582  1.00  0.00    -0.550 OA
ATOM      5  O   UNL     1      14.990 -33.783  22.172  1.00  0.00    -0.550 OA
ENDBRANCH   2   3
ENDBRANCH   1   2
BRANCH   1   6
ATOM      6  C   UNL     1      17.915 -34.909  19.362  1.00  0.00     0.000 C 
BRANCH   6   7
ATOM      7  C   UNL     1      17.282 -36.312  19.378  1.00  0.00    -0.003 C 
ATOM      8  C   UNL     1      17.654 -37.121  20.620  1.00  0.00     0.004 C 
ENDBRANCH   6   7
ENDBRANCH   1   6
TORSDOF 4
ENDMDL
MODEL 9
REMARK VINA RESULT:    -3.342      2.633      4.875
REMARK INTER + INTRA:          -4.214
REMARK INTER:                  -4.174
REMARK INTRA:                  -0.041
REMARK UNBOUND:                -0.090
REMARK SMILES CCCCCC(=O)[O-]
REMARK SMILES IDX 4 1 5 2 6 3 7 4 8 5 3 6 2 7 1 8
REMARK H PARENT
REMARK Flexibility Score: inf
ROOT
ATOM      1  C   UNL     1      14.247 -32.798  21.312  1.00  0.00     0.006 C 
ENDROOT
BRANCH   1   2
ATOM      2  C   UNL     1      13.522 -31.504  20.911  1.00  0.00     0.053 C 
BRANCH   2   3
ATOM      3  C   UNL     1      12.699 -30.950  22.033  1.00  0.00     0.041 C 
ATOM      4  O   UNL     1      11.557 -30.470  21.803  1.00  0.00    -0.550 OA
ATOM      5  O   UNL     1      13.205 -30.935  23.326  1.00  0.00    -0.550 OA
ENDBRANCH   2   3
ENDBRANCH   1   2
BRANCH   1   6
ATOM      6  C   UNL     1      14.763 -33.637  20.126  1.00  0.00     0.000 C 
BRANCH   6   7
ATOM      7  C   UNL     1      15.560 -34.894  20.519  1.00  0.00    -0.003 C 
ATOM      8  C   UNL     1      16.501 -35.374  19.414  1.00  0.00     0.004 C 
ENDBRANCH   6   7
ENDBRANCH   1   6
TORSDOF 4
ENDMDL
