MODEL 1
REMARK VINA RESULT:    -4.103      0.000      0.000
REMARK INTER + INTRA:          -4.524
REMARK INTER:                  -6.262
REMARK INTRA:                   1.738
REMARK UNBOUND:                 1.738
REMARK SMILES CC1=CCC[C@@H](C)C(=O)C[C@@H](C(C)C)C(=O)C1
REMARK SMILES IDX 8 1 9 2 6 3 7 4 5 5 4 6 3 7 2 8 1 9 10 11 11 12 15 13 16 14
REMARK SMILES IDX 17 15 12 17 13 18 14 19
REMARK H PARENT
REMARK Flexibility Score: 70.00
ROOT
ATOM      1  C   UNL     1      -2.828 -14.144  -8.844  1.00  0.00     0.136 C 
ATOM      2  O   UNL     1      -1.623 -14.349  -8.888  1.00  0.00    -0.299 OA
ENDROOT
BRANCH   1   3
ATOM      3  C   UNL     1      -3.315 -12.726  -9.096  1.00  0.00     0.053 C 
ATOM      4  C   UNL     1      -2.662 -11.671  -8.188  1.00  0.00     0.016 C 
BRANCH   3   5
ATOM      5  C   UNL     1      -4.859 -12.641  -9.125  1.00  0.00     0.015 C 
BRANCH   5   6
ATOM      6  C   UNL     1      -5.430 -11.346  -8.515  1.00  0.00     0.028 C 
BRANCH   6   7
ATOM      7  C   UNL     1      -5.974 -11.544  -7.121  1.00  0.00    -0.028 C 
ATOM      8  C   UNL     1      -6.145 -12.741  -6.507  1.00  0.00    -0.070 CG0
ATOM      9  C   UNL     1      -6.621 -12.733  -5.077  1.00  0.00     0.039 C 
ATOM     10  G   UNL     1      -5.917 -14.083  -7.196  1.00  0.00     0.000 G0
ENDBRANCH   6   7
ENDBRANCH   5   6
ENDBRANCH   3   5
ENDBRANCH   1   3
BRANCH   1  11
ATOM     11  C   UNL     1      -3.740 -15.311  -8.511  1.00  0.00     0.087 C 
BRANCH  11  12
ATOM     12  C   UNL     1      -3.798 -15.592  -6.982  1.00  0.00     0.066 C 
BRANCH  12  13
ATOM     13  C   UNL     1      -5.138 -15.121  -6.438  1.00  0.00     0.140 C 
ATOM     14  O   UNL     1      -5.568 -15.583  -5.389  1.00  0.00    -0.299 OA
BRANCH  13  15
ATOM     15  C   UNL     1      -5.953 -14.106  -7.199  1.00  0.00     0.106 CG0
ATOM     16  G   UNL     1      -6.136 -12.786  -6.456  1.00  0.00     0.000 G0
ENDBRANCH  13  15
ENDBRANCH  12  13
BRANCH  12  17
ATOM     17  C   UNL     1      -2.610 -14.952  -6.190  1.00  0.00    -0.006 C 
ATOM     18  C   UNL     1      -3.112 -13.861  -5.224  1.00  0.00     0.008 C 
ATOM     19  C   UNL     1      -1.811 -15.992  -5.380  1.00  0.00     0.008 C 
ENDBRANCH  12  17
ENDBRANCH  11  12
ENDBRANCH   1  11
TORSDOF 1
ENDMDL
MODEL 2
REMARK VINA RESULT:    -3.709      1.293      1.817
REMARK INTER + INTRA:          -3.922
REMARK INTER:                  -4.657
REMARK INTRA:                   0.735
REMARK UNBOUND:                 1.738
REMARK SMILES CC1=CCC[C@@H](C)C(=O)C[C@@H](C(C)C)C(=O)C1
REMARK SMILES IDX 8 1 9 2 6 3 7 4 5 5 4 6 3 7 2 8 1 9 10 11 11 12 15 13 16 14
REMARK SMILES IDX 17 15 12 17 13 18 14 19
REMARK H PARENT
REMARK Flexibility Score: 70.00
ROOT
ATOM      1  C   UNL     1      -2.791 -13.106  -6.889  1.00  0.00     0.136 C 
ATOM      2  O   UNL     1      -2.546 -11.971  -6.504  1.00  0.00    -0.299 OA
ENDROOT
BRANCH   1   3
ATOM      3  C   UNL     1      -2.996 -13.320  -8.380  1.00  0.00     0.053 C 
ATOM      4  C   UNL     1      -1.768 -13.900  -9.102  1.00  0.00     0.016 C 
BRANCH   3   5
ATOM      5  C   UNL     1      -3.579 -12.065  -9.070  1.00  0.00     0.015 C 
BRANCH   5   6
ATOM      6  C   UNL     1      -5.120 -12.027  -9.111  1.00  0.00     0.028 C 
BRANCH   6   7
ATOM      7  C   UNL     1      -5.737 -11.819  -7.749  1.00  0.00    -0.028 C 
ATOM      8  C   UNL     1      -6.067 -12.803  -6.876  1.00  0.00    -0.070 CG0
ATOM      9  C   UNL     1      -6.595 -12.393  -5.525  1.00  0.00     0.039 C 
ATOM     10  G   UNL     1      -5.964 -14.290  -7.203  1.00  0.00     0.000 G0
ENDBRANCH   6   7
ENDBRANCH   5   6
ENDBRANCH   3   5
ENDBRANCH   1   3
BRANCH   1  11
ATOM     11  C   UNL     1      -2.903 -14.205  -5.848  1.00  0.00     0.087 C 
BRANCH  11  12
ATOM     12  C   UNL     1      -3.741 -15.412  -6.358  1.00  0.00     0.066 C 
BRANCH  12  13
ATOM     13  C   UNL     1      -5.220 -15.110  -6.163  1.00  0.00     0.140 C 
ATOM     14  O   UNL     1      -5.806 -15.536  -5.176  1.00  0.00    -0.299 OA
BRANCH  13  15
ATOM     15  C   UNL     1      -5.974 -14.311  -7.196  1.00  0.00     0.106 CG0
ATOM     16  G   UNL     1      -6.066 -12.824  -6.872  1.00  0.00     0.000 G0
ENDBRANCH  13  15
ENDBRANCH  12  13
BRANCH  12  17
ATOM     17  C   UNL     1      -3.348 -16.768  -5.684  1.00  0.00    -0.006 C 
ATOM     18  C   UNL     1      -4.152 -17.939  -6.284  1.00  0.00     0.008 C 
ATOM     19  C   UNL     1      -1.845 -17.085  -5.825  1.00  0.00     0.008 C 
ENDBRANCH  12  17
ENDBRANCH  11  12
ENDBRANCH   1  11
TORSDOF 1
ENDMDL
MODEL 3
REMARK VINA RESULT:    -3.512      1.463      3.627
REMARK INTER + INTRA:          -3.621
REMARK INTER:                  -5.111
REMARK INTRA:                   1.490
REMARK UNBOUND:                 1.738
REMARK SMILES CC1=CCC[C@@H](C)C(=O)C[C@@H](C(C)C)C(=O)C1
REMARK SMILES IDX 8 1 9 2 6 3 7 4 5 5 4 6 3 7 2 8 1 9 10 11 11 12 15 13 16 14
REMARK SMILES IDX 17 15 12 17 13 18 14 19
REMARK H PARENT
REMARK Flexibility Score: 70.00
ROOT
ATOM      1  C   UNL     1      -4.978 -13.894  -5.810  1.00  0.00     0.136 C 
ATOM      2  O   UNL     1      -5.546 -14.878  -5.359  1.00  0.00    -0.299 OA
ENDROOT
BRANCH   1   3
ATOM      3  C   UNL     1      -5.833 -12.698  -6.197  1.00  0.00     0.053 C 
ATOM      4  C   UNL     1      -6.746 -12.191  -5.068  1.00  0.00     0.016 C 
BRANCH   3   5
ATOM      5  C   UNL     1      -6.576 -12.926  -7.534  1.00  0.00     0.015 C 
BRANCH   5   6
ATOM      6  C   UNL     1      -6.243 -11.890  -8.625  1.00  0.00     0.028 C 
BRANCH   6   7
ATOM      7  C   UNL     1      -4.850 -11.324  -8.490  1.00  0.00    -0.028 C 
ATOM      8  C   UNL     1      -3.700 -11.994  -8.752  1.00  0.00    -0.070 CG0
ATOM      9  C   UNL     1      -2.404 -11.232  -8.641  1.00  0.00     0.039 C 
ATOM     10  G   UNL     1      -3.650 -13.475  -9.114  1.00  0.00     0.000 G0
ENDBRANCH   6   7
ENDBRANCH   5   6
ENDBRANCH   3   5
ENDBRANCH   1   3
BRANCH   1  11
ATOM     11  C   UNL     1      -3.470 -13.952  -5.977  1.00  0.00     0.087 C 
BRANCH  11  12
ATOM     12  C   UNL     1      -3.039 -15.005  -7.038  1.00  0.00     0.066 C 
BRANCH  12  13
ATOM     13  C   UNL     1      -2.636 -14.289  -8.317  1.00  0.00     0.140 C 
ATOM     14  O   UNL     1      -1.478 -14.344  -8.710  1.00  0.00    -0.299 OA
BRANCH  13  15
ATOM     15  C   UNL     1      -3.652 -13.488  -9.092  1.00  0.00     0.106 CG0
ATOM     16  G   UNL     1      -3.655 -12.003  -8.744  1.00  0.00     0.000 G0
ENDBRANCH  13  15
ENDBRANCH  12  13
BRANCH  12  17
ATOM     17  C   UNL     1      -4.134 -16.087  -7.316  1.00  0.00    -0.006 C 
ATOM     18  C   UNL     1      -4.399 -16.231  -8.829  1.00  0.00     0.008 C 
ATOM     19  C   UNL     1      -3.756 -17.472  -6.754  1.00  0.00     0.008 C 
ENDBRANCH  12  17
ENDBRANCH  11  12
ENDBRANCH   1  11
TORSDOF 1
ENDMDL
MODEL 4
REMARK VINA RESULT:    -3.380      1.654      4.342
REMARK INTER + INTRA:          -3.421
REMARK INTER:                  -4.922
REMARK INTRA:                   1.501
REMARK UNBOUND:                 1.738
REMARK SMILES CC1=CCC[C@@H](C)C(=O)C[C@@H](C(C)C)C(=O)C1
REMARK SMILES IDX 8 1 9 2 6 3 7 4 5 5 4 6 3 7 2 8 1 9 10 11 11 12 15 13 16 14
REMARK SMILES IDX 17 15 12 17 13 18 14 19
REMARK H PARENT
REMARK Flexibility Score: 70.00
ROOT
ATOM      1  C   UNL     1      -4.590 -15.614  -5.733  1.00  0.00     0.136 C 
ATOM      2  O   UNL     1      -5.297 -16.266  -4.979  1.00  0.00    -0.299 OA
ENDROOT
BRANCH   1   3
ATOM      3  C   UNL     1      -3.559 -16.362  -6.562  1.00  0.00     0.053 C 
ATOM      4  C   UNL     1      -3.335 -17.816  -6.115  1.00  0.00     0.016 C 
BRANCH   3   5
ATOM      5  C   UNL     1      -2.247 -15.558  -6.719  1.00  0.00     0.015 C 
BRANCH   5   6
ATOM      6  C   UNL     1      -2.118 -14.821  -8.067  1.00  0.00     0.028 C 
BRANCH   6   7
ATOM      7  C   UNL     1      -2.159 -13.319  -7.920  1.00  0.00    -0.028 C 
ATOM      8  C   UNL     1      -3.194 -12.522  -8.283  1.00  0.00    -0.070 CG0
ATOM      9  C   UNL     1      -3.084 -11.049  -7.978  1.00  0.00     0.039 C 
ATOM     10  G   UNL     1      -4.435 -13.029  -9.011  1.00  0.00     0.000 G0
ENDBRANCH   6   7
ENDBRANCH   5   6
ENDBRANCH   3   5
ENDBRANCH   1   3
BRANCH   1  11
ATOM     11  C   UNL     1      -4.773 -14.107  -5.761  1.00  0.00     0.087 C 
BRANCH  11  12
ATOM     12  C   UNL     1      -5.794 -13.661  -6.846  1.00  0.00     0.066 C 
BRANCH  12  13
ATOM     13  C   UNL     1      -5.250 -14.021  -8.221  1.00  0.00     0.140 C 
ATOM     14  O   UNL     1      -5.442 -15.139  -8.681  1.00  0.00    -0.299 OA
BRANCH  13  15
ATOM     15  C   UNL     1      -4.451 -13.014  -9.009  1.00  0.00     0.106 CG0
ATOM     16  G   UNL     1      -3.200 -12.524  -8.287  1.00  0.00     0.000 G0
ENDBRANCH  13  15
ENDBRANCH  12  13
BRANCH  12  17
ATOM     17  C   UNL     1      -6.161 -12.142  -6.764  1.00  0.00    -0.006 C 
ATOM     18  C   UNL     1      -7.103 -11.737  -7.915  1.00  0.00     0.008 C 
ATOM     19  C   UNL     1      -6.835 -11.768  -5.428  1.00  0.00     0.008 C 
ENDBRANCH  12  17
ENDBRANCH  11  12
ENDBRANCH   1  11
TORSDOF 1
ENDMDL
MODEL 5
REMARK VINA RESULT:    -2.979      2.072      3.451
REMARK INTER + INTRA:          -2.808
REMARK INTER:                  -3.500
REMARK INTRA:                   0.692
REMARK UNBOUND:                 1.738
REMARK SMILES CC1=CCC[C@@H](C)C(=O)C[C@@H](C(C)C)C(=O)C1
REMARK SMILES IDX 8 1 9 2 6 3 7 4 5 5 4 6 3 7 2 8 1 9 10 11 11 12 15 13 16 14
REMARK SMILES IDX 17 15 12 17 13 18 14 19
REMARK H PARENT
REMARK Flexibility Score: 70.00
ROOT
ATOM      1  C   UNL     1      -6.002 -13.531  -7.913  1.00  0.00     0.136 C 
ATOM      2  O   UNL     1      -6.521 -13.614  -9.017  1.00  0.00    -0.299 OA
ENDROOT
BRANCH   1   3
ATOM      3  C   UNL     1      -5.405 -12.192  -7.510  1.00  0.00     0.053 C 
ATOM      4  C   UNL     1      -6.308 -11.361  -6.583  1.00  0.00     0.016 C 
BRANCH   3   5
ATOM      5  C   UNL     1      -4.881 -11.401  -8.731  1.00  0.00     0.015 C 
BRANCH   5   6
ATOM      6  C   UNL     1      -3.430 -11.739  -9.124  1.00  0.00     0.028 C 
BRANCH   6   7
ATOM      7  C   UNL     1      -2.657 -12.396  -8.006  1.00  0.00    -0.028 C 
ATOM      8  C   UNL     1      -2.370 -13.718  -7.920  1.00  0.00    -0.070 CG0
ATOM      9  C   UNL     1      -1.511 -14.175  -6.769  1.00  0.00     0.039 C 
ATOM     10  G   UNL     1      -2.898 -14.761  -8.900  1.00  0.00     0.000 G0
ENDBRANCH   6   7
ENDBRANCH   5   6
ENDBRANCH   3   5
ENDBRANCH   1   3
BRANCH   1  11
ATOM     11  C   UNL     1      -5.966 -14.776  -7.044  1.00  0.00     0.087 C 
BRANCH  11  12
ATOM     12  C   UNL     1      -4.538 -15.385  -6.953  1.00  0.00     0.066 C 
BRANCH  12  13
ATOM     13  C   UNL     1      -4.006 -15.623  -8.358  1.00  0.00     0.140 C 
ATOM     14  O   UNL     1      -4.482 -16.514  -9.049  1.00  0.00    -0.299 OA
BRANCH  13  15
ATOM     15  C   UNL     1      -2.874 -14.784  -8.894  1.00  0.00     0.106 CG0
ATOM     16  G   UNL     1      -2.390 -13.714  -7.921  1.00  0.00     0.000 G0
ENDBRANCH  13  15
ENDBRANCH  12  13
BRANCH  12  17
ATOM     17  C   UNL     1      -4.476 -16.692  -6.095  1.00  0.00    -0.006 C 
ATOM     18  C   UNL     1      -3.074 -17.330  -6.157  1.00  0.00     0.008 C 
ATOM     19  C   UNL     1      -4.836 -16.448  -4.616  1.00  0.00     0.008 C 
ENDBRANCH  12  17
ENDBRANCH  11  12
ENDBRANCH   1  11
TORSDOF 1
ENDMDL
MODEL 6
REMARK VINA RESULT:    -2.924      2.035      3.845
REMARK INTER + INTRA:          -2.724
REMARK INTER:                  -5.191
REMARK INTRA:                   2.467
REMARK UNBOUND:                 1.738
REMARK SMILES CC1=CCC[C@@H](C)C(=O)C[C@@H](C(C)C)C(=O)C1
REMARK SMILES IDX 8 1 9 2 6 3 7 4 5 5 4 6 3 7 2 8 1 9 10 11 11 12 15 13 16 14
REMARK SMILES IDX 17 15 12 17 13 18 14 19
REMARK H PARENT
REMARK Flexibility Score: 70.00
ROOT
ATOM      1  C   UNL     1      -3.932 -12.527  -8.204  1.00  0.00     0.136 C 
ATOM      2  O   UNL     1      -3.712 -11.330  -8.323  1.00  0.00    -0.299 OA
ENDROOT
BRANCH   1   3
ATOM      3  C   UNL     1      -5.020 -13.138  -9.072  1.00  0.00     0.053 C 
ATOM      4  C   UNL     1      -6.364 -12.394  -9.004  1.00  0.00     0.016 C 
BRANCH   3   5
ATOM      5  C   UNL     1      -5.149 -14.663  -8.852  1.00  0.00     0.015 C 
BRANCH   5   6
ATOM      6  C   UNL     1      -3.805 -15.384  -8.635  1.00  0.00     0.028 C 
BRANCH   6   7
ATOM      7  C   UNL     1      -3.934 -16.621  -7.780  1.00  0.00    -0.028 C 
ATOM      8  C   UNL     1      -3.438 -16.766  -6.526  1.00  0.00    -0.070 CG0
ATOM      9  C   UNL     1      -3.743 -18.049  -5.796  1.00  0.00     0.039 C 
ATOM     10  G   UNL     1      -2.564 -15.722  -5.839  1.00  0.00     0.000 G0
ENDBRANCH   6   7
ENDBRANCH   5   6
ENDBRANCH   3   5
ENDBRANCH   1   3
BRANCH   1  11
ATOM     11  C   UNL     1      -3.125 -13.304  -7.179  1.00  0.00     0.087 C 
BRANCH  11  12
ATOM     12  C   UNL     1      -3.890 -13.467  -5.834  1.00  0.00     0.066 C 
BRANCH  12  13
ATOM     13  C   UNL     1      -3.329 -14.666  -5.084  1.00  0.00     0.140 C 
ATOM     14  O   UNL     1      -3.488 -14.758  -3.873  1.00  0.00    -0.299 OA
BRANCH  13  15
ATOM     15  C   UNL     1      -2.554 -15.729  -5.820  1.00  0.00     0.106 CG0
ATOM     16  G   UNL     1      -3.437 -16.760  -6.516  1.00  0.00     0.000 G0
ENDBRANCH  13  15
ENDBRANCH  12  13
BRANCH  12  17
ATOM     17  C   UNL     1      -5.439 -13.587  -6.014  1.00  0.00    -0.006 C 
ATOM     18  C   UNL     1      -5.961 -14.921  -5.444  1.00  0.00     0.008 C 
ATOM     19  C   UNL     1      -6.205 -12.434  -5.335  1.00  0.00     0.008 C 
ENDBRANCH  12  17
ENDBRANCH  11  12
ENDBRANCH   1  11
TORSDOF 1
ENDMDL
MODEL 7
REMARK VINA RESULT:    -2.845      1.767      3.545
REMARK INTER + INTRA:          -2.604
REMARK INTER:                  -6.108
REMARK INTRA:                   3.504
REMARK UNBOUND:                 1.738
REMARK SMILES CC1=CCC[C@@H](C)C(=O)C[C@@H](C(C)C)C(=O)C1
REMARK SMILES IDX 8 1 9 2 6 3 7 4 5 5 4 6 3 7 2 8 1 9 10 11 11 12 15 13 16 14
REMARK SMILES IDX 17 15 12 17 13 18 14 19
REMARK H PARENT
REMARK Flexibility Score: 70.00
ROOT
ATOM      1  C   UNL     1      -5.979 -12.828  -5.999  1.00  0.00     0.136 C 
ATOM      2  O   UNL     1      -6.511 -12.510  -4.946  1.00  0.00    -0.299 OA
ENDROOT
BRANCH   1   3
ATOM      3  C   UNL     1      -6.084 -11.860  -7.167  1.00  0.00     0.053 C 
ATOM      4  C   UNL     1      -6.984 -12.356  -8.310  1.00  0.00     0.016 C 
BRANCH   3   5
ATOM      5  C   UNL     1      -4.695 -11.376  -7.644  1.00  0.00     0.015 C 
BRANCH   5   6
ATOM      6  C   UNL     1      -4.251 -11.968  -8.996  1.00  0.00     0.028 C 
BRANCH   6   7
ATOM      7  C   UNL     1      -4.570 -13.438  -9.125  1.00  0.00    -0.028 C 
ATOM      8  C   UNL     1      -3.886 -14.446  -8.528  1.00  0.00    -0.070 CG0
ATOM      9  C   UNL     1      -4.409 -15.849  -8.707  1.00  0.00     0.039 C 
ATOM     10  G   UNL     1      -2.608 -14.237  -7.722  1.00  0.00     0.000 G0
ENDBRANCH   6   7
ENDBRANCH   5   6
ENDBRANCH   3   5
ENDBRANCH   1   3
BRANCH   1  11
ATOM     11  C   UNL     1      -5.282 -14.175  -6.070  1.00  0.00     0.087 C 
BRANCH  11  12
ATOM     12  C   UNL     1      -3.881 -14.147  -5.394  1.00  0.00     0.066 C 
BRANCH  12  13
ATOM     13  C   UNL     1      -2.865 -13.584  -6.377  1.00  0.00     0.140 C 
ATOM     14  O   UNL     1      -2.248 -12.564  -6.100  1.00  0.00    -0.299 OA
BRANCH  13  15
ATOM     15  C   UNL     1      -2.632 -14.265  -7.702  1.00  0.00     0.106 CG0
ATOM     16  G   UNL     1      -3.896 -14.422  -8.540  1.00  0.00     0.000 G0
ENDBRANCH  13  15
ENDBRANCH  12  13
BRANCH  12  17
ATOM     17  C   UNL     1      -3.429 -15.542  -4.849  1.00  0.00    -0.006 C 
ATOM     18  C   UNL     1      -4.564 -16.578  -4.969  1.00  0.00     0.008 C 
ATOM     19  C   UNL     1      -2.188 -16.090  -5.582  1.00  0.00     0.008 C 
ENDBRANCH  12  17
ENDBRANCH  11  12
ENDBRANCH   1  11
TORSDOF 1
ENDMDL
MODEL 8
REMARK VINA RESULT:    -2.741      1.882      4.215
REMARK INTER + INTRA:          -2.445
REMARK INTER:                  -3.511
REMARK INTRA:                   1.067
REMARK UNBOUND:                 1.738
REMARK SMILES CC1=CCC[C@@H](C)C(=O)C[C@@H](C(C)C)C(=O)C1
REMARK SMILES IDX 8 1 9 2 6 3 7 4 5 5 4 6 3 7 2 8 1 9 10 11 11 12 15 13 16 14
REMARK SMILES IDX 17 15 12 17 13 18 14 19
REMARK H PARENT
REMARK Flexibility Score: 70.00
ROOT
ATOM      1  C   UNL     1      -5.984 -12.963  -8.230  1.00  0.00     0.136 C 
ATOM      2  O   UNL     1      -6.433 -11.949  -8.744  1.00  0.00    -0.299 OA
ENDROOT
BRANCH   1   3
ATOM      3  C   UNL     1      -6.372 -13.258  -6.790  1.00  0.00     0.053 C 
ATOM      4  C   UNL     1      -6.259 -12.045  -5.852  1.00  0.00     0.016 C 
BRANCH   3   5
ATOM      5  C   UNL     1      -5.666 -14.523  -6.248  1.00  0.00     0.015 C 
BRANCH   5   6
ATOM      6  C   UNL     1      -4.663 -14.247  -5.111  1.00  0.00     0.028 C 
BRANCH   6   7
ATOM      7  C   UNL     1      -3.531 -15.244  -5.072  1.00  0.00    -0.028 C 
ATOM      8  C   UNL     1      -2.934 -15.798  -6.157  1.00  0.00    -0.070 CG0
ATOM      9  C   UNL     1      -1.759 -16.712  -5.918  1.00  0.00     0.039 C 
ATOM     10  G   UNL     1      -3.409 -15.573  -7.588  1.00  0.00     0.000 G0
ENDBRANCH   6   7
ENDBRANCH   5   6
ENDBRANCH   3   5
ENDBRANCH   1   3
BRANCH   1  11
ATOM     11  C   UNL     1      -5.050 -13.830  -9.055  1.00  0.00     0.087 C 
BRANCH  11  12
ATOM     12  C   UNL     1      -3.575 -13.347  -8.972  1.00  0.00     0.066 C 
BRANCH  12  13
ATOM     13  C   UNL     1      -2.737 -14.416  -8.287  1.00  0.00     0.140 C 
ATOM     14  O   UNL     1      -1.515 -14.344  -8.311  1.00  0.00    -0.299 OA
BRANCH  13  15
ATOM     15  C   UNL     1      -3.405 -15.581  -7.601  1.00  0.00     0.106 CG0
ATOM     16  G   UNL     1      -2.938 -15.796  -6.165  1.00  0.00     0.000 G0
ENDBRANCH  13  15
ENDBRANCH  12  13
BRANCH  12  17
ATOM     17  C   UNL     1      -3.416 -11.962  -8.260  1.00  0.00    -0.006 C 
ATOM     18  C   UNL     1      -2.675 -12.112  -6.917  1.00  0.00     0.008 C 
ATOM     19  C   UNL     1      -2.657 -10.936  -9.125  1.00  0.00     0.008 C 
ENDBRANCH  12  17
ENDBRANCH  11  12
ENDBRANCH   1  11
TORSDOF 1
ENDMDL
MODEL 9
REMARK VINA RESULT:    -2.478      1.807      4.312
REMARK INTER + INTRA:          -2.044
REMARK INTER:                  -4.753
REMARK INTRA:                   2.710
REMARK UNBOUND:                 1.738
REMARK SMILES CC1=CCC[C@@H](C)C(=O)C[C@@H](C(C)C)C(=O)C1
REMARK SMILES IDX 8 1 9 2 6 3 7 4 5 5 4 6 3 7 2 8 1 9 10 11 11 12 15 13 16 14
REMARK SMILES IDX 17 15 12 17 13 18 14 19
REMARK H PARENT
REMARK Flexibility Score: 70.00
ROOT
ATOM      1  C   UNL     1      -3.205 -13.833  -5.008  1.00  0.00     0.136 C 
ATOM      2  O   UNL     1      -3.765 -13.199  -4.125  1.00  0.00    -0.299 OA
ENDROOT
BRANCH   1   3
ATOM      3  C   UNL     1      -2.870 -15.290  -4.730  1.00  0.00     0.053 C 
ATOM      4  C   UNL     1      -1.981 -15.941  -5.802  1.00  0.00     0.016 C 
BRANCH   3   5
ATOM      5  C   UNL     1      -4.130 -16.118  -4.389  1.00  0.00     0.015 C 
BRANCH   5   6
ATOM      6  C   UNL     1      -5.057 -16.380  -5.592  1.00  0.00     0.028 C 
BRANCH   6   7
ATOM      7  C   UNL     1      -4.335 -16.304  -6.916  1.00  0.00    -0.028 C 
ATOM      8  C   UNL     1      -4.528 -15.352  -7.862  1.00  0.00    -0.070 CG0
ATOM      9  C   UNL     1      -3.649 -15.393  -9.086  1.00  0.00     0.039 C 
ATOM     10  G   UNL     1      -5.603 -14.274  -7.769  1.00  0.00     0.000 G0
ENDBRANCH   6   7
ENDBRANCH   5   6
ENDBRANCH   3   5
ENDBRANCH   1   3
BRANCH   1  11
ATOM     11  C   UNL     1      -2.860 -13.111  -6.298  1.00  0.00     0.087 C 
BRANCH  11  12
ATOM     12  C   UNL     1      -4.075 -12.331  -6.876  1.00  0.00     0.066 C 
BRANCH  12  13
ATOM     13  C   UNL     1      -5.322 -13.194  -6.761  1.00  0.00     0.140 C 
ATOM     14  O   UNL     1      -6.092 -13.033  -5.823  1.00  0.00    -0.299 OA
BRANCH  13  15
ATOM     15  C   UNL     1      -5.602 -14.266  -7.783  1.00  0.00     0.106 CG0
ATOM     16  G   UNL     1      -4.522 -15.341  -7.855  1.00  0.00     0.000 G0
ENDBRANCH  13  15
ENDBRANCH  12  13
BRANCH  12  17
ATOM     17  C   UNL     1      -3.856 -11.847  -8.348  1.00  0.00    -0.006 C 
ATOM     18  C   UNL     1      -5.141 -11.218  -8.921  1.00  0.00     0.008 C 
ATOM     19  C   UNL     1      -2.713 -10.819  -8.470  1.00  0.00     0.008 C 
ENDBRANCH  12  17
ENDBRANCH  11  12
ENDBRANCH   1  11
TORSDOF 1
ENDMDL
