MODEL 1
REMARK VINA RESULT:    -3.472      0.000      0.000
REMARK INTER + INTRA:          -6.505
REMARK INTER:                  -5.299
REMARK INTRA:                  -1.206
REMARK UNBOUND:                -1.206
REMARK SMILES CCCCCCCCCCC(=O)[O-]
REMARK SMILES IDX 7 1 8 2 9 3 10 4 11 5 12 6 13 7 6 8 5 9 4 10 3 11 2 12 1 13
REMARK H PARENT
REMARK Flexibility Score: inf
ROOT
ATOM      1  C   UNL     1      10.558 -26.029  41.010  1.00  0.00     0.000 C 
ENDROOT
BRANCH   1   2
ATOM      2  C   UNL     1      11.575 -26.252  39.877  1.00  0.00     0.000 C 
BRANCH   2   3
ATOM      3  C   UNL     1      12.870 -25.451  40.081  1.00  0.00     0.006 C 
BRANCH   3   4
ATOM      4  C   UNL     1      13.258 -24.634  38.841  1.00  0.00     0.053 C 
BRANCH   4   5
ATOM      5  C   UNL     1      13.985 -25.494  37.856  1.00  0.00     0.041 C 
ATOM      6  O   UNL     1      14.962 -26.196  38.227  1.00  0.00    -0.550 OA
ATOM      7  O   UNL     1      13.615 -25.482  36.517  1.00  0.00    -0.550 OA
ENDBRANCH   4   5
ENDBRANCH   3   4
ENDBRANCH   2   3
ENDBRANCH   1   2
BRANCH   1   8
ATOM      8  C   UNL     1       9.267 -25.340  40.529  1.00  0.00     0.000 C 
BRANCH   8   9
ATOM      9  C   UNL     1       9.477 -24.051  39.713  1.00  0.00    -0.000 C 
BRANCH   9  10
ATOM     10  C   UNL     1       9.556 -22.792  40.592  1.00  0.00    -0.000 C 
BRANCH  10  11
ATOM     11  C   UNL     1      11.002 -22.327  40.846  1.00  0.00    -0.000 C 
BRANCH  11  12
ATOM     12  C   UNL     1      11.475 -22.433  42.307  1.00  0.00    -0.003 C 
ATOM     13  C   UNL     1      12.994 -22.522  42.440  1.00  0.00     0.004 C 
ENDBRANCH  11  12
ENDBRANCH  10  11
ENDBRANCH   9  10
ENDBRANCH   8   9
ENDBRANCH   1   8
TORSDOF 9
ENDMDL
MODEL 2
REMARK VINA RESULT:    -3.422      1.949      3.485
REMARK INTER + INTRA:          -6.429
REMARK INTER:                  -5.528
REMARK INTRA:                  -0.901
REMARK UNBOUND:                -1.206
REMARK SMILES CCCCCCCCCCC(=O)[O-]
REMARK SMILES IDX 7 1 8 2 9 3 10 4 11 5 12 6 13 7 6 8 5 9 4 10 3 11 2 12 1 13
REMARK H PARENT
REMARK Flexibility Score: inf
ROOT
ATOM      1  C   UNL     1      12.276 -23.010  41.356  1.00  0.00     0.000 C 
ENDROOT
BRANCH   1   2
ATOM      2  C   UNL     1      13.331 -21.993  40.887  1.00  0.00     0.000 C 
BRANCH   2   3
ATOM      3  C   UNL     1      13.131 -21.566  39.425  1.00  0.00     0.006 C 
BRANCH   3   4
ATOM      4  C   UNL     1      13.164 -22.754  38.455  1.00  0.00     0.053 C 
BRANCH   4   5
ATOM      5  C   UNL     1      14.220 -22.550  37.416  1.00  0.00     0.041 C 
ATOM      6  O   UNL     1      15.437 -22.579  37.735  1.00  0.00    -0.550 OA
ATOM      7  O   UNL     1      13.859 -22.279  36.101  1.00  0.00    -0.550 OA
ENDBRANCH   4   5
ENDBRANCH   3   4
ENDBRANCH   2   3
ENDBRANCH   1   2
BRANCH   1   8
ATOM      8  C   UNL     1      10.905 -22.366  41.634  1.00  0.00     0.000 C 
BRANCH   8   9
ATOM      9  C   UNL     1       9.806 -22.694  40.606  1.00  0.00    -0.000 C 
BRANCH   9  10
ATOM     10  C   UNL     1       9.942 -24.108  40.015  1.00  0.00    -0.000 C 
BRANCH  10  11
ATOM     11  C   UNL     1       9.134 -25.163  40.792  1.00  0.00    -0.000 C 
BRANCH  11  12
ATOM     12  C   UNL     1       9.977 -26.153  41.617  1.00  0.00    -0.003 C 
ATOM     13  C   UNL     1      11.043 -26.868  40.789  1.00  0.00     0.004 C 
ENDBRANCH  11  12
ENDBRANCH  10  11
ENDBRANCH   9  10
ENDBRANCH   8   9
ENDBRANCH   1   8
TORSDOF 9
ENDMDL
MODEL 3
REMARK VINA RESULT:    -3.406      1.989      2.655
REMARK INTER + INTRA:          -6.404
REMARK INTER:                  -5.237
REMARK INTRA:                  -1.167
REMARK UNBOUND:                -1.206
REMARK SMILES CCCCCCCCCCC(=O)[O-]
REMARK SMILES IDX 7 1 8 2 9 3 10 4 11 5 12 6 13 7 6 8 5 9 4 10 3 11 2 12 1 13
REMARK H PARENT
REMARK Flexibility Score: inf
ROOT
ATOM      1  C   UNL     1      12.906 -25.486  40.087  1.00  0.00     0.000 C 
ENDROOT
BRANCH   1   2
ATOM      2  C   UNL     1      13.650 -24.847  38.902  1.00  0.00     0.000 C 
BRANCH   2   3
ATOM      3  C   UNL     1      13.021 -23.517  38.459  1.00  0.00     0.006 C 
BRANCH   3   4
ATOM      4  C   UNL     1      14.027 -22.359  38.465  1.00  0.00     0.053 C 
BRANCH   4   5
ATOM      5  C   UNL     1      14.587 -22.147  37.095  1.00  0.00     0.041 C 
ATOM      6  O   UNL     1      13.843 -22.241  36.084  1.00  0.00    -0.550 OA
ATOM      7  O   UNL     1      15.944 -21.895  36.929  1.00  0.00    -0.550 OA
ENDBRANCH   4   5
ENDBRANCH   3   4
ENDBRANCH   2   3
ENDBRANCH   1   2
BRANCH   1   8
ATOM      8  C   UNL     1      11.428 -25.786  39.776  1.00  0.00     0.000 C 
BRANCH   8   9
ATOM      9  C   UNL     1      10.412 -25.139  40.735  1.00  0.00    -0.000 C 
BRANCH   9  10
ATOM     10  C   UNL     1       9.677 -23.941  40.111  1.00  0.00    -0.000 C 
BRANCH  10  11
ATOM     11  C   UNL     1      10.076 -22.596  40.744  1.00  0.00    -0.000 C 
BRANCH  11  12
ATOM     12  C   UNL     1      11.148 -22.686  41.847  1.00  0.00    -0.003 C 
ATOM     13  C   UNL     1      12.234 -21.619  41.716  1.00  0.00     0.004 C 
ENDBRANCH  11  12
ENDBRANCH  10  11
ENDBRANCH   9  10
ENDBRANCH   8   9
ENDBRANCH   1   8
TORSDOF 9
ENDMDL
MODEL 4
REMARK VINA RESULT:    -3.393      1.970      3.771
REMARK INTER + INTRA:          -6.385
REMARK INTER:                  -5.122
REMARK INTRA:                  -1.262
REMARK UNBOUND:                -1.206
REMARK SMILES CCCCCCCCCCC(=O)[O-]
REMARK SMILES IDX 7 1 8 2 9 3 10 4 11 5 12 6 13 7 6 8 5 9 4 10 3 11 2 12 1 13
REMARK H PARENT
REMARK Flexibility Score: inf
ROOT
ATOM      1  C   UNL     1      14.475 -23.555  41.794  1.00  0.00     0.000 C 
ENDROOT
BRANCH   1   2
ATOM      2  C   UNL     1      14.714 -23.726  40.284  1.00  0.00     0.000 C 
BRANCH   2   3
ATOM      3  C   UNL     1      14.699 -22.389  39.529  1.00  0.00     0.006 C 
BRANCH   3   4
ATOM      4  C   UNL     1      13.510 -22.267  38.568  1.00  0.00     0.053 C 
BRANCH   4   5
ATOM      5  C   UNL     1      13.871 -22.804  37.219  1.00  0.00     0.041 C 
ATOM      6  O   UNL     1      14.147 -22.016  36.277  1.00  0.00    -0.550 OA
ATOM      7  O   UNL     1      13.854 -24.174  36.988  1.00  0.00    -0.550 OA
ENDBRANCH   4   5
ENDBRANCH   3   4
ENDBRANCH   2   3
ENDBRANCH   1   2
BRANCH   1   8
ATOM      8  C   UNL     1      14.463 -22.080  42.235  1.00  0.00     0.000 C 
BRANCH   8   9
ATOM      9  C   UNL     1      13.182 -21.623  42.957  1.00  0.00    -0.000 C 
BRANCH   9  10
ATOM     10  C   UNL     1      11.963 -22.502  42.630  1.00  0.00    -0.000 C 
BRANCH  10  11
ATOM     11  C   UNL     1      11.156 -21.984  41.424  1.00  0.00    -0.000 C 
BRANCH  11  12
ATOM     12  C   UNL     1      10.456 -23.074  40.591  1.00  0.00    -0.003 C 
ATOM     13  C   UNL     1      10.911 -24.487  40.949  1.00  0.00     0.004 C 
ENDBRANCH  11  12
ENDBRANCH  10  11
ENDBRANCH   9  10
ENDBRANCH   8   9
ENDBRANCH   1   8
TORSDOF 9
ENDMDL
MODEL 5
REMARK VINA RESULT:    -3.383      1.725      3.921
REMARK INTER + INTRA:          -6.370
REMARK INTER:                  -5.629
REMARK INTRA:                  -0.741
REMARK UNBOUND:                -1.206
REMARK SMILES CCCCCCCCCCC(=O)[O-]
REMARK SMILES IDX 7 1 8 2 9 3 10 4 11 5 12 6 13 7 6 8 5 9 4 10 3 11 2 12 1 13
REMARK H PARENT
REMARK Flexibility Score: inf
ROOT
ATOM      1  C   UNL     1      10.913 -22.463  41.791  1.00  0.00     0.000 C 
ENDROOT
BRANCH   1   2
ATOM      2  C   UNL     1      12.214 -21.803  41.302  1.00  0.00     0.000 C 
BRANCH   2   3
ATOM      3  C   UNL     1      12.362 -21.851  39.774  1.00  0.00     0.006 C 
BRANCH   3   4
ATOM      4  C   UNL     1      13.619 -22.608  39.327  1.00  0.00     0.053 C 
BRANCH   4   5
ATOM      5  C   UNL     1      13.281 -23.596  38.257  1.00  0.00     0.041 C 
ATOM      6  O   UNL     1      13.859 -23.543  37.139  1.00  0.00    -0.550 OA
ATOM      7  O   UNL     1      12.291 -24.546  38.474  1.00  0.00    -0.550 OA
ENDBRANCH   4   5
ENDBRANCH   3   4
ENDBRANCH   2   3
ENDBRANCH   1   2
BRANCH   1   8
ATOM      8  C   UNL     1       9.910 -22.725  40.653  1.00  0.00     0.000 C 
BRANCH   8   9
ATOM      9  C   UNL     1       9.436 -24.184  40.520  1.00  0.00    -0.000 C 
BRANCH   9  10
ATOM     10  C   UNL     1      10.239 -25.158  41.399  1.00  0.00    -0.000 C 
BRANCH  10  11
ATOM     11  C   UNL     1       9.770 -26.618  41.259  1.00  0.00    -0.000 C 
BRANCH  11  12
ATOM     12  C   UNL     1       8.246 -26.825  41.335  1.00  0.00    -0.003 C 
ATOM     13  C   UNL     1       7.741 -27.913  40.389  1.00  0.00     0.004 C 
ENDBRANCH  11  12
ENDBRANCH  10  11
ENDBRANCH   9  10
ENDBRANCH   8   9
ENDBRANCH   1   8
TORSDOF 9
ENDMDL
MODEL 6
REMARK VINA RESULT:    -3.323      1.098      2.819
REMARK INTER + INTRA:          -6.277
REMARK INTER:                  -5.294
REMARK INTRA:                  -0.983
REMARK UNBOUND:                -1.206
REMARK SMILES CCCCCCCCCCC(=O)[O-]
REMARK SMILES IDX 7 1 8 2 9 3 10 4 11 5 12 6 13 7 6 8 5 9 4 10 3 11 2 12 1 13
REMARK H PARENT
REMARK Flexibility Score: inf
ROOT
ATOM      1  C   UNL     1      13.243 -23.804  40.675  1.00  0.00     0.000 C 
ENDROOT
BRANCH   1   2
ATOM      2  C   UNL     1      13.147 -24.547  39.331  1.00  0.00     0.000 C 
BRANCH   2   3
ATOM      3  C   UNL     1      12.774 -26.027  39.501  1.00  0.00     0.006 C 
BRANCH   3   4
ATOM      4  C   UNL     1      12.653 -26.762  38.159  1.00  0.00     0.053 C 
BRANCH   4   5
ATOM      5  C   UNL     1      13.815 -26.432  37.277  1.00  0.00     0.041 C 
ATOM      6  O   UNL     1      14.985 -26.732  37.630  1.00  0.00    -0.550 OA
ATOM      7  O   UNL     1      13.610 -25.748  36.085  1.00  0.00    -0.550 OA
ENDBRANCH   4   5
ENDBRANCH   3   4
ENDBRANCH   2   3
ENDBRANCH   1   2
BRANCH   1   8
ATOM      8  C   UNL     1      12.901 -22.307  40.557  1.00  0.00     0.000 C 
BRANCH   8   9
ATOM      9  C   UNL     1      11.875 -21.787  41.581  1.00  0.00    -0.000 C 
BRANCH   9  10
ATOM     10  C   UNL     1      10.661 -22.718  41.741  1.00  0.00    -0.000 C 
BRANCH  10  11
ATOM     11  C   UNL     1       9.722 -22.693  40.521  1.00  0.00    -0.000 C 
BRANCH  11  12
ATOM     12  C   UNL     1       9.544 -24.045  39.806  1.00  0.00    -0.003 C 
ATOM     13  C   UNL     1       9.333 -25.210  40.771  1.00  0.00     0.004 C 
ENDBRANCH  11  12
ENDBRANCH  10  11
ENDBRANCH   9  10
ENDBRANCH   8   9
ENDBRANCH   1   8
TORSDOF 9
ENDMDL
MODEL 7
REMARK VINA RESULT:    -3.319      1.148      3.010
REMARK INTER + INTRA:          -6.271
REMARK INTER:                  -5.084
REMARK INTRA:                  -1.187
REMARK UNBOUND:                -1.206
REMARK SMILES CCCCCCCCCCC(=O)[O-]
REMARK SMILES IDX 7 1 8 2 9 3 10 4 11 5 12 6 13 7 6 8 5 9 4 10 3 11 2 12 1 13
REMARK H PARENT
REMARK Flexibility Score: inf
ROOT
ATOM      1  C   UNL     1      11.935 -22.887  42.007  1.00  0.00     0.000 C 
ENDROOT
BRANCH   1   2
ATOM      2  C   UNL     1      13.345 -23.064  41.417  1.00  0.00     0.000 C 
BRANCH   2   3
ATOM      3  C   UNL     1      13.318 -23.450  39.930  1.00  0.00     0.006 C 
BRANCH   3   4
ATOM      4  C   UNL     1      13.261 -24.968  39.716  1.00  0.00     0.053 C 
BRANCH   4   5
ATOM      5  C   UNL     1      13.066 -25.284  38.267  1.00  0.00     0.041 C 
ATOM      6  O   UNL     1      12.342 -26.254  37.922  1.00  0.00    -0.550 OA
ATOM      7  O   UNL     1      13.725 -24.538  37.298  1.00  0.00    -0.550 OA
ENDBRANCH   4   5
ENDBRANCH   3   4
ENDBRANCH   2   3
ENDBRANCH   1   2
BRANCH   1   8
ATOM      8  C   UNL     1      10.949 -22.239  41.018  1.00  0.00     0.000 C 
BRANCH   8   9
ATOM      9  C   UNL     1       9.622 -22.996  40.826  1.00  0.00    -0.000 C 
BRANCH   9  10
ATOM     10  C   UNL     1       9.626 -23.906  39.586  1.00  0.00    -0.000 C 
BRANCH  10  11
ATOM     11  C   UNL     1       9.526 -25.402  39.940  1.00  0.00    -0.000 C 
BRANCH  11  12
ATOM     12  C   UNL     1       9.683 -25.731  41.436  1.00  0.00    -0.003 C 
ATOM     13  C   UNL     1      10.162 -27.159  41.689  1.00  0.00     0.004 C 
ENDBRANCH  11  12
ENDBRANCH  10  11
ENDBRANCH   9  10
ENDBRANCH   8   9
ENDBRANCH   1   8
TORSDOF 9
ENDMDL
MODEL 8
REMARK VINA RESULT:    -3.279      3.028      4.350
REMARK INTER + INTRA:          -6.210
REMARK INTER:                  -5.641
REMARK INTRA:                  -0.569
REMARK UNBOUND:                -1.206
REMARK SMILES CCCCCCCCCCC(=O)[O-]
REMARK SMILES IDX 7 1 8 2 9 3 10 4 11 5 12 6 13 7 6 8 5 9 4 10 3 11 2 12 1 13
REMARK H PARENT
REMARK Flexibility Score: inf
ROOT
ATOM      1  C   UNL     1      12.801 -21.316  40.515  1.00  0.00     0.000 C 
ENDROOT
BRANCH   1   2
ATOM      2  C   UNL     1      13.191 -21.871  39.134  1.00  0.00     0.000 C 
BRANCH   2   3
ATOM      3  C   UNL     1      14.382 -21.126  38.513  1.00  0.00     0.006 C 
BRANCH   3   4
ATOM      4  C   UNL     1      13.971 -20.239  37.330  1.00  0.00     0.053 C 
BRANCH   4   5
ATOM      5  C   UNL     1      14.409 -20.856  36.040  1.00  0.00     0.041 C 
ATOM      6  O   UNL     1      13.575 -21.057  35.118  1.00  0.00    -0.550 OA
ATOM      7  O   UNL     1      15.729 -21.255  35.871  1.00  0.00    -0.550 OA
ENDBRANCH   4   5
ENDBRANCH   3   4
ENDBRANCH   2   3
ENDBRANCH   1   2
BRANCH   1   8
ATOM      8  C   UNL     1      12.157 -22.376  41.427  1.00  0.00     0.000 C 
BRANCH   8   9
ATOM      9  C   UNL     1      10.620 -22.325  41.507  1.00  0.00    -0.000 C 
BRANCH   9  10
ATOM     10  C   UNL     1       9.934 -23.074  40.353  1.00  0.00    -0.000 C 
BRANCH  10  11
ATOM     11  C   UNL     1       9.404 -24.459  40.768  1.00  0.00    -0.000 C 
BRANCH  11  12
ATOM     12  C   UNL     1      10.483 -25.539  40.967  1.00  0.00    -0.003 C 
ATOM     13  C   UNL     1      11.419 -25.679  39.767  1.00  0.00     0.004 C 
ENDBRANCH  11  12
ENDBRANCH  10  11
ENDBRANCH   9  10
ENDBRANCH   8   9
ENDBRANCH   1   8
TORSDOF 9
ENDMDL
MODEL 9
REMARK VINA RESULT:    -3.195      1.782      2.225
REMARK INTER + INTRA:          -6.083
REMARK INTER:                  -5.196
REMARK INTRA:                  -0.887
REMARK UNBOUND:                -1.206
REMARK SMILES CCCCCCCCCCC(=O)[O-]
REMARK SMILES IDX 7 1 8 2 9 3 10 4 11 5 12 6 13 7 6 8 5 9 4 10 3 11 2 12 1 13
REMARK H PARENT
REMARK Flexibility Score: inf
ROOT
ATOM      1  C   UNL     1      10.233 -27.760  41.575  1.00  0.00     0.000 C 
ENDROOT
BRANCH   1   2
ATOM      2  C   UNL     1      11.579 -27.912  40.846  1.00  0.00     0.000 C 
BRANCH   2   3
ATOM      3  C   UNL     1      11.409 -28.175  39.342  1.00  0.00     0.006 C 
BRANCH   3   4
ATOM      4  C   UNL     1      11.896 -27.004  38.480  1.00  0.00     0.053 C 
BRANCH   4   5
ATOM      5  C   UNL     1      12.686 -27.506  37.313  1.00  0.00     0.041 C 
ATOM      6  O   UNL     1      13.234 -28.639  37.359  1.00  0.00    -0.550 OA
ATOM      7  O   UNL     1      12.860 -26.703  36.193  1.00  0.00    -0.550 OA
ENDBRANCH   4   5
ENDBRANCH   3   4
ENDBRANCH   2   3
ENDBRANCH   1   2
BRANCH   1   8
ATOM      8  C   UNL     1       9.798 -26.291  41.729  1.00  0.00     0.000 C 
BRANCH   8   9
ATOM      9  C   UNL     1       8.761 -25.803  40.701  1.00  0.00    -0.000 C 
BRANCH   9  10
ATOM     10  C   UNL     1       9.308 -24.707  39.771  1.00  0.00    -0.000 C 
BRANCH  10  11
ATOM     11  C   UNL     1      10.540 -23.989  40.350  1.00  0.00    -0.000 C 
BRANCH  11  12
ATOM     12  C   UNL     1      10.256 -22.621  40.997  1.00  0.00    -0.003 C 
ATOM     13  C   UNL     1      11.523 -21.886  41.428  1.00  0.00     0.004 C 
ENDBRANCH  11  12
ENDBRANCH  10  11
ENDBRANCH   9  10
ENDBRANCH   8   9
ENDBRANCH   1   8
TORSDOF 9
ENDMDL
