MODEL 1
REMARK VINA RESULT:    -6.786      0.000      0.000
REMARK INTER + INTRA:          -9.871
REMARK INTER:                  -9.166
REMARK INTRA:                  -0.706
REMARK UNBOUND:                -0.706
REMARK SMILES CC(=O)CCC=C(C)CCC=C(C)C
REMARK SMILES IDX 7 1 6 2 8 3 9 4 10 5 11 6 13 7 12 8 14 9 5 10 4 11 2 12 3 13
REMARK SMILES IDX 1 14
REMARK H PARENT
REMARK Flexibility Score: inf
ROOT
ATOM      1  C   UNL     1      23.353 -20.149  20.362  1.00  0.00    -0.077 C 
ATOM      2  C   UNL     1      23.031 -21.423  20.038  1.00  0.00    -0.028 C 
ATOM      3  C   UNL     1      22.612 -19.389  21.438  1.00  0.00     0.039 C 
ENDROOT
BRANCH   1   4
ATOM      4  C   UNL     1      24.472 -19.461  19.613  1.00  0.00     0.034 C 
BRANCH   4   5
ATOM      5  C   UNL     1      24.944 -20.320  18.434  1.00  0.00     0.032 C 
BRANCH   5   6
ATOM      6  C   UNL     1      24.719 -19.604  17.126  1.00  0.00    -0.028 C 
ATOM      7  C   UNL     1      23.035 -21.274  16.319  1.00  0.00     0.039 C 
ATOM      8  C   UNL     1      23.888 -20.039  16.152  1.00  0.00    -0.080 C 
ATOM      9  C   UNL     1      23.760 -19.258  14.870  1.00  0.00     0.039 C 
ENDBRANCH   5   6
ENDBRANCH   4   5
ENDBRANCH   1   4
BRANCH   2  10
ATOM     10  C   UNL     1      21.972 -22.238  20.735  1.00  0.00     0.035 C 
BRANCH  10  11
ATOM     11  C   UNL     1      22.597 -23.133  21.811  1.00  0.00     0.079 C 
BRANCH  11  12
ATOM     12  C   UNL     1      22.766 -24.539  21.302  1.00  0.00     0.130 C 
ATOM     13  O   UNL     1      23.354 -24.730  20.247  1.00  0.00    -0.300 OA
ATOM     14  C   UNL     1      22.220 -25.715  22.056  1.00  0.00     0.087 C 
ENDBRANCH  11  12
ENDBRANCH  10  11
ENDBRANCH   2  10
TORSDOF 6
ENDMDL
MODEL 2
REMARK VINA RESULT:    -6.735      2.678      5.742
REMARK INTER + INTRA:          -9.803
REMARK INTER:                  -9.022
REMARK INTRA:                  -0.781
REMARK UNBOUND:                -0.706
REMARK SMILES CC(=O)CCC=C(C)CCC=C(C)C
REMARK SMILES IDX 7 1 6 2 8 3 9 4 10 5 11 6 13 7 12 8 14 9 5 10 4 11 2 12 3 13
REMARK SMILES IDX 1 14
REMARK H PARENT
REMARK Flexibility Score: inf
ROOT
ATOM      1  C   UNL     1      23.376 -19.921  20.502  1.00  0.00    -0.077 C 
ATOM      2  C   UNL     1      24.083 -20.308  19.416  1.00  0.00    -0.028 C 
ATOM      3  C   UNL     1      23.757 -18.701  21.308  1.00  0.00     0.039 C 
ENDROOT
BRANCH   1   4
ATOM      4  C   UNL     1      22.182 -20.744  20.933  1.00  0.00     0.034 C 
BRANCH   4   5
ATOM      5  C   UNL     1      22.174 -22.101  20.220  1.00  0.00     0.032 C 
BRANCH   5   6
ATOM      6  C   UNL     1      22.080 -23.229  21.218  1.00  0.00    -0.028 C 
ATOM      7  C   UNL     1      23.802 -24.620  20.045  1.00  0.00     0.039 C 
ATOM      8  C   UNL     1      22.783 -24.381  21.133  1.00  0.00    -0.080 C 
ATOM      9  C   UNL     1      22.591 -25.455  22.172  1.00  0.00     0.039 C 
ENDBRANCH   5   6
ENDBRANCH   4   5
ENDBRANCH   1   4
BRANCH   2  10
ATOM     10  C   UNL     1      25.263 -19.555  18.853  1.00  0.00     0.035 C 
BRANCH  10  11
ATOM     11  C   UNL     1      26.514 -20.440  18.840  1.00  0.00     0.079 C 
BRANCH  11  12
ATOM     12  C   UNL     1      27.655 -19.759  19.548  1.00  0.00     0.130 C 
ATOM     13  O   UNL     1      28.802 -20.115  19.322  1.00  0.00    -0.300 OA
ATOM     14  C   UNL     1      27.415 -18.657  20.537  1.00  0.00     0.087 C 
ENDBRANCH  11  12
ENDBRANCH  10  11
ENDBRANCH   2  10
TORSDOF 6
ENDMDL
MODEL 3
REMARK VINA RESULT:    -6.733      1.843      3.323
REMARK INTER + INTRA:          -9.800
REMARK INTER:                  -9.148
REMARK INTRA:                  -0.652
REMARK UNBOUND:                -0.706
REMARK SMILES CC(=O)CCC=C(C)CCC=C(C)C
REMARK SMILES IDX 7 1 6 2 8 3 9 4 10 5 11 6 13 7 12 8 14 9 5 10 4 11 2 12 3 13
REMARK SMILES IDX 1 14
REMARK H PARENT
REMARK Flexibility Score: inf
ROOT
ATOM      1  C   UNL     1      23.263 -21.248  18.490  1.00  0.00    -0.077 C 
ATOM      2  C   UNL     1      22.894 -21.246  19.792  1.00  0.00    -0.028 C 
ATOM      3  C   UNL     1      22.787 -22.311  17.528  1.00  0.00     0.039 C 
ENDROOT
BRANCH   1   4
ATOM      4  C   UNL     1      24.194 -20.166  17.990  1.00  0.00     0.034 C 
BRANCH   4   5
ATOM      5  C   UNL     1      25.255 -19.832  19.045  1.00  0.00     0.032 C 
BRANCH   5   6
ATOM      6  C   UNL     1      26.502 -20.654  18.828  1.00  0.00    -0.028 C 
ATOM      7  C   UNL     1      27.975 -19.025  20.033  1.00  0.00     0.039 C 
ATOM      8  C   UNL     1      27.737 -20.286  19.239  1.00  0.00    -0.080 C 
ATOM      9  C   UNL     1      28.920 -21.172  18.945  1.00  0.00     0.039 C 
ENDBRANCH   5   6
ENDBRANCH   4   5
ENDBRANCH   1   4
BRANCH   2  10
ATOM     10  C   UNL     1      21.938 -22.236  20.409  1.00  0.00     0.035 C 
BRANCH  10  11
ATOM     11  C   UNL     1      22.605 -22.984  21.568  1.00  0.00     0.079 C 
BRANCH  11  12
ATOM     12  C   UNL     1      22.799 -24.436  21.223  1.00  0.00     0.130 C 
ATOM     13  O   UNL     1      23.515 -24.741  20.280  1.00  0.00    -0.300 OA
ATOM     14  C   UNL     1      22.125 -25.523  22.007  1.00  0.00     0.087 C 
ENDBRANCH  11  12
ENDBRANCH  10  11
ENDBRANCH   2  10
TORSDOF 6
ENDMDL
MODEL 4
REMARK VINA RESULT:    -6.676      1.525      2.726
REMARK INTER + INTRA:          -9.724
REMARK INTER:                  -8.781
REMARK INTRA:                  -0.943
REMARK UNBOUND:                -0.706
REMARK SMILES CC(=O)CCC=C(C)CCC=C(C)C
REMARK SMILES IDX 7 1 6 2 8 3 9 4 10 5 11 6 13 7 12 8 14 9 5 10 4 11 2 12 3 13
REMARK SMILES IDX 1 14
REMARK H PARENT
REMARK Flexibility Score: inf
ROOT
ATOM      1  C   UNL     1      23.434 -23.209  18.522  1.00  0.00    -0.077 C 
ATOM      2  C   UNL     1      22.843 -22.342  19.377  1.00  0.00    -0.028 C 
ATOM      3  C   UNL     1      24.518 -24.159  18.974  1.00  0.00     0.039 C 
ENDROOT
BRANCH   1   4
ATOM      4  C   UNL     1      23.010 -23.211  17.070  1.00  0.00     0.034 C 
BRANCH   4   5
ATOM      5  C   UNL     1      22.302 -21.901  16.709  1.00  0.00     0.032 C 
BRANCH   5   6
ATOM      6  C   UNL     1      23.112 -21.112  15.710  1.00  0.00    -0.028 C 
ATOM      7  C   UNL     1      24.243 -19.738  17.473  1.00  0.00     0.039 C 
ATOM      8  C   UNL     1      23.964 -20.115  16.039  1.00  0.00    -0.080 C 
ATOM      9  C   UNL     1      24.703 -19.372  14.955  1.00  0.00     0.039 C 
ENDBRANCH   5   6
ENDBRANCH   4   5
ENDBRANCH   1   4
BRANCH   2  10
ATOM     10  C   UNL     1      23.137 -22.267  20.854  1.00  0.00     0.035 C 
BRANCH  10  11
ATOM     11  C   UNL     1      22.099 -23.062  21.654  1.00  0.00     0.079 C 
BRANCH  11  12
ATOM     12  C   UNL     1      22.706 -24.324  22.206  1.00  0.00     0.130 C 
ATOM     13  O   UNL     1      23.779 -24.272  22.788  1.00  0.00    -0.300 OA
ATOM     14  C   UNL     1      22.026 -25.652  22.049  1.00  0.00     0.087 C 
ENDBRANCH  11  12
ENDBRANCH  10  11
ENDBRANCH   2  10
TORSDOF 6
ENDMDL
MODEL 5
REMARK VINA RESULT:    -6.647      3.471      4.733
REMARK INTER + INTRA:          -9.685
REMARK INTER:                  -8.831
REMARK INTRA:                  -0.854
REMARK UNBOUND:                -0.706
REMARK SMILES CC(=O)CCC=C(C)CCC=C(C)C
REMARK SMILES IDX 7 1 6 2 8 3 9 4 10 5 11 6 13 7 12 8 14 9 5 10 4 11 2 12 3 13
REMARK SMILES IDX 1 14
REMARK H PARENT
REMARK Flexibility Score: inf
ROOT
ATOM      1  C   UNL     1      27.873 -23.977  19.359  1.00  0.00    -0.077 C 
ATOM      2  C   UNL     1      26.532 -23.809  19.285  1.00  0.00    -0.028 C 
ATOM      3  C   UNL     1      28.522 -25.320  19.121  1.00  0.00     0.039 C 
ENDROOT
BRANCH   1   4
ATOM      4  C   UNL     1      28.743 -22.791  19.711  1.00  0.00     0.034 C 
BRANCH   4   5
ATOM      5  C   UNL     1      28.491 -21.628  18.744  1.00  0.00     0.032 C 
BRANCH   5   6
ATOM      6  C   UNL     1      28.153 -20.367  19.499  1.00  0.00    -0.028 C 
ATOM      7  C   UNL     1      25.770 -20.355  18.728  1.00  0.00     0.039 C 
ATOM      8  C   UNL     1      26.942 -19.766  19.475  1.00  0.00    -0.080 C 
ATOM      9  C   UNL     1      26.721 -18.491  20.246  1.00  0.00     0.039 C 
ENDBRANCH   5   6
ENDBRANCH   4   5
ENDBRANCH   1   4
BRANCH   2  10
ATOM     10  C   UNL     1      25.557 -24.893  18.900  1.00  0.00     0.035 C 
BRANCH  10  11
ATOM     11  C   UNL     1      24.187 -24.294  18.562  1.00  0.00     0.079 C 
BRANCH  11  12
ATOM     12  C   UNL     1      23.507 -23.786  19.805  1.00  0.00     0.130 C 
ATOM     13  O   UNL     1      23.172 -22.612  19.870  1.00  0.00    -0.300 OA
ATOM     14  C   UNL     1      23.238 -24.687  20.974  1.00  0.00     0.087 C 
ENDBRANCH  11  12
ENDBRANCH  10  11
ENDBRANCH   2  10
TORSDOF 6
ENDMDL
MODEL 6
REMARK VINA RESULT:    -6.618      2.351      5.966
REMARK INTER + INTRA:          -9.644
REMARK INTER:                  -8.878
REMARK INTRA:                  -0.767
REMARK UNBOUND:                -0.706
REMARK SMILES CC(=O)CCC=C(C)CCC=C(C)C
REMARK SMILES IDX 7 1 6 2 8 3 9 4 10 5 11 6 13 7 12 8 14 9 5 10 4 11 2 12 3 13
REMARK SMILES IDX 1 14
REMARK H PARENT
REMARK Flexibility Score: inf
ROOT
ATOM      1  C   UNL     1      23.365 -22.475  17.859  1.00  0.00    -0.077 C 
ATOM      2  C   UNL     1      24.111 -21.553  18.510  1.00  0.00    -0.028 C 
ATOM      3  C   UNL     1      22.327 -22.081  16.834  1.00  0.00     0.039 C 
ENDROOT
BRANCH   1   4
ATOM      4  C   UNL     1      23.562 -23.939  18.182  1.00  0.00     0.034 C 
BRANCH   4   5
ATOM      5  C   UNL     1      24.319 -24.106  19.504  1.00  0.00     0.032 C 
BRANCH   5   6
ATOM      6  C   UNL     1      23.528 -24.951  20.472  1.00  0.00    -0.028 C 
ATOM      7  C   UNL     1      22.396 -22.976  21.517  1.00  0.00     0.039 C 
ATOM      8  C   UNL     1      22.684 -24.453  21.403  1.00  0.00    -0.080 C 
ATOM      9  C   UNL     1      21.963 -25.389  22.340  1.00  0.00     0.039 C 
ENDBRANCH   5   6
ENDBRANCH   4   5
ENDBRANCH   1   4
BRANCH   2  10
ATOM     10  C   UNL     1      24.049 -20.069  18.251  1.00  0.00     0.035 C 
BRANCH  10  11
ATOM     11  C   UNL     1      25.362 -19.392  18.658  1.00  0.00     0.079 C 
BRANCH  11  12
ATOM     12  C   UNL     1      25.254 -18.808  20.042  1.00  0.00     0.130 C 
ATOM     13  O   UNL     1      24.174 -18.813  20.614  1.00  0.00    -0.300 OA
ATOM     14  C   UNL     1      26.443 -18.208  20.732  1.00  0.00     0.087 C 
ENDBRANCH  11  12
ENDBRANCH  10  11
ENDBRANCH   2  10
TORSDOF 6
ENDMDL
MODEL 7
REMARK VINA RESULT:    -6.597      1.694      5.771
REMARK INTER + INTRA:          -9.617
REMARK INTER:                  -9.009
REMARK INTRA:                  -0.608
REMARK UNBOUND:                -0.706
REMARK SMILES CC(=O)CCC=C(C)CCC=C(C)C
REMARK SMILES IDX 7 1 6 2 8 3 9 4 10 5 11 6 13 7 12 8 14 9 5 10 4 11 2 12 3 13
REMARK SMILES IDX 1 14
REMARK H PARENT
REMARK Flexibility Score: inf
ROOT
ATOM      1  C   UNL     1      23.374 -20.231  20.259  1.00  0.00    -0.077 C 
ATOM      2  C   UNL     1      23.752 -20.830  19.106  1.00  0.00    -0.028 C 
ATOM      3  C   UNL     1      24.019 -18.952  20.742  1.00  0.00     0.039 C 
ENDROOT
BRANCH   1   4
ATOM      4  C   UNL     1      22.289 -20.870  21.097  1.00  0.00     0.034 C 
BRANCH   4   5
ATOM      5  C   UNL     1      21.797 -22.168  20.448  1.00  0.00     0.032 C 
BRANCH   5   6
ATOM      6  C   UNL     1      21.937 -23.330  21.401  1.00  0.00    -0.028 C 
ATOM      7  C   UNL     1      23.731 -24.432  20.044  1.00  0.00     0.039 C 
ATOM      8  C   UNL     1      22.780 -24.370  21.215  1.00  0.00    -0.080 C 
ATOM      9  C   UNL     1      22.819 -25.493  22.219  1.00  0.00     0.039 C 
ENDBRANCH   5   6
ENDBRANCH   4   5
ENDBRANCH   1   4
BRANCH   2  10
ATOM     10  C   UNL     1      24.785 -20.277  18.157  1.00  0.00     0.035 C 
BRANCH  10  11
ATOM     11  C   UNL     1      24.121 -19.419  17.074  1.00  0.00     0.079 C 
BRANCH  11  12
ATOM     12  C   UNL     1      23.795 -20.249  15.862  1.00  0.00     0.130 C 
ATOM     13  O   UNL     1      23.218 -21.317  16.002  1.00  0.00    -0.300 OA
ATOM     14  C   UNL     1      24.171 -19.799  14.482  1.00  0.00     0.087 C 
ENDBRANCH  11  12
ENDBRANCH  10  11
ENDBRANCH   2  10
TORSDOF 6
ENDMDL
MODEL 8
REMARK VINA RESULT:    -6.561      3.521      6.434
REMARK INTER + INTRA:          -9.567
REMARK INTER:                  -8.785
REMARK INTRA:                  -0.782
REMARK UNBOUND:                -0.706
REMARK SMILES CC(=O)CCC=C(C)CCC=C(C)C
REMARK SMILES IDX 7 1 6 2 8 3 9 4 10 5 11 6 13 7 12 8 14 9 5 10 4 11 2 12 3 13
REMARK SMILES IDX 1 14
REMARK H PARENT
REMARK Flexibility Score: inf
ROOT
ATOM      1  C   UNL     1      22.991 -23.564  17.122  1.00  0.00    -0.077 C 
ATOM      2  C   UNL     1      22.387 -24.086  16.029  1.00  0.00    -0.028 C 
ATOM      3  C   UNL     1      22.725 -22.149  17.579  1.00  0.00     0.039 C 
ENDROOT
BRANCH   1   4
ATOM      4  C   UNL     1      23.975 -24.415  17.894  1.00  0.00     0.034 C 
BRANCH   4   5
ATOM      5  C   UNL     1      24.212 -23.835  19.293  1.00  0.00     0.032 C 
BRANCH   5   6
ATOM      6  C   UNL     1      23.616 -24.731  20.352  1.00  0.00    -0.028 C 
ATOM      7  C   UNL     1      22.132 -22.931  21.265  1.00  0.00     0.039 C 
ATOM      8  C   UNL     1      22.704 -24.328  21.265  1.00  0.00    -0.080 C 
ATOM      9  C   UNL     1      22.196 -25.301  22.297  1.00  0.00     0.039 C 
ENDBRANCH   5   6
ENDBRANCH   4   5
ENDBRANCH   1   4
BRANCH   2  10
ATOM     10  C   UNL     1      21.356 -23.365  15.199  1.00  0.00     0.035 C 
BRANCH  10  11
ATOM     11  C   UNL     1      20.167 -24.283  14.896  1.00  0.00     0.079 C 
BRANCH  11  12
ATOM     12  C   UNL     1      18.865 -23.564  15.130  1.00  0.00     0.130 C 
ATOM     13  O   UNL     1      17.859 -23.935  14.544  1.00  0.00    -0.300 OA
ATOM     14  C   UNL     1      18.776 -22.392  16.062  1.00  0.00     0.087 C 
ENDBRANCH  11  12
ENDBRANCH  10  11
ENDBRANCH   2  10
TORSDOF 6
ENDMDL
MODEL 9
REMARK VINA RESULT:    -6.534      2.142      3.794
REMARK INTER + INTRA:          -9.531
REMARK INTER:                  -9.107
REMARK INTRA:                  -0.424
REMARK UNBOUND:                -0.706
REMARK SMILES CC(=O)CCC=C(C)CCC=C(C)C
REMARK SMILES IDX 7 1 6 2 8 3 9 4 10 5 11 6 13 7 12 8 14 9 5 10 4 11 2 12 3 13
REMARK SMILES IDX 1 14
REMARK H PARENT
REMARK Flexibility Score: inf
ROOT
ATOM      1  C   UNL     1      23.814 -21.248  17.967  1.00  0.00    -0.077 C 
ATOM      2  C   UNL     1      24.033 -22.182  18.921  1.00  0.00    -0.028 C 
ATOM      3  C   UNL     1      22.883 -21.501  16.804  1.00  0.00     0.039 C 
ENDROOT
BRANCH   1   4
ATOM      4  C   UNL     1      24.535 -19.922  18.058  1.00  0.00     0.034 C 
BRANCH   4   5
ATOM      5  C   UNL     1      25.906 -20.095  18.721  1.00  0.00     0.032 C 
BRANCH   5   6
ATOM      6  C   UNL     1      26.131 -19.034  19.770  1.00  0.00    -0.028 C 
ATOM      7  C   UNL     1      28.626 -19.229  19.660  1.00  0.00     0.039 C 
ATOM      8  C   UNL     1      27.348 -18.658  20.225  1.00  0.00    -0.080 C 
ATOM      9  C   UNL     1      27.456 -17.606  21.298  1.00  0.00     0.039 C 
ENDBRANCH   5   6
ENDBRANCH   4   5
ENDBRANCH   1   4
BRANCH   2  10
ATOM     10  C   UNL     1      23.346 -23.523  18.976  1.00  0.00     0.035 C 
BRANCH  10  11
ATOM     11  C   UNL     1      23.835 -24.333  20.182  1.00  0.00     0.079 C 
BRANCH  11  12
ATOM     12  C   UNL     1      22.832 -24.277  21.303  1.00  0.00     0.130 C 
ATOM     13  O   UNL     1      22.411 -23.193  21.680  1.00  0.00    -0.300 OA
ATOM     14  C   UNL     1      22.343 -25.523  21.979  1.00  0.00     0.087 C 
ENDBRANCH  11  12
ENDBRANCH  10  11
ENDBRANCH   2  10
TORSDOF 6
ENDMDL
