MODEL 1
REMARK VINA RESULT:    -2.941      0.000      0.000
REMARK INTER + INTRA:          -2.941
REMARK INTER:                  -2.941
REMARK INTRA:                   0.000
REMARK UNBOUND:                 0.000
REMARK SMILES CC(=O)[O-]
REMARK SMILES IDX 1 1 2 2 3 3 4 4
REMARK H PARENT
REMARK Flexibility Score: inf
ROOT
ATOM      1  C   UNL     1      17.653  21.444  43.542  1.00  0.00     0.063 C 
ATOM      2  C   UNL     1      17.779  20.239  42.674  1.00  0.00     0.038 C 
ATOM      3  O   UNL     1      17.519  19.097  43.136  1.00  0.00    -0.550 OA
ATOM      4  O   UNL     1      18.237  20.366  41.369  1.00  0.00    -0.550 OA
ENDROOT
TORSDOF 0
ENDMDL
MODEL 2
REMARK VINA RESULT:    -2.937      1.327      1.758
REMARK INTER + INTRA:          -2.937
REMARK INTER:                  -2.937
REMARK INTRA:                   0.000
REMARK UNBOUND:                 0.000
REMARK SMILES CC(=O)[O-]
REMARK SMILES IDX 1 1 2 2 3 3 4 4
REMARK H PARENT
REMARK Flexibility Score: inf
ROOT
ATOM      1  C   UNL     1      18.074  20.693  41.429  1.00  0.00     0.063 C 
ATOM      2  C   UNL     1      17.766  20.290  42.831  1.00  0.00     0.038 C 
ATOM      3  O   UNL     1      17.507  19.088  43.100  1.00  0.00    -0.550 OA
ATOM      4  O   UNL     1      17.711  21.249  43.834  1.00  0.00    -0.550 OA
ENDROOT
TORSDOF 0
ENDMDL
MODEL 3
REMARK VINA RESULT:    -2.687      2.785      3.208
REMARK INTER + INTRA:          -2.687
REMARK INTER:                  -2.687
REMARK INTRA:                   0.000
REMARK UNBOUND:                 0.000
REMARK SMILES CC(=O)[O-]
REMARK SMILES IDX 1 1 2 2 3 3 4 4
REMARK H PARENT
REMARK Flexibility Score: inf
ROOT
ATOM      1  C   UNL     1      17.943  21.749  43.358  1.00  0.00     0.063 C 
ATOM      2  C   UNL     1      18.761  22.904  42.891  1.00  0.00     0.038 C 
ATOM      3  O   UNL     1      19.061  23.830  43.689  1.00  0.00    -0.550 OA
ATOM      4  O   UNL     1      19.149  22.989  41.560  1.00  0.00    -0.550 OA
ENDROOT
TORSDOF 0
ENDMDL
MODEL 4
REMARK VINA RESULT:    -2.672      2.673      3.327
REMARK INTER + INTRA:          -2.672
REMARK INTER:                  -2.672
REMARK INTRA:                   0.000
REMARK UNBOUND:                 0.000
REMARK SMILES CC(=O)[O-]
REMARK SMILES IDX 1 1 2 2 3 3 4 4
REMARK H PARENT
REMARK Flexibility Score: inf
ROOT
ATOM      1  C   UNL     1      17.904  21.680  43.384  1.00  0.00     0.063 C 
ATOM      2  C   UNL     1      18.716  22.809  42.846  1.00  0.00     0.038 C 
ATOM      3  O   UNL     1      19.092  22.800  41.645  1.00  0.00    -0.550 OA
ATOM      4  O   UNL     1      19.105  23.847  43.682  1.00  0.00    -0.550 OA
ENDROOT
TORSDOF 0
ENDMDL
MODEL 5
REMARK VINA RESULT:    -2.640      1.708      1.890
REMARK INTER + INTRA:          -2.640
REMARK INTER:                  -2.640
REMARK INTRA:                   0.000
REMARK UNBOUND:                 0.000
REMARK SMILES CC(=O)[O-]
REMARK SMILES IDX 1 1 2 2 3 3 4 4
REMARK H PARENT
REMARK Flexibility Score: inf
ROOT
ATOM      1  C   UNL     1      17.392  20.101  43.073  1.00  0.00     0.063 C 
ATOM      2  C   UNL     1      18.151  21.116  42.289  1.00  0.00     0.038 C 
ATOM      3  O   UNL     1      18.534  22.182  42.839  1.00  0.00    -0.550 OA
ATOM      4  O   UNL     1      18.391  20.913  40.936  1.00  0.00    -0.550 OA
ENDROOT
TORSDOF 0
ENDMDL
MODEL 6
REMARK VINA RESULT:    -2.606      2.215      2.405
REMARK INTER + INTRA:          -2.606
REMARK INTER:                  -2.606
REMARK INTRA:                   0.000
REMARK UNBOUND:                 0.000
REMARK SMILES CC(=O)[O-]
REMARK SMILES IDX 1 1 2 2 3 3 4 4
REMARK H PARENT
REMARK Flexibility Score: inf
ROOT
ATOM      1  C   UNL     1      19.073  23.771  43.200  1.00  0.00     0.063 C 
ATOM      2  C   UNL     1      18.616  22.431  42.736  1.00  0.00     0.038 C 
ATOM      3  O   UNL     1      18.038  21.648  43.535  1.00  0.00    -0.550 OA
ATOM      4  O   UNL     1      18.874  22.020  41.434  1.00  0.00    -0.550 OA
ENDROOT
TORSDOF 0
ENDMDL
MODEL 7
REMARK VINA RESULT:    -2.550      3.103      3.563
REMARK INTER + INTRA:          -2.550
REMARK INTER:                  -2.550
REMARK INTRA:                   0.000
REMARK UNBOUND:                 0.000
REMARK SMILES CC(=O)[O-]
REMARK SMILES IDX 1 1 2 2 3 3 4 4
REMARK H PARENT
REMARK Flexibility Score: inf
ROOT
ATOM      1  C   UNL     1      19.463  22.833  41.392  1.00  0.00     0.063 C 
ATOM      2  C   UNL     1      18.933  22.929  42.781  1.00  0.00     0.038 C 
ATOM      3  O   UNL     1      19.249  23.905  43.512  1.00  0.00    -0.550 OA
ATOM      4  O   UNL     1      18.133  21.916  43.293  1.00  0.00    -0.550 OA
ENDROOT
TORSDOF 0
ENDMDL
MODEL 8
REMARK VINA RESULT:    -2.492      3.207      3.929
REMARK INTER + INTRA:          -2.492
REMARK INTER:                  -2.492
REMARK INTRA:                   0.000
REMARK UNBOUND:                 0.000
REMARK SMILES CC(=O)[O-]
REMARK SMILES IDX 1 1 2 2 3 3 4 4
REMARK H PARENT
REMARK Flexibility Score: inf
ROOT
ATOM      1  C   UNL     1      19.290  23.987  42.665  1.00  0.00     0.063 C 
ATOM      2  C   UNL     1      19.597  23.188  41.445  1.00  0.00     0.038 C 
ATOM      3  O   UNL     1      20.494  23.571  40.648  1.00  0.00    -0.550 OA
ATOM      4  O   UNL     1      18.858  22.049  41.155  1.00  0.00    -0.550 OA
ENDROOT
TORSDOF 0
ENDMDL
MODEL 9
REMARK VINA RESULT:    -2.387      3.535      3.890
REMARK INTER + INTRA:          -2.387
REMARK INTER:                  -2.387
REMARK INTRA:                   0.000
REMARK UNBOUND:                 0.000
REMARK SMILES CC(=O)[O-]
REMARK SMILES IDX 1 1 2 2 3 3 4 4
REMARK H PARENT
REMARK Flexibility Score: inf
ROOT
ATOM      1  C   UNL     1      20.433  22.923  40.604  1.00  0.00     0.063 C 
ATOM      2  C   UNL     1      19.479  23.109  41.735  1.00  0.00     0.038 C 
ATOM      3  O   UNL     1      18.756  22.151  42.115  1.00  0.00    -0.550 OA
ATOM      4  O   UNL     1      19.345  24.353  42.335  1.00  0.00    -0.550 OA
ENDROOT
TORSDOF 0
ENDMDL
