MODEL 1
REMARK VINA RESULT:    -4.248      0.000      0.000
REMARK INTER + INTRA:         -17.426
REMARK INTER:                 -11.202
REMARK INTRA:                  -6.224
REMARK UNBOUND:                -6.224
REMARK SMILES CCCCCCCCCCCCCCCCCCCCCCCCCCCCCC(=O)[O-]
REMARK SMILES IDX 16 1 17 2 18 3 19 4 20 5 21 6 22 7 23 8 24 9 25 10 26 11
REMARK SMILES IDX 27 12 28 13 29 14 30 15 31 16 32 17 15 18 14 19 13 20 12 21
REMARK SMILES IDX 11 22 10 23 9 24 8 25 7 26 6 27 5 28 4 29 3 30 2 31 1 32
REMARK H PARENT
REMARK Flexibility Score: inf
ROOT
ATOM      1  C   UNL     1      -1.641   2.982  13.034  1.00  0.00     0.000 C 
ENDROOT
BRANCH   1   2
ATOM      2  C   UNL     1      -1.938   4.484  13.206  1.00  0.00     0.000 C 
BRANCH   2   3
ATOM      3  C   UNL     1      -3.217   4.990  12.510  1.00  0.00     0.000 C 
BRANCH   3   4
ATOM      4  C   UNL     1      -2.929   5.958  11.348  1.00  0.00     0.000 C 
BRANCH   4   5
ATOM      5  C   UNL     1      -2.371   5.253  10.098  1.00  0.00     0.000 C 
BRANCH   5   6
ATOM      6  C   UNL     1      -3.207   4.070   9.575  1.00  0.00     0.000 C 
BRANCH   6   7
ATOM      7  C   UNL     1      -2.428   2.743   9.563  1.00  0.00     0.000 C 
BRANCH   7   8
ATOM      8  C   UNL     1      -3.313   1.525   9.885  1.00  0.00     0.000 C 
BRANCH   8   9
ATOM      9  C   UNL     1      -4.389   1.760  10.960  1.00  0.00     0.000 C 
BRANCH   9  10
ATOM     10  C   UNL     1      -4.447   0.637  12.010  1.00  0.00     0.000 C 
BRANCH  10  11
ATOM     11  C   UNL     1      -5.427   0.957  13.152  1.00  0.00     0.000 C 
BRANCH  11  12
ATOM     12  C   UNL     1      -5.259   2.394  13.678  1.00  0.00     0.000 C 
BRANCH  12  13
ATOM     13  C   UNL     1      -5.514   2.507  15.193  1.00  0.00     0.006 C 
BRANCH  13  14
ATOM     14  C   UNL     1      -4.688   3.597  15.894  1.00  0.00     0.053 C 
BRANCH  14  15
ATOM     15  C   UNL     1      -5.451   4.879  16.031  1.00  0.00     0.041 C 
ATOM     16  O   UNL     1      -5.209   5.844  15.258  1.00  0.00    -0.550 OA
ATOM     17  O   UNL     1      -6.454   4.995  16.986  1.00  0.00    -0.550 OA
ENDBRANCH  14  15
ENDBRANCH  13  14
ENDBRANCH  12  13
ENDBRANCH  11  12
ENDBRANCH  10  11
ENDBRANCH   9  10
ENDBRANCH   8   9
ENDBRANCH   7   8
ENDBRANCH   6   7
ENDBRANCH   5   6
ENDBRANCH   4   5
ENDBRANCH   3   4
ENDBRANCH   2   3
ENDBRANCH   1   2
BRANCH   1  18
ATOM     18  C   UNL     1      -1.556   2.174  14.343  1.00  0.00     0.000 C 
BRANCH  18  19
ATOM     19  C   UNL     1      -1.459   0.647  14.137  1.00  0.00     0.000 C 
BRANCH  19  20
ATOM     20  C   UNL     1      -0.767   0.263  12.816  1.00  0.00     0.000 C 
BRANCH  20  21
ATOM     21  C   UNL     1      -1.511  -0.846  12.054  1.00  0.00     0.000 C 
BRANCH  21  22
ATOM     22  C   UNL     1      -0.691  -2.142  11.935  1.00  0.00     0.000 C 
BRANCH  22  23
ATOM     23  C   UNL     1      -1.575  -3.399  11.983  1.00  0.00     0.000 C 
BRANCH  23  24
ATOM     24  C   UNL     1      -3.047  -3.096  11.656  1.00  0.00    -0.000 C 
BRANCH  24  25
ATOM     25  C   UNL     1      -3.671  -4.125  10.695  1.00  0.00    -0.000 C 
BRANCH  25  26
ATOM     26  C   UNL     1      -3.551  -3.776   9.199  1.00  0.00    -0.000 C 
BRANCH  26  27
ATOM     27  C   UNL     1      -3.733  -2.275   8.919  1.00  0.00    -0.000 C 
BRANCH  27  28
ATOM     28  C   UNL     1      -2.516  -1.647   8.218  1.00  0.00    -0.000 C 
BRANCH  28  29
ATOM     29  C   UNL     1      -1.254  -2.536   8.252  1.00  0.00    -0.000 C 
BRANCH  29  30
ATOM     30  C   UNL     1       0.038  -1.703   8.278  1.00  0.00    -0.000 C 
BRANCH  30  31
ATOM     31  C   UNL     1      -0.262  -0.224   8.551  1.00  0.00    -0.003 C 
ATOM     32  C   UNL     1       0.830   0.413   9.405  1.00  0.00     0.004 C 
ENDBRANCH  30  31
ENDBRANCH  29  30
ENDBRANCH  28  29
ENDBRANCH  27  28
ENDBRANCH  26  27
ENDBRANCH  25  26
ENDBRANCH  24  25
ENDBRANCH  23  24
ENDBRANCH  22  23
ENDBRANCH  21  22
ENDBRANCH  20  21
ENDBRANCH  19  20
ENDBRANCH  18  19
ENDBRANCH   1  18
TORSDOF 28
ENDMDL
MODEL 2
REMARK VINA RESULT:    -4.183      1.441      4.378
REMARK INTER + INTRA:         -17.255
REMARK INTER:                 -11.599
REMARK INTRA:                  -5.656
REMARK UNBOUND:                -6.224
REMARK SMILES CCCCCCCCCCCCCCCCCCCCCCCCCCCCCC(=O)[O-]
REMARK SMILES IDX 16 1 17 2 18 3 19 4 20 5 21 6 22 7 23 8 24 9 25 10 26 11
REMARK SMILES IDX 27 12 28 13 29 14 30 15 31 16 32 17 15 18 14 19 13 20 12 21
REMARK SMILES IDX 11 22 10 23 9 24 8 25 7 26 6 27 5 28 4 29 3 30 2 31 1 32
REMARK H PARENT
REMARK Flexibility Score: inf
ROOT
ATOM      1  C   UNL     1      -4.218   1.897  15.072  1.00  0.00     0.000 C 
ENDROOT
BRANCH   1   2
ATOM      2  C   UNL     1      -3.430   3.129  15.554  1.00  0.00     0.000 C 
BRANCH   2   3
ATOM      3  C   UNL     1      -2.017   2.841  16.096  1.00  0.00     0.000 C 
BRANCH   3   4
ATOM      4  C   UNL     1      -1.515   1.427  15.752  1.00  0.00     0.000 C 
BRANCH   4   5
ATOM      5  C   UNL     1      -1.007   1.302  14.304  1.00  0.00     0.000 C 
BRANCH   5   6
ATOM      6  C   UNL     1       0.128   2.267  13.914  1.00  0.00     0.000 C 
BRANCH   6   7
ATOM      7  C   UNL     1      -0.321   3.351  12.918  1.00  0.00     0.000 C 
BRANCH   7   8
ATOM      8  C   UNL     1      -1.693   3.053  12.286  1.00  0.00     0.000 C 
BRANCH   8   9
ATOM      9  C   UNL     1      -2.303   4.204  11.465  1.00  0.00     0.000 C 
BRANCH   9  10
ATOM     10  C   UNL     1      -3.751   4.530  11.866  1.00  0.00     0.000 C 
BRANCH  10  11
ATOM     11  C   UNL     1      -3.825   5.616  12.953  1.00  0.00     0.000 C 
BRANCH  11  12
ATOM     12  C   UNL     1      -5.267   6.089  13.207  1.00  0.00     0.000 C 
BRANCH  12  13
ATOM     13  C   UNL     1      -5.746   5.797  14.641  1.00  0.00     0.006 C 
BRANCH  13  14
ATOM     14  C   UNL     1      -7.062   5.007  14.720  1.00  0.00     0.053 C 
BRANCH  14  15
ATOM     15  C   UNL     1      -7.315   4.475  16.097  1.00  0.00     0.041 C 
ATOM     16  O   UNL     1      -7.180   5.225  17.100  1.00  0.00    -0.550 OA
ATOM     17  O   UNL     1      -7.736   3.162  16.270  1.00  0.00    -0.550 OA
ENDBRANCH  14  15
ENDBRANCH  13  14
ENDBRANCH  12  13
ENDBRANCH  11  12
ENDBRANCH  10  11
ENDBRANCH   9  10
ENDBRANCH   8   9
ENDBRANCH   7   8
ENDBRANCH   6   7
ENDBRANCH   5   6
ENDBRANCH   4   5
ENDBRANCH   3   4
ENDBRANCH   2   3
ENDBRANCH   1   2
BRANCH   1  18
ATOM     18  C   UNL     1      -5.219   2.159  13.930  1.00  0.00     0.000 C 
BRANCH  18  19
ATOM     19  C   UNL     1      -5.367   0.986  12.937  1.00  0.00     0.000 C 
BRANCH  19  20
ATOM     20  C   UNL     1      -4.013   0.394  12.504  1.00  0.00     0.000 C 
BRANCH  20  21
ATOM     21  C   UNL     1      -4.020  -0.108  11.050  1.00  0.00     0.000 C 
BRANCH  21  22
ATOM     22  C   UNL     1      -3.907   1.034  10.025  1.00  0.00     0.000 C 
BRANCH  22  23
ATOM     23  C   UNL     1      -2.552   1.033   9.297  1.00  0.00     0.000 C 
BRANCH  23  24
ATOM     24  C   UNL     1      -2.138  -0.372   8.826  1.00  0.00    -0.000 C 
BRANCH  24  25
ATOM     25  C   UNL     1      -0.705  -0.746   9.247  1.00  0.00    -0.000 C 
BRANCH  25  26
ATOM     26  C   UNL     1      -0.245  -0.154  10.594  1.00  0.00    -0.000 C 
BRANCH  26  27
ATOM     27  C   UNL     1      -0.684  -1.001  11.800  1.00  0.00    -0.000 C 
BRANCH  27  28
ATOM     28  C   UNL     1      -0.346  -2.493  11.634  1.00  0.00    -0.000 C 
BRANCH  28  29
ATOM     29  C   UNL     1      -1.476  -3.440  12.096  1.00  0.00    -0.000 C 
BRANCH  29  30
ATOM     30  C   UNL     1      -2.604  -3.541  11.057  1.00  0.00    -0.000 C 
BRANCH  30  31
ATOM     31  C   UNL     1      -3.932  -3.926  11.718  1.00  0.00    -0.003 C 
ATOM     32  C   UNL     1      -4.661  -4.996  10.911  1.00  0.00     0.004 C 
ENDBRANCH  30  31
ENDBRANCH  29  30
ENDBRANCH  28  29
ENDBRANCH  27  28
ENDBRANCH  26  27
ENDBRANCH  25  26
ENDBRANCH  24  25
ENDBRANCH  23  24
ENDBRANCH  22  23
ENDBRANCH  21  22
ENDBRANCH  20  21
ENDBRANCH  19  20
ENDBRANCH  18  19
ENDBRANCH   1  18
TORSDOF 28
ENDMDL
MODEL 3
REMARK VINA RESULT:    -4.171      1.574      4.102
REMARK INTER + INTRA:         -17.222
REMARK INTER:                 -11.755
REMARK INTRA:                  -5.466
REMARK UNBOUND:                -6.224
REMARK SMILES CCCCCCCCCCCCCCCCCCCCCCCCCCCCCC(=O)[O-]
REMARK SMILES IDX 16 1 17 2 18 3 19 4 20 5 21 6 22 7 23 8 24 9 25 10 26 11
REMARK SMILES IDX 27 12 28 13 29 14 30 15 31 16 32 17 15 18 14 19 13 20 12 21
REMARK SMILES IDX 11 22 10 23 9 24 8 25 7 26 6 27 5 28 4 29 3 30 2 31 1 32
REMARK H PARENT
REMARK Flexibility Score: inf
ROOT
ATOM      1  C   UNL     1      -5.431   1.226  12.830  1.00  0.00     0.000 C 
ENDROOT
BRANCH   1   2
ATOM      2  C   UNL     1      -4.476   0.050  12.548  1.00  0.00     0.000 C 
BRANCH   2   3
ATOM      3  C   UNL     1      -4.008  -0.087  11.087  1.00  0.00     0.000 C 
BRANCH   3   4
ATOM      4  C   UNL     1      -3.980   1.256  10.334  1.00  0.00     0.000 C 
BRANCH   4   5
ATOM      5  C   UNL     1      -2.563   1.674   9.897  1.00  0.00     0.000 C 
BRANCH   5   6
ATOM      6  C   UNL     1      -2.183   3.137  10.192  1.00  0.00     0.000 C 
BRANCH   6   7
ATOM      7  C   UNL     1      -3.349   3.954  10.776  1.00  0.00     0.000 C 
BRANCH   7   8
ATOM      8  C   UNL     1      -2.899   5.300  11.373  1.00  0.00     0.000 C 
BRANCH   8   9
ATOM      9  C   UNL     1      -3.911   5.972  12.318  1.00  0.00     0.000 C 
BRANCH   9  10
ATOM     10  C   UNL     1      -3.372   6.154  13.748  1.00  0.00     0.000 C 
BRANCH  10  11
ATOM     11  C   UNL     1      -4.500   6.340  14.777  1.00  0.00     0.000 C 
BRANCH  11  12
ATOM     12  C   UNL     1      -5.880   6.481  14.110  1.00  0.00     0.000 C 
BRANCH  12  13
ATOM     13  C   UNL     1      -6.804   5.282  14.395  1.00  0.00     0.006 C 
BRANCH  13  14
ATOM     14  C   UNL     1      -6.859   4.863  15.872  1.00  0.00     0.053 C 
BRANCH  14  15
ATOM     15  C   UNL     1      -7.743   3.672  16.086  1.00  0.00     0.041 C 
ATOM     16  O   UNL     1      -8.906   3.654  15.602  1.00  0.00    -0.550 OA
ATOM     17  O   UNL     1      -7.270   2.569  16.787  1.00  0.00    -0.550 OA
ENDBRANCH  14  15
ENDBRANCH  13  14
ENDBRANCH  12  13
ENDBRANCH  11  12
ENDBRANCH  10  11
ENDBRANCH   9  10
ENDBRANCH   8   9
ENDBRANCH   7   8
ENDBRANCH   6   7
ENDBRANCH   5   6
ENDBRANCH   4   5
ENDBRANCH   3   4
ENDBRANCH   2   3
ENDBRANCH   1   2
BRANCH   1  18
ATOM     18  C   UNL     1      -5.084   2.075  14.067  1.00  0.00     0.000 C 
BRANCH  18  19
ATOM     19  C   UNL     1      -3.621   2.567  14.105  1.00  0.00     0.000 C 
BRANCH  19  20
ATOM     20  C   UNL     1      -2.819   1.972  15.277  1.00  0.00     0.000 C 
BRANCH  20  21
ATOM     21  C   UNL     1      -1.674   1.056  14.813  1.00  0.00     0.000 C 
BRANCH  21  22
ATOM     22  C   UNL     1      -1.114   1.455  13.436  1.00  0.00     0.000 C 
BRANCH  22  23
ATOM     23  C   UNL     1      -0.108   0.425  12.895  1.00  0.00     0.000 C 
BRANCH  23  24
ATOM     24  C   UNL     1      -0.797  -0.812  12.295  1.00  0.00    -0.000 C 
BRANCH  24  25
ATOM     25  C   UNL     1      -0.195  -1.235  10.942  1.00  0.00    -0.000 C 
BRANCH  25  26
ATOM     26  C   UNL     1      -0.995  -2.308  10.179  1.00  0.00    -0.000 C 
BRANCH  26  27
ATOM     27  C   UNL     1      -1.618  -1.776   8.877  1.00  0.00    -0.000 C 
BRANCH  27  28
ATOM     28  C   UNL     1      -2.860  -2.573   8.441  1.00  0.00    -0.000 C 
BRANCH  28  29
ATOM     29  C   UNL     1      -3.039  -3.907   9.200  1.00  0.00    -0.000 C 
BRANCH  29  30
ATOM     30  C   UNL     1      -4.517  -4.205   9.499  1.00  0.00    -0.000 C 
BRANCH  30  31
ATOM     31  C   UNL     1      -4.687  -4.818  10.894  1.00  0.00    -0.003 C 
ATOM     32  C   UNL     1      -3.842  -4.078  11.928  1.00  0.00     0.004 C 
ENDBRANCH  30  31
ENDBRANCH  29  30
ENDBRANCH  28  29
ENDBRANCH  27  28
ENDBRANCH  26  27
ENDBRANCH  25  26
ENDBRANCH  24  25
ENDBRANCH  23  24
ENDBRANCH  22  23
ENDBRANCH  21  22
ENDBRANCH  20  21
ENDBRANCH  19  20
ENDBRANCH  18  19
ENDBRANCH   1  18
TORSDOF 28
ENDMDL
MODEL 4
REMARK VINA RESULT:    -4.164      1.450      3.772
REMARK INTER + INTRA:         -17.204
REMARK INTER:                 -11.502
REMARK INTRA:                  -5.702
REMARK UNBOUND:                -6.224
REMARK SMILES CCCCCCCCCCCCCCCCCCCCCCCCCCCCCC(=O)[O-]
REMARK SMILES IDX 16 1 17 2 18 3 19 4 20 5 21 6 22 7 23 8 24 9 25 10 26 11
REMARK SMILES IDX 27 12 28 13 29 14 30 15 31 16 32 17 15 18 14 19 13 20 12 21
REMARK SMILES IDX 11 22 10 23 9 24 8 25 7 26 6 27 5 28 4 29 3 30 2 31 1 32
REMARK H PARENT
REMARK Flexibility Score: inf
ROOT
ATOM      1  C   UNL     1      -3.632   2.940  10.285  1.00  0.00     0.000 C 
ENDROOT
BRANCH   1   2
ATOM      2  C   UNL     1      -4.374   1.593  10.374  1.00  0.00     0.000 C 
BRANCH   2   3
ATOM      3  C   UNL     1      -4.186   0.820  11.693  1.00  0.00     0.000 C 
BRANCH   3   4
ATOM      4  C   UNL     1      -5.295   1.105  12.723  1.00  0.00     0.000 C 
BRANCH   4   5
ATOM      5  C   UNL     1      -4.761   1.711  14.034  1.00  0.00     0.000 C 
BRANCH   5   6
ATOM      6  C   UNL     1      -3.295   1.378  14.369  1.00  0.00     0.000 C 
BRANCH   6   7
ATOM      7  C   UNL     1      -2.628   2.439  15.262  1.00  0.00     0.000 C 
BRANCH   7   8
ATOM      8  C   UNL     1      -1.623   3.320  14.499  1.00  0.00     0.000 C 
BRANCH   8   9
ATOM      9  C   UNL     1      -2.243   4.471  13.686  1.00  0.00     0.000 C 
BRANCH   9  10
ATOM     10  C   UNL     1      -3.371   5.200  14.436  1.00  0.00     0.000 C 
BRANCH  10  11
ATOM     11  C   UNL     1      -4.624   5.389  13.564  1.00  0.00     0.000 C 
BRANCH  11  12
ATOM     12  C   UNL     1      -5.773   6.063  14.334  1.00  0.00     0.000 C 
BRANCH  12  13
ATOM     13  C   UNL     1      -7.157   5.511  13.943  1.00  0.00     0.006 C 
BRANCH  13  14
ATOM     14  C   UNL     1      -7.485   4.139  14.551  1.00  0.00     0.053 C 
BRANCH  14  15
ATOM     15  C   UNL     1      -7.347   4.138  16.043  1.00  0.00     0.041 C 
ATOM     16  O   UNL     1      -8.123   4.835  16.750  1.00  0.00    -0.550 OA
ATOM     17  O   UNL     1      -6.386   3.341  16.653  1.00  0.00    -0.550 OA
ENDBRANCH  14  15
ENDBRANCH  13  14
ENDBRANCH  12  13
ENDBRANCH  11  12
ENDBRANCH  10  11
ENDBRANCH   9  10
ENDBRANCH   8   9
ENDBRANCH   7   8
ENDBRANCH   6   7
ENDBRANCH   5   6
ENDBRANCH   4   5
ENDBRANCH   3   4
ENDBRANCH   2   3
ENDBRANCH   1   2
BRANCH   1  18
ATOM     18  C   UNL     1      -2.113   2.874  10.531  1.00  0.00     0.000 C 
BRANCH  18  19
ATOM     19  C   UNL     1      -1.355   1.943   9.560  1.00  0.00     0.000 C 
BRANCH  19  20
ATOM     20  C   UNL     1      -0.448   0.932  10.284  1.00  0.00     0.000 C 
BRANCH  20  21
ATOM     21  C   UNL     1      -0.375   1.177  11.801  1.00  0.00     0.000 C 
BRANCH  21  22
ATOM     22  C   UNL     1      -0.432  -0.126  12.618  1.00  0.00     0.000 C 
BRANCH  22  23
ATOM     23  C   UNL     1      -1.329  -1.188  11.961  1.00  0.00     0.000 C 
BRANCH  23  24
ATOM     24  C   UNL     1      -0.709  -2.595  12.011  1.00  0.00    -0.000 C 
BRANCH  24  25
ATOM     25  C   UNL     1      -1.621  -3.673  11.396  1.00  0.00    -0.000 C 
BRANCH  25  26
ATOM     26  C   UNL     1      -3.127  -3.486  11.667  1.00  0.00    -0.000 C 
BRANCH  26  27
ATOM     27  C   UNL     1      -4.011  -4.074  10.556  1.00  0.00    -0.000 C 
BRANCH  27  28
ATOM     28  C   UNL     1      -3.618  -3.576   9.154  1.00  0.00    -0.000 C 
BRANCH  28  29
ATOM     29  C   UNL     1      -4.033  -2.114   8.876  1.00  0.00    -0.000 C 
BRANCH  29  30
ATOM     30  C   UNL     1      -2.830  -1.234   8.504  1.00  0.00    -0.000 C 
BRANCH  30  31
ATOM     31  C   UNL     1      -1.578  -2.083   8.257  1.00  0.00    -0.003 C 
ATOM     32  C   UNL     1      -0.837  -1.624   7.004  1.00  0.00     0.004 C 
ENDBRANCH  30  31
ENDBRANCH  29  30
ENDBRANCH  28  29
ENDBRANCH  27  28
ENDBRANCH  26  27
ENDBRANCH  25  26
ENDBRANCH  24  25
ENDBRANCH  23  24
ENDBRANCH  22  23
ENDBRANCH  21  22
ENDBRANCH  20  21
ENDBRANCH  19  20
ENDBRANCH  18  19
ENDBRANCH   1  18
TORSDOF 28
ENDMDL
MODEL 5
REMARK VINA RESULT:    -4.156      1.586      4.442
REMARK INTER + INTRA:         -17.182
REMARK INTER:                 -11.704
REMARK INTRA:                  -5.478
REMARK UNBOUND:                -6.224
REMARK SMILES CCCCCCCCCCCCCCCCCCCCCCCCCCCCCC(=O)[O-]
REMARK SMILES IDX 16 1 17 2 18 3 19 4 20 5 21 6 22 7 23 8 24 9 25 10 26 11
REMARK SMILES IDX 27 12 28 13 29 14 30 15 31 16 32 17 15 18 14 19 13 20 12 21
REMARK SMILES IDX 11 22 10 23 9 24 8 25 7 26 6 27 5 28 4 29 3 30 2 31 1 32
REMARK H PARENT
REMARK Flexibility Score: inf
ROOT
ATOM      1  C   UNL     1      -3.999  -0.677  10.374  1.00  0.00     0.000 C 
ENDROOT
BRANCH   1   2
ATOM      2  C   UNL     1      -3.534   0.457  11.306  1.00  0.00     0.000 C 
BRANCH   2   3
ATOM      3  C   UNL     1      -3.930   1.880  10.866  1.00  0.00     0.000 C 
BRANCH   3   4
ATOM      4  C   UNL     1      -2.812   2.915  11.093  1.00  0.00     0.000 C 
BRANCH   4   5
ATOM      5  C   UNL     1      -1.417   2.277  11.228  1.00  0.00     0.000 C 
BRANCH   5   6
ATOM      6  C   UNL     1      -0.412   3.058  12.094  1.00  0.00     0.000 C 
BRANCH   6   7
ATOM      7  C   UNL     1      -0.461   2.657  13.579  1.00  0.00     0.000 C 
BRANCH   7   8
ATOM      8  C   UNL     1      -0.861   1.185  13.790  1.00  0.00     0.000 C 
BRANCH   8   9
ATOM      9  C   UNL     1      -1.933   0.942  14.868  1.00  0.00     0.000 C 
BRANCH   9  10
ATOM     10  C   UNL     1      -2.990   2.058  14.929  1.00  0.00     0.000 C 
BRANCH  10  11
ATOM     11  C   UNL     1      -4.405   1.538  14.626  1.00  0.00     0.000 C 
BRANCH  11  12
ATOM     12  C   UNL     1      -5.354   2.661  14.170  1.00  0.00     0.000 C 
BRANCH  12  13
ATOM     13  C   UNL     1      -5.435   3.819  15.183  1.00  0.00     0.006 C 
BRANCH  13  14
ATOM     14  C   UNL     1      -6.320   3.529  16.405  1.00  0.00     0.053 C 
BRANCH  14  15
ATOM     15  C   UNL     1      -7.645   4.221  16.316  1.00  0.00     0.041 C 
ATOM     16  O   UNL     1      -8.601   3.680  15.699  1.00  0.00    -0.550 OA
ATOM     17  O   UNL     1      -7.836   5.446  16.945  1.00  0.00    -0.550 OA
ENDBRANCH  14  15
ENDBRANCH  13  14
ENDBRANCH  12  13
ENDBRANCH  11  12
ENDBRANCH  10  11
ENDBRANCH   9  10
ENDBRANCH   8   9
ENDBRANCH   7   8
ENDBRANCH   6   7
ENDBRANCH   5   6
ENDBRANCH   4   5
ENDBRANCH   3   4
ENDBRANCH   2   3
ENDBRANCH   1   2
BRANCH   1  18
ATOM     18  C   UNL     1      -3.681  -0.475   8.880  1.00  0.00     0.000 C 
BRANCH  18  19
ATOM     19  C   UNL     1      -2.172  -0.401   8.559  1.00  0.00     0.000 C 
BRANCH  19  20
ATOM     20  C   UNL     1      -1.706  -1.520   7.610  1.00  0.00     0.000 C 
BRANCH  20  21
ATOM     21  C   UNL     1      -0.175  -1.623   7.516  1.00  0.00     0.000 C 
BRANCH  21  22
ATOM     22  C   UNL     1       0.547  -0.588   8.397  1.00  0.00     0.000 C 
BRANCH  22  23
ATOM     23  C   UNL     1       1.694  -1.212   9.209  1.00  0.00     0.000 C 
BRANCH  23  24
ATOM     24  C   UNL     1       1.535  -0.986  10.722  1.00  0.00    -0.000 C 
BRANCH  24  25
ATOM     25  C   UNL     1       0.074  -1.111  11.195  1.00  0.00    -0.000 C 
BRANCH  25  26
ATOM     26  C   UNL     1      -0.174  -2.189  12.268  1.00  0.00    -0.000 C 
BRANCH  26  27
ATOM     27  C   UNL     1      -1.404  -3.060  11.966  1.00  0.00    -0.000 C 
BRANCH  27  28
ATOM     28  C   UNL     1      -1.451  -3.541  10.505  1.00  0.00    -0.000 C 
BRANCH  28  29
ATOM     29  C   UNL     1      -2.834  -4.075  10.071  1.00  0.00    -0.000 C 
BRANCH  29  30
ATOM     30  C   UNL     1      -3.809  -4.180  11.255  1.00  0.00    -0.000 C 
BRANCH  30  31
ATOM     31  C   UNL     1      -4.915  -5.203  10.973  1.00  0.00    -0.003 C 
ATOM     32  C   UNL     1      -5.551  -4.965   9.606  1.00  0.00     0.004 C 
ENDBRANCH  30  31
ENDBRANCH  29  30
ENDBRANCH  28  29
ENDBRANCH  27  28
ENDBRANCH  26  27
ENDBRANCH  25  26
ENDBRANCH  24  25
ENDBRANCH  23  24
ENDBRANCH  22  23
ENDBRANCH  21  22
ENDBRANCH  20  21
ENDBRANCH  19  20
ENDBRANCH  18  19
ENDBRANCH   1  18
TORSDOF 28
ENDMDL
MODEL 6
REMARK VINA RESULT:    -4.155      1.225      2.839
REMARK INTER + INTRA:         -17.182
REMARK INTER:                 -11.734
REMARK INTRA:                  -5.448
REMARK UNBOUND:                -6.224
REMARK SMILES CCCCCCCCCCCCCCCCCCCCCCCCCCCCCC(=O)[O-]
REMARK SMILES IDX 16 1 17 2 18 3 19 4 20 5 21 6 22 7 23 8 24 9 25 10 26 11
REMARK SMILES IDX 27 12 28 13 29 14 30 15 31 16 32 17 15 18 14 19 13 20 12 21
REMARK SMILES IDX 11 22 10 23 9 24 8 25 7 26 6 27 5 28 4 29 3 30 2 31 1 32
REMARK H PARENT
REMARK Flexibility Score: inf
ROOT
ATOM      1  C   UNL     1      -2.843   2.517  14.951  1.00  0.00     0.000 C 
ENDROOT
BRANCH   1   2
ATOM      2  C   UNL     1      -4.337   2.148  15.015  1.00  0.00     0.000 C 
BRANCH   2   3
ATOM      3  C   UNL     1      -5.031   1.958  13.653  1.00  0.00     0.000 C 
BRANCH   3   4
ATOM      4  C   UNL     1      -4.960   0.509  13.137  1.00  0.00     0.000 C 
BRANCH   4   5
ATOM      5  C   UNL     1      -4.405   0.405  11.704  1.00  0.00     0.000 C 
BRANCH   5   6
ATOM      6  C   UNL     1      -4.329   1.730  10.924  1.00  0.00     0.000 C 
BRANCH   6   7
ATOM      7  C   UNL     1      -3.065   1.844  10.054  1.00  0.00     0.000 C 
BRANCH   7   8
ATOM      8  C   UNL     1      -2.298   3.160  10.280  1.00  0.00     0.000 C 
BRANCH   8   9
ATOM      9  C   UNL     1      -2.473   3.793  11.672  1.00  0.00     0.000 C 
BRANCH   9  10
ATOM     10  C   UNL     1      -3.188   5.155  11.630  1.00  0.00     0.000 C 
BRANCH  10  11
ATOM     11  C   UNL     1      -4.378   5.219  12.601  1.00  0.00     0.000 C 
BRANCH  11  12
ATOM     12  C   UNL     1      -3.999   5.864  13.946  1.00  0.00     0.000 C 
BRANCH  12  13
ATOM     13  C   UNL     1      -5.199   5.999  14.902  1.00  0.00     0.006 C 
BRANCH  13  14
ATOM     14  C   UNL     1      -6.480   5.308  14.409  1.00  0.00     0.053 C 
BRANCH  14  15
ATOM     15  C   UNL     1      -7.264   4.708  15.536  1.00  0.00     0.041 C 
ATOM     16  O   UNL     1      -7.649   3.511  15.471  1.00  0.00    -0.550 OA
ATOM     17  O   UNL     1      -7.536   5.460  16.673  1.00  0.00    -0.550 OA
ENDBRANCH  14  15
ENDBRANCH  13  14
ENDBRANCH  12  13
ENDBRANCH  11  12
ENDBRANCH  10  11
ENDBRANCH   9  10
ENDBRANCH   8   9
ENDBRANCH   7   8
ENDBRANCH   6   7
ENDBRANCH   5   6
ENDBRANCH   4   5
ENDBRANCH   3   4
ENDBRANCH   2   3
ENDBRANCH   1   2
BRANCH   1  18
ATOM     18  C   UNL     1      -1.873   1.427  15.445  1.00  0.00     0.000 C 
BRANCH  18  19
ATOM     19  C   UNL     1      -0.824   0.993  14.399  1.00  0.00     0.000 C 
BRANCH  19  20
ATOM     20  C   UNL     1      -1.451   0.323  13.163  1.00  0.00     0.000 C 
BRANCH  20  21
ATOM     21  C   UNL     1      -0.442   0.115  12.022  1.00  0.00     0.000 C 
BRANCH  21  22
ATOM     22  C   UNL     1      -0.670  -1.200  11.256  1.00  0.00     0.000 C 
BRANCH  22  23
ATOM     23  C   UNL     1      -1.004  -2.371  12.195  1.00  0.00     0.000 C 
BRANCH  23  24
ATOM     24  C   UNL     1      -1.631  -3.563  11.451  1.00  0.00    -0.000 C 
BRANCH  24  25
ATOM     25  C   UNL     1      -3.168  -3.585  11.543  1.00  0.00    -0.000 C 
BRANCH  25  26
ATOM     26  C   UNL     1      -3.878  -4.364  10.419  1.00  0.00    -0.000 C 
BRANCH  26  27
ATOM     27  C   UNL     1      -3.708  -3.709   9.039  1.00  0.00    -0.000 C 
BRANCH  27  28
ATOM     28  C   UNL     1      -3.841  -2.176   9.086  1.00  0.00    -0.000 C 
BRANCH  28  29
ATOM     29  C   UNL     1      -2.791  -1.436   8.228  1.00  0.00    -0.000 C 
BRANCH  29  30
ATOM     30  C   UNL     1      -1.592  -2.333   7.883  1.00  0.00    -0.000 C 
BRANCH  30  31
ATOM     31  C   UNL     1      -0.323  -1.500   7.663  1.00  0.00    -0.003 C 
ATOM     32  C   UNL     1       0.300  -1.793   6.301  1.00  0.00     0.004 C 
ENDBRANCH  30  31
ENDBRANCH  29  30
ENDBRANCH  28  29
ENDBRANCH  27  28
ENDBRANCH  26  27
ENDBRANCH  25  26
ENDBRANCH  24  25
ENDBRANCH  23  24
ENDBRANCH  22  23
ENDBRANCH  21  22
ENDBRANCH  20  21
ENDBRANCH  19  20
ENDBRANCH  18  19
ENDBRANCH   1  18
TORSDOF 28
ENDMDL
MODEL 7
REMARK VINA RESULT:    -4.138      2.422      7.537
REMARK INTER + INTRA:         -17.136
REMARK INTER:                 -11.424
REMARK INTRA:                  -5.712
REMARK UNBOUND:                -6.224
REMARK SMILES CCCCCCCCCCCCCCCCCCCCCCCCCCCCCC(=O)[O-]
REMARK SMILES IDX 16 1 17 2 18 3 19 4 20 5 21 6 22 7 23 8 24 9 25 10 26 11
REMARK SMILES IDX 27 12 28 13 29 14 30 15 31 16 32 17 15 18 14 19 13 20 12 21
REMARK SMILES IDX 11 22 10 23 9 24 8 25 7 26 6 27 5 28 4 29 3 30 2 31 1 32
REMARK H PARENT
REMARK Flexibility Score: inf
ROOT
ATOM      1  C   UNL     1      -1.060  -2.925   7.897  1.00  0.00     0.000 C 
ENDROOT
BRANCH   1   2
ATOM      2  C   UNL     1      -2.141  -3.832   8.515  1.00  0.00     0.000 C 
BRANCH   2   3
ATOM      3  C   UNL     1      -3.497  -3.153   8.788  1.00  0.00     0.000 C 
BRANCH   3   4
ATOM      4  C   UNL     1      -3.866  -3.121  10.283  1.00  0.00     0.000 C 
BRANCH   4   5
ATOM      5  C   UNL     1      -2.780  -3.735  11.186  1.00  0.00     0.000 C 
BRANCH   5   6
ATOM      6  C   UNL     1      -1.863  -2.725  11.899  1.00  0.00     0.000 C 
BRANCH   6   7
ATOM      7  C   UNL     1      -0.501  -3.324  12.292  1.00  0.00     0.000 C 
BRANCH   7   8
ATOM      8  C   UNL     1       0.604  -3.029  11.261  1.00  0.00     0.000 C 
BRANCH   8   9
ATOM      9  C   UNL     1       1.519  -1.838  11.599  1.00  0.00     0.000 C 
BRANCH   9  10
ATOM     10  C   UNL     1       1.259  -1.257  13.000  1.00  0.00     0.000 C 
BRANCH  10  11
ATOM     11  C   UNL     1       0.747   0.192  12.944  1.00  0.00     0.000 C 
BRANCH  11  12
ATOM     12  C   UNL     1      -0.688   0.324  13.484  1.00  0.00     0.000 C 
BRANCH  12  13
ATOM     13  C   UNL     1      -0.855   1.513  14.449  1.00  0.00     0.006 C 
BRANCH  13  14
ATOM     14  C   UNL     1      -1.334   1.123  15.855  1.00  0.00     0.053 C 
BRANCH  14  15
ATOM     15  C   UNL     1      -0.228   1.188  16.864  1.00  0.00     0.041 C 
ATOM     16  O   UNL     1      -0.440   1.682  18.003  1.00  0.00    -0.550 OA
ATOM     17  O   UNL     1       1.024   0.668  16.559  1.00  0.00    -0.550 OA
ENDBRANCH  14  15
ENDBRANCH  13  14
ENDBRANCH  12  13
ENDBRANCH  11  12
ENDBRANCH  10  11
ENDBRANCH   9  10
ENDBRANCH   8   9
ENDBRANCH   7   8
ENDBRANCH   6   7
ENDBRANCH   5   6
ENDBRANCH   4   5
ENDBRANCH   3   4
ENDBRANCH   2   3
ENDBRANCH   1   2
BRANCH   1  18
ATOM     18  C   UNL     1      -1.427  -1.432   7.800  1.00  0.00     0.000 C 
BRANCH  18  19
ATOM     19  C   UNL     1      -0.701  -0.535   8.826  1.00  0.00     0.000 C 
BRANCH  19  20
ATOM     20  C   UNL     1      -1.664   0.144   9.816  1.00  0.00     0.000 C 
BRANCH  20  21
ATOM     21  C   UNL     1      -3.035   0.458   9.193  1.00  0.00     0.000 C 
BRANCH  21  22
ATOM     22  C   UNL     1      -4.048   0.993  10.220  1.00  0.00     0.000 C 
BRANCH  22  23
ATOM     23  C   UNL     1      -3.721   0.540  11.653  1.00  0.00     0.000 C 
BRANCH  23  24
ATOM     24  C   UNL     1      -4.940   0.616  12.588  1.00  0.00    -0.000 C 
BRANCH  24  25
ATOM     25  C   UNL     1      -4.758   1.637  13.726  1.00  0.00    -0.000 C 
BRANCH  25  26
ATOM     26  C   UNL     1      -4.067   2.953  13.318  1.00  0.00    -0.000 C 
BRANCH  26  27
ATOM     27  C   UNL     1      -3.765   3.866  14.518  1.00  0.00    -0.000 C 
BRANCH  27  28
ATOM     28  C   UNL     1      -4.331   3.321  15.840  1.00  0.00    -0.000 C 
BRANCH  28  29
ATOM     29  C   UNL     1      -5.533   4.127  16.380  1.00  0.00    -0.000 C 
BRANCH  29  30
ATOM     30  C   UNL     1      -6.838   3.315  16.339  1.00  0.00    -0.000 C 
BRANCH  30  31
ATOM     31  C   UNL     1      -7.686   3.692  15.119  1.00  0.00    -0.003 C 
ATOM     32  C   UNL     1      -7.264   5.043  14.548  1.00  0.00     0.004 C 
ENDBRANCH  30  31
ENDBRANCH  29  30
ENDBRANCH  28  29
ENDBRANCH  27  28
ENDBRANCH  26  27
ENDBRANCH  25  26
ENDBRANCH  24  25
ENDBRANCH  23  24
ENDBRANCH  22  23
ENDBRANCH  21  22
ENDBRANCH  20  21
ENDBRANCH  19  20
ENDBRANCH  18  19
ENDBRANCH   1  18
TORSDOF 28
ENDMDL
MODEL 8
REMARK VINA RESULT:    -4.133      1.287      3.718
REMARK INTER + INTRA:         -17.123
REMARK INTER:                 -10.708
REMARK INTRA:                  -6.414
REMARK UNBOUND:                -6.224
REMARK SMILES CCCCCCCCCCCCCCCCCCCCCCCCCCCCCC(=O)[O-]
REMARK SMILES IDX 16 1 17 2 18 3 19 4 20 5 21 6 22 7 23 8 24 9 25 10 26 11
REMARK SMILES IDX 27 12 28 13 29 14 30 15 31 16 32 17 15 18 14 19 13 20 12 21
REMARK SMILES IDX 11 22 10 23 9 24 8 25 7 26 6 27 5 28 4 29 3 30 2 31 1 32
REMARK H PARENT
REMARK Flexibility Score: inf
ROOT
ATOM      1  C   UNL     1      -5.619   2.307  14.155  1.00  0.00     0.000 C 
ENDROOT
BRANCH   1   2
ATOM      2  C   UNL     1      -4.676   2.199  15.367  1.00  0.00     0.000 C 
BRANCH   2   3
ATOM      3  C   UNL     1      -3.195   2.515  15.084  1.00  0.00     0.000 C 
BRANCH   3   4
ATOM      4  C   UNL     1      -2.269   1.301  15.284  1.00  0.00     0.000 C 
BRANCH   4   5
ATOM      5  C   UNL     1      -1.130   1.233  14.250  1.00  0.00     0.000 C 
BRANCH   5   6
ATOM      6  C   UNL     1      -1.358   2.040  12.958  1.00  0.00     0.000 C 
BRANCH   6   7
ATOM      7  C   UNL     1      -0.050   2.562  12.338  1.00  0.00     0.000 C 
BRANCH   7   8
ATOM      8  C   UNL     1      -0.247   3.146  10.927  1.00  0.00     0.000 C 
BRANCH   8   9
ATOM      9  C   UNL     1      -1.065   4.449  10.863  1.00  0.00     0.000 C 
BRANCH   9  10
ATOM     10  C   UNL     1      -2.347   4.315  10.022  1.00  0.00     0.000 C 
BRANCH  10  11
ATOM     11  C   UNL     1      -3.619   4.525  10.860  1.00  0.00     0.000 C 
BRANCH  11  12
ATOM     12  C   UNL     1      -3.308   5.064  12.267  1.00  0.00     0.000 C 
BRANCH  12  13
ATOM     13  C   UNL     1      -4.553   5.626  12.979  1.00  0.00     0.006 C 
BRANCH  13  14
ATOM     14  C   UNL     1      -4.319   6.018  14.446  1.00  0.00     0.053 C 
BRANCH  14  15
ATOM     15  C   UNL     1      -5.552   5.841  15.278  1.00  0.00     0.041 C 
ATOM     16  O   UNL     1      -6.688   5.832  14.731  1.00  0.00    -0.550 OA
ATOM     17  O   UNL     1      -5.446   5.650  16.650  1.00  0.00    -0.550 OA
ENDBRANCH  14  15
ENDBRANCH  13  14
ENDBRANCH  12  13
ENDBRANCH  11  12
ENDBRANCH  10  11
ENDBRANCH   9  10
ENDBRANCH   8   9
ENDBRANCH   7   8
ENDBRANCH   6   7
ENDBRANCH   5   6
ENDBRANCH   4   5
ENDBRANCH   3   4
ENDBRANCH   2   3
ENDBRANCH   1   2
BRANCH   1  18
ATOM     18  C   UNL     1      -5.044   1.787  12.823  1.00  0.00     0.000 C 
BRANCH  18  19
ATOM     19  C   UNL     1      -4.905   0.251  12.752  1.00  0.00     0.000 C 
BRANCH  19  20
ATOM     20  C   UNL     1      -3.884  -0.209  11.695  1.00  0.00     0.000 C 
BRANCH  20  21
ATOM     21  C   UNL     1      -3.653   0.838  10.593  1.00  0.00     0.000 C 
BRANCH  21  22
ATOM     22  C   UNL     1      -3.337   0.206   9.226  1.00  0.00     0.000 C 
BRANCH  22  23
ATOM     23  C   UNL     1      -4.302  -0.940   8.876  1.00  0.00     0.000 C 
BRANCH  23  24
ATOM     24  C   UNL     1      -3.564  -2.223   8.458  1.00  0.00    -0.000 C 
BRANCH  24  25
ATOM     25  C   UNL     1      -3.892  -3.424   9.364  1.00  0.00    -0.000 C 
BRANCH  25  26
ATOM     26  C   UNL     1      -2.705  -3.964  10.186  1.00  0.00    -0.000 C 
BRANCH  26  27
ATOM     27  C   UNL     1      -2.780  -3.572  11.671  1.00  0.00    -0.000 C 
BRANCH  27  28
ATOM     28  C   UNL     1      -1.410  -3.620  12.370  1.00  0.00    -0.000 C 
BRANCH  28  29
ATOM     29  C   UNL     1      -0.289  -2.899  11.588  1.00  0.00    -0.000 C 
BRANCH  29  30
ATOM     30  C   UNL     1      -0.371  -1.372  11.738  1.00  0.00    -0.000 C 
BRANCH  30  31
ATOM     31  C   UNL     1      -0.142  -0.670  10.394  1.00  0.00    -0.003 C 
ATOM     32  C   UNL     1       0.100  -1.682   9.277  1.00  0.00     0.004 C 
ENDBRANCH  30  31
ENDBRANCH  29  30
ENDBRANCH  28  29
ENDBRANCH  27  28
ENDBRANCH  26  27
ENDBRANCH  25  26
ENDBRANCH  24  25
ENDBRANCH  23  24
ENDBRANCH  22  23
ENDBRANCH  21  22
ENDBRANCH  20  21
ENDBRANCH  19  20
ENDBRANCH  18  19
ENDBRANCH   1  18
TORSDOF 28
ENDMDL
MODEL 9
REMARK VINA RESULT:    -4.094      1.534      3.546
REMARK INTER + INTRA:         -17.021
REMARK INTER:                 -11.736
REMARK INTRA:                  -5.285
REMARK UNBOUND:                -6.224
REMARK SMILES CCCCCCCCCCCCCCCCCCCCCCCCCCCCCC(=O)[O-]
REMARK SMILES IDX 16 1 17 2 18 3 19 4 20 5 21 6 22 7 23 8 24 9 25 10 26 11
REMARK SMILES IDX 27 12 28 13 29 14 30 15 31 16 32 17 15 18 14 19 13 20 12 21
REMARK SMILES IDX 11 22 10 23 9 24 8 25 7 26 6 27 5 28 4 29 3 30 2 31 1 32
REMARK H PARENT
REMARK Flexibility Score: inf
ROOT
ATOM      1  C   UNL     1      -3.089   2.165  15.127  1.00  0.00     0.000 C 
ENDROOT
BRANCH   1   2
ATOM      2  C   UNL     1      -4.586   1.892  14.885  1.00  0.00     0.000 C 
BRANCH   2   3
ATOM      3  C   UNL     1      -4.904   0.937  13.719  1.00  0.00     0.000 C 
BRANCH   3   4
ATOM      4  C   UNL     1      -5.091   1.665  12.376  1.00  0.00     0.000 C 
BRANCH   4   5
ATOM      5  C   UNL     1      -4.278   1.036  11.229  1.00  0.00     0.000 C 
BRANCH   5   6
ATOM      6  C   UNL     1      -4.036   1.945  10.010  1.00  0.00     0.000 C 
BRANCH   6   7
ATOM      7  C   UNL     1      -2.953   3.009  10.261  1.00  0.00     0.000 C 
BRANCH   7   8
ATOM      8  C   UNL     1      -3.420   4.435   9.914  1.00  0.00     0.000 C 
BRANCH   8   9
ATOM      9  C   UNL     1      -3.031   5.521  10.933  1.00  0.00     0.000 C 
BRANCH   9  10
ATOM     10  C   UNL     1      -3.137   5.045  12.392  1.00  0.00     0.000 C 
BRANCH  10  11
ATOM     11  C   UNL     1      -4.580   5.106  12.922  1.00  0.00     0.000 C 
BRANCH  11  12
ATOM     12  C   UNL     1      -4.693   5.944  14.208  1.00  0.00     0.000 C 
BRANCH  12  13
ATOM     13  C   UNL     1      -5.724   5.375  15.201  1.00  0.00     0.006 C 
BRANCH  13  14
ATOM     14  C   UNL     1      -6.952   4.732  14.538  1.00  0.00     0.053 C 
BRANCH  14  15
ATOM     15  C   UNL     1      -7.983   4.322  15.544  1.00  0.00     0.041 C 
ATOM     16  O   UNL     1      -7.738   4.420  16.776  1.00  0.00    -0.550 OA
ATOM     17  O   UNL     1      -9.227   3.868  15.122  1.00  0.00    -0.550 OA
ENDBRANCH  14  15
ENDBRANCH  13  14
ENDBRANCH  12  13
ENDBRANCH  11  12
ENDBRANCH  10  11
ENDBRANCH   9  10
ENDBRANCH   8   9
ENDBRANCH   7   8
ENDBRANCH   6   7
ENDBRANCH   5   6
ENDBRANCH   4   5
ENDBRANCH   3   4
ENDBRANCH   2   3
ENDBRANCH   1   2
BRANCH   1  18
ATOM     18  C   UNL     1      -2.125   1.106  14.559  1.00  0.00     0.000 C 
BRANCH  18  19
ATOM     19  C   UNL     1      -1.281   1.597  13.363  1.00  0.00     0.000 C 
BRANCH  19  20
ATOM     20  C   UNL     1      -0.574   0.450  12.619  1.00  0.00     0.000 C 
BRANCH  20  21
ATOM     21  C   UNL     1      -0.424   0.720  11.112  1.00  0.00     0.000 C 
BRANCH  21  22
ATOM     22  C   UNL     1      -0.712  -0.523  10.252  1.00  0.00     0.000 C 
BRANCH  22  23
ATOM     23  C   UNL     1      -1.216  -0.156   8.846  1.00  0.00     0.000 C 
BRANCH  23  24
ATOM     24  C   UNL     1      -1.955  -1.319   8.163  1.00  0.00    -0.000 C 
BRANCH  24  25
ATOM     25  C   UNL     1      -3.443  -1.395   8.554  1.00  0.00    -0.000 C 
BRANCH  25  26
ATOM     26  C   UNL     1      -3.854  -2.674   9.309  1.00  0.00    -0.000 C 
BRANCH  26  27
ATOM     27  C   UNL     1      -3.579  -2.590  10.819  1.00  0.00    -0.000 C 
BRANCH  27  28
ATOM     28  C   UNL     1      -2.777  -3.793  11.346  1.00  0.00    -0.000 C 
BRANCH  28  29
ATOM     29  C   UNL     1      -1.623  -3.401  12.296  1.00  0.00    -0.000 C 
BRANCH  29  30
ATOM     30  C   UNL     1      -0.246  -3.706  11.686  1.00  0.00    -0.000 C 
BRANCH  30  31
ATOM     31  C   UNL     1       0.884  -3.306  12.642  1.00  0.00    -0.003 C 
ATOM     32  C   UNL     1       1.648  -4.531  13.137  1.00  0.00     0.004 C 
ENDBRANCH  30  31
ENDBRANCH  29  30
ENDBRANCH  28  29
ENDBRANCH  27  28
ENDBRANCH  26  27
ENDBRANCH  25  26
ENDBRANCH  24  25
ENDBRANCH  23  24
ENDBRANCH  22  23
ENDBRANCH  21  22
ENDBRANCH  20  21
ENDBRANCH  19  20
ENDBRANCH  18  19
ENDBRANCH   1  18
TORSDOF 28
ENDMDL
