MODEL 1
REMARK VINA RESULT:    -3.606      0.000      0.000
REMARK INTER + INTRA:          -4.271
REMARK INTER:                  -4.239
REMARK INTRA:                  -0.032
REMARK UNBOUND:                -0.032
REMARK SMILES O=C([O-])CCC(=O)[O-]
REMARK SMILES IDX 4 1 2 2 1 3 3 4 5 5 6 6 7 7 8 8
REMARK H PARENT
REMARK Flexibility Score: inf
ROOT
ATOM      1  C   UNL     1     -19.883  -3.668 -13.348  1.00  0.00     0.059 C 
ENDROOT
BRANCH   1   2
ATOM      2  C   UNL     1     -18.582  -4.404 -13.286  1.00  0.00     0.042 C 
ATOM      3  O   UNL     1     -18.287  -5.245 -14.174  1.00  0.00    -0.550 OA
ATOM      4  O   UNL     1     -17.675  -4.125 -12.272  1.00  0.00    -0.550 OA
ENDBRANCH   1   2
BRANCH   1   5
ATOM      5  C   UNL     1     -19.814  -2.387 -12.515  1.00  0.00     0.059 C 
BRANCH   5   6
ATOM      6  C   UNL     1     -21.132  -1.680 -12.533  1.00  0.00     0.042 C 
ATOM      7  O   UNL     1     -21.583  -1.207 -13.608  1.00  0.00    -0.550 OA
ATOM      8  O   UNL     1     -21.840  -1.501 -11.351  1.00  0.00    -0.550 OA
ENDBRANCH   5   6
ENDBRANCH   1   5
TORSDOF 3
ENDMDL
MODEL 2
REMARK VINA RESULT:    -3.590      0.185      1.618
REMARK INTER + INTRA:          -4.252
REMARK INTER:                  -4.218
REMARK INTRA:                  -0.034
REMARK UNBOUND:                -0.032
REMARK SMILES O=C([O-])CCC(=O)[O-]
REMARK SMILES IDX 4 1 2 2 1 3 3 4 5 5 6 6 7 7 8 8
REMARK H PARENT
REMARK Flexibility Score: inf
ROOT
ATOM      1  C   UNL     1     -19.811  -3.702 -13.349  1.00  0.00     0.059 C 
ENDROOT
BRANCH   1   2
ATOM      2  C   UNL     1     -18.500  -4.413 -13.243  1.00  0.00     0.042 C 
ATOM      3  O   UNL     1     -17.709  -4.148 -12.300  1.00  0.00    -0.550 OA
ATOM      4  O   UNL     1     -18.171  -5.405 -14.158  1.00  0.00    -0.550 OA
ENDBRANCH   1   2
BRANCH   1   5
ATOM      5  C   UNL     1     -19.765  -2.377 -12.586  1.00  0.00     0.059 C 
BRANCH   5   6
ATOM      6  C   UNL     1     -21.135  -1.788 -12.476  1.00  0.00     0.042 C 
ATOM      7  O   UNL     1     -21.794  -1.912 -11.410  1.00  0.00    -0.550 OA
ATOM      8  O   UNL     1     -21.705  -1.145 -13.567  1.00  0.00    -0.550 OA
ENDBRANCH   5   6
ENDBRANCH   1   5
TORSDOF 3
ENDMDL
MODEL 3
REMARK VINA RESULT:    -3.588      0.183      4.287
REMARK INTER + INTRA:          -4.249
REMARK INTER:                  -4.215
REMARK INTRA:                  -0.034
REMARK UNBOUND:                -0.032
REMARK SMILES O=C([O-])CCC(=O)[O-]
REMARK SMILES IDX 4 1 2 2 1 3 3 4 5 5 6 6 7 7 8 8
REMARK H PARENT
REMARK Flexibility Score: inf
ROOT
ATOM      1  C   UNL     1     -19.890  -2.212 -12.504  1.00  0.00     0.059 C 
ENDROOT
BRANCH   1   2
ATOM      2  C   UNL     1     -21.217  -1.523 -12.520  1.00  0.00     0.042 C 
ATOM      3  O   UNL     1     -21.705  -1.113 -13.605  1.00  0.00    -0.550 OA
ATOM      4  O   UNL     1     -21.938  -1.377 -11.342  1.00  0.00    -0.550 OA
ENDBRANCH   1   2
BRANCH   1   5
ATOM      5  C   UNL     1     -19.965  -3.536 -13.266  1.00  0.00     0.059 C 
BRANCH   5   6
ATOM      6  C   UNL     1     -18.678  -4.288 -13.138  1.00  0.00     0.042 C 
ATOM      7  O   UNL     1     -17.911  -4.070 -12.164  1.00  0.00    -0.550 OA
ATOM      8  O   UNL     1     -18.302  -5.194 -14.121  1.00  0.00    -0.550 OA
ENDBRANCH   5   6
ENDBRANCH   1   5
TORSDOF 3
ENDMDL
MODEL 4
REMARK VINA RESULT:    -3.554      0.291      1.180
REMARK INTER + INTRA:          -4.210
REMARK INTER:                  -4.176
REMARK INTRA:                  -0.034
REMARK UNBOUND:                -0.032
REMARK SMILES O=C([O-])CCC(=O)[O-]
REMARK SMILES IDX 4 1 2 2 1 3 3 4 5 5 6 6 7 7 8 8
REMARK H PARENT
REMARK Flexibility Score: inf
ROOT
ATOM      1  C   UNL     1     -20.035  -3.442 -13.268  1.00  0.00     0.059 C 
ENDROOT
BRANCH   1   2
ATOM      2  C   UNL     1     -18.736  -4.175 -13.163  1.00  0.00     0.042 C 
ATOM      3  O   UNL     1     -17.963  -3.960 -12.193  1.00  0.00    -0.550 OA
ATOM      4  O   UNL     1     -18.401  -5.134 -14.110  1.00  0.00    -0.550 OA
ENDBRANCH   1   2
BRANCH   1   5
ATOM      5  C   UNL     1     -19.960  -2.111 -12.517  1.00  0.00     0.059 C 
BRANCH   5   6
ATOM      6  C   UNL     1     -21.291  -1.427 -12.530  1.00  0.00     0.042 C 
ATOM      7  O   UNL     1     -21.755  -0.965 -13.604  1.00  0.00    -0.550 OA
ATOM      8  O   UNL     1     -21.996  -1.258 -11.346  1.00  0.00    -0.550 OA
ENDBRANCH   5   6
ENDBRANCH   1   5
TORSDOF 3
ENDMDL
MODEL 5
REMARK VINA RESULT:    -3.538      1.203      4.260
REMARK INTER + INTRA:          -4.191
REMARK INTER:                  -4.105
REMARK INTRA:                  -0.086
REMARK UNBOUND:                -0.032
REMARK SMILES O=C([O-])CCC(=O)[O-]
REMARK SMILES IDX 4 1 2 2 1 3 3 4 5 5 6 6 7 7 8 8
REMARK H PARENT
REMARK Flexibility Score: inf
ROOT
ATOM      1  C   UNL     1     -20.953  -2.436 -12.954  1.00  0.00     0.059 C 
ENDROOT
BRANCH   1   2
ATOM      2  C   UNL     1     -21.685  -1.312 -12.292  1.00  0.00     0.042 C 
ATOM      3  O   UNL     1     -22.008  -0.290 -12.952  1.00  0.00    -0.550 OA
ATOM      4  O   UNL     1     -22.054  -1.414 -10.957  1.00  0.00    -0.550 OA
ENDBRANCH   1   2
BRANCH   1   5
ATOM      5  C   UNL     1     -19.484  -2.443 -12.526  1.00  0.00     0.059 C 
BRANCH   5   6
ATOM      6  C   UNL     1     -19.103  -3.784 -11.985  1.00  0.00     0.042 C 
ATOM      7  O   UNL     1     -19.375  -4.087 -10.794  1.00  0.00    -0.550 OA
ATOM      8  O   UNL     1     -18.402  -4.681 -12.781  1.00  0.00    -0.550 OA
ENDBRANCH   5   6
ENDBRANCH   1   5
TORSDOF 3
ENDMDL
MODEL 6
REMARK VINA RESULT:    -3.414      1.425      1.967
REMARK INTER + INTRA:          -4.045
REMARK INTER:                  -3.995
REMARK INTRA:                  -0.050
REMARK UNBOUND:                -0.032
REMARK SMILES O=C([O-])CCC(=O)[O-]
REMARK SMILES IDX 4 1 2 2 1 3 3 4 5 5 6 6 7 7 8 8
REMARK H PARENT
REMARK Flexibility Score: inf
ROOT
ATOM      1  C   UNL     1     -20.746  -2.731 -13.166  1.00  0.00     0.059 C 
ENDROOT
BRANCH   1   2
ATOM      2  C   UNL     1     -19.363  -3.148 -12.779  1.00  0.00     0.042 C 
ATOM      3  O   UNL     1     -19.031  -4.361 -12.825  1.00  0.00    -0.550 OA
ATOM      4  O   UNL     1     -18.425  -2.191 -12.414  1.00  0.00    -0.550 OA
ENDBRANCH   1   2
BRANCH   1   5
ATOM      5  C   UNL     1     -21.097  -1.385 -12.529  1.00  0.00     0.059 C 
BRANCH   5   6
ATOM      6  C   UNL     1     -22.365  -1.493 -11.742  1.00  0.00     0.042 C 
ATOM      7  O   UNL     1     -22.331  -1.491 -10.483  1.00  0.00    -0.550 OA
ATOM      8  O   UNL     1     -23.579  -1.645 -12.398  1.00  0.00    -0.550 OA
ENDBRANCH   5   6
ENDBRANCH   1   5
TORSDOF 3
ENDMDL
MODEL 7
REMARK VINA RESULT:    -3.140      1.831      4.621
REMARK INTER + INTRA:          -3.723
REMARK INTER:                  -3.686
REMARK INTRA:                  -0.037
REMARK UNBOUND:                -0.032
REMARK SMILES O=C([O-])CCC(=O)[O-]
REMARK SMILES IDX 4 1 2 2 1 3 3 4 5 5 6 6 7 7 8 8
REMARK H PARENT
REMARK Flexibility Score: inf
ROOT
ATOM      1  C   UNL     1     -21.669  -2.209 -11.300  1.00  0.00     0.059 C 
ENDROOT
BRANCH   1   2
ATOM      2  C   UNL     1     -23.080  -1.715 -11.316  1.00  0.00     0.042 C 
ATOM      3  O   UNL     1     -23.618  -1.300 -10.256  1.00  0.00    -0.550 OA
ATOM      4  O   UNL     1     -23.786  -1.666 -12.511  1.00  0.00    -0.550 OA
ENDBRANCH   1   2
BRANCH   1   5
ATOM      5  C   UNL     1     -20.937  -1.779 -12.573  1.00  0.00     0.059 C 
BRANCH   5   6
ATOM      6  C   UNL     1     -19.758  -2.664 -12.823  1.00  0.00     0.042 C 
ATOM      7  O   UNL     1     -19.918  -3.806 -13.327  1.00  0.00    -0.550 OA
ATOM      8  O   UNL     1     -18.485  -2.247 -12.454  1.00  0.00    -0.550 OA
ENDBRANCH   5   6
ENDBRANCH   1   5
TORSDOF 3
ENDMDL
MODEL 8
REMARK VINA RESULT:    -2.997      2.771      5.377
REMARK INTER + INTRA:          -3.555
REMARK INTER:                  -3.436
REMARK INTRA:                  -0.119
REMARK UNBOUND:                -0.032
REMARK SMILES O=C([O-])CCC(=O)[O-]
REMARK SMILES IDX 4 1 2 2 1 3 3 4 5 5 6 6 7 7 8 8
REMARK H PARENT
REMARK Flexibility Score: inf
ROOT
ATOM      1  C   UNL     1     -23.328  -2.118 -11.216  1.00  0.00     0.059 C 
ENDROOT
BRANCH   1   2
ATOM      2  C   UNL     1     -24.403  -1.098 -11.012  1.00  0.00     0.042 C 
ATOM      3  O   UNL     1     -24.953  -0.973  -9.887  1.00  0.00    -0.550 OA
ATOM      4  O   UNL     1     -24.763  -0.251 -12.052  1.00  0.00    -0.550 OA
ENDBRANCH   1   2
BRANCH   1   5
ATOM      5  C   UNL     1     -21.969  -1.436 -11.390  1.00  0.00     0.059 C 
BRANCH   5   6
ATOM      6  C   UNL     1     -21.503  -1.553 -12.807  1.00  0.00     0.042 C 
ATOM      7  O   UNL     1     -20.725  -2.483 -13.143  1.00  0.00    -0.550 OA
ATOM      8  O   UNL     1     -21.890  -0.606 -13.746  1.00  0.00    -0.550 OA
ENDBRANCH   5   6
ENDBRANCH   1   5
TORSDOF 3
ENDMDL
MODEL 9
REMARK VINA RESULT:    -2.994      3.024      4.302
REMARK INTER + INTRA:          -3.552
REMARK INTER:                  -3.443
REMARK INTRA:                  -0.109
REMARK UNBOUND:                -0.032
REMARK SMILES O=C([O-])CCC(=O)[O-]
REMARK SMILES IDX 4 1 2 2 1 3 3 4 5 5 6 6 7 7 8 8
REMARK H PARENT
REMARK Flexibility Score: inf
ROOT
ATOM      1  C   UNL     1     -22.802  -0.963 -11.808  1.00  0.00     0.059 C 
ENDROOT
BRANCH   1   2
ATOM      2  C   UNL     1     -21.735  -1.184 -12.832  1.00  0.00     0.042 C 
ATOM      3  O   UNL     1     -21.884  -0.753 -14.005  1.00  0.00    -0.550 OA
ATOM      4  O   UNL     1     -20.555  -1.824 -12.479  1.00  0.00    -0.550 OA
ENDBRANCH   1   2
BRANCH   1   5
ATOM      5  C   UNL     1     -23.860  -2.065 -11.890  1.00  0.00     0.059 C 
BRANCH   5   6
ATOM      6  C   UNL     1     -23.818  -2.924 -10.666  1.00  0.00     0.042 C 
ATOM      7  O   UNL     1     -22.822  -2.884  -9.898  1.00  0.00    -0.550 OA
ATOM      8  O   UNL     1     -24.858  -3.805 -10.400  1.00  0.00    -0.550 OA
ENDBRANCH   5   6
ENDBRANCH   1   5
TORSDOF 3
ENDMDL
