MODEL 1
REMARK VINA RESULT:    -3.878      0.000      0.000
REMARK INTER + INTRA:         -11.932
REMARK INTER:                  -8.412
REMARK INTRA:                  -3.521
REMARK UNBOUND:                -3.521
REMARK SMILES CCCCCCCCCCCCCCCCCCCCCC(=O)[O-]
REMARK SMILES IDX 12 1 11 2 10 3 9 4 8 5 7 6 6 7 5 8 4 9 3 10 2 11 1 12 13 13
REMARK SMILES IDX 14 14 15 15 16 16 17 17 18 18 19 19 20 20 21 21 22 22 23 23
REMARK SMILES IDX 24 24
REMARK H PARENT
REMARK Flexibility Score: inf
ROOT
ATOM      1  C   UNL     1     -31.475   7.200  -0.504  1.00  0.00     0.000 C 
ENDROOT
BRANCH   1   2
ATOM      2  C   UNL     1     -32.592   6.139  -0.610  1.00  0.00     0.000 C 
BRANCH   2   3
ATOM      3  C   UNL     1     -32.029   4.711  -0.716  1.00  0.00     0.000 C 
BRANCH   3   4
ATOM      4  C   UNL     1     -32.660   3.903  -1.866  1.00  0.00    -0.000 C 
BRANCH   4   5
ATOM      5  C   UNL     1     -32.680   4.623  -3.231  1.00  0.00    -0.000 C 
BRANCH   5   6
ATOM      6  C   UNL     1     -34.066   4.714  -3.901  1.00  0.00    -0.000 C 
BRANCH   6   7
ATOM      7  C   UNL     1     -35.234   4.147  -3.068  1.00  0.00    -0.000 C 
BRANCH   7   8
ATOM      8  C   UNL     1     -36.355   5.151  -2.744  1.00  0.00    -0.000 C 
BRANCH   8   9
ATOM      9  C   UNL     1     -36.193   5.797  -1.357  1.00  0.00    -0.000 C 
BRANCH   9  10
ATOM     10  C   UNL     1     -36.013   7.322  -1.428  1.00  0.00    -0.000 C 
BRANCH  10  11
ATOM     11  C   UNL     1     -35.796   7.833  -2.860  1.00  0.00    -0.003 C 
ATOM     12  C   UNL     1     -34.404   8.436  -3.024  1.00  0.00     0.004 C 
ENDBRANCH  10  11
ENDBRANCH   9  10
ENDBRANCH   8   9
ENDBRANCH   7   8
ENDBRANCH   6   7
ENDBRANCH   5   6
ENDBRANCH   4   5
ENDBRANCH   3   4
ENDBRANCH   2   3
ENDBRANCH   1   2
BRANCH   1  13
ATOM     13  C   UNL     1     -30.933   7.662  -1.866  1.00  0.00     0.000 C 
BRANCH  13  14
ATOM     14  C   UNL     1     -29.487   8.180  -1.782  1.00  0.00     0.000 C 
BRANCH  14  15
ATOM     15  C   UNL     1     -28.542   7.199  -1.066  1.00  0.00     0.000 C 
BRANCH  15  16
ATOM     16  C   UNL     1     -28.094   5.988  -1.909  1.00  0.00     0.000 C 
BRANCH  16  17
ATOM     17  C   UNL     1     -28.017   4.669  -1.112  1.00  0.00     0.000 C 
BRANCH  17  18
ATOM     18  C   UNL     1     -28.737   3.513  -1.829  1.00  0.00     0.000 C 
BRANCH  18  19
ATOM     19  C   UNL     1     -29.153   3.864  -3.270  1.00  0.00     0.000 C 
BRANCH  19  20
ATOM     20  C   UNL     1     -28.266   3.256  -4.371  1.00  0.00     0.006 C 
BRANCH  20  21
ATOM     21  C   UNL     1     -28.514   3.878  -5.752  1.00  0.00     0.053 C 
BRANCH  21  22
ATOM     22  C   UNL     1     -27.392   4.797  -6.119  1.00  0.00     0.041 C 
ATOM     23  O   UNL     1     -27.099   5.769  -5.372  1.00  0.00    -0.550 OA
ATOM     24  O   UNL     1     -26.696   4.608  -7.307  1.00  0.00    -0.550 OA
ENDBRANCH  21  22
ENDBRANCH  20  21
ENDBRANCH  19  20
ENDBRANCH  18  19
ENDBRANCH  17  18
ENDBRANCH  16  17
ENDBRANCH  15  16
ENDBRANCH  14  15
ENDBRANCH  13  14
ENDBRANCH   1  13
TORSDOF 20
ENDMDL
MODEL 2
REMARK VINA RESULT:    -3.814      1.391      4.377
REMARK INTER + INTRA:         -11.795
REMARK INTER:                  -7.686
REMARK INTRA:                  -4.109
REMARK UNBOUND:                -3.521
REMARK SMILES CCCCCCCCCCCCCCCCCCCCCC(=O)[O-]
REMARK SMILES IDX 12 1 11 2 10 3 9 4 8 5 7 6 6 7 5 8 4 9 3 10 2 11 1 12 13 13
REMARK SMILES IDX 14 14 15 15 16 16 17 17 18 18 19 19 20 20 21 21 22 22 23 23
REMARK SMILES IDX 24 24
REMARK H PARENT
REMARK Flexibility Score: inf
ROOT
ATOM      1  C   UNL     1     -35.437   6.985  -1.364  1.00  0.00     0.000 C 
ENDROOT
BRANCH   1   2
ATOM      2  C   UNL     1     -35.951   5.529  -1.349  1.00  0.00     0.000 C 
BRANCH   2   3
ATOM      3  C   UNL     1     -36.717   5.169  -2.633  1.00  0.00     0.000 C 
BRANCH   3   4
ATOM      4  C   UNL     1     -36.111   3.961  -3.374  1.00  0.00    -0.000 C 
BRANCH   4   5
ATOM      5  C   UNL     1     -34.583   3.809  -3.225  1.00  0.00    -0.000 C 
BRANCH   5   6
ATOM      6  C   UNL     1     -33.744   4.802  -4.054  1.00  0.00    -0.000 C 
BRANCH   6   7
ATOM      7  C   UNL     1     -32.249   4.867  -3.680  1.00  0.00    -0.000 C 
BRANCH   7   8
ATOM      8  C   UNL     1     -31.886   4.239  -2.321  1.00  0.00    -0.000 C 
BRANCH   8   9
ATOM      9  C   UNL     1     -31.765   5.281  -1.198  1.00  0.00    -0.000 C 
BRANCH   9  10
ATOM     10  C   UNL     1     -32.562   4.897   0.059  1.00  0.00    -0.000 C 
BRANCH  10  11
ATOM     11  C   UNL     1     -32.910   3.402   0.114  1.00  0.00    -0.003 C 
ATOM     12  C   UNL     1     -34.204   3.165   0.888  1.00  0.00     0.004 C 
ENDBRANCH  10  11
ENDBRANCH   9  10
ENDBRANCH   8   9
ENDBRANCH   7   8
ENDBRANCH   6   7
ENDBRANCH   5   6
ENDBRANCH   4   5
ENDBRANCH   3   4
ENDBRANCH   2   3
ENDBRANCH   1   2
BRANCH   1  13
ATOM     13  C   UNL     1     -35.836   7.766  -2.626  1.00  0.00     0.000 C 
BRANCH  13  14
ATOM     14  C   UNL     1     -34.643   8.484  -3.279  1.00  0.00     0.000 C 
BRANCH  14  15
ATOM     15  C   UNL     1     -33.321   8.247  -2.529  1.00  0.00     0.000 C 
BRANCH  15  16
ATOM     16  C   UNL     1     -32.123   9.075  -3.036  1.00  0.00     0.000 C 
BRANCH  16  17
ATOM     17  C   UNL     1     -30.775   8.328  -2.963  1.00  0.00     0.000 C 
BRANCH  17  18
ATOM     18  C   UNL     1     -30.059   8.549  -1.618  1.00  0.00     0.000 C 
BRANCH  18  19
ATOM     19  C   UNL     1     -28.904   7.558  -1.381  1.00  0.00     0.000 C 
BRANCH  19  20
ATOM     20  C   UNL     1     -28.500   6.722  -2.608  1.00  0.00     0.006 C 
BRANCH  20  21
ATOM     21  C   UNL     1     -28.169   5.264  -2.258  1.00  0.00     0.053 C 
BRANCH  21  22
ATOM     22  C   UNL     1     -28.396   4.379  -3.442  1.00  0.00     0.041 C 
ATOM     23  O   UNL     1     -28.690   3.165  -3.278  1.00  0.00    -0.550 OA
ATOM     24  O   UNL     1     -28.241   4.882  -4.728  1.00  0.00    -0.550 OA
ENDBRANCH  21  22
ENDBRANCH  20  21
ENDBRANCH  19  20
ENDBRANCH  18  19
ENDBRANCH  17  18
ENDBRANCH  16  17
ENDBRANCH  15  16
ENDBRANCH  14  15
ENDBRANCH  13  14
ENDBRANCH   1  13
TORSDOF 20
ENDMDL
MODEL 3
REMARK VINA RESULT:    -3.759      2.868      6.524
REMARK INTER + INTRA:         -11.674
REMARK INTER:                  -7.902
REMARK INTRA:                  -3.773
REMARK UNBOUND:                -3.521
REMARK SMILES CCCCCCCCCCCCCCCCCCCCCC(=O)[O-]
REMARK SMILES IDX 12 1 11 2 10 3 9 4 8 5 7 6 6 7 5 8 4 9 3 10 2 11 1 12 13 13
REMARK SMILES IDX 14 14 15 15 16 16 17 17 18 18 19 19 20 20 21 21 22 22 23 23
REMARK SMILES IDX 24 24
REMARK H PARENT
REMARK Flexibility Score: inf
ROOT
ATOM      1  C   UNL     1     -35.530   7.517  -3.384  1.00  0.00     0.000 C 
ENDROOT
BRANCH   1   2
ATOM      2  C   UNL     1     -34.293   8.218  -3.985  1.00  0.00     0.000 C 
BRANCH   2   3
ATOM      3  C   UNL     1     -33.337   8.744  -2.901  1.00  0.00     0.000 C 
BRANCH   3   4
ATOM      4  C   UNL     1     -31.853   8.535  -3.258  1.00  0.00    -0.000 C 
BRANCH   4   5
ATOM      5  C   UNL     1     -30.883   9.550  -2.618  1.00  0.00    -0.000 C 
BRANCH   5   6
ATOM      6  C   UNL     1     -30.039   9.000  -1.451  1.00  0.00    -0.000 C 
BRANCH   6   7
ATOM      7  C   UNL     1     -28.861   8.095  -1.865  1.00  0.00    -0.000 C 
BRANCH   7   8
ATOM      8  C   UNL     1     -28.842   6.703  -1.208  1.00  0.00    -0.000 C 
BRANCH   8   9
ATOM      9  C   UNL     1     -28.104   5.654  -2.056  1.00  0.00    -0.000 C 
BRANCH   9  10
ATOM     10  C   UNL     1     -28.627   4.227  -1.827  1.00  0.00    -0.000 C 
BRANCH  10  11
ATOM     11  C   UNL     1     -28.808   3.439  -3.133  1.00  0.00    -0.003 C 
ATOM     12  C   UNL     1     -29.044   4.378  -4.313  1.00  0.00     0.004 C 
ENDBRANCH  10  11
ENDBRANCH   9  10
ENDBRANCH   8   9
ENDBRANCH   7   8
ENDBRANCH   6   7
ENDBRANCH   5   6
ENDBRANCH   4   5
ENDBRANCH   3   4
ENDBRANCH   2   3
ENDBRANCH   1   2
BRANCH   1  13
ATOM     13  C   UNL     1     -35.486   7.396  -1.852  1.00  0.00     0.000 C 
BRANCH  13  14
ATOM     14  C   UNL     1     -35.905   6.001  -1.356  1.00  0.00     0.000 C 
BRANCH  14  15
ATOM     15  C   UNL     1     -34.703   5.115  -0.985  1.00  0.00     0.000 C 
BRANCH  15  16
ATOM     16  C   UNL     1     -33.382   5.871  -0.743  1.00  0.00     0.000 C 
BRANCH  16  17
ATOM     17  C   UNL     1     -32.216   5.388  -1.631  1.00  0.00     0.000 C 
BRANCH  17  18
ATOM     18  C   UNL     1     -32.644   4.269  -2.596  1.00  0.00     0.000 C 
BRANCH  18  19
ATOM     19  C   UNL     1     -32.743   4.740  -4.058  1.00  0.00     0.000 C 
BRANCH  19  20
ATOM     20  C   UNL     1     -34.012   4.291  -4.803  1.00  0.00     0.006 C 
BRANCH  20  21
ATOM     21  C   UNL     1     -34.843   3.272  -4.012  1.00  0.00     0.053 C 
BRANCH  21  22
ATOM     22  C   UNL     1     -35.018   2.014  -4.803  1.00  0.00     0.041 C 
ATOM     23  O   UNL     1     -35.459   0.973  -4.249  1.00  0.00    -0.550 OA
ATOM     24  O   UNL     1     -34.653   1.978  -6.144  1.00  0.00    -0.550 OA
ENDBRANCH  21  22
ENDBRANCH  20  21
ENDBRANCH  19  20
ENDBRANCH  18  19
ENDBRANCH  17  18
ENDBRANCH  16  17
ENDBRANCH  15  16
ENDBRANCH  14  15
ENDBRANCH  13  14
ENDBRANCH   1  13
TORSDOF 20
ENDMDL
MODEL 4
REMARK VINA RESULT:    -3.723      3.059      6.361
REMARK INTER + INTRA:         -11.596
REMARK INTER:                  -7.870
REMARK INTRA:                  -3.727
REMARK UNBOUND:                -3.521
REMARK SMILES CCCCCCCCCCCCCCCCCCCCCC(=O)[O-]
REMARK SMILES IDX 12 1 11 2 10 3 9 4 8 5 7 6 6 7 5 8 4 9 3 10 2 11 1 12 13 13
REMARK SMILES IDX 14 14 15 15 16 16 17 17 18 18 19 19 20 20 21 21 22 22 23 23
REMARK SMILES IDX 24 24
REMARK H PARENT
REMARK Flexibility Score: inf
ROOT
ATOM      1  C   UNL     1     -34.424   4.897  -0.906  1.00  0.00     0.000 C 
ENDROOT
BRANCH   1   2
ATOM      2  C   UNL     1     -33.210   5.839  -0.752  1.00  0.00     0.000 C 
BRANCH   2   3
ATOM      3  C   UNL     1     -32.005   5.135  -0.105  1.00  0.00     0.000 C 
BRANCH   3   4
ATOM      4  C   UNL     1     -32.118   3.599  -0.145  1.00  0.00    -0.000 C 
BRANCH   4   5
ATOM      5  C   UNL     1     -31.102   2.897  -1.071  1.00  0.00    -0.000 C 
BRANCH   5   6
ATOM      6  C   UNL     1     -30.455   3.805  -2.137  1.00  0.00    -0.000 C 
BRANCH   6   7
ATOM      7  C   UNL     1     -28.928   3.647  -2.291  1.00  0.00    -0.000 C 
BRANCH   7   8
ATOM      8  C   UNL     1     -28.119   4.952  -2.172  1.00  0.00    -0.000 C 
BRANCH   8   9
ATOM      9  C   UNL     1     -28.424   5.725  -0.879  1.00  0.00    -0.000 C 
BRANCH   9  10
ATOM     10  C   UNL     1     -28.693   7.218  -1.128  1.00  0.00    -0.000 C 
BRANCH  10  11
ATOM     11  C   UNL     1     -29.183   7.508  -2.555  1.00  0.00    -0.003 C 
ATOM     12  C   UNL     1     -30.700   7.666  -2.594  1.00  0.00     0.004 C 
ENDBRANCH  10  11
ENDBRANCH   9  10
ENDBRANCH   8   9
ENDBRANCH   7   8
ENDBRANCH   6   7
ENDBRANCH   5   6
ENDBRANCH   4   5
ENDBRANCH   3   4
ENDBRANCH   2   3
ENDBRANCH   1   2
BRANCH   1  13
ATOM     13  C   UNL     1     -35.707   5.613  -1.359  1.00  0.00     0.000 C 
BRANCH  13  14
ATOM     14  C   UNL     1     -35.548   7.142  -1.402  1.00  0.00     0.000 C 
BRANCH  14  15
ATOM     15  C   UNL     1     -35.544   7.701  -2.835  1.00  0.00     0.000 C 
BRANCH  15  16
ATOM     16  C   UNL     1     -36.092   6.744  -3.913  1.00  0.00     0.000 C 
BRANCH  16  17
ATOM     17  C   UNL     1     -35.144   6.550  -5.114  1.00  0.00     0.000 C 
BRANCH  17  18
ATOM     18  C   UNL     1     -33.669   6.475  -4.685  1.00  0.00     0.000 C 
BRANCH  18  19
ATOM     19  C   UNL     1     -33.230   5.056  -4.281  1.00  0.00     0.000 C 
BRANCH  19  20
ATOM     20  C   UNL     1     -33.963   3.915  -5.008  1.00  0.00     0.006 C 
BRANCH  20  21
ATOM     21  C   UNL     1     -34.529   2.858  -4.049  1.00  0.00     0.053 C 
BRANCH  21  22
ATOM     22  C   UNL     1     -35.008   1.664  -4.813  1.00  0.00     0.041 C 
ATOM     23  O   UNL     1     -34.882   1.621  -6.065  1.00  0.00    -0.550 OA
ATOM     24  O   UNL     1     -35.634   0.617  -4.147  1.00  0.00    -0.550 OA
ENDBRANCH  21  22
ENDBRANCH  20  21
ENDBRANCH  19  20
ENDBRANCH  18  19
ENDBRANCH  17  18
ENDBRANCH  16  17
ENDBRANCH  15  16
ENDBRANCH  14  15
ENDBRANCH  13  14
ENDBRANCH   1  13
TORSDOF 20
ENDMDL
MODEL 5
REMARK VINA RESULT:    -3.708      2.357      4.589
REMARK INTER + INTRA:         -11.564
REMARK INTER:                  -7.785
REMARK INTRA:                  -3.779
REMARK UNBOUND:                -3.521
REMARK SMILES CCCCCCCCCCCCCCCCCCCCCC(=O)[O-]
REMARK SMILES IDX 12 1 11 2 10 3 9 4 8 5 7 6 6 7 5 8 4 9 3 10 2 11 1 12 13 13
REMARK SMILES IDX 14 14 15 15 16 16 17 17 18 18 19 19 20 20 21 21 22 22 23 23
REMARK SMILES IDX 24 24
REMARK H PARENT
REMARK Flexibility Score: inf
ROOT
ATOM      1  C   UNL     1     -36.351   6.159  -1.727  1.00  0.00     0.000 C 
ENDROOT
BRANCH   1   2
ATOM      2  C   UNL     1     -36.374   5.545  -3.143  1.00  0.00     0.000 C 
BRANCH   2   3
ATOM      3  C   UNL     1     -36.450   4.009  -3.109  1.00  0.00     0.000 C 
BRANCH   3   4
ATOM      4  C   UNL     1     -35.299   3.370  -2.309  1.00  0.00    -0.000 C 
BRANCH   4   5
ATOM      5  C   UNL     1     -34.602   2.185  -3.010  1.00  0.00    -0.000 C 
BRANCH   5   6
ATOM      6  C   UNL     1     -35.553   1.158  -3.658  1.00  0.00    -0.000 C 
BRANCH   6   7
ATOM      7  C   UNL     1     -35.239   0.813  -5.128  1.00  0.00    -0.000 C 
BRANCH   7   8
ATOM      8  C   UNL     1     -36.332   1.204  -6.140  1.00  0.00    -0.000 C 
BRANCH   8   9
ATOM      9  C   UNL     1     -36.209   2.661  -6.615  1.00  0.00    -0.000 C 
BRANCH   9  10
ATOM     10  C   UNL     1     -34.749   3.114  -6.774  1.00  0.00    -0.000 C 
BRANCH  10  11
ATOM     11  C   UNL     1     -34.492   4.517  -6.206  1.00  0.00    -0.003 C 
ATOM     12  C   UNL     1     -33.209   4.550  -5.379  1.00  0.00     0.004 C 
ENDBRANCH  10  11
ENDBRANCH   9  10
ENDBRANCH   8   9
ENDBRANCH   7   8
ENDBRANCH   6   7
ENDBRANCH   5   6
ENDBRANCH   4   5
ENDBRANCH   3   4
ENDBRANCH   2   3
ENDBRANCH   1   2
BRANCH   1  13
ATOM     13  C   UNL     1     -35.151   7.086  -1.475  1.00  0.00     0.000 C 
BRANCH  13  14
ATOM     14  C   UNL     1     -34.021   6.883  -2.499  1.00  0.00     0.000 C 
BRANCH  14  15
ATOM     15  C   UNL     1     -32.688   6.483  -1.844  1.00  0.00     0.000 C 
BRANCH  15  16
ATOM     16  C   UNL     1     -32.816   5.620  -0.573  1.00  0.00     0.000 C 
BRANCH  16  17
ATOM     17  C   UNL     1     -32.083   4.266  -0.662  1.00  0.00     0.000 C 
BRANCH  17  18
ATOM     18  C   UNL     1     -31.554   3.983  -2.079  1.00  0.00     0.000 C 
BRANCH  18  19
ATOM     19  C   UNL     1     -30.073   3.558  -2.095  1.00  0.00     0.000 C 
BRANCH  19  20
ATOM     20  C   UNL     1     -29.181   4.264  -1.059  1.00  0.00     0.006 C 
BRANCH  20  21
ATOM     21  C   UNL     1     -28.089   5.131  -1.700  1.00  0.00     0.053 C 
BRANCH  21  22
ATOM     22  C   UNL     1     -28.597   6.518  -1.938  1.00  0.00     0.041 C 
ATOM     23  O   UNL     1     -29.093   6.828  -3.054  1.00  0.00    -0.550 OA
ATOM     24  O   UNL     1     -28.484   7.482  -0.943  1.00  0.00    -0.550 OA
ENDBRANCH  21  22
ENDBRANCH  20  21
ENDBRANCH  19  20
ENDBRANCH  18  19
ENDBRANCH  17  18
ENDBRANCH  16  17
ENDBRANCH  15  16
ENDBRANCH  14  15
ENDBRANCH  13  14
ENDBRANCH   1  13
TORSDOF 20
ENDMDL
MODEL 6
REMARK VINA RESULT:    -3.679      2.946      6.342
REMARK INTER + INTRA:         -11.500
REMARK INTER:                  -7.328
REMARK INTRA:                  -4.172
REMARK UNBOUND:                -3.521
REMARK SMILES CCCCCCCCCCCCCCCCCCCCCC(=O)[O-]
REMARK SMILES IDX 12 1 11 2 10 3 9 4 8 5 7 6 6 7 5 8 4 9 3 10 2 11 1 12 13 13
REMARK SMILES IDX 14 14 15 15 16 16 17 17 18 18 19 19 20 20 21 21 22 22 23 23
REMARK SMILES IDX 24 24
REMARK H PARENT
REMARK Flexibility Score: inf
ROOT
ATOM      1  C   UNL     1     -33.217   5.366  -0.879  1.00  0.00     0.000 C 
ENDROOT
BRANCH   1   2
ATOM      2  C   UNL     1     -32.578   6.628  -0.259  1.00  0.00     0.000 C 
BRANCH   2   3
ATOM      3  C   UNL     1     -31.062   6.694  -0.508  1.00  0.00     0.000 C 
BRANCH   3   4
ATOM      4  C   UNL     1     -30.473   5.351  -0.981  1.00  0.00    -0.000 C 
BRANCH   4   5
ATOM      5  C   UNL     1     -28.952   5.199  -0.771  1.00  0.00    -0.000 C 
BRANCH   5   6
ATOM      6  C   UNL     1     -28.128   5.036  -2.064  1.00  0.00    -0.000 C 
BRANCH   6   7
ATOM      7  C   UNL     1     -28.637   5.849  -3.271  1.00  0.00    -0.000 C 
BRANCH   7   8
ATOM      8  C   UNL     1     -27.758   7.048  -3.671  1.00  0.00    -0.000 C 
BRANCH   8   9
ATOM      9  C   UNL     1     -27.964   8.268  -2.757  1.00  0.00    -0.000 C 
BRANCH   9  10
ATOM     10  C   UNL     1     -29.374   8.869  -2.876  1.00  0.00    -0.000 C 
BRANCH  10  11
ATOM     11  C   UNL     1     -29.698   9.860  -1.748  1.00  0.00    -0.003 C 
ATOM     12  C   UNL     1     -28.777   9.650  -0.549  1.00  0.00     0.004 C 
ENDBRANCH  10  11
ENDBRANCH   9  10
ENDBRANCH   8   9
ENDBRANCH   7   8
ENDBRANCH   6   7
ENDBRANCH   5   6
ENDBRANCH   4   5
ENDBRANCH   3   4
ENDBRANCH   2   3
ENDBRANCH   1   2
BRANCH   1  13
ATOM     13  C   UNL     1     -34.639   5.594  -1.417  1.00  0.00     0.000 C 
BRANCH  13  14
ATOM     14  C   UNL     1     -35.079   7.065  -1.319  1.00  0.00     0.000 C 
BRANCH  14  15
ATOM     15  C   UNL     1     -35.865   7.536  -2.555  1.00  0.00     0.000 C 
BRANCH  15  16
ATOM     16  C   UNL     1     -35.213   8.687  -3.346  1.00  0.00     0.000 C 
BRANCH  16  17
ATOM     17  C   UNL     1     -33.692   8.816  -3.120  1.00  0.00     0.000 C 
BRANCH  17  18
ATOM     18  C   UNL     1     -32.879   8.261  -4.304  1.00  0.00     0.000 C 
BRANCH  18  19
ATOM     19  C   UNL     1     -32.125   6.963  -3.961  1.00  0.00     0.000 C 
BRANCH  19  20
ATOM     20  C   UNL     1     -32.593   5.715  -4.730  1.00  0.00     0.006 C 
BRANCH  20  21
ATOM     21  C   UNL     1     -33.811   5.984  -5.625  1.00  0.00     0.053 C 
BRANCH  21  22
ATOM     22  C   UNL     1     -34.969   5.137  -5.200  1.00  0.00     0.041 C 
ATOM     23  O   UNL     1     -36.149   5.524  -5.411  1.00  0.00    -0.550 OA
ATOM     24  O   UNL     1     -34.747   3.939  -4.531  1.00  0.00    -0.550 OA
ENDBRANCH  21  22
ENDBRANCH  20  21
ENDBRANCH  19  20
ENDBRANCH  18  19
ENDBRANCH  17  18
ENDBRANCH  16  17
ENDBRANCH  15  16
ENDBRANCH  14  15
ENDBRANCH  13  14
ENDBRANCH   1  13
TORSDOF 20
ENDMDL
MODEL 7
REMARK VINA RESULT:    -3.673      2.454      6.217
REMARK INTER + INTRA:         -11.488
REMARK INTER:                  -7.159
REMARK INTRA:                  -4.328
REMARK UNBOUND:                -3.521
REMARK SMILES CCCCCCCCCCCCCCCCCCCCCC(=O)[O-]
REMARK SMILES IDX 12 1 11 2 10 3 9 4 8 5 7 6 6 7 5 8 4 9 3 10 2 11 1 12 13 13
REMARK SMILES IDX 14 14 15 15 16 16 17 17 18 18 19 19 20 20 21 21 22 22 23 23
REMARK SMILES IDX 24 24
REMARK H PARENT
REMARK Flexibility Score: inf
ROOT
ATOM      1  C   UNL     1     -32.183   7.878  -3.524  1.00  0.00     0.000 C 
ENDROOT
BRANCH   1   2
ATOM      2  C   UNL     1     -31.907   6.452  -3.001  1.00  0.00     0.000 C 
BRANCH   2   3
ATOM      3  C   UNL     1     -32.139   6.334  -1.485  1.00  0.00     0.000 C 
BRANCH   3   4
ATOM      4  C   UNL     1     -32.056   4.881  -0.977  1.00  0.00    -0.000 C 
BRANCH   4   5
ATOM      5  C   UNL     1     -31.509   3.866  -2.002  1.00  0.00    -0.000 C 
BRANCH   5   6
ATOM      6  C   UNL     1     -30.122   3.282  -1.667  1.00  0.00    -0.000 C 
BRANCH   6   7
ATOM      7  C   UNL     1     -28.969   3.779  -2.563  1.00  0.00    -0.000 C 
BRANCH   7   8
ATOM      8  C   UNL     1     -28.286   5.076  -2.091  1.00  0.00    -0.000 C 
BRANCH   8   9
ATOM      9  C   UNL     1     -28.105   6.099  -3.224  1.00  0.00    -0.000 C 
BRANCH   9  10
ATOM     10  C   UNL     1     -28.209   7.553  -2.735  1.00  0.00    -0.000 C 
BRANCH  10  11
ATOM     11  C   UNL     1     -28.672   7.661  -1.274  1.00  0.00    -0.003 C 
ATOM     12  C   UNL     1     -29.541   8.899  -1.062  1.00  0.00     0.004 C 
ENDBRANCH  10  11
ENDBRANCH   9  10
ENDBRANCH   8   9
ENDBRANCH   7   8
ENDBRANCH   6   7
ENDBRANCH   5   6
ENDBRANCH   4   5
ENDBRANCH   3   4
ENDBRANCH   2   3
ENDBRANCH   1   2
BRANCH   1  13
ATOM     13  C   UNL     1     -33.334   8.590  -2.797  1.00  0.00     0.000 C 
BRANCH  13  14
ATOM     14  C   UNL     1     -34.612   8.672  -3.650  1.00  0.00     0.000 C 
BRANCH  14  15
ATOM     15  C   UNL     1     -35.671   7.634  -3.238  1.00  0.00     0.000 C 
BRANCH  15  16
ATOM     16  C   UNL     1     -35.830   7.429  -1.718  1.00  0.00     0.000 C 
BRANCH  16  17
ATOM     17  C   UNL     1     -35.857   5.947  -1.289  1.00  0.00     0.000 C 
BRANCH  17  18
ATOM     18  C   UNL     1     -36.275   5.015  -2.439  1.00  0.00     0.000 C 
BRANCH  18  19
ATOM     19  C   UNL     1     -35.173   4.015  -2.836  1.00  0.00     0.000 C 
BRANCH  19  20
ATOM     20  C   UNL     1     -35.110   3.676  -4.335  1.00  0.00     0.006 C 
BRANCH  20  21
ATOM     21  C   UNL     1     -33.912   4.321  -5.046  1.00  0.00     0.053 C 
BRANCH  21  22
ATOM     22  C   UNL     1     -34.365   5.462  -5.900  1.00  0.00     0.041 C 
ATOM     23  O   UNL     1     -35.586   5.605  -6.172  1.00  0.00    -0.550 OA
ATOM     24  O   UNL     1     -33.434   6.347  -6.432  1.00  0.00    -0.550 OA
ENDBRANCH  21  22
ENDBRANCH  20  21
ENDBRANCH  19  20
ENDBRANCH  18  19
ENDBRANCH  17  18
ENDBRANCH  16  17
ENDBRANCH  15  16
ENDBRANCH  14  15
ENDBRANCH  13  14
ENDBRANCH   1  13
TORSDOF 20
ENDMDL
MODEL 8
REMARK VINA RESULT:    -3.673      3.011      6.988
REMARK INTER + INTRA:         -11.488
REMARK INTER:                  -8.006
REMARK INTRA:                  -3.481
REMARK UNBOUND:                -3.521
REMARK SMILES CCCCCCCCCCCCCCCCCCCCCC(=O)[O-]
REMARK SMILES IDX 12 1 11 2 10 3 9 4 8 5 7 6 6 7 5 8 4 9 3 10 2 11 1 12 13 13
REMARK SMILES IDX 14 14 15 15 16 16 17 17 18 18 19 19 20 20 21 21 22 22 23 23
REMARK SMILES IDX 24 24
REMARK H PARENT
REMARK Flexibility Score: inf
ROOT
ATOM      1  C   UNL     1     -34.786   8.460  -3.768  1.00  0.00     0.000 C 
ENDROOT
BRANCH   1   2
ATOM      2  C   UNL     1     -33.550   8.456  -2.842  1.00  0.00     0.000 C 
BRANCH   2   3
ATOM      3  C   UNL     1     -32.788   9.792  -2.884  1.00  0.00     0.000 C 
BRANCH   3   4
ATOM      4  C   UNL     1     -31.265   9.617  -2.735  1.00  0.00    -0.000 C 
BRANCH   4   5
ATOM      5  C   UNL     1     -30.814   8.213  -2.281  1.00  0.00    -0.000 C 
BRANCH   5   6
ATOM      6  C   UNL     1     -29.964   8.184  -0.995  1.00  0.00    -0.000 C 
BRANCH   6   7
ATOM      7  C   UNL     1     -28.635   7.410  -1.106  1.00  0.00    -0.000 C 
BRANCH   7   8
ATOM      8  C   UNL     1     -28.625   6.270  -2.142  1.00  0.00    -0.000 C 
BRANCH   8   9
ATOM      9  C   UNL     1     -28.118   4.941  -1.559  1.00  0.00    -0.000 C 
BRANCH   9  10
ATOM     10  C   UNL     1     -28.700   3.714  -2.279  1.00  0.00    -0.000 C 
BRANCH  10  11
ATOM     11  C   UNL     1     -29.119   4.013  -3.727  1.00  0.00    -0.003 C 
ATOM     12  C   UNL     1     -28.105   3.453  -4.720  1.00  0.00     0.004 C 
ENDBRANCH  10  11
ENDBRANCH   9  10
ENDBRANCH   8   9
ENDBRANCH   7   8
ENDBRANCH   6   7
ENDBRANCH   5   6
ENDBRANCH   4   5
ENDBRANCH   3   4
ENDBRANCH   2   3
ENDBRANCH   1   2
BRANCH   1  13
ATOM     13  C   UNL     1     -35.963   7.629  -3.230  1.00  0.00     0.000 C 
BRANCH  13  14
ATOM     14  C   UNL     1     -35.856   7.360  -1.719  1.00  0.00     0.000 C 
BRANCH  14  15
ATOM     15  C   UNL     1     -36.022   5.872  -1.365  1.00  0.00     0.000 C 
BRANCH  15  16
ATOM     16  C   UNL     1     -36.049   4.912  -2.571  1.00  0.00     0.000 C 
BRANCH  16  17
ATOM     17  C   UNL     1     -34.788   4.032  -2.695  1.00  0.00     0.000 C 
BRANCH  17  18
ATOM     18  C   UNL     1     -33.592   4.809  -3.273  1.00  0.00     0.000 C 
BRANCH  18  19
ATOM     19  C   UNL     1     -32.341   4.740  -2.378  1.00  0.00     0.000 C 
BRANCH  19  20
ATOM     20  C   UNL     1     -32.506   5.360  -0.979  1.00  0.00     0.006 C 
BRANCH  20  21
ATOM     21  C   UNL     1     -31.702   4.623   0.102  1.00  0.00     0.053 C 
BRANCH  21  22
ATOM     22  C   UNL     1     -32.588   3.694   0.869  1.00  0.00     0.041 C 
ATOM     23  O   UNL     1     -33.822   3.643   0.618  1.00  0.00    -0.550 OA
ATOM     24  O   UNL     1     -32.062   2.915   1.893  1.00  0.00    -0.550 OA
ENDBRANCH  21  22
ENDBRANCH  20  21
ENDBRANCH  19  20
ENDBRANCH  18  19
ENDBRANCH  17  18
ENDBRANCH  16  17
ENDBRANCH  15  16
ENDBRANCH  14  15
ENDBRANCH  13  14
ENDBRANCH   1  13
TORSDOF 20
ENDMDL
MODEL 9
REMARK VINA RESULT:    -3.667      3.038      7.100
REMARK INTER + INTRA:         -11.475
REMARK INTER:                  -7.425
REMARK INTRA:                  -4.050
REMARK UNBOUND:                -3.521
REMARK SMILES CCCCCCCCCCCCCCCCCCCCCC(=O)[O-]
REMARK SMILES IDX 12 1 11 2 10 3 9 4 8 5 7 6 6 7 5 8 4 9 3 10 2 11 1 12 13 13
REMARK SMILES IDX 14 14 15 15 16 16 17 17 18 18 19 19 20 20 21 21 22 22 23 23
REMARK SMILES IDX 24 24
REMARK H PARENT
REMARK Flexibility Score: inf
ROOT
ATOM      1  C   UNL     1     -32.793   3.601  -2.142  1.00  0.00     0.000 C 
ENDROOT
BRANCH   1   2
ATOM      2  C   UNL     1     -31.761   4.314  -1.241  1.00  0.00     0.000 C 
BRANCH   2   3
ATOM      3  C   UNL     1     -32.424   5.303  -0.267  1.00  0.00     0.000 C 
BRANCH   3   4
ATOM      4  C   UNL     1     -31.885   6.739  -0.413  1.00  0.00    -0.000 C 
BRANCH   4   5
ATOM      5  C   UNL     1     -31.934   7.308  -1.846  1.00  0.00    -0.000 C 
BRANCH   5   6
ATOM      6  C   UNL     1     -30.767   8.245  -2.218  1.00  0.00    -0.000 C 
BRANCH   6   7
ATOM      7  C   UNL     1     -29.795   8.567  -1.065  1.00  0.00    -0.000 C 
BRANCH   7   8
ATOM      8  C   UNL     1     -28.513   7.713  -1.031  1.00  0.00    -0.000 C 
BRANCH   8   9
ATOM      9  C   UNL     1     -28.285   6.932  -2.336  1.00  0.00    -0.000 C 
BRANCH   9  10
ATOM     10  C   UNL     1     -28.253   5.410  -2.120  1.00  0.00    -0.000 C 
BRANCH  10  11
ATOM     11  C   UNL     1     -28.499   4.617  -3.413  1.00  0.00    -0.003 C 
ATOM     12  C   UNL     1     -29.670   5.199  -4.200  1.00  0.00     0.004 C 
ENDBRANCH  10  11
ENDBRANCH   9  10
ENDBRANCH   8   9
ENDBRANCH   7   8
ENDBRANCH   6   7
ENDBRANCH   5   6
ENDBRANCH   4   5
ENDBRANCH   3   4
ENDBRANCH   2   3
ENDBRANCH   1   2
BRANCH   1  13
ATOM     13  C   UNL     1     -33.166   4.399  -3.403  1.00  0.00     0.000 C 
BRANCH  13  14
ATOM     14  C   UNL     1     -34.570   4.053  -3.928  1.00  0.00     0.000 C 
BRANCH  14  15
ATOM     15  C   UNL     1     -35.607   3.903  -2.801  1.00  0.00     0.000 C 
BRANCH  15  16
ATOM     16  C   UNL     1     -36.408   5.179  -2.475  1.00  0.00     0.000 C 
BRANCH  16  17
ATOM     17  C   UNL     1     -35.993   5.854  -1.151  1.00  0.00     0.000 C 
BRANCH  17  18
ATOM     18  C   UNL     1     -35.479   7.288  -1.365  1.00  0.00     0.000 C 
BRANCH  18  19
ATOM     19  C   UNL     1     -35.959   7.909  -2.690  1.00  0.00     0.000 C 
BRANCH  19  20
ATOM     20  C   UNL     1     -34.846   8.500  -3.574  1.00  0.00     0.006 C 
BRANCH  20  21
ATOM     21  C   UNL     1     -34.618   7.701  -4.865  1.00  0.00     0.053 C 
BRANCH  21  22
ATOM     22  C   UNL     1     -35.883   7.621  -5.659  1.00  0.00     0.041 C 
ATOM     23  O   UNL     1     -36.379   8.661  -6.167  1.00  0.00    -0.550 OA
ATOM     24  O   UNL     1     -36.539   6.405  -5.803  1.00  0.00    -0.550 OA
ENDBRANCH  21  22
ENDBRANCH  20  21
ENDBRANCH  19  20
ENDBRANCH  18  19
ENDBRANCH  17  18
ENDBRANCH  16  17
ENDBRANCH  15  16
ENDBRANCH  14  15
ENDBRANCH  13  14
ENDBRANCH   1  13
TORSDOF 20
ENDMDL
