MODEL 1
REMARK VINA RESULT:    70.213      0.000      0.000
REMARK INTER + INTRA:         117.949
REMARK INTER:                 115.364
REMARK INTRA:                   2.585
REMARK UNBOUND:                 2.585
REMARK SMILES C[C@@H]1O[C@H](OC[C@@H]2O[C@H](Oc3c(-c4ccc(O)c(O)c4)oc4cc(O)cc(O)c4c3=O)[C@H](O)[C@@H](O)[C@H]2O)[C@H](O)[C@@H](O)[C@H]1O
REMARK SMILES IDX 7 1 36 2 34 3 32 4 9 5 8 6 6 7 5 8 4 9 1 10 2 11 42 12 3 13
REMARK SMILES IDX 40 14 38 15 43 16 41 18 39 20 37 22 35 24 10 26 11 27 12 28
REMARK SMILES IDX 30 29 21 30 29 31 31 32 22 33 27 34 23 35 26 36 24 37 13 38
REMARK SMILES IDX 20 39 14 40 18 41 15 42 16 43 19 44 17 46 28 48 25 50 33 52
REMARK H PARENT 43 17 41 19 39 21 37 23 35 25 19 45 17 47 28 49 25 51 33 53
REMARK Flexibility Score: inf
ROOT
ATOM      1  C   UNL     1      28.334  29.531   3.699  1.00  0.00     0.180 C 
ATOM      2  C   UNL     1      28.804  29.225   2.255  1.00  0.00     0.177 C 
ATOM      3  C   UNL     1      27.659  29.377   1.256  1.00  0.00     0.180 C 
ATOM      4  C   UNL     1      26.918  30.708   1.465  1.00  0.00     0.214 C 
ATOM      5  C   UNL     1      26.570  30.980   2.954  1.00  0.00     0.339 C 
ATOM      6  O   UNL     1      27.652  30.773   3.849  1.00  0.00    -0.332 OA
ENDROOT
BRANCH   1   7
ATOM      7  C   UNL     1      27.629  28.354   4.409  1.00  0.00     0.198 C 
BRANCH   7   8
ATOM      8  O   UNL     1      26.735  27.654   3.556  1.00  0.00    -0.347 OA
BRANCH   8   9
ATOM      9  C   UNL     1      27.465  26.795   2.678  1.00  0.00     0.281 C 
ATOM     10  C   UNL     1      26.074  24.943   4.804  1.00  0.00     0.041 C 
ATOM     11  C   UNL     1      27.045  24.631   3.650  1.00  0.00     0.150 C 
ATOM     12  C   UNL     1      26.316  24.163   2.370  1.00  0.00     0.174 C 
ATOM     13  O   UNL     1      27.969  25.679   3.407  1.00  0.00    -0.344 OA
ATOM     14  C   UNL     1      25.612  25.338   1.671  1.00  0.00     0.179 C 
ATOM     15  C   UNL     1      26.634  26.452   1.411  1.00  0.00     0.202 C 
BRANCH  12  16
ATOM     16  O   UNL     1      27.189  23.489   1.494  1.00  0.00    -0.388 OA
ATOM     17  H   UNL     1      26.662  23.111   0.744  1.00  0.00     0.211 HD
ENDBRANCH  12  16
BRANCH  14  18
ATOM     18  O   UNL     1      25.041  24.929   0.451  1.00  0.00    -0.387 OA
ATOM     19  H   UNL     1      24.556  25.708   0.067  1.00  0.00     0.211 HD
ENDBRANCH  14  18
BRANCH  15  20
ATOM     20  O   UNL     1      26.008  27.622   0.936  1.00  0.00    -0.385 OA
ATOM     21  H   UNL     1      26.195  27.701  -0.035  1.00  0.00     0.211 HD
ENDBRANCH  15  20
ENDBRANCH   8   9
ENDBRANCH   7   8
ENDBRANCH   1   7
BRANCH   2  22
ATOM     22  O   UNL     1      29.853  30.106   1.913  1.00  0.00    -0.387 OA
ATOM     23  H   UNL     1      30.697  29.684   2.205  1.00  0.00     0.211 HD
ENDBRANCH   2  22
BRANCH   3  24
ATOM     24  O   UNL     1      28.123  29.263  -0.069  1.00  0.00    -0.387 OA
ATOM     25  H   UNL     1      29.098  29.432  -0.059  1.00  0.00     0.211 HD
ENDBRANCH   3  24
BRANCH   5  26
ATOM     26  O   UNL     1      25.405  30.296   3.407  1.00  0.00    -0.454 OA
BRANCH  26  27
ATOM     27  C   UNL     1      24.790  30.688   4.603  1.00  0.00     0.214 A 
ATOM     28  C   UNL     1      23.831  31.711   4.612  1.00  0.00     0.180 A 
ATOM     29  C   UNL     1      25.171  30.128   5.822  1.00  0.00     0.239 A 
ATOM     30  O   UNL     1      23.401  32.227   5.760  1.00  0.00    -0.452 OA
ATOM     31  C   UNL     1      24.693  30.690   7.030  1.00  0.00     0.111 A 
ATOM     32  O   UNL     1      25.927  29.108   5.824  1.00  0.00    -0.285 OA
ATOM     33  C   UNL     1      23.801  31.781   6.947  1.00  0.00     0.146 A 
ATOM     34  C   UNL     1      25.089  30.223   8.300  1.00  0.00     0.134 A 
ATOM     35  C   UNL     1      23.311  32.395   8.102  1.00  0.00     0.094 A 
ATOM     36  C   UNL     1      24.606  30.856   9.461  1.00  0.00     0.093 A 
ATOM     37  C   UNL     1      23.724  31.941   9.359  1.00  0.00     0.123 A 
BRANCH  28  38
ATOM     38  C   UNL     1      23.224  32.190   3.371  1.00  0.00     0.025 A 
ATOM     39  C   UNL     1      22.095  31.522   2.859  1.00  0.00     0.062 A 
ATOM     40  C   UNL     1      23.689  33.363   2.751  1.00  0.00     0.016 A 
ATOM     41  C   UNL     1      21.468  31.992   1.695  1.00  0.00     0.158 A 
ATOM     42  C   UNL     1      23.054  33.835   1.593  1.00  0.00     0.051 A 
ATOM     43  C   UNL     1      21.945  33.148   1.055  1.00  0.00     0.157 A 
BRANCH  41  44
ATOM     44  O   UNL     1      20.367  31.329   1.157  1.00  0.00    -0.504 OA
ATOM     45  H   UNL     1      19.582  31.854   0.769  1.00  0.00     0.293 HD
ENDBRANCH  41  44
BRANCH  43  46
ATOM     46  O   UNL     1      21.314  33.607  -0.105  1.00  0.00    -0.504 OA
ATOM     47  H   UNL     1      21.064  34.581  -0.223  1.00  0.00     0.293 HD
ENDBRANCH  43  46
ENDBRANCH  28  38
BRANCH  34  48
ATOM     48  O   UNL     1      25.978  29.147   8.420  1.00  0.00    -0.507 OA
ATOM     49  H   UNL     1      26.561  29.017   9.238  1.00  0.00     0.293 HD
ENDBRANCH  34  48
BRANCH  37  50
ATOM     50  O   UNL     1      23.289  32.573  10.517  1.00  0.00    -0.508 OA
ATOM     51  H   UNL     1      23.477  32.157  11.437  1.00  0.00     0.293 HD
ENDBRANCH  37  50
ENDBRANCH  26  27
ENDBRANCH   5  26
BRANCH   4  52
ATOM     52  O   UNL     1      25.777  30.783   0.631  1.00  0.00    -0.384 OA
ATOM     53  H   UNL     1      25.097  31.340   1.092  1.00  0.00     0.211 HD
ENDBRANCH   4  52
TORSDOF 16
ENDMDL
MODEL 2
REMARK VINA RESULT:    70.349      1.282      2.058
REMARK INTER + INTRA:         118.172
REMARK INTER:                 113.167
REMARK INTRA:                   5.005
REMARK UNBOUND:                 2.585
REMARK SMILES C[C@@H]1O[C@H](OC[C@@H]2O[C@H](Oc3c(-c4ccc(O)c(O)c4)oc4cc(O)cc(O)c4c3=O)[C@H](O)[C@@H](O)[C@H]2O)[C@H](O)[C@@H](O)[C@H]1O
REMARK SMILES IDX 7 1 36 2 34 3 32 4 9 5 8 6 6 7 5 8 4 9 1 10 2 11 42 12 3 13
REMARK SMILES IDX 40 14 38 15 43 16 41 18 39 20 37 22 35 24 10 26 11 27 12 28
REMARK SMILES IDX 30 29 21 30 29 31 31 32 22 33 27 34 23 35 26 36 24 37 13 38
REMARK SMILES IDX 20 39 14 40 18 41 15 42 16 43 19 44 17 46 28 48 25 50 33 52
REMARK H PARENT 43 17 41 19 39 21 37 23 35 25 19 45 17 47 28 49 25 51 33 53
REMARK Flexibility Score: inf
ROOT
ATOM      1  C   UNL     1      26.601  28.240   1.470  1.00  0.00     0.180 C 
ATOM      2  C   UNL     1      27.375  29.125   0.460  1.00  0.00     0.177 C 
ATOM      3  C   UNL     1      27.076  30.606   0.679  1.00  0.00     0.180 C 
ATOM      4  C   UNL     1      27.217  30.982   2.163  1.00  0.00     0.214 C 
ATOM      5  C   UNL     1      26.491  29.990   3.111  1.00  0.00     0.339 C 
ATOM      6  O   UNL     1      26.758  28.624   2.833  1.00  0.00    -0.332 OA
ENDROOT
BRANCH   1   7
ATOM      7  C   UNL     1      25.135  27.949   1.078  1.00  0.00     0.198 C 
BRANCH   7   8
ATOM      8  O   UNL     1      24.979  26.699   0.422  1.00  0.00    -0.347 OA
BRANCH   8   9
ATOM      9  C   UNL     1      24.824  25.655   1.386  1.00  0.00     0.281 C 
ATOM     10  C   UNL     1      27.687  25.312   0.135  1.00  0.00     0.041 C 
ATOM     11  C   UNL     1      26.909  24.470   1.162  1.00  0.00     0.150 C 
ATOM     12  C   UNL     1      27.293  24.807   2.620  1.00  0.00     0.174 C 
ATOM     13  O   UNL     1      25.508  24.486   0.942  1.00  0.00    -0.344 OA
ATOM     14  C   UNL     1      26.706  26.162   3.050  1.00  0.00     0.179 C 
ATOM     15  C   UNL     1      25.190  26.150   2.811  1.00  0.00     0.202 C 
BRANCH  12  16
ATOM     16  O   UNL     1      26.919  23.778   3.506  1.00  0.00    -0.388 OA
ATOM     17  H   UNL     1      27.549  23.019   3.401  1.00  0.00     0.211 HD
ENDBRANCH  12  16
BRANCH  14  18
ATOM     18  O   UNL     1      26.966  26.415   4.410  1.00  0.00    -0.387 OA
ATOM     19  H   UNL     1      26.775  27.376   4.582  1.00  0.00     0.211 HD
ENDBRANCH  14  18
BRANCH  15  20
ATOM     20  O   UNL     1      24.629  27.426   3.018  1.00  0.00    -0.385 OA
ATOM     21  H   UNL     1      24.362  27.793   2.136  1.00  0.00     0.211 HD
ENDBRANCH  15  20
ENDBRANCH   8   9
ENDBRANCH   7   8
ENDBRANCH   1   7
BRANCH   2  22
ATOM     22  O   UNL     1      28.760  28.892   0.607  1.00  0.00    -0.387 OA
ATOM     23  H   UNL     1      28.897  28.505   1.505  1.00  0.00     0.211 HD
ENDBRANCH   2  22
BRANCH   3  24
ATOM     24  O   UNL     1      27.904  31.415  -0.125  1.00  0.00    -0.387 OA
ATOM     25  H   UNL     1      28.800  30.994  -0.148  1.00  0.00     0.211 HD
ENDBRANCH   3  24
BRANCH   5  26
ATOM     26  O   UNL     1      25.088  30.217   3.218  1.00  0.00    -0.454 OA
BRANCH  26  27
ATOM     27  C   UNL     1      24.542  30.629   4.441  1.00  0.00     0.214 A 
ATOM     28  C   UNL     1      23.631  31.693   4.495  1.00  0.00     0.180 A 
ATOM     29  C   UNL     1      24.948  30.045   5.641  1.00  0.00     0.239 A 
ATOM     30  O   UNL     1      23.273  32.220   5.662  1.00  0.00    -0.452 OA
ATOM     31  C   UNL     1      24.547  30.621   6.870  1.00  0.00     0.111 A 
ATOM     32  O   UNL     1      25.658  28.993   5.607  1.00  0.00    -0.285 OA
ATOM     33  C   UNL     1      23.701  31.750   6.829  1.00  0.00     0.146 A 
ATOM     34  C   UNL     1      24.974  30.129   8.120  1.00  0.00     0.134 A 
ATOM     35  C   UNL     1      23.288  32.379   8.005  1.00  0.00     0.094 A 
ATOM     36  C   UNL     1      24.569  30.776   9.303  1.00  0.00     0.093 A 
ATOM     37  C   UNL     1      23.732  31.900   9.243  1.00  0.00     0.123 A 
BRANCH  28  38
ATOM     38  C   UNL     1      22.994  32.205   3.281  1.00  0.00     0.025 A 
ATOM     39  C   UNL     1      21.663  32.659   3.348  1.00  0.00     0.062 A 
ATOM     40  C   UNL     1      23.728  32.346   2.091  1.00  0.00     0.016 A 
ATOM     41  C   UNL     1      21.047  33.198   2.207  1.00  0.00     0.158 A 
ATOM     42  C   UNL     1      23.113  32.893   0.956  1.00  0.00     0.051 A 
ATOM     43  C   UNL     1      21.767  33.316   1.006  1.00  0.00     0.157 A 
BRANCH  41  44
ATOM     44  O   UNL     1      19.722  33.627   2.243  1.00  0.00    -0.504 OA
ATOM     45  H   UNL     1      19.310  33.973   3.111  1.00  0.00     0.293 HD
ENDBRANCH  41  44
BRANCH  43  46
ATOM     46  O   UNL     1      21.144  33.853  -0.124  1.00  0.00    -0.504 OA
ATOM     47  H   UNL     1      20.911  34.836  -0.185  1.00  0.00     0.293 HD
ENDBRANCH  43  46
ENDBRANCH  28  38
BRANCH  34  48
ATOM     48  O   UNL     1      25.820  29.015   8.198  1.00  0.00    -0.507 OA
ATOM     49  H   UNL     1      26.829  29.101   8.190  1.00  0.00     0.293 HD
ENDBRANCH  34  48
BRANCH  37  50
ATOM     50  O   UNL     1      23.375  32.543  10.420  1.00  0.00    -0.508 OA
ATOM     51  H   UNL     1      22.620  33.238  10.424  1.00  0.00     0.293 HD
ENDBRANCH  37  50
ENDBRANCH  26  27
ENDBRANCH   5  26
BRANCH   4  52
ATOM     52  O   UNL     1      26.808  32.320   2.382  1.00  0.00    -0.384 OA
ATOM     53  H   UNL     1      26.414  32.661   1.537  1.00  0.00     0.211 HD
ENDBRANCH   4  52
TORSDOF 16
ENDMDL
MODEL 3
REMARK VINA RESULT:    72.117      1.910      6.024
REMARK INTER + INTRA:         121.077
REMARK INTER:                 113.216
REMARK INTRA:                   7.861
REMARK UNBOUND:                 2.585
REMARK SMILES C[C@@H]1O[C@H](OC[C@@H]2O[C@H](Oc3c(-c4ccc(O)c(O)c4)oc4cc(O)cc(O)c4c3=O)[C@H](O)[C@@H](O)[C@H]2O)[C@H](O)[C@@H](O)[C@H]1O
REMARK SMILES IDX 7 1 36 2 34 3 32 4 9 5 8 6 6 7 5 8 4 9 1 10 2 11 42 12 3 13
REMARK SMILES IDX 40 14 38 15 43 16 41 18 39 20 37 22 35 24 10 26 11 27 12 28
REMARK SMILES IDX 30 29 21 30 29 31 31 32 22 33 27 34 23 35 26 36 24 37 13 38
REMARK SMILES IDX 20 39 14 40 18 41 15 42 16 43 19 44 17 46 28 48 25 50 33 52
REMARK H PARENT 43 17 41 19 39 21 37 23 35 25 19 45 17 47 28 49 25 51 33 53
REMARK Flexibility Score: inf
ROOT
ATOM      1  C   UNL     1      27.166  30.402   1.097  1.00  0.00     0.180 C 
ATOM      2  C   UNL     1      26.665  31.635   0.303  1.00  0.00     0.177 C 
ATOM      3  C   UNL     1      25.157  31.818   0.457  1.00  0.00     0.180 C 
ATOM      4  C   UNL     1      24.741  31.744   1.935  1.00  0.00     0.214 C 
ATOM      5  C   UNL     1      25.363  30.531   2.679  1.00  0.00     0.339 C 
ATOM      6  O   UNL     1      26.757  30.372   2.461  1.00  0.00    -0.332 OA
ENDROOT
BRANCH   1   7
ATOM      7  C   UNL     1      26.980  29.051   0.371  1.00  0.00     0.198 C 
BRANCH   7   8
ATOM      8  O   UNL     1      28.154  28.251   0.391  1.00  0.00    -0.347 OA
BRANCH   8   9
ATOM      9  C   UNL     1      28.244  27.543   1.629  1.00  0.00     0.281 C 
ATOM     10  C   UNL     1      30.688  26.620  -0.121  1.00  0.00     0.041 C 
ATOM     11  C   UNL     1      30.194  26.175   1.268  1.00  0.00     0.150 C 
ATOM     12  C   UNL     1      30.942  26.882   2.420  1.00  0.00     0.174 C 
ATOM     13  O   UNL     1      28.783  26.243   1.401  1.00  0.00    -0.344 OA
ATOM     14  C   UNL     1      30.494  28.346   2.556  1.00  0.00     0.179 C 
ATOM     15  C   UNL     1      28.968  28.393   2.708  1.00  0.00     0.202 C 
BRANCH  12  16
ATOM     16  O   UNL     1      30.800  26.183   3.635  1.00  0.00    -0.388 OA
ATOM     17  H   UNL     1      30.065  25.524   3.543  1.00  0.00     0.211 HD
ENDBRANCH  12  16
BRANCH  14  18
ATOM     18  O   UNL     1      31.096  28.956   3.674  1.00  0.00    -0.387 OA
ATOM     19  H   UNL     1      30.458  29.629   4.033  1.00  0.00     0.211 HD
ENDBRANCH  14  18
BRANCH  15  20
ATOM     20  O   UNL     1      28.488  29.716   2.656  1.00  0.00    -0.385 OA
ATOM     21  H   UNL     1      28.590  30.118   3.557  1.00  0.00     0.211 HD
ENDBRANCH  15  20
ENDBRANCH   8   9
ENDBRANCH   7   8
ENDBRANCH   1   7
BRANCH   2  22
ATOM     22  O   UNL     1      27.334  32.788   0.769  1.00  0.00    -0.387 OA
ATOM     23  H   UNL     1      28.092  32.954   0.158  1.00  0.00     0.211 HD
ENDBRANCH   2  22
BRANCH   3  24
ATOM     24  O   UNL     1      24.731  33.028  -0.125  1.00  0.00    -0.387 OA
ATOM     25  H   UNL     1      24.448  32.830  -1.053  1.00  0.00     0.211 HD
ENDBRANCH   3  24
BRANCH   5  26
ATOM     26  O   UNL     1      24.675  29.304   2.455  1.00  0.00    -0.454 OA
BRANCH  26  27
ATOM     27  C   UNL     1      25.185  28.114   2.992  1.00  0.00     0.214 A 
ATOM     28  C   UNL     1      25.557  28.039   4.341  1.00  0.00     0.180 A 
ATOM     29  C   UNL     1      25.408  27.000   2.182  1.00  0.00     0.239 A 
ATOM     30  O   UNL     1      26.230  26.989   4.802  1.00  0.00    -0.452 OA
ATOM     31  C   UNL     1      26.121  25.892   2.699  1.00  0.00     0.111 A 
ATOM     32  O   UNL     1      24.950  26.995   0.998  1.00  0.00    -0.285 OA
ATOM     33  C   UNL     1      26.540  25.941   4.046  1.00  0.00     0.146 A 
ATOM     34  C   UNL     1      26.445  24.761   1.921  1.00  0.00     0.134 A 
ATOM     35  C   UNL     1      27.266  24.890   4.610  1.00  0.00     0.094 A 
ATOM     36  C   UNL     1      27.192  23.711   2.488  1.00  0.00     0.093 A 
ATOM     37  C   UNL     1      27.604  23.780   3.827  1.00  0.00     0.123 A 
BRANCH  28  38
ATOM     38  C   UNL     1      25.155  29.074   5.294  1.00  0.00     0.025 A 
ATOM     39  C   UNL     1      25.688  29.047   6.597  1.00  0.00     0.062 A 
ATOM     40  C   UNL     1      24.336  30.143   4.890  1.00  0.00     0.016 A 
ATOM     41  C   UNL     1      25.353  30.057   7.514  1.00  0.00     0.158 A 
ATOM     42  C   UNL     1      24.012  31.154   5.806  1.00  0.00     0.051 A 
ATOM     43  C   UNL     1      24.513  31.112   7.124  1.00  0.00     0.157 A 
BRANCH  41  44
ATOM     44  O   UNL     1      25.847  30.033   8.816  1.00  0.00    -0.504 OA
ATOM     45  H   UNL     1      25.321  29.581   9.565  1.00  0.00     0.293 HD
ENDBRANCH  41  44
BRANCH  43  46
ATOM     46  O   UNL     1      24.185  32.112   8.046  1.00  0.00    -0.504 OA
ATOM     47  H   UNL     1      24.882  32.520   8.656  1.00  0.00     0.293 HD
ENDBRANCH  43  46
ENDBRANCH  28  38
BRANCH  34  48
ATOM     48  O   UNL     1      26.052  24.681   0.579  1.00  0.00    -0.507 OA
ATOM     49  H   UNL     1      25.932  25.505   0.002  1.00  0.00     0.293 HD
ENDBRANCH  34  48
BRANCH  37  50
ATOM     50  O   UNL     1      28.370  22.749   4.354  1.00  0.00    -0.508 OA
ATOM     51  H   UNL     1      29.361  22.655   4.099  1.00  0.00     0.293 HD
ENDBRANCH  37  50
ENDBRANCH  26  27
ENDBRANCH   5  26
BRANCH   4  52
ATOM     52  O   UNL     1      23.331  31.777   2.061  1.00  0.00    -0.384 OA
ATOM     53  H   UNL     1      22.991  32.519   1.495  1.00  0.00     0.211 HD
ENDBRANCH   4  52
TORSDOF 16
ENDMDL
MODEL 4
REMARK VINA RESULT:    72.957      2.327      6.570
REMARK INTER + INTRA:         122.458
REMARK INTER:                 114.278
REMARK INTRA:                   8.180
REMARK UNBOUND:                 2.585
REMARK SMILES C[C@@H]1O[C@H](OC[C@@H]2O[C@H](Oc3c(-c4ccc(O)c(O)c4)oc4cc(O)cc(O)c4c3=O)[C@H](O)[C@@H](O)[C@H]2O)[C@H](O)[C@@H](O)[C@H]1O
REMARK SMILES IDX 7 1 36 2 34 3 32 4 9 5 8 6 6 7 5 8 4 9 1 10 2 11 42 12 3 13
REMARK SMILES IDX 40 14 38 15 43 16 41 18 39 20 37 22 35 24 10 26 11 27 12 28
REMARK SMILES IDX 30 29 21 30 29 31 31 32 22 33 27 34 23 35 26 36 24 37 13 38
REMARK SMILES IDX 20 39 14 40 18 41 15 42 16 43 19 44 17 46 28 48 25 50 33 52
REMARK H PARENT 43 17 41 19 39 21 37 23 35 25 19 45 17 47 28 49 25 51 33 53
REMARK Flexibility Score: inf
ROOT
ATOM      1  C   UNL     1      29.052  29.457   3.695  1.00  0.00     0.180 C 
ATOM      2  C   UNL     1      29.936  28.291   4.206  1.00  0.00     0.177 C 
ATOM      3  C   UNL     1      30.406  27.407   3.053  1.00  0.00     0.180 C 
ATOM      4  C   UNL     1      30.989  28.255   1.911  1.00  0.00     0.214 C 
ATOM      5  C   UNL     1      30.084  29.457   1.527  1.00  0.00     0.339 C 
ATOM      6  O   UNL     1      29.628  30.216   2.637  1.00  0.00    -0.332 OA
ENDROOT
BRANCH   1   7
ATOM      7  C   UNL     1      27.574  29.083   3.448  1.00  0.00     0.198 C 
BRANCH   7   8
ATOM      8  O   UNL     1      27.272  27.749   3.833  1.00  0.00    -0.347 OA
BRANCH   8   9
ATOM      9  C   UNL     1      25.942  27.675   4.349  1.00  0.00     0.281 C 
ATOM     10  C   UNL     1      27.872  27.731   6.829  1.00  0.00     0.041 C 
ATOM     11  C   UNL     1      26.343  27.586   6.722  1.00  0.00     0.150 C 
ATOM     12  C   UNL     1      25.603  28.927   6.929  1.00  0.00     0.174 C 
ATOM     13  O   UNL     1      25.933  26.905   5.547  1.00  0.00    -0.344 OA
ATOM     14  C   UNL     1      25.761  29.843   5.705  1.00  0.00     0.179 C 
ATOM     15  C   UNL     1      25.302  29.087   4.450  1.00  0.00     0.202 C 
BRANCH  12  16
ATOM     16  O   UNL     1      24.247  28.725   7.253  1.00  0.00    -0.388 OA
ATOM     17  H   UNL     1      23.994  27.796   7.012  1.00  0.00     0.211 HD
ENDBRANCH  12  16
BRANCH  14  18
ATOM     18  O   UNL     1      24.997  31.016   5.851  1.00  0.00    -0.387 OA
ATOM     19  H   UNL     1      25.564  31.693   6.310  1.00  0.00     0.211 HD
ENDBRANCH  14  18
BRANCH  15  20
ATOM     20  O   UNL     1      25.593  29.814   3.279  1.00  0.00    -0.385 OA
ATOM     21  H   UNL     1      26.230  30.538   3.514  1.00  0.00     0.211 HD
ENDBRANCH  15  20
ENDBRANCH   8   9
ENDBRANCH   7   8
ENDBRANCH   1   7
BRANCH   2  22
ATOM     22  O   UNL     1      31.054  28.821   4.886  1.00  0.00    -0.387 OA
ATOM     23  H   UNL     1      30.772  29.677   5.290  1.00  0.00     0.211 HD
ENDBRANCH   2  22
BRANCH   3  24
ATOM     24  O   UNL     1      31.341  26.450   3.496  1.00  0.00    -0.387 OA
ATOM     25  H   UNL     1      31.685  25.977   2.697  1.00  0.00     0.211 HD
ENDBRANCH   3  24
BRANCH   5  26
ATOM     26  O   UNL     1      28.997  29.111   0.674  1.00  0.00    -0.454 OA
BRANCH  26  27
ATOM     27  C   UNL     1      27.809  29.851   0.726  1.00  0.00     0.214 A 
ATOM     28  C   UNL     1      26.565  29.205   0.759  1.00  0.00     0.180 A 
ATOM     29  C   UNL     1      27.829  31.244   0.669  1.00  0.00     0.239 A 
ATOM     30  O   UNL     1      25.439  29.893   0.598  1.00  0.00    -0.452 OA
ATOM     31  C   UNL     1      26.615  31.955   0.505  1.00  0.00     0.111 A 
ATOM     32  O   UNL     1      28.938  31.852   0.783  1.00  0.00    -0.285 OA
ATOM     33  C   UNL     1      25.414  31.214   0.455  1.00  0.00     0.146 A 
ATOM     34  C   UNL     1      26.563  33.357   0.369  1.00  0.00     0.134 A 
ATOM     35  C   UNL     1      24.186  31.853   0.273  1.00  0.00     0.094 A 
ATOM     36  C   UNL     1      25.324  33.996   0.169  1.00  0.00     0.093 A 
ATOM     37  C   UNL     1      24.142  33.243   0.117  1.00  0.00     0.123 A 
BRANCH  28  38
ATOM     38  C   UNL     1      26.464  27.773   1.041  1.00  0.00     0.025 A 
ATOM     39  C   UNL     1      27.612  27.076   1.463  1.00  0.00     0.062 A 
ATOM     40  C   UNL     1      25.220  27.120   0.997  1.00  0.00     0.016 A 
ATOM     41  C   UNL     1      27.528  25.712   1.784  1.00  0.00     0.158 A 
ATOM     42  C   UNL     1      25.138  25.759   1.328  1.00  0.00     0.051 A 
ATOM     43  C   UNL     1      26.293  25.047   1.716  1.00  0.00     0.157 A 
BRANCH  41  44
ATOM     44  O   UNL     1      28.658  24.998   2.177  1.00  0.00    -0.504 OA
ATOM     45  H   UNL     1      29.543  25.109   1.680  1.00  0.00     0.293 HD
ENDBRANCH  41  44
BRANCH  43  46
ATOM     46  O   UNL     1      26.221  23.688   2.036  1.00  0.00    -0.504 OA
ATOM     47  H   UNL     1      25.936  23.374   2.955  1.00  0.00     0.293 HD
ENDBRANCH  43  46
ENDBRANCH  28  38
BRANCH  34  48
ATOM     48  O   UNL     1      27.736  34.122   0.408  1.00  0.00    -0.507 OA
ATOM     49  H   UNL     1      28.305  34.197   1.242  1.00  0.00     0.293 HD
ENDBRANCH  34  48
BRANCH  37  50
ATOM     50  O   UNL     1      22.936  33.891  -0.118  1.00  0.00    -0.508 OA
ATOM     51  H   UNL     1      22.635  34.664   0.487  1.00  0.00     0.293 HD
ENDBRANCH  37  50
ENDBRANCH  26  27
ENDBRANCH   5  26
BRANCH   4  52
ATOM     52  O   UNL     1      31.297  27.444   0.792  1.00  0.00    -0.384 OA
ATOM     53  H   UNL     1      30.899  27.869  -0.013  1.00  0.00     0.211 HD
ENDBRANCH   4  52
TORSDOF 16
ENDMDL
