MODEL 1
REMARK VINA RESULT:    -3.666      0.000      0.000
REMARK INTER + INTRA:          -5.615
REMARK INTER:                  -5.166
REMARK INTRA:                  -0.449
REMARK UNBOUND:                -0.449
REMARK SMILES CCCCCCCCC(=O)[O-]
REMARK SMILES IDX 6 1 7 2 8 3 9 4 10 5 11 6 5 7 4 8 3 9 2 10 1 11
REMARK H PARENT
REMARK Flexibility Score: inf
ROOT
ATOM      1  C   UNL     1      -6.161  20.246 -11.709  1.00  0.00     0.000 C 
ENDROOT
BRANCH   1   2
ATOM      2  C   UNL     1      -5.290  21.500 -11.854  1.00  0.00     0.006 C 
BRANCH   2   3
ATOM      3  C   UNL     1      -6.154  22.761 -11.937  1.00  0.00     0.053 C 
BRANCH   3   4
ATOM      4  C   UNL     1      -5.705  23.771 -10.928  1.00  0.00     0.041 C 
ATOM      5  O   UNL     1      -6.170  23.749  -9.759  1.00  0.00    -0.550 OA
ATOM      6  O   UNL     1      -4.809  24.768 -11.294  1.00  0.00    -0.550 OA
ENDBRANCH   3   4
ENDBRANCH   2   3
ENDBRANCH   1   2
BRANCH   1   7
ATOM      7  C   UNL     1      -7.165  20.403 -10.560  1.00  0.00     0.000 C 
BRANCH   7   8
ATOM      8  C   UNL     1      -6.482  20.213  -9.201  1.00  0.00    -0.000 C 
BRANCH   8   9
ATOM      9  C   UNL     1      -6.294  18.722  -8.883  1.00  0.00    -0.000 C 
BRANCH   9  10
ATOM     10  C   UNL     1      -6.883  18.329  -7.519  1.00  0.00    -0.003 C 
ATOM     11  C   UNL     1      -7.976  19.288  -7.050  1.00  0.00     0.004 C 
ENDBRANCH   9  10
ENDBRANCH   8   9
ENDBRANCH   7   8
ENDBRANCH   1   7
TORSDOF 7
ENDMDL
MODEL 2
REMARK VINA RESULT:    -3.476      1.191      1.667
REMARK INTER + INTRA:          -5.348
REMARK INTER:                  -5.020
REMARK INTRA:                  -0.328
REMARK UNBOUND:                -0.449
REMARK SMILES CCCCCCCCC(=O)[O-]
REMARK SMILES IDX 6 1 7 2 8 3 9 4 10 5 11 6 5 7 4 8 3 9 2 10 1 11
REMARK H PARENT
REMARK Flexibility Score: inf
ROOT
ATOM      1  C   UNL     1      -7.333  21.875 -11.165  1.00  0.00     0.000 C 
ENDROOT
BRANCH   1   2
ATOM      2  C   UNL     1      -6.021  22.541 -10.732  1.00  0.00     0.006 C 
BRANCH   2   3
ATOM      3  C   UNL     1      -5.000  22.534 -11.873  1.00  0.00     0.053 C 
BRANCH   3   4
ATOM      4  C   UNL     1      -4.926  23.881 -12.519  1.00  0.00     0.041 C 
ATOM      5  O   UNL     1      -4.676  23.982 -13.748  1.00  0.00    -0.550 OA
ATOM      6  O   UNL     1      -5.085  25.029 -11.752  1.00  0.00    -0.550 OA
ENDBRANCH   3   4
ENDBRANCH   2   3
ENDBRANCH   1   2
BRANCH   1   7
ATOM      7  C   UNL     1      -7.500  20.503 -10.500  1.00  0.00     0.000 C 
BRANCH   7   8
ATOM      8  C   UNL     1      -6.595  20.372  -9.270  1.00  0.00    -0.000 C 
BRANCH   8   9
ATOM      9  C   UNL     1      -6.253  18.901  -8.993  1.00  0.00    -0.000 C 
BRANCH   9  10
ATOM     10  C   UNL     1      -6.898  18.377  -7.700  1.00  0.00    -0.003 C 
ATOM     11  C   UNL     1      -7.892  19.366  -7.094  1.00  0.00     0.004 C 
ENDBRANCH   9  10
ENDBRANCH   8   9
ENDBRANCH   7   8
ENDBRANCH   1   7
TORSDOF 7
ENDMDL
MODEL 3
REMARK VINA RESULT:    -3.468      2.419      2.984
REMARK INTER + INTRA:          -5.336
REMARK INTER:                  -4.891
REMARK INTRA:                  -0.445
REMARK UNBOUND:                -0.449
REMARK SMILES CCCCCCCCC(=O)[O-]
REMARK SMILES IDX 6 1 7 2 8 3 9 4 10 5 11 6 5 7 4 8 3 9 2 10 1 11
REMARK H PARENT
REMARK Flexibility Score: inf
ROOT
ATOM      1  C   UNL     1      -7.639  20.860 -11.316  1.00  0.00     0.000 C 
ENDROOT
BRANCH   1   2
ATOM      2  C   UNL     1      -7.443  20.720 -12.830  1.00  0.00     0.006 C 
BRANCH   2   3
ATOM      3  C   UNL     1      -6.170  19.931 -13.148  1.00  0.00     0.053 C 
BRANCH   3   4
ATOM      4  C   UNL     1      -5.317  20.683 -14.121  1.00  0.00     0.041 C 
ATOM      5  O   UNL     1      -4.886  20.113 -15.158  1.00  0.00    -0.550 OA
ATOM      6  O   UNL     1      -4.957  21.998 -13.858  1.00  0.00    -0.550 OA
ENDBRANCH   3   4
ENDBRANCH   2   3
ENDBRANCH   1   2
BRANCH   1   7
ATOM      7  C   UNL     1      -6.291  20.989 -10.595  1.00  0.00     0.000 C 
BRANCH   7   8
ATOM      8  C   UNL     1      -6.387  20.483  -9.151  1.00  0.00    -0.000 C 
BRANCH   8   9
ATOM      9  C   UNL     1      -6.439  18.949  -9.108  1.00  0.00    -0.000 C 
BRANCH   9  10
ATOM     10  C   UNL     1      -6.859  18.410  -7.732  1.00  0.00    -0.003 C 
ATOM     11  C   UNL     1      -7.973  19.234  -7.089  1.00  0.00     0.004 C 
ENDBRANCH   9  10
ENDBRANCH   8   9
ENDBRANCH   7   8
ENDBRANCH   1   7
TORSDOF 7
ENDMDL
MODEL 4
REMARK VINA RESULT:    -3.438      2.923      3.447
REMARK INTER + INTRA:          -5.295
REMARK INTER:                  -4.926
REMARK INTRA:                  -0.369
REMARK UNBOUND:                -0.449
REMARK SMILES CCCCCCCCC(=O)[O-]
REMARK SMILES IDX 6 1 7 2 8 3 9 4 10 5 11 6 5 7 4 8 3 9 2 10 1 11
REMARK H PARENT
REMARK Flexibility Score: inf
ROOT
ATOM      1  C   UNL     1      -6.674  21.663 -11.317  1.00  0.00     0.000 C 
ENDROOT
BRANCH   1   2
ATOM      2  C   UNL     1      -8.127  21.178 -11.274  1.00  0.00     0.006 C 
BRANCH   2   3
ATOM      3  C   UNL     1      -8.679  20.969 -12.687  1.00  0.00     0.053 C 
BRANCH   3   4
ATOM      4  C   UNL     1      -9.936  21.757 -12.880  1.00  0.00     0.041 C 
ATOM      5  O   UNL     1      -9.883  22.946 -13.290  1.00  0.00    -0.550 OA
ATOM      6  O   UNL     1     -11.165  21.194 -12.559  1.00  0.00    -0.550 OA
ENDBRANCH   3   4
ENDBRANCH   2   3
ENDBRANCH   1   2
BRANCH   1   7
ATOM      7  C   UNL     1      -5.750  20.710 -10.548  1.00  0.00     0.000 C 
BRANCH   7   8
ATOM      8  C   UNL     1      -6.369  20.309  -9.204  1.00  0.00    -0.000 C 
BRANCH   8   9
ATOM      9  C   UNL     1      -6.173  18.810  -8.934  1.00  0.00    -0.000 C 
BRANCH   9  10
ATOM     10  C   UNL     1      -6.890  18.340  -7.659  1.00  0.00    -0.003 C 
ATOM     11  C   UNL     1      -7.845  19.392  -7.097  1.00  0.00     0.004 C 
ENDBRANCH   9  10
ENDBRANCH   8   9
ENDBRANCH   7   8
ENDBRANCH   1   7
TORSDOF 7
ENDMDL
MODEL 5
REMARK VINA RESULT:    -3.407      1.785      2.147
REMARK INTER + INTRA:          -5.250
REMARK INTER:                  -4.837
REMARK INTRA:                  -0.412
REMARK UNBOUND:                -0.449
REMARK SMILES CCCCCCCCC(=O)[O-]
REMARK SMILES IDX 6 1 7 2 8 3 9 4 10 5 11 6 5 7 4 8 3 9 2 10 1 11
REMARK H PARENT
REMARK Flexibility Score: inf
ROOT
ATOM      1  C   UNL     1      -7.605  20.530 -10.684  1.00  0.00     0.000 C 
ENDROOT
BRANCH   1   2
ATOM      2  C   UNL     1      -7.804  21.478 -11.872  1.00  0.00     0.006 C 
BRANCH   2   3
ATOM      3  C   UNL     1      -7.027  22.782 -11.670  1.00  0.00     0.053 C 
BRANCH   3   4
ATOM      4  C   UNL     1      -7.261  23.715 -12.816  1.00  0.00     0.041 C 
ATOM      5  O   UNL     1      -6.291  24.137 -13.499  1.00  0.00    -0.550 OA
ATOM      6  O   UNL     1      -8.547  24.158 -13.101  1.00  0.00    -0.550 OA
ENDBRANCH   3   4
ENDBRANCH   2   3
ENDBRANCH   1   2
BRANCH   1   7
ATOM      7  C   UNL     1      -6.351  20.904  -9.884  1.00  0.00     0.000 C 
BRANCH   7   8
ATOM      8  C   UNL     1      -5.697  19.660  -9.272  1.00  0.00    -0.000 C 
BRANCH   8   9
ATOM      9  C   UNL     1      -6.735  18.553  -9.036  1.00  0.00    -0.000 C 
BRANCH   9  10
ATOM     10  C   UNL     1      -7.038  18.335  -7.545  1.00  0.00    -0.003 C 
ATOM     11  C   UNL     1      -8.022  19.361  -6.987  1.00  0.00     0.004 C 
ENDBRANCH   9  10
ENDBRANCH   8   9
ENDBRANCH   7   8
ENDBRANCH   1   7
TORSDOF 7
ENDMDL
MODEL 6
REMARK VINA RESULT:    -3.400      1.371      1.658
REMARK INTER + INTRA:          -5.241
REMARK INTER:                  -4.989
REMARK INTRA:                  -0.252
REMARK UNBOUND:                -0.449
REMARK SMILES CCCCCCCCC(=O)[O-]
REMARK SMILES IDX 6 1 7 2 8 3 9 4 10 5 11 6 5 7 4 8 3 9 2 10 1 11
REMARK H PARENT
REMARK Flexibility Score: inf
ROOT
ATOM      1  C   UNL     1      -5.740  21.819 -11.118  1.00  0.00     0.000 C 
ENDROOT
BRANCH   1   2
ATOM      2  C   UNL     1      -6.460  22.977 -10.418  1.00  0.00     0.006 C 
BRANCH   2   3
ATOM      3  C   UNL     1      -5.912  24.328 -10.887  1.00  0.00     0.053 C 
BRANCH   3   4
ATOM      4  C   UNL     1      -6.813  25.439 -10.448  1.00  0.00     0.041 C 
ATOM      5  O   UNL     1      -8.029  25.215 -10.213  1.00  0.00    -0.550 OA
ATOM      6  O   UNL     1      -6.320  26.735 -10.347  1.00  0.00    -0.550 OA
ENDBRANCH   3   4
ENDBRANCH   2   3
ENDBRANCH   1   2
BRANCH   1   7
ATOM      7  C   UNL     1      -6.355  20.470 -10.727  1.00  0.00     0.000 C 
BRANCH   7   8
ATOM      8  C   UNL     1      -6.302  20.259  -9.209  1.00  0.00    -0.000 C 
BRANCH   8   9
ATOM      9  C   UNL     1      -6.107  18.775  -8.867  1.00  0.00    -0.000 C 
BRANCH   9  10
ATOM     10  C   UNL     1      -7.069  18.289  -7.771  1.00  0.00    -0.003 C 
ATOM     11  C   UNL     1      -7.844  19.432  -7.117  1.00  0.00     0.004 C 
ENDBRANCH   9  10
ENDBRANCH   8   9
ENDBRANCH   7   8
ENDBRANCH   1   7
TORSDOF 7
ENDMDL
MODEL 7
REMARK VINA RESULT:    -3.235      9.952     11.114
REMARK INTER + INTRA:          -5.008
REMARK INTER:                  -4.645
REMARK INTRA:                  -0.363
REMARK UNBOUND:                -0.449
REMARK SMILES CCCCCCCCC(=O)[O-]
REMARK SMILES IDX 6 1 7 2 8 3 9 4 10 5 11 6 5 7 4 8 3 9 2 10 1 11
REMARK H PARENT
REMARK Flexibility Score: inf
ROOT
ATOM      1  C   UNL     1     -15.025  27.440 -11.188  1.00  0.00     0.000 C 
ENDROOT
BRANCH   1   2
ATOM      2  C   UNL     1     -16.257  26.597 -11.535  1.00  0.00     0.006 C 
BRANCH   2   3
ATOM      3  C   UNL     1     -15.853  25.295 -12.232  1.00  0.00     0.053 C 
BRANCH   3   4
ATOM      4  C   UNL     1     -17.019  24.708 -12.963  1.00  0.00     0.041 C 
ATOM      5  O   UNL     1     -17.224  25.001 -14.170  1.00  0.00    -0.550 OA
ATOM      6  O   UNL     1     -17.909  23.875 -12.296  1.00  0.00    -0.550 OA
ENDBRANCH   3   4
ENDBRANCH   2   3
ENDBRANCH   1   2
BRANCH   1   7
ATOM      7  C   UNL     1     -13.767  26.568 -11.100  1.00  0.00     0.000 C 
BRANCH   7   8
ATOM      8  C   UNL     1     -12.736  27.181 -10.145  1.00  0.00    -0.000 C 
BRANCH   8   9
ATOM      9  C   UNL     1     -13.350  28.339  -9.344  1.00  0.00    -0.000 C 
BRANCH   9  10
ATOM     10  C   UNL     1     -12.676  28.533  -7.976  1.00  0.00    -0.003 C 
ATOM     11  C   UNL     1     -12.169  27.223  -7.376  1.00  0.00     0.004 C 
ENDBRANCH   9  10
ENDBRANCH   8   9
ENDBRANCH   7   8
ENDBRANCH   1   7
TORSDOF 7
ENDMDL
MODEL 8
REMARK VINA RESULT:    -3.221      9.787     10.768
REMARK INTER + INTRA:          -4.988
REMARK INTER:                  -4.596
REMARK INTRA:                  -0.391
REMARK UNBOUND:                -0.449
REMARK SMILES CCCCCCCCC(=O)[O-]
REMARK SMILES IDX 6 1 7 2 8 3 9 4 10 5 11 6 5 7 4 8 3 9 2 10 1 11
REMARK H PARENT
REMARK Flexibility Score: inf
ROOT
ATOM      1  C   UNL     1     -13.354  26.705 -10.653  1.00  0.00     0.000 C 
ENDROOT
BRANCH   1   2
ATOM      2  C   UNL     1     -14.222  27.871 -11.138  1.00  0.00     0.006 C 
BRANCH   2   3
ATOM      3  C   UNL     1     -15.706  27.493 -11.128  1.00  0.00     0.053 C 
BRANCH   3   4
ATOM      4  C   UNL     1     -16.309  27.699 -12.481  1.00  0.00     0.041 C 
ATOM      5  O   UNL     1     -17.024  28.710 -12.710  1.00  0.00    -0.550 OA
ATOM      6  O   UNL     1     -16.123  26.749 -13.478  1.00  0.00    -0.550 OA
ENDBRANCH   3   4
ENDBRANCH   2   3
ENDBRANCH   1   2
BRANCH   1   7
ATOM      7  C   UNL     1     -12.468  27.130  -9.475  1.00  0.00     0.000 C 
BRANCH   7   8
ATOM      8  C   UNL     1     -12.783  28.565  -9.038  1.00  0.00    -0.000 C 
BRANCH   8   9
ATOM      9  C   UNL     1     -12.830  28.675  -7.507  1.00  0.00    -0.000 C 
BRANCH   9  10
ATOM     10  C   UNL     1     -12.128  27.500  -6.808  1.00  0.00    -0.003 C 
ATOM     11  C   UNL     1     -12.691  27.219  -5.416  1.00  0.00     0.004 C 
ENDBRANCH   9  10
ENDBRANCH   8   9
ENDBRANCH   7   8
ENDBRANCH   1   7
TORSDOF 7
ENDMDL
MODEL 9
REMARK VINA RESULT:    -3.179      3.169      4.972
REMARK INTER + INTRA:          -4.929
REMARK INTER:                  -4.354
REMARK INTRA:                  -0.574
REMARK UNBOUND:                -0.449
REMARK SMILES CCCCCCCCC(=O)[O-]
REMARK SMILES IDX 6 1 7 2 8 3 9 4 10 5 11 6 5 7 4 8 3 9 2 10 1 11
REMARK H PARENT
REMARK Flexibility Score: inf
ROOT
ATOM      1  C   UNL     1      -5.983  20.956 -10.895  1.00  0.00     0.000 C 
ENDROOT
BRANCH   1   2
ATOM      2  C   UNL     1      -6.028  20.000  -9.698  1.00  0.00     0.006 C 
BRANCH   2   3
ATOM      3  C   UNL     1      -7.449  19.888  -9.138  1.00  0.00     0.053 C 
BRANCH   3   4
ATOM      4  C   UNL     1      -7.434  19.216  -7.801  1.00  0.00     0.041 C 
ATOM      5  O   UNL     1      -8.300  19.509  -6.935  1.00  0.00    -0.550 OA
ATOM      6  O   UNL     1      -6.433  18.304  -7.493  1.00  0.00    -0.550 OA
ENDBRANCH   3   4
ENDBRANCH   2   3
ENDBRANCH   1   2
BRANCH   1   7
ATOM      7  C   UNL     1      -5.684  20.199 -12.195  1.00  0.00     0.000 C 
BRANCH   7   8
ATOM      8  C   UNL     1      -6.776  20.448 -13.242  1.00  0.00    -0.000 C 
BRANCH   8   9
ATOM      9  C   UNL     1      -7.644  21.655 -12.854  1.00  0.00    -0.000 C 
BRANCH   9  10
ATOM     10  C   UNL     1      -9.148  21.356 -12.949  1.00  0.00    -0.003 C 
ATOM     11  C   UNL     1      -9.910  21.755 -11.685  1.00  0.00     0.004 C 
ENDBRANCH   9  10
ENDBRANCH   8   9
ENDBRANCH   7   8
ENDBRANCH   1   7
TORSDOF 7
ENDMDL
