MODEL 1
REMARK VINA RESULT:    -2.629      0.000      0.000
REMARK INTER + INTRA:          -9.402
REMARK INTER:                  -5.702
REMARK INTRA:                  -3.700
REMARK UNBOUND:                -3.700
REMARK SMILES CCCCCCCCCCCCCCCCCCCCCC(=O)[O-]
REMARK SMILES IDX 12 1 11 2 10 3 9 4 8 5 7 6 6 7 5 8 4 9 3 10 2 11 1 12 13 13
REMARK SMILES IDX 14 14 15 15 16 16 17 17 18 18 19 19 20 20 21 21 22 22 23 23
REMARK SMILES IDX 24 24
REMARK H PARENT
REMARK Flexibility Score: inf
ROOT
ATOM      1  C   UNL     1       6.476  -1.310  -3.998  1.00  0.00     0.000 C 
ENDROOT
BRANCH   1   2
ATOM      2  C   UNL     1       6.963  -0.337  -5.089  1.00  0.00     0.000 C 
BRANCH   2   3
ATOM      3  C   UNL     1       7.383   1.047  -4.547  1.00  0.00     0.000 C 
BRANCH   3   4
ATOM      4  C   UNL     1       6.626   1.427  -3.261  1.00  0.00    -0.000 C 
BRANCH   4   5
ATOM      5  C   UNL     1       7.556   1.551  -2.044  1.00  0.00    -0.000 C 
BRANCH   5   6
ATOM      6  C   UNL     1       8.324   2.881  -2.017  1.00  0.00    -0.000 C 
BRANCH   6   7
ATOM      7  C   UNL     1       9.835   2.645  -2.132  1.00  0.00    -0.000 C 
BRANCH   7   8
ATOM      8  C   UNL     1      10.193   1.189  -1.800  1.00  0.00    -0.000 C 
BRANCH   8   9
ATOM      9  C   UNL     1      11.216   0.582  -2.778  1.00  0.00    -0.000 C 
BRANCH   9  10
ATOM     10  C   UNL     1      11.391  -0.944  -2.672  1.00  0.00    -0.000 C 
BRANCH  10  11
ATOM     11  C   UNL     1      11.269  -1.657  -4.027  1.00  0.00    -0.003 C 
ATOM     12  C   UNL     1      10.602  -0.758  -5.064  1.00  0.00     0.004 C 
ENDBRANCH  10  11
ENDBRANCH   9  10
ENDBRANCH   8   9
ENDBRANCH   7   8
ENDBRANCH   6   7
ENDBRANCH   5   6
ENDBRANCH   4   5
ENDBRANCH   3   4
ENDBRANCH   2   3
ENDBRANCH   1   2
BRANCH   1  13
ATOM     13  C   UNL     1       7.547  -2.283  -3.473  1.00  0.00     0.000 C 
BRANCH  13  14
ATOM     14  C   UNL     1       7.967  -2.064  -2.004  1.00  0.00     0.000 C 
BRANCH  14  15
ATOM     15  C   UNL     1       8.747  -3.226  -1.362  1.00  0.00     0.000 C 
BRANCH  15  16
ATOM     16  C   UNL     1       9.212  -2.915   0.072  1.00  0.00     0.000 C 
BRANCH  16  17
ATOM     17  C   UNL     1       9.087  -1.423   0.423  1.00  0.00     0.000 C 
BRANCH  17  18
ATOM     18  C   UNL     1       8.708  -1.191   1.897  1.00  0.00     0.000 C 
BRANCH  18  19
ATOM     19  C   UNL     1       9.047   0.229   2.377  1.00  0.00     0.000 C 
BRANCH  19  20
ATOM     20  C   UNL     1       8.627   1.312   1.367  1.00  0.00     0.006 C 
BRANCH  20  21
ATOM     21  C   UNL     1       8.740   2.726   1.954  1.00  0.00     0.053 C 
BRANCH  21  22
ATOM     22  C   UNL     1       7.399   3.288   2.316  1.00  0.00     0.041 C 
ATOM     23  O   UNL     1       6.740   3.948   1.470  1.00  0.00    -0.550 OA
ATOM     24  O   UNL     1       6.893   3.110   3.597  1.00  0.00    -0.550 OA
ENDBRANCH  21  22
ENDBRANCH  20  21
ENDBRANCH  19  20
ENDBRANCH  18  19
ENDBRANCH  17  18
ENDBRANCH  16  17
ENDBRANCH  15  16
ENDBRANCH  14  15
ENDBRANCH  13  14
ENDBRANCH   1  13
TORSDOF 20
ENDMDL
MODEL 2
REMARK VINA RESULT:    -2.619      1.778      4.757
REMARK INTER + INTRA:          -9.382
REMARK INTER:                  -5.833
REMARK INTRA:                  -3.549
REMARK UNBOUND:                -3.700
REMARK SMILES CCCCCCCCCCCCCCCCCCCCCC(=O)[O-]
REMARK SMILES IDX 12 1 11 2 10 3 9 4 8 5 7 6 6 7 5 8 4 9 3 10 2 11 1 12 13 13
REMARK SMILES IDX 14 14 15 15 16 16 17 17 18 18 19 19 20 20 21 21 22 22 23 23
REMARK SMILES IDX 24 24
REMARK H PARENT
REMARK Flexibility Score: inf
ROOT
ATOM      1  C   UNL     1       8.860  -4.387  -3.002  1.00  0.00     0.000 C 
ENDROOT
BRANCH   1   2
ATOM      2  C   UNL     1       9.108  -5.112  -1.665  1.00  0.00     0.000 C 
BRANCH   2   3
ATOM      3  C   UNL     1      10.559  -4.987  -1.150  1.00  0.00     0.000 C 
BRANCH   3   4
ATOM      4  C   UNL     1      11.423  -4.079  -2.043  1.00  0.00    -0.000 C 
BRANCH   4   5
ATOM      5  C   UNL     1      11.994  -2.872  -1.281  1.00  0.00    -0.000 C 
BRANCH   5   6
ATOM      6  C   UNL     1      10.936  -1.796  -0.995  1.00  0.00    -0.000 C 
BRANCH   6   7
ATOM      7  C   UNL     1      11.265  -1.030   0.293  1.00  0.00    -0.000 C 
BRANCH   7   8
ATOM      8  C   UNL     1      10.137  -1.177   1.325  1.00  0.00    -0.000 C 
BRANCH   8   9
ATOM      9  C   UNL     1       9.046  -2.173   0.887  1.00  0.00    -0.000 C 
BRANCH   9  10
ATOM     10  C   UNL     1       8.487  -3.061   2.012  1.00  0.00    -0.000 C 
BRANCH  10  11
ATOM     11  C   UNL     1       9.079  -4.478   2.008  1.00  0.00    -0.003 C 
ATOM     12  C   UNL     1      10.373  -4.536   2.815  1.00  0.00     0.004 C 
ENDBRANCH  10  11
ENDBRANCH   9  10
ENDBRANCH   8   9
ENDBRANCH   7   8
ENDBRANCH   6   7
ENDBRANCH   5   6
ENDBRANCH   4   5
ENDBRANCH   3   4
ENDBRANCH   2   3
ENDBRANCH   1   2
BRANCH   1  13
ATOM     13  C   UNL     1       7.570  -3.548  -3.055  1.00  0.00     0.000 C 
BRANCH  13  14
ATOM     14  C   UNL     1       7.716  -2.090  -2.571  1.00  0.00     0.000 C 
BRANCH  14  15
ATOM     15  C   UNL     1       6.933  -1.044  -3.385  1.00  0.00     0.000 C 
BRANCH  15  16
ATOM     16  C   UNL     1       7.069   0.380  -2.817  1.00  0.00     0.000 C 
BRANCH  16  17
ATOM     17  C   UNL     1       8.017   0.447  -1.609  1.00  0.00     0.000 C 
BRANCH  17  18
ATOM     18  C   UNL     1       8.111   1.861  -1.007  1.00  0.00     0.000 C 
BRANCH  18  19
ATOM     19  C   UNL     1       9.528   2.200  -0.516  1.00  0.00     0.000 C 
BRANCH  19  20
ATOM     20  C   UNL     1       9.590   2.424   1.006  1.00  0.00     0.006 C 
BRANCH  20  21
ATOM     21  C   UNL     1       8.287   2.013   1.705  1.00  0.00     0.053 C 
BRANCH  21  22
ATOM     22  C   UNL     1       7.640   3.171   2.402  1.00  0.00     0.041 C 
ATOM     23  O   UNL     1       6.727   3.824   1.832  1.00  0.00    -0.550 OA
ATOM     24  O   UNL     1       8.069   3.547   3.668  1.00  0.00    -0.550 OA
ENDBRANCH  21  22
ENDBRANCH  20  21
ENDBRANCH  19  20
ENDBRANCH  18  19
ENDBRANCH  17  18
ENDBRANCH  16  17
ENDBRANCH  15  16
ENDBRANCH  14  15
ENDBRANCH  13  14
ENDBRANCH   1  13
TORSDOF 20
ENDMDL
MODEL 3
REMARK VINA RESULT:    -2.599      1.403      4.334
REMARK INTER + INTRA:          -9.338
REMARK INTER:                  -6.044
REMARK INTRA:                  -3.294
REMARK UNBOUND:                -3.700
REMARK SMILES CCCCCCCCCCCCCCCCCCCCCC(=O)[O-]
REMARK SMILES IDX 12 1 11 2 10 3 9 4 8 5 7 6 6 7 5 8 4 9 3 10 2 11 1 12 13 13
REMARK SMILES IDX 14 14 15 15 16 16 17 17 18 18 19 19 20 20 21 21 22 22 23 23
REMARK SMILES IDX 24 24
REMARK H PARENT
REMARK Flexibility Score: inf
ROOT
ATOM      1  C   UNL     1       9.158  -2.576  -2.868  1.00  0.00     0.000 C 
ENDROOT
BRANCH   1   2
ATOM      2  C   UNL     1       9.921  -1.725  -3.902  1.00  0.00     0.000 C 
BRANCH   2   3
ATOM      3  C   UNL     1      10.682  -0.531  -3.285  1.00  0.00     0.000 C 
BRANCH   3   4
ATOM      4  C   UNL     1      11.403  -0.906  -1.979  1.00  0.00    -0.000 C 
BRANCH   4   5
ATOM      5  C   UNL     1      10.878  -0.119  -0.768  1.00  0.00    -0.000 C 
BRANCH   5   6
ATOM      6  C   UNL     1      10.524  -1.025   0.421  1.00  0.00    -0.000 C 
BRANCH   6   7
ATOM      7  C   UNL     1       9.025  -0.953   0.740  1.00  0.00    -0.000 C 
BRANCH   7   8
ATOM      8  C   UNL     1       8.685  -1.794   1.979  1.00  0.00    -0.000 C 
BRANCH   8   9
ATOM      9  C   UNL     1       9.574  -3.044   2.122  1.00  0.00    -0.000 C 
BRANCH   9  10
ATOM     10  C   UNL     1       8.931  -4.358   1.645  1.00  0.00    -0.000 C 
BRANCH  10  11
ATOM     11  C   UNL     1       8.882  -4.482   0.115  1.00  0.00    -0.003 C 
ATOM     12  C   UNL     1       9.653  -5.709  -0.363  1.00  0.00     0.004 C 
ENDBRANCH  10  11
ENDBRANCH   9  10
ENDBRANCH   8   9
ENDBRANCH   7   8
ENDBRANCH   6   7
ENDBRANCH   5   6
ENDBRANCH   4   5
ENDBRANCH   3   4
ENDBRANCH   2   3
ENDBRANCH   1   2
BRANCH   1  13
ATOM     13  C   UNL     1       7.793  -2.005  -2.440  1.00  0.00     0.000 C 
BRANCH  13  14
ATOM     14  C   UNL     1       6.851  -1.620  -3.600  1.00  0.00     0.000 C 
BRANCH  14  15
ATOM     15  C   UNL     1       6.578  -0.113  -3.754  1.00  0.00     0.000 C 
BRANCH  15  16
ATOM     16  C   UNL     1       7.241   0.730  -2.650  1.00  0.00     0.000 C 
BRANCH  16  17
ATOM     17  C   UNL     1       7.020   2.239  -2.844  1.00  0.00     0.000 C 
BRANCH  17  18
ATOM     18  C   UNL     1       7.327   3.052  -1.573  1.00  0.00     0.000 C 
BRANCH  18  19
ATOM     19  C   UNL     1       8.122   2.244  -0.535  1.00  0.00     0.000 C 
BRANCH  19  20
ATOM     20  C   UNL     1       8.883   3.140   0.459  1.00  0.00     0.006 C 
BRANCH  20  21
ATOM     21  C   UNL     1       8.993   2.499   1.849  1.00  0.00     0.053 C 
BRANCH  21  22
ATOM     22  C   UNL     1       7.662   2.418   2.532  1.00  0.00     0.041 C 
ATOM     23  O   UNL     1       7.371   1.415   3.236  1.00  0.00    -0.550 OA
ATOM     24  O   UNL     1       6.732   3.435   2.365  1.00  0.00    -0.550 OA
ENDBRANCH  21  22
ENDBRANCH  20  21
ENDBRANCH  19  20
ENDBRANCH  18  19
ENDBRANCH  17  18
ENDBRANCH  16  17
ENDBRANCH  15  16
ENDBRANCH  14  15
ENDBRANCH  13  14
ENDBRANCH   1  13
TORSDOF 20
ENDMDL
MODEL 4
REMARK VINA RESULT:    -2.504      4.651      7.282
REMARK INTER + INTRA:          -9.132
REMARK INTER:                  -7.080
REMARK INTRA:                  -2.052
REMARK UNBOUND:                -3.700
REMARK SMILES CCCCCCCCCCCCCCCCCCCCCC(=O)[O-]
REMARK SMILES IDX 12 1 11 2 10 3 9 4 8 5 7 6 6 7 5 8 4 9 3 10 2 11 1 12 13 13
REMARK SMILES IDX 14 14 15 15 16 16 17 17 18 18 19 19 20 20 21 21 22 22 23 23
REMARK SMILES IDX 24 24
REMARK H PARENT
REMARK Flexibility Score: inf
ROOT
ATOM      1  C   UNL     1       5.055  -2.752  -5.139  1.00  0.00     0.000 C 
ENDROOT
BRANCH   1   2
ATOM      2  C   UNL     1       5.404  -1.412  -5.816  1.00  0.00     0.000 C 
BRANCH   2   3
ATOM      3  C   UNL     1       5.838  -0.310  -4.826  1.00  0.00     0.000 C 
BRANCH   3   4
ATOM      4  C   UNL     1       6.675  -0.865  -3.660  1.00  0.00    -0.000 C 
BRANCH   4   5
ATOM      5  C   UNL     1       7.206   0.243  -2.735  1.00  0.00    -0.000 C 
BRANCH   5   6
ATOM      6  C   UNL     1       8.129  -0.298  -1.633  1.00  0.00    -0.000 C 
BRANCH   6   7
ATOM      7  C   UNL     1       8.330  -1.812  -1.778  1.00  0.00    -0.000 C 
BRANCH   7   8
ATOM      8  C   UNL     1       8.970  -2.406  -0.515  1.00  0.00    -0.000 C 
BRANCH   8   9
ATOM      9  C   UNL     1       9.715  -3.728  -0.782  1.00  0.00    -0.000 C 
BRANCH   9  10
ATOM     10  C   UNL     1       9.178  -4.945  -0.007  1.00  0.00    -0.000 C 
BRANCH  10  11
ATOM     11  C   UNL     1       9.451  -4.864   1.502  1.00  0.00    -0.003 C 
ATOM     12  C   UNL     1       8.152  -4.722   2.290  1.00  0.00     0.004 C 
ENDBRANCH  10  11
ENDBRANCH   9  10
ENDBRANCH   8   9
ENDBRANCH   7   8
ENDBRANCH   6   7
ENDBRANCH   5   6
ENDBRANCH   4   5
ENDBRANCH   3   4
ENDBRANCH   2   3
ENDBRANCH   1   2
BRANCH   1  13
ATOM     13  C   UNL     1       6.069  -3.885  -5.384  1.00  0.00     0.000 C 
BRANCH  13  14
ATOM     14  C   UNL     1       6.825  -4.371  -4.130  1.00  0.00     0.000 C 
BRANCH  14  15
ATOM     15  C   UNL     1       6.483  -5.800  -3.668  1.00  0.00     0.000 C 
BRANCH  15  16
ATOM     16  C   UNL     1       5.231  -6.368  -4.359  1.00  0.00     0.000 C 
BRANCH  16  17
ATOM     17  C   UNL     1       4.066  -6.594  -3.381  1.00  0.00     0.000 C 
BRANCH  17  18
ATOM     18  C   UNL     1       2.691  -6.371  -4.036  1.00  0.00     0.000 C 
BRANCH  18  19
ATOM     19  C   UNL     1       2.355  -4.881  -4.212  1.00  0.00     0.000 C 
BRANCH  19  20
ATOM     20  C   UNL     1       1.255  -4.640  -5.260  1.00  0.00     0.006 C 
BRANCH  20  21
ATOM     21  C   UNL     1       1.492  -3.354  -6.062  1.00  0.00     0.053 C 
BRANCH  21  22
ATOM     22  C   UNL     1       0.898  -2.156  -5.385  1.00  0.00     0.041 C 
ATOM     23  O   UNL     1      -0.348  -1.977  -5.393  1.00  0.00    -0.550 OA
ATOM     24  O   UNL     1       1.725  -1.223  -4.772  1.00  0.00    -0.550 OA
ENDBRANCH  21  22
ENDBRANCH  20  21
ENDBRANCH  19  20
ENDBRANCH  18  19
ENDBRANCH  17  18
ENDBRANCH  16  17
ENDBRANCH  15  16
ENDBRANCH  14  15
ENDBRANCH  13  14
ENDBRANCH   1  13
TORSDOF 20
ENDMDL
MODEL 5
REMARK VINA RESULT:    -2.497      1.947      4.911
REMARK INTER + INTRA:          -9.117
REMARK INTER:                  -5.895
REMARK INTRA:                  -3.222
REMARK UNBOUND:                -3.700
REMARK SMILES CCCCCCCCCCCCCCCCCCCCCC(=O)[O-]
REMARK SMILES IDX 12 1 11 2 10 3 9 4 8 5 7 6 6 7 5 8 4 9 3 10 2 11 1 12 13 13
REMARK SMILES IDX 14 14 15 15 16 16 17 17 18 18 19 19 20 20 21 21 22 22 23 23
REMARK SMILES IDX 24 24
REMARK H PARENT
REMARK Flexibility Score: inf
ROOT
ATOM      1  C   UNL     1       7.616  -1.050  -2.102  1.00  0.00     0.000 C 
ENDROOT
BRANCH   1   2
ATOM      2  C   UNL     1       7.998  -2.323  -2.882  1.00  0.00     0.000 C 
BRANCH   2   3
ATOM      3  C   UNL     1       8.924  -3.279  -2.098  1.00  0.00     0.000 C 
BRANCH   3   4
ATOM      4  C   UNL     1       8.460  -4.744  -2.182  1.00  0.00    -0.000 C 
BRANCH   4   5
ATOM      5  C   UNL     1       8.945  -5.586  -0.990  1.00  0.00    -0.000 C 
BRANCH   5   6
ATOM      6  C   UNL     1       9.959  -4.839  -0.111  1.00  0.00    -0.000 C 
BRANCH   6   7
ATOM      7  C   UNL     1       9.593  -4.960   1.374  1.00  0.00    -0.000 C 
BRANCH   7   8
ATOM      8  C   UNL     1       8.442  -4.009   1.736  1.00  0.00    -0.000 C 
BRANCH   8   9
ATOM      9  C   UNL     1       8.930  -2.648   2.267  1.00  0.00    -0.000 C 
BRANCH   9  10
ATOM     10  C   UNL     1       8.863  -1.492   1.253  1.00  0.00    -0.000 C 
BRANCH  10  11
ATOM     11  C   UNL     1      10.217  -1.197   0.590  1.00  0.00    -0.003 C 
ATOM     12  C   UNL     1      11.374  -1.600   1.499  1.00  0.00     0.004 C 
ENDBRANCH  10  11
ENDBRANCH   9  10
ENDBRANCH   8   9
ENDBRANCH   7   8
ENDBRANCH   6   7
ENDBRANCH   5   6
ENDBRANCH   4   5
ENDBRANCH   3   4
ENDBRANCH   2   3
ENDBRANCH   1   2
BRANCH   1  13
ATOM     13  C   UNL     1       8.445   0.199  -2.453  1.00  0.00     0.000 C 
BRANCH  13  14
ATOM     14  C   UNL     1       7.635   1.504  -2.598  1.00  0.00     0.000 C 
BRANCH  14  15
ATOM     15  C   UNL     1       7.772   2.497  -1.430  1.00  0.00     0.000 C 
BRANCH  15  16
ATOM     16  C   UNL     1       8.508   1.897  -0.218  1.00  0.00     0.000 C 
BRANCH  16  17
ATOM     17  C   UNL     1       9.903   2.509  -0.010  1.00  0.00     0.000 C 
BRANCH  17  18
ATOM     18  C   UNL     1      10.117   3.021   1.426  1.00  0.00     0.000 C 
BRANCH  18  19
ATOM     19  C   UNL     1      10.328   1.880   2.434  1.00  0.00     0.000 C 
BRANCH  19  20
ATOM     20  C   UNL     1       9.361   1.957   3.628  1.00  0.00     0.006 C 
BRANCH  20  21
ATOM     21  C   UNL     1       7.899   1.766   3.202  1.00  0.00     0.053 C 
BRANCH  21  22
ATOM     22  C   UNL     1       7.120   3.043   3.294  1.00  0.00     0.041 C 
ATOM     23  O   UNL     1       6.766   3.646   2.248  1.00  0.00    -0.550 OA
ATOM     24  O   UNL     1       6.813   3.581   4.537  1.00  0.00    -0.550 OA
ENDBRANCH  21  22
ENDBRANCH  20  21
ENDBRANCH  19  20
ENDBRANCH  18  19
ENDBRANCH  17  18
ENDBRANCH  16  17
ENDBRANCH  15  16
ENDBRANCH  14  15
ENDBRANCH  13  14
ENDBRANCH   1  13
TORSDOF 20
ENDMDL
MODEL 6
REMARK VINA RESULT:    -2.493      1.670      4.525
REMARK INTER + INTRA:          -9.108
REMARK INTER:                  -6.169
REMARK INTRA:                  -2.939
REMARK UNBOUND:                -3.700
REMARK SMILES CCCCCCCCCCCCCCCCCCCCCC(=O)[O-]
REMARK SMILES IDX 12 1 11 2 10 3 9 4 8 5 7 6 6 7 5 8 4 9 3 10 2 11 1 12 13 13
REMARK SMILES IDX 14 14 15 15 16 16 17 17 18 18 19 19 20 20 21 21 22 22 23 23
REMARK SMILES IDX 24 24
REMARK H PARENT
REMARK Flexibility Score: inf
ROOT
ATOM      1  C   UNL     1       7.470  -1.266  -2.707  1.00  0.00     0.000 C 
ENDROOT
BRANCH   1   2
ATOM      2  C   UNL     1       6.678  -1.334  -4.028  1.00  0.00     0.000 C 
BRANCH   2   3
ATOM      3  C   UNL     1       7.023  -2.563  -4.897  1.00  0.00     0.000 C 
BRANCH   3   4
ATOM      4  C   UNL     1       6.283  -3.832  -4.439  1.00  0.00    -0.000 C 
BRANCH   4   5
ATOM      5  C   UNL     1       7.215  -4.844  -3.753  1.00  0.00    -0.000 C 
BRANCH   5   6
ATOM      6  C   UNL     1       8.697  -4.601  -4.079  1.00  0.00    -0.000 C 
BRANCH   6   7
ATOM      7  C   UNL     1       9.553  -4.645  -2.806  1.00  0.00    -0.000 C 
BRANCH   7   8
ATOM      8  C   UNL     1       8.673  -4.613  -1.548  1.00  0.00    -0.000 C 
BRANCH   8   9
ATOM      9  C   UNL     1       9.455  -4.236  -0.276  1.00  0.00    -0.000 C 
BRANCH   9  10
ATOM     10  C   UNL     1       9.089  -2.871   0.333  1.00  0.00    -0.000 C 
BRANCH  10  11
ATOM     11  C   UNL     1       8.690  -2.961   1.813  1.00  0.00    -0.003 C 
ATOM     12  C   UNL     1       8.220  -4.368   2.171  1.00  0.00     0.004 C 
ENDBRANCH  10  11
ENDBRANCH   9  10
ENDBRANCH   8   9
ENDBRANCH   7   8
ENDBRANCH   6   7
ENDBRANCH   5   6
ENDBRANCH   4   5
ENDBRANCH   3   4
ENDBRANCH   2   3
ENDBRANCH   1   2
BRANCH   1  13
ATOM     13  C   UNL     1       8.977  -0.992  -2.869  1.00  0.00     0.000 C 
BRANCH  13  14
ATOM     14  C   UNL     1       9.494   0.272  -2.150  1.00  0.00     0.000 C 
BRANCH  14  15
ATOM     15  C   UNL     1       8.439   1.365  -1.900  1.00  0.00     0.000 C 
BRANCH  15  16
ATOM     16  C   UNL     1       8.332   1.764  -0.417  1.00  0.00     0.000 C 
BRANCH  16  17
ATOM     17  C   UNL     1       8.992   0.739   0.521  1.00  0.00     0.000 C 
BRANCH  17  18
ATOM     18  C   UNL     1       9.806   1.404   1.646  1.00  0.00     0.000 C 
BRANCH  18  19
ATOM     19  C   UNL     1       9.258   1.075   3.044  1.00  0.00     0.000 C 
BRANCH  19  20
ATOM     20  C   UNL     1       7.740   1.297   3.153  1.00  0.00     0.006 C 
BRANCH  20  21
ATOM     21  C   UNL     1       7.397   2.618   3.856  1.00  0.00     0.053 C 
BRANCH  21  22
ATOM     22  C   UNL     1       7.544   3.793   2.937  1.00  0.00     0.041 C 
ATOM     23  O   UNL     1       6.816   3.894   1.916  1.00  0.00    -0.550 OA
ATOM     24  O   UNL     1       8.509   4.759   3.194  1.00  0.00    -0.550 OA
ENDBRANCH  21  22
ENDBRANCH  20  21
ENDBRANCH  19  20
ENDBRANCH  18  19
ENDBRANCH  17  18
ENDBRANCH  16  17
ENDBRANCH  15  16
ENDBRANCH  14  15
ENDBRANCH  13  14
ENDBRANCH   1  13
TORSDOF 20
ENDMDL
MODEL 7
REMARK VINA RESULT:    -2.487      4.131      6.350
REMARK INTER + INTRA:          -9.095
REMARK INTER:                  -6.305
REMARK INTRA:                  -2.790
REMARK UNBOUND:                -3.700
REMARK SMILES CCCCCCCCCCCCCCCCCCCCCC(=O)[O-]
REMARK SMILES IDX 12 1 11 2 10 3 9 4 8 5 7 6 6 7 5 8 4 9 3 10 2 11 1 12 13 13
REMARK SMILES IDX 14 14 15 15 16 16 17 17 18 18 19 19 20 20 21 21 22 22 23 23
REMARK SMILES IDX 24 24
REMARK H PARENT
REMARK Flexibility Score: inf
ROOT
ATOM      1  C   UNL     1       3.888  -2.639  -6.080  1.00  0.00     0.000 C 
ENDROOT
BRANCH   1   2
ATOM      2  C   UNL     1       5.107  -2.004  -5.383  1.00  0.00     0.000 C 
BRANCH   2   3
ATOM      3  C   UNL     1       5.824  -0.935  -6.236  1.00  0.00     0.000 C 
BRANCH   3   4
ATOM      4  C   UNL     1       5.650   0.484  -5.666  1.00  0.00    -0.000 C 
BRANCH   4   5
ATOM      5  C   UNL     1       5.690   0.513  -4.130  1.00  0.00    -0.000 C 
BRANCH   5   6
ATOM      6  C   UNL     1       6.826   1.391  -3.583  1.00  0.00    -0.000 C 
BRANCH   6   7
ATOM      7  C   UNL     1       7.833   0.553  -2.786  1.00  0.00    -0.000 C 
BRANCH   7   8
ATOM      8  C   UNL     1       7.294  -0.863  -2.533  1.00  0.00    -0.000 C 
BRANCH   8   9
ATOM      9  C   UNL     1       8.185  -1.964  -3.136  1.00  0.00    -0.000 C 
BRANCH   9  10
ATOM     10  C   UNL     1       7.722  -3.404  -2.852  1.00  0.00    -0.000 C 
BRANCH  10  11
ATOM     11  C   UNL     1       7.605  -4.258  -4.123  1.00  0.00    -0.003 C 
ATOM     12  C   UNL     1       6.490  -5.292  -3.990  1.00  0.00     0.004 C 
ENDBRANCH  10  11
ENDBRANCH   9  10
ENDBRANCH   8   9
ENDBRANCH   7   8
ENDBRANCH   6   7
ENDBRANCH   5   6
ENDBRANCH   4   5
ENDBRANCH   3   4
ENDBRANCH   2   3
ENDBRANCH   1   2
BRANCH   1  13
ATOM     13  C   UNL     1       2.878  -3.313  -5.133  1.00  0.00     0.000 C 
BRANCH  13  14
ATOM     14  C   UNL     1       1.596  -2.500  -4.857  1.00  0.00     0.000 C 
BRANCH  14  15
ATOM     15  C   UNL     1       1.126  -1.599  -6.013  1.00  0.00     0.000 C 
BRANCH  15  16
ATOM     16  C   UNL     1       0.812  -0.162  -5.561  1.00  0.00     0.000 C 
BRANCH  16  17
ATOM     17  C   UNL     1       2.080   0.650  -5.247  1.00  0.00     0.000 C 
BRANCH  17  18
ATOM     18  C   UNL     1       1.910   1.562  -4.018  1.00  0.00     0.000 C 
BRANCH  18  19
ATOM     19  C   UNL     1       0.684   1.186  -3.170  1.00  0.00     0.000 C 
BRANCH  19  20
ATOM     20  C   UNL     1       0.569   2.029  -1.888  1.00  0.00     0.006 C 
BRANCH  20  21
ATOM     21  C   UNL     1       1.289   3.378  -2.015  1.00  0.00     0.053 C 
BRANCH  21  22
ATOM     22  C   UNL     1       1.632   3.955  -0.676  1.00  0.00     0.041 C 
ATOM     23  O   UNL     1       2.312   5.012  -0.596  1.00  0.00    -0.550 OA
ATOM     24  O   UNL     1       1.228   3.308   0.484  1.00  0.00    -0.550 OA
ENDBRANCH  21  22
ENDBRANCH  20  21
ENDBRANCH  19  20
ENDBRANCH  18  19
ENDBRANCH  17  18
ENDBRANCH  16  17
ENDBRANCH  15  16
ENDBRANCH  14  15
ENDBRANCH  13  14
ENDBRANCH   1  13
TORSDOF 20
ENDMDL
MODEL 8
REMARK VINA RESULT:    -2.485      3.963      7.302
REMARK INTER + INTRA:          -9.090
REMARK INTER:                  -5.579
REMARK INTRA:                  -3.512
REMARK UNBOUND:                -3.700
REMARK SMILES CCCCCCCCCCCCCCCCCCCCCC(=O)[O-]
REMARK SMILES IDX 12 1 11 2 10 3 9 4 8 5 7 6 6 7 5 8 4 9 3 10 2 11 1 12 13 13
REMARK SMILES IDX 14 14 15 15 16 16 17 17 18 18 19 19 20 20 21 21 22 22 23 23
REMARK SMILES IDX 24 24
REMARK H PARENT
REMARK Flexibility Score: inf
ROOT
ATOM      1  C   UNL     1       8.206  -1.202  -1.768  1.00  0.00     0.000 C 
ENDROOT
BRANCH   1   2
ATOM      2  C   UNL     1       7.196  -0.653  -2.794  1.00  0.00     0.000 C 
BRANCH   2   3
ATOM      3  C   UNL     1       7.088   0.888  -2.798  1.00  0.00     0.000 C 
BRANCH   3   4
ATOM      4  C   UNL     1       6.048   1.401  -3.809  1.00  0.00    -0.000 C 
BRANCH   4   5
ATOM      5  C   UNL     1       5.441   0.271  -4.656  1.00  0.00    -0.000 C 
BRANCH   5   6
ATOM      6  C   UNL     1       3.932   0.446  -4.884  1.00  0.00    -0.000 C 
BRANCH   6   7
ATOM      7  C   UNL     1       3.408  -0.576  -5.901  1.00  0.00    -0.000 C 
BRANCH   7   8
ATOM      8  C   UNL     1       2.189  -1.328  -5.348  1.00  0.00    -0.000 C 
BRANCH   8   9
ATOM      9  C   UNL     1       2.161  -2.813  -5.758  1.00  0.00    -0.000 C 
BRANCH   9  10
ATOM     10  C   UNL     1       1.994  -3.806  -4.593  1.00  0.00    -0.000 C 
BRANCH  10  11
ATOM     11  C   UNL     1       2.536  -5.206  -4.917  1.00  0.00    -0.003 C 
ATOM     12  C   UNL     1       1.543  -5.998  -5.763  1.00  0.00     0.004 C 
ENDBRANCH  10  11
ENDBRANCH   9  10
ENDBRANCH   8   9
ENDBRANCH   7   8
ENDBRANCH   6   7
ENDBRANCH   5   6
ENDBRANCH   4   5
ENDBRANCH   3   4
ENDBRANCH   2   3
ENDBRANCH   1   2
BRANCH   1  13
ATOM     13  C   UNL     1       8.407  -2.728  -1.810  1.00  0.00     0.000 C 
BRANCH  13  14
ATOM     14  C   UNL     1       8.245  -3.373  -3.203  1.00  0.00     0.000 C 
BRANCH  14  15
ATOM     15  C   UNL     1       7.440  -4.685  -3.231  1.00  0.00     0.000 C 
BRANCH  15  16
ATOM     16  C   UNL     1       6.498  -4.781  -4.445  1.00  0.00     0.000 C 
BRANCH  16  17
ATOM     17  C   UNL     1       5.816  -3.442  -4.773  1.00  0.00     0.000 C 
BRANCH  17  18
ATOM     18  C   UNL     1       5.894  -3.089  -6.270  1.00  0.00     0.000 C 
BRANCH  18  19
ATOM     19  C   UNL     1       7.342  -2.962  -6.771  1.00  0.00     0.000 C 
BRANCH  19  20
ATOM     20  C   UNL     1       7.761  -1.500  -7.006  1.00  0.00     0.006 C 
BRANCH  20  21
ATOM     21  C   UNL     1       8.849  -1.045  -6.023  1.00  0.00     0.053 C 
BRANCH  21  22
ATOM     22  C   UNL     1       8.968   0.448  -5.977  1.00  0.00     0.041 C 
ATOM     23  O   UNL     1       8.227   1.166  -6.698  1.00  0.00    -0.550 OA
ATOM     24  O   UNL     1       9.921   1.044  -5.160  1.00  0.00    -0.550 OA
ENDBRANCH  21  22
ENDBRANCH  20  21
ENDBRANCH  19  20
ENDBRANCH  18  19
ENDBRANCH  17  18
ENDBRANCH  16  17
ENDBRANCH  15  16
ENDBRANCH  14  15
ENDBRANCH  13  14
ENDBRANCH   1  13
TORSDOF 20
ENDMDL
MODEL 9
REMARK VINA RESULT:    -2.472      1.786      4.588
REMARK INTER + INTRA:          -9.063
REMARK INTER:                  -6.210
REMARK INTRA:                  -2.853
REMARK UNBOUND:                -3.700
REMARK SMILES CCCCCCCCCCCCCCCCCCCCCC(=O)[O-]
REMARK SMILES IDX 12 1 11 2 10 3 9 4 8 5 7 6 6 7 5 8 4 9 3 10 2 11 1 12 13 13
REMARK SMILES IDX 14 14 15 15 16 16 17 17 18 18 19 19 20 20 21 21 22 22 23 23
REMARK SMILES IDX 24 24
REMARK H PARENT
REMARK Flexibility Score: inf
ROOT
ATOM      1  C   UNL     1       6.892   0.202  -3.610  1.00  0.00     0.000 C 
ENDROOT
BRANCH   1   2
ATOM      2  C   UNL     1       6.865  -1.338  -3.658  1.00  0.00     0.000 C 
BRANCH   2   3
ATOM      3  C   UNL     1       7.578  -2.011  -2.466  1.00  0.00     0.000 C 
BRANCH   3   4
ATOM      4  C   UNL     1       8.043  -3.442  -2.791  1.00  0.00    -0.000 C 
BRANCH   4   5
ATOM      5  C   UNL     1       8.726  -4.126  -1.596  1.00  0.00    -0.000 C 
BRANCH   5   6
ATOM      6  C   UNL     1      10.122  -3.554  -1.304  1.00  0.00    -0.000 C 
BRANCH   6   7
ATOM      7  C   UNL     1      10.223  -3.067   0.147  1.00  0.00    -0.000 C 
BRANCH   7   8
ATOM      8  C   UNL     1       8.863  -3.157   0.855  1.00  0.00    -0.000 C 
BRANCH   8   9
ATOM      9  C   UNL     1       8.987  -3.448   2.363  1.00  0.00    -0.000 C 
BRANCH   9  10
ATOM     10  C   UNL     1       9.162  -4.933   2.727  1.00  0.00    -0.000 C 
BRANCH  10  11
ATOM     11  C   UNL     1       8.413  -5.877   1.774  1.00  0.00    -0.003 C 
ATOM     12  C   UNL     1       9.374  -6.842   1.086  1.00  0.00     0.004 C 
ENDBRANCH  10  11
ENDBRANCH   9  10
ENDBRANCH   8   9
ENDBRANCH   7   8
ENDBRANCH   6   7
ENDBRANCH   5   6
ENDBRANCH   4   5
ENDBRANCH   3   4
ENDBRANCH   2   3
ENDBRANCH   1   2
BRANCH   1  13
ATOM     13  C   UNL     1       8.291   0.830  -3.745  1.00  0.00     0.000 C 
BRANCH  13  14
ATOM     14  C   UNL     1       8.716   1.741  -2.575  1.00  0.00     0.000 C 
BRANCH  14  15
ATOM     15  C   UNL     1       8.006   1.468  -1.237  1.00  0.00     0.000 C 
BRANCH  15  16
ATOM     16  C   UNL     1       8.700   0.376  -0.403  1.00  0.00     0.000 C 
BRANCH  16  17
ATOM     17  C   UNL     1      10.086   0.808   0.102  1.00  0.00     0.000 C 
BRANCH  17  18
ATOM     18  C   UNL     1      10.120   1.030   1.625  1.00  0.00     0.000 C 
BRANCH  18  19
ATOM     19  C   UNL     1       8.960   0.326   2.349  1.00  0.00     0.000 C 
BRANCH  19  20
ATOM     20  C   UNL     1       8.087   1.301   3.159  1.00  0.00     0.006 C 
BRANCH  20  21
ATOM     21  C   UNL     1       8.484   2.765   2.924  1.00  0.00     0.053 C 
BRANCH  21  22
ATOM     22  C   UNL     1       7.397   3.710   3.338  1.00  0.00     0.041 C 
ATOM     23  O   UNL     1       7.100   4.692   2.609  1.00  0.00    -0.550 OA
ATOM     24  O   UNL     1       6.736   3.522   4.544  1.00  0.00    -0.550 OA
ENDBRANCH  21  22
ENDBRANCH  20  21
ENDBRANCH  19  20
ENDBRANCH  18  19
ENDBRANCH  17  18
ENDBRANCH  16  17
ENDBRANCH  15  16
ENDBRANCH  14  15
ENDBRANCH  13  14
ENDBRANCH   1  13
TORSDOF 20
ENDMDL
