MODEL 1
REMARK VINA RESULT:    -3.823      0.000      0.000
REMARK INTER + INTRA:          -4.434
REMARK INTER:                  -4.382
REMARK INTRA:                  -0.052
REMARK UNBOUND:                -0.052
REMARK SMILES O=C([O-])c1cc(O)c(O)c(O)c1
REMARK SMILES IDX 4 1 5 2 12 3 6 4 10 5 8 6 2 7 1 8 3 9 7 10 11 12 9 14
REMARK H PARENT 7 11 11 13 9 15
REMARK Flexibility Score: inf
ROOT
ATOM      1  C   UNL     1     123.047 113.365 108.663  1.00  0.00     0.005 A 
ATOM      2  C   UNL     1     123.577 114.660 108.531  1.00  0.00     0.060 A 
ATOM      3  C   UNL     1     123.921 112.265 108.637  1.00  0.00     0.060 A 
ATOM      4  C   UNL     1     124.956 114.854 108.375  1.00  0.00     0.162 A 
ATOM      5  C   UNL     1     125.301 112.454 108.481  1.00  0.00     0.162 A 
ATOM      6  C   UNL     1     125.820 113.753 108.350  1.00  0.00     0.200 A 
ENDROOT
BRANCH   1   7
ATOM      7  C   UNL     1     121.590 113.158 108.829  1.00  0.00     0.072 C 
ATOM      8  O   UNL     1     121.149 112.093 109.337  1.00  0.00    -0.545 OA
ATOM      9  O   UNL     1     120.690 114.138 108.427  1.00  0.00    -0.545 OA
ENDBRANCH   1   7
BRANCH   4  10
ATOM     10  O   UNL     1     125.475 116.141 108.245  1.00  0.00    -0.504 OA
ATOM     11  H   UNL     1     124.927 116.898 107.855  1.00  0.00     0.293 HD
ENDBRANCH   4  10
BRANCH   5  12
ATOM     12  O   UNL     1     126.159 111.354 108.455  1.00  0.00    -0.504 OA
ATOM     13  H   UNL     1     126.674 111.063 109.278  1.00  0.00     0.293 HD
ENDBRANCH   5  12
BRANCH   6  14
ATOM     14  O   UNL     1     127.190 113.966 108.192  1.00  0.00    -0.502 OA
ATOM     15  H   UNL     1     127.881 113.423 108.698  1.00  0.00     0.293 HD
ENDBRANCH   6  14
TORSDOF 4
ENDMDL
MODEL 2
REMARK VINA RESULT:    -3.803      0.066      2.595
REMARK INTER + INTRA:          -4.411
REMARK INTER:                  -4.359
REMARK INTRA:                  -0.052
REMARK UNBOUND:                -0.052
REMARK SMILES O=C([O-])c1cc(O)c(O)c(O)c1
REMARK SMILES IDX 4 1 5 2 12 3 6 4 10 5 8 6 2 7 1 8 3 9 7 10 11 12 9 14
REMARK H PARENT 7 11 11 13 9 15
REMARK Flexibility Score: inf
ROOT
ATOM      1  C   UNL     1     123.082 113.382 108.662  1.00  0.00     0.005 A 
ATOM      2  C   UNL     1     123.964 112.287 108.635  1.00  0.00     0.060 A 
ATOM      3  C   UNL     1     123.604 114.680 108.533  1.00  0.00     0.060 A 
ATOM      4  C   UNL     1     125.342 112.486 108.481  1.00  0.00     0.162 A 
ATOM      5  C   UNL     1     124.983 114.884 108.380  1.00  0.00     0.162 A 
ATOM      6  C   UNL     1     125.854 113.782 108.354  1.00  0.00     0.200 A 
ENDROOT
BRANCH   1   7
ATOM      7  C   UNL     1     121.626 113.175 108.823  1.00  0.00     0.072 C 
ATOM      8  O   UNL     1     120.809 114.064 108.462  1.00  0.00    -0.545 OA
ATOM      9  O   UNL     1     121.139 111.996 109.376  1.00  0.00    -0.545 OA
ENDBRANCH   1   7
BRANCH   4  10
ATOM     10  O   UNL     1     126.211 111.396 108.455  1.00  0.00    -0.504 OA
ATOM     11  H   UNL     1     126.538 110.956 109.306  1.00  0.00     0.293 HD
ENDBRANCH   4  10
BRANCH   5  12
ATOM     12  O   UNL     1     125.489 116.177 108.253  1.00  0.00    -0.504 OA
ATOM     13  H   UNL     1     125.269 116.758 107.453  1.00  0.00     0.293 HD
ENDBRANCH   5  12
BRANCH   6  14
ATOM     14  O   UNL     1     127.231 113.960 108.202  1.00  0.00    -0.502 OA
ATOM     15  H   UNL     1     127.783 114.488 108.869  1.00  0.00     0.293 HD
ENDBRANCH   6  14
TORSDOF 4
ENDMDL
MODEL 3
REMARK VINA RESULT:    -3.777      1.652      3.404
REMARK INTER + INTRA:          -4.381
REMARK INTER:                  -4.331
REMARK INTRA:                  -0.050
REMARK UNBOUND:                -0.052
REMARK SMILES O=C([O-])c1cc(O)c(O)c(O)c1
REMARK SMILES IDX 4 1 5 2 12 3 6 4 10 5 8 6 2 7 1 8 3 9 7 10 11 12 9 14
REMARK H PARENT 7 11 11 13 9 15
REMARK Flexibility Score: inf
ROOT
ATOM      1  C   UNL     1     124.488 111.434 108.680  1.00  0.00     0.005 A 
ATOM      2  C   UNL     1     125.719 112.112 108.710  1.00  0.00     0.060 A 
ATOM      3  C   UNL     1     123.341 112.123 108.253  1.00  0.00     0.060 A 
ATOM      4  C   UNL     1     125.802 113.455 108.320  1.00  0.00     0.162 A 
ATOM      5  C   UNL     1     123.419 113.467 107.861  1.00  0.00     0.162 A 
ATOM      6  C   UNL     1     124.655 114.135 107.895  1.00  0.00     0.200 A 
ENDROOT
BRANCH   1   7
ATOM      7  C   UNL     1     124.397 110.015 109.092  1.00  0.00     0.072 C 
ATOM      8  O   UNL     1     125.149 109.561 109.995  1.00  0.00    -0.545 OA
ATOM      9  O   UNL     1     123.480 109.164 108.487  1.00  0.00    -0.545 OA
ENDBRANCH   1   7
BRANCH   4  10
ATOM     10  O   UNL     1     127.026 114.122 108.351  1.00  0.00    -0.504 OA
ATOM     11  H   UNL     1     127.905 113.620 108.358  1.00  0.00     0.293 HD
ENDBRANCH   4  10
BRANCH   5  12
ATOM     12  O   UNL     1     122.273 114.141 107.439  1.00  0.00    -0.504 OA
ATOM     13  H   UNL     1     121.799 113.894 106.577  1.00  0.00     0.293 HD
ENDBRANCH   5  12
BRANCH   6  14
ATOM     14  O   UNL     1     124.758 115.472 107.510  1.00  0.00    -0.502 OA
ATOM     15  H   UNL     1     124.108 116.179 107.837  1.00  0.00     0.293 HD
ENDBRANCH   6  14
TORSDOF 4
ENDMDL
MODEL 4
REMARK VINA RESULT:    -3.770      1.644      3.323
REMARK INTER + INTRA:          -4.373
REMARK INTER:                  -4.323
REMARK INTRA:                  -0.050
REMARK UNBOUND:                -0.052
REMARK SMILES O=C([O-])c1cc(O)c(O)c(O)c1
REMARK SMILES IDX 4 1 5 2 12 3 6 4 10 5 8 6 2 7 1 8 3 9 7 10 11 12 9 14
REMARK H PARENT 7 11 11 13 9 15
REMARK Flexibility Score: inf
ROOT
ATOM      1  C   UNL     1     124.481 111.435 108.680  1.00  0.00     0.005 A 
ATOM      2  C   UNL     1     123.334 112.123 108.247  1.00  0.00     0.060 A 
ATOM      3  C   UNL     1     125.711 112.113 108.711  1.00  0.00     0.060 A 
ATOM      4  C   UNL     1     123.415 113.464 107.851  1.00  0.00     0.162 A 
ATOM      5  C   UNL     1     125.797 113.455 108.315  1.00  0.00     0.162 A 
ATOM      6  C   UNL     1     124.644 114.133 107.884  1.00  0.00     0.200 A 
ENDROOT
BRANCH   1   7
ATOM      7  C   UNL     1     124.398 110.018 109.100  1.00  0.00     0.072 C 
ATOM      8  O   UNL     1     123.607 109.225 108.524  1.00  0.00    -0.545 OA
ATOM      9  O   UNL     1     125.194 109.543 110.136  1.00  0.00    -0.545 OA
ENDBRANCH   1   7
BRANCH   4  10
ATOM     10  O   UNL     1     122.274 114.141 107.422  1.00  0.00    -0.504 OA
ATOM     11  H   UNL     1     121.980 114.126 106.453  1.00  0.00     0.293 HD
ENDBRANCH   4  10
BRANCH   5  12
ATOM     12  O   UNL     1     127.024 114.117 108.349  1.00  0.00    -0.504 OA
ATOM     13  H   UNL     1     127.880 113.666 108.047  1.00  0.00     0.293 HD
ENDBRANCH   5  12
BRANCH   6  14
ATOM     14  O   UNL     1     124.705 115.469 107.485  1.00  0.00    -0.502 OA
ATOM     15  H   UNL     1     124.304 116.216 108.040  1.00  0.00     0.293 HD
ENDBRANCH   6  14
TORSDOF 4
ENDMDL
MODEL 5
REMARK VINA RESULT:    -3.430      1.251      3.930
REMARK INTER + INTRA:          -3.983
REMARK INTER:                  -3.932
REMARK INTRA:                  -0.051
REMARK UNBOUND:                -0.052
REMARK SMILES O=C([O-])c1cc(O)c(O)c(O)c1
REMARK SMILES IDX 4 1 5 2 12 3 6 4 10 5 8 6 2 7 1 8 3 9 7 10 11 12 9 14
REMARK H PARENT 7 11 11 13 9 15
REMARK Flexibility Score: inf
ROOT
ATOM      1  C   UNL     1     125.235 114.790 108.731  1.00  0.00     0.005 A 
ATOM      2  C   UNL     1     123.850 114.732 108.497  1.00  0.00     0.060 A 
ATOM      3  C   UNL     1     125.976 113.596 108.733  1.00  0.00     0.060 A 
ATOM      4  C   UNL     1     123.217 113.503 108.268  1.00  0.00     0.162 A 
ATOM      5  C   UNL     1     125.346 112.364 108.505  1.00  0.00     0.162 A 
ATOM      6  C   UNL     1     123.961 112.319 108.272  1.00  0.00     0.200 A 
ENDROOT
BRANCH   1   7
ATOM      7  C   UNL     1     125.907 116.086 108.971  1.00  0.00     0.072 C 
ATOM      8  O   UNL     1     125.398 117.159 108.550  1.00  0.00    -0.545 OA
ATOM      9  O   UNL     1     127.110 116.138 109.666  1.00  0.00    -0.545 OA
ENDBRANCH   1   7
BRANCH   4  10
ATOM     10  O   UNL     1     121.843 113.453 108.036  1.00  0.00    -0.504 OA
ATOM     11  H   UNL     1     121.173 113.548 108.790  1.00  0.00     0.293 HD
ENDBRANCH   4  10
BRANCH   5  12
ATOM     12  O   UNL     1     126.092 111.185 108.511  1.00  0.00    -0.504 OA
ATOM     13  H   UNL     1     126.241 110.647 107.665  1.00  0.00     0.293 HD
ENDBRANCH   5  12
BRANCH   6  14
ATOM     14  O   UNL     1     123.312 111.104 108.044  1.00  0.00    -0.502 OA
ATOM     15  H   UNL     1     122.923 110.550 108.799  1.00  0.00     0.293 HD
ENDBRANCH   6  14
TORSDOF 4
ENDMDL
MODEL 6
REMARK VINA RESULT:    -3.415      1.291      4.349
REMARK INTER + INTRA:          -3.966
REMARK INTER:                  -3.914
REMARK INTRA:                  -0.052
REMARK UNBOUND:                -0.052
REMARK SMILES O=C([O-])c1cc(O)c(O)c(O)c1
REMARK SMILES IDX 4 1 5 2 12 3 6 4 10 5 8 6 2 7 1 8 3 9 7 10 11 12 9 14
REMARK H PARENT 7 11 11 13 9 15
REMARK Flexibility Score: inf
ROOT
ATOM      1  C   UNL     1     125.254 114.846 108.748  1.00  0.00     0.005 A 
ATOM      2  C   UNL     1     125.994 113.651 108.741  1.00  0.00     0.060 A 
ATOM      3  C   UNL     1     123.875 114.795 108.486  1.00  0.00     0.060 A 
ATOM      4  C   UNL     1     125.367 112.426 108.477  1.00  0.00     0.162 A 
ATOM      5  C   UNL     1     123.243 113.572 108.222  1.00  0.00     0.162 A 
ATOM      6  C   UNL     1     123.993 112.383 108.217  1.00  0.00     0.200 A 
ENDROOT
BRANCH   1   7
ATOM      7  C   UNL     1     125.914 116.142 109.027  1.00  0.00     0.072 C 
ATOM      8  O   UNL     1     125.314 117.227 108.803  1.00  0.00    -0.545 OA
ATOM      9  O   UNL     1     127.204 116.178 109.542  1.00  0.00    -0.545 OA
ENDBRANCH   1   7
BRANCH   4  10
ATOM     10  O   UNL     1     126.107 111.244 108.472  1.00  0.00    -0.504 OA
ATOM     11  H   UNL     1     126.920 111.129 107.879  1.00  0.00     0.293 HD
ENDBRANCH   4  10
BRANCH   5  12
ATOM     12  O   UNL     1     121.873 113.533 107.963  1.00  0.00    -0.504 OA
ATOM     13  H   UNL     1     121.263 114.302 108.214  1.00  0.00     0.293 HD
ENDBRANCH   5  12
BRANCH   6  14
ATOM     14  O   UNL     1     123.386 111.154 107.956  1.00  0.00    -0.502 OA
ATOM     15  H   UNL     1     123.602 110.321 108.493  1.00  0.00     0.293 HD
ENDBRANCH   6  14
TORSDOF 4
ENDMDL
MODEL 7
REMARK VINA RESULT:    -3.412      1.645      3.964
REMARK INTER + INTRA:          -3.963
REMARK INTER:                  -3.913
REMARK INTRA:                  -0.050
REMARK UNBOUND:                -0.052
REMARK SMILES O=C([O-])c1cc(O)c(O)c(O)c1
REMARK SMILES IDX 4 1 5 2 12 3 6 4 10 5 8 6 2 7 1 8 3 9 7 10 11 12 9 14
REMARK H PARENT 7 11 11 13 9 15
REMARK Flexibility Score: inf
ROOT
ATOM      1  C   UNL     1     125.572 112.393 109.520  1.00  0.00     0.005 A 
ATOM      2  C   UNL     1     125.699 113.651 108.905  1.00  0.00     0.060 A 
ATOM      3  C   UNL     1     124.372 111.678 109.368  1.00  0.00     0.060 A 
ATOM      4  C   UNL     1     124.645 114.184 108.151  1.00  0.00     0.162 A 
ATOM      5  C   UNL     1     123.315 112.208 108.615  1.00  0.00     0.162 A 
ATOM      6  C   UNL     1     123.453 113.466 108.005  1.00  0.00     0.200 A 
ENDROOT
BRANCH   1   7
ATOM      7  C   UNL     1     126.684 111.826 110.315  1.00  0.00     0.072 C 
ATOM      8  O   UNL     1     126.908 110.586 110.311  1.00  0.00    -0.545 OA
ATOM      9  O   UNL     1     127.498 112.655 111.078  1.00  0.00    -0.545 OA
ENDBRANCH   1   7
BRANCH   4  10
ATOM     10  O   UNL     1     124.776 115.432 107.543  1.00  0.00    -0.504 OA
ATOM     11  H   UNL     1     125.495 116.088 107.826  1.00  0.00     0.293 HD
ENDBRANCH   4  10
BRANCH   5  12
ATOM     12  O   UNL     1     122.128 111.489 108.472  1.00  0.00    -0.504 OA
ATOM     13  H   UNL     1     121.471 111.391 109.237  1.00  0.00     0.293 HD
ENDBRANCH   5  12
BRANCH   6  14
ATOM     14  O   UNL     1     122.414 114.015 107.251  1.00  0.00    -0.502 OA
ATOM     15  H   UNL     1     122.582 114.683 106.508  1.00  0.00     0.293 HD
ENDBRANCH   6  14
TORSDOF 4
ENDMDL
MODEL 8
REMARK VINA RESULT:    -3.303      1.879      3.367
REMARK INTER + INTRA:          -3.837
REMARK INTER:                  -3.784
REMARK INTRA:                  -0.053
REMARK UNBOUND:                -0.052
REMARK SMILES O=C([O-])c1cc(O)c(O)c(O)c1
REMARK SMILES IDX 4 1 5 2 12 3 6 4 10 5 8 6 2 7 1 8 3 9 7 10 11 12 9 14
REMARK H PARENT 7 11 11 13 9 15
REMARK Flexibility Score: inf
ROOT
ATOM      1  C   UNL     1     124.537 115.636 109.603  1.00  0.00     0.005 A 
ATOM      2  C   UNL     1     125.872 115.510 109.180  1.00  0.00     0.060 A 
ATOM      3  C   UNL     1     123.694 114.513 109.540  1.00  0.00     0.060 A 
ATOM      4  C   UNL     1     126.356 114.285 108.703  1.00  0.00     0.162 A 
ATOM      5  C   UNL     1     124.174 113.285 109.063  1.00  0.00     0.162 A 
ATOM      6  C   UNL     1     125.510 113.172 108.643  1.00  0.00     0.200 A 
ENDROOT
BRANCH   1   7
ATOM      7  C   UNL     1     124.023 116.929 110.108  1.00  0.00     0.072 C 
ATOM      8  O   UNL     1     124.736 117.966 110.054  1.00  0.00    -0.545 OA
ATOM      9  O   UNL     1     122.745 117.016 110.648  1.00  0.00    -0.545 OA
ENDBRANCH   1   7
BRANCH   4  10
ATOM     10  O   UNL     1     127.681 114.167 108.285  1.00  0.00    -0.504 OA
ATOM     11  H   UNL     1     128.300 114.968 108.249  1.00  0.00     0.293 HD
ENDBRANCH   4  10
BRANCH   5  12
ATOM     12  O   UNL     1     123.328 112.178 109.005  1.00  0.00    -0.504 OA
ATOM     13  H   UNL     1     122.324 112.281 108.919  1.00  0.00     0.293 HD
ENDBRANCH   5  12
BRANCH   6  14
ATOM     14  O   UNL     1     126.011 111.960 108.164  1.00  0.00    -0.502 OA
ATOM     15  H   UNL     1     126.690 111.415 108.683  1.00  0.00     0.293 HD
ENDBRANCH   6  14
TORSDOF 4
ENDMDL
MODEL 9
REMARK VINA RESULT:    -3.296      1.876      3.618
REMARK INTER + INTRA:          -3.830
REMARK INTER:                  -3.777
REMARK INTRA:                  -0.053
REMARK UNBOUND:                -0.052
REMARK SMILES O=C([O-])c1cc(O)c(O)c(O)c1
REMARK SMILES IDX 4 1 5 2 12 3 6 4 10 5 8 6 2 7 1 8 3 9 7 10 11 12 9 14
REMARK H PARENT 7 11 11 13 9 15
REMARK Flexibility Score: inf
ROOT
ATOM      1  C   UNL     1     124.586 115.666 109.607  1.00  0.00     0.005 A 
ATOM      2  C   UNL     1     123.734 114.550 109.531  1.00  0.00     0.060 A 
ATOM      3  C   UNL     1     125.924 115.530 109.200  1.00  0.00     0.060 A 
ATOM      4  C   UNL     1     124.210 113.320 109.058  1.00  0.00     0.162 A 
ATOM      5  C   UNL     1     126.405 114.302 108.726  1.00  0.00     0.162 A 
ATOM      6  C   UNL     1     125.545 113.193 108.655  1.00  0.00     0.200 A 
ENDROOT
BRANCH   1   7
ATOM      7  C   UNL     1     124.085 116.966 110.106  1.00  0.00     0.072 C 
ATOM      8  O   UNL     1     122.935 117.057 110.613  1.00  0.00    -0.545 OA
ATOM      9  O   UNL     1     124.877 118.105 110.022  1.00  0.00    -0.545 OA
ENDBRANCH   1   7
BRANCH   4  10
ATOM     10  O   UNL     1     123.361 112.217 108.985  1.00  0.00    -0.504 OA
ATOM     11  H   UNL     1     123.003 111.766 109.818  1.00  0.00     0.293 HD
ENDBRANCH   4  10
BRANCH   5  12
ATOM     12  O   UNL     1     127.736 114.179 108.326  1.00  0.00    -0.504 OA
ATOM     13  H   UNL     1     128.404 114.928 108.466  1.00  0.00     0.293 HD
ENDBRANCH   5  12
BRANCH   6  14
ATOM     14  O   UNL     1     126.001 111.960 108.187  1.00  0.00    -0.502 OA
ATOM     15  H   UNL     1     125.902 111.681 107.217  1.00  0.00     0.293 HD
ENDBRANCH   6  14
TORSDOF 4
ENDMDL
