MODEL 1
REMARK VINA RESULT:    -3.461      0.000      0.000
REMARK INTER + INTRA:         -15.321
REMARK INTER:                  -9.024
REMARK INTRA:                  -6.296
REMARK UNBOUND:                -6.296
REMARK SMILES CCCCCCCCCCCCCCCCCCCCCCCCCCCCCO
REMARK SMILES IDX 16 1 15 2 14 3 13 4 12 5 11 6 10 7 9 8 8 9 7 10 6 11 5 12
REMARK SMILES IDX 4 13 3 14 2 15 1 16 17 17 18 18 19 19 20 20 21 21 22 22
REMARK SMILES IDX 23 23 24 24 25 25 26 26 27 27 28 28 29 29 30 30
REMARK H PARENT 30 31
REMARK Flexibility Score: inf
ROOT
ATOM      1  C   UNL     1     118.667 117.116 120.542  1.00  0.00     0.000 C 
ENDROOT
BRANCH   1   2
ATOM      2  C   UNL     1     120.036 116.695 119.977  1.00  0.00     0.000 C 
BRANCH   2   3
ATOM      3  C   UNL     1     121.163 117.708 120.267  1.00  0.00     0.000 C 
BRANCH   3   4
ATOM      4  C   UNL     1     120.748 118.765 121.302  1.00  0.00     0.000 C 
BRANCH   4   5
ATOM      5  C   UNL     1     121.055 120.180 120.798  1.00  0.00     0.000 C 
BRANCH   5   6
ATOM      6  C   UNL     1     120.473 121.238 121.748  1.00  0.00     0.000 C 
BRANCH   6   7
ATOM      7  C   UNL     1     119.940 120.632 123.058  1.00  0.00     0.000 C 
BRANCH   7   8
ATOM      8  C   UNL     1     118.459 120.941 123.353  1.00  0.00    -0.000 C 
BRANCH   8   9
ATOM      9  C   UNL     1     117.509 119.758 123.062  1.00  0.00    -0.000 C 
BRANCH   9  10
ATOM     10  C   UNL     1     116.428 120.123 122.029  1.00  0.00    -0.000 C 
BRANCH  10  11
ATOM     11  C   UNL     1     117.025 120.613 120.693  1.00  0.00    -0.000 C 
BRANCH  11  12
ATOM     12  C   UNL     1     116.285 120.088 119.447  1.00  0.00    -0.000 C 
BRANCH  12  13
ATOM     13  C   UNL     1     117.185 119.757 118.242  1.00  0.00    -0.000 C 
BRANCH  13  14
ATOM     14  C   UNL     1     118.647 120.219 118.375  1.00  0.00    -0.000 C 
BRANCH  14  15
ATOM     15  C   UNL     1     119.593 119.504 117.398  1.00  0.00    -0.003 C 
ATOM     16  C   UNL     1     118.885 118.352 116.692  1.00  0.00     0.004 C 
ENDBRANCH  14  15
ENDBRANCH  13  14
ENDBRANCH  12  13
ENDBRANCH  11  12
ENDBRANCH  10  11
ENDBRANCH   9  10
ENDBRANCH   8   9
ENDBRANCH   7   8
ENDBRANCH   6   7
ENDBRANCH   5   6
ENDBRANCH   4   5
ENDBRANCH   3   4
ENDBRANCH   2   3
ENDBRANCH   1   2
BRANCH   1  17
ATOM     17  C   UNL     1     117.488 116.483 119.789  1.00  0.00     0.000 C 
BRANCH  17  18
ATOM     18  C   UNL     1     116.251 116.376 120.689  1.00  0.00     0.000 C 
BRANCH  18  19
ATOM     19  C   UNL     1     116.658 116.222 122.162  1.00  0.00     0.000 C 
BRANCH  19  20
ATOM     20  C   UNL     1     115.485 115.802 123.065  1.00  0.00     0.000 C 
BRANCH  20  21
ATOM     21  C   UNL     1     115.741 114.546 123.922  1.00  0.00     0.000 C 
BRANCH  21  22
ATOM     22  C   UNL     1     117.169 114.420 124.494  1.00  0.00     0.000 C 
BRANCH  22  23
ATOM     23  C   UNL     1     117.303 114.751 125.992  1.00  0.00     0.000 C 
BRANCH  23  24
ATOM     24  C   UNL     1     118.356 115.823 126.329  1.00  0.00     0.000 C 
BRANCH  24  25
ATOM     25  C   UNL     1     118.248 117.096 125.463  1.00  0.00     0.000 C 
BRANCH  25  26
ATOM     26  C   UNL     1     119.371 117.199 124.423  1.00  0.00     0.000 C 
BRANCH  26  27
ATOM     27  C   UNL     1     120.629 116.464 124.901  1.00  0.00     0.002 C 
BRANCH  27  28
ATOM     28  C   UNL     1     121.244 115.627 123.771  1.00  0.00     0.028 C 
BRANCH  28  29
ATOM     29  C   UNL     1     122.632 116.135 123.380  1.00  0.00     0.156 C 
BRANCH  29  30
ATOM     30  O   UNL     1     122.917 117.328 124.058  1.00  0.00    -0.396 OA
ATOM     31  H   UNL     1     122.467 118.050 123.547  1.00  0.00     0.210 HD
ENDBRANCH  29  30
ENDBRANCH  28  29
ENDBRANCH  27  28
ENDBRANCH  26  27
ENDBRANCH  25  26
ENDBRANCH  24  25
ENDBRANCH  23  24
ENDBRANCH  22  23
ENDBRANCH  21  22
ENDBRANCH  20  21
ENDBRANCH  19  20
ENDBRANCH  18  19
ENDBRANCH  17  18
ENDBRANCH   1  17
TORSDOF 28
ENDMDL
MODEL 2
REMARK VINA RESULT:    -3.424      2.626      6.368
REMARK INTER + INTRA:         -15.224
REMARK INTER:                  -9.517
REMARK INTRA:                  -5.707
REMARK UNBOUND:                -6.296
REMARK SMILES CCCCCCCCCCCCCCCCCCCCCCCCCCCCCO
REMARK SMILES IDX 16 1 15 2 14 3 13 4 12 5 11 6 10 7 9 8 8 9 7 10 6 11 5 12
REMARK SMILES IDX 4 13 3 14 2 15 1 16 17 17 18 18 19 19 20 20 21 21 22 22
REMARK SMILES IDX 23 23 24 24 25 25 26 26 27 27 28 28 29 29 30 30
REMARK H PARENT 30 31
REMARK Flexibility Score: inf
ROOT
ATOM      1  C   UNL     1     119.234 121.227 119.930  1.00  0.00     0.000 C 
ENDROOT
BRANCH   1   2
ATOM      2  C   UNL     1     118.220 120.337 120.672  1.00  0.00     0.000 C 
BRANCH   2   3
ATOM      3  C   UNL     1     116.773 120.483 120.155  1.00  0.00     0.000 C 
BRANCH   3   4
ATOM      4  C   UNL     1     116.674 120.296 118.633  1.00  0.00     0.000 C 
BRANCH   4   5
ATOM      5  C   UNL     1     117.391 119.016 118.187  1.00  0.00     0.000 C 
BRANCH   5   6
ATOM      6  C   UNL     1     118.234 119.272 116.928  1.00  0.00     0.000 C 
BRANCH   6   7
ATOM      7  C   UNL     1     119.733 119.014 117.154  1.00  0.00     0.000 C 
BRANCH   7   8
ATOM      8  C   UNL     1     120.054 117.727 117.938  1.00  0.00    -0.000 C 
BRANCH   8   9
ATOM      9  C   UNL     1     120.977 117.956 119.155  1.00  0.00    -0.000 C 
BRANCH   9  10
ATOM     10  C   UNL     1     120.609 117.047 120.342  1.00  0.00    -0.000 C 
BRANCH  10  11
ATOM     11  C   UNL     1     119.231 116.373 120.167  1.00  0.00    -0.000 C 
BRANCH  11  12
ATOM     12  C   UNL     1     118.183 116.814 121.208  1.00  0.00    -0.000 C 
BRANCH  12  13
ATOM     13  C   UNL     1     116.717 116.712 120.744  1.00  0.00    -0.000 C 
BRANCH  13  14
ATOM     14  C   UNL     1     115.811 115.846 121.638  1.00  0.00    -0.000 C 
BRANCH  14  15
ATOM     15  C   UNL     1     116.446 115.520 122.998  1.00  0.00    -0.003 C 
ATOM     16  C   UNL     1     115.426 115.646 124.125  1.00  0.00     0.004 C 
ENDBRANCH  14  15
ENDBRANCH  13  14
ENDBRANCH  12  13
ENDBRANCH  11  12
ENDBRANCH  10  11
ENDBRANCH   9  10
ENDBRANCH   8   9
ENDBRANCH   7   8
ENDBRANCH   6   7
ENDBRANCH   5   6
ENDBRANCH   4   5
ENDBRANCH   3   4
ENDBRANCH   2   3
ENDBRANCH   1   2
BRANCH   1  17
ATOM     17  C   UNL     1     120.579 121.339 120.661  1.00  0.00     0.000 C 
BRANCH  17  18
ATOM     18  C   UNL     1     120.619 120.419 121.888  1.00  0.00     0.000 C 
BRANCH  18  19
ATOM     19  C   UNL     1     121.382 121.082 123.044  1.00  0.00     0.000 C 
BRANCH  19  20
ATOM     20  C   UNL     1     120.560 122.170 123.756  1.00  0.00     0.000 C 
BRANCH  20  21
ATOM     21  C   UNL     1     119.157 121.727 124.218  1.00  0.00     0.000 C 
BRANCH  21  22
ATOM     22  C   UNL     1     119.125 120.892 125.517  1.00  0.00     0.000 C 
BRANCH  22  23
ATOM     23  C   UNL     1     118.116 119.729 125.519  1.00  0.00     0.000 C 
BRANCH  23  24
ATOM     24  C   UNL     1     117.917 119.039 124.157  1.00  0.00     0.000 C 
BRANCH  24  25
ATOM     25  C   UNL     1     116.466 119.098 123.635  1.00  0.00     0.000 C 
BRANCH  25  26
ATOM     26  C   UNL     1     115.627 120.170 124.345  1.00  0.00     0.000 C 
BRANCH  26  27
ATOM     27  C   UNL     1     115.368 121.364 123.418  1.00  0.00     0.002 C 
BRANCH  27  28
ATOM     28  C   UNL     1     114.875 122.582 124.211  1.00  0.00     0.028 C 
BRANCH  28  29
ATOM     29  C   UNL     1     116.037 123.447 124.704  1.00  0.00     0.156 C 
BRANCH  29  30
ATOM     30  O   UNL     1     116.133 124.611 123.929  1.00  0.00    -0.396 OA
ATOM     31  H   UNL     1     116.664 125.255 124.465  1.00  0.00     0.210 HD
ENDBRANCH  29  30
ENDBRANCH  28  29
ENDBRANCH  27  28
ENDBRANCH  26  27
ENDBRANCH  25  26
ENDBRANCH  24  25
ENDBRANCH  23  24
ENDBRANCH  22  23
ENDBRANCH  21  22
ENDBRANCH  20  21
ENDBRANCH  19  20
ENDBRANCH  18  19
ENDBRANCH  17  18
ENDBRANCH   1  17
TORSDOF 28
ENDMDL
MODEL 3
REMARK VINA RESULT:    -3.419      2.077      5.182
REMARK INTER + INTRA:         -15.212
REMARK INTER:                  -9.176
REMARK INTRA:                  -6.036
REMARK UNBOUND:                -6.296
REMARK SMILES CCCCCCCCCCCCCCCCCCCCCCCCCCCCCO
REMARK SMILES IDX 16 1 15 2 14 3 13 4 12 5 11 6 10 7 9 8 8 9 7 10 6 11 5 12
REMARK SMILES IDX 4 13 3 14 2 15 1 16 17 17 18 18 19 19 20 20 21 21 22 22
REMARK SMILES IDX 23 23 24 24 25 25 26 26 27 27 28 28 29 29 30 30
REMARK H PARENT 30 31
REMARK Flexibility Score: inf
ROOT
ATOM      1  C   UNL     1     117.386 118.048 118.480  1.00  0.00     0.000 C 
ENDROOT
BRANCH   1   2
ATOM      2  C   UNL     1     116.779 118.772 119.696  1.00  0.00     0.000 C 
BRANCH   2   3
ATOM      3  C   UNL     1     116.376 120.234 119.408  1.00  0.00     0.000 C 
BRANCH   3   4
ATOM      4  C   UNL     1     117.169 121.237 120.261  1.00  0.00     0.000 C 
BRANCH   4   5
ATOM      5  C   UNL     1     118.482 120.622 120.758  1.00  0.00     0.000 C 
BRANCH   5   6
ATOM      6  C   UNL     1     119.690 121.296 120.088  1.00  0.00     0.000 C 
BRANCH   6   7
ATOM      7  C   UNL     1     121.029 120.881 120.721  1.00  0.00     0.000 C 
BRANCH   7   8
ATOM      8  C   UNL     1     121.486 121.767 121.896  1.00  0.00    -0.000 C 
BRANCH   8   9
ATOM      9  C   UNL     1     121.150 121.178 123.284  1.00  0.00    -0.000 C 
BRANCH   9  10
ATOM     10  C   UNL     1     120.278 122.129 124.123  1.00  0.00    -0.000 C 
BRANCH  10  11
ATOM     11  C   UNL     1     118.818 121.645 124.241  1.00  0.00    -0.000 C 
BRANCH  11  12
ATOM     12  C   UNL     1     118.613 120.524 125.280  1.00  0.00    -0.000 C 
BRANCH  12  13
ATOM     13  C   UNL     1     117.469 119.541 124.965  1.00  0.00    -0.000 C 
BRANCH  13  14
ATOM     14  C   UNL     1     116.610 119.912 123.743  1.00  0.00    -0.000 C 
BRANCH  14  15
ATOM     15  C   UNL     1     115.268 120.552 124.127  1.00  0.00    -0.003 C 
ATOM     16  C   UNL     1     114.933 121.723 123.207  1.00  0.00     0.004 C 
ENDBRANCH  14  15
ENDBRANCH  13  14
ENDBRANCH  12  13
ENDBRANCH  11  12
ENDBRANCH  10  11
ENDBRANCH   9  10
ENDBRANCH   8   9
ENDBRANCH   7   8
ENDBRANCH   6   7
ENDBRANCH   5   6
ENDBRANCH   4   5
ENDBRANCH   3   4
ENDBRANCH   2   3
ENDBRANCH   1   2
BRANCH   1  17
ATOM     17  C   UNL     1     117.951 119.013 117.429  1.00  0.00     0.000 C 
BRANCH  17  18
ATOM     18  C   UNL     1     119.482 118.936 117.375  1.00  0.00     0.000 C 
BRANCH  18  19
ATOM     19  C   UNL     1     119.985 117.622 117.991  1.00  0.00     0.000 C 
BRANCH  19  20
ATOM     20  C   UNL     1     121.284 117.799 118.797  1.00  0.00     0.000 C 
BRANCH  20  21
ATOM     21  C   UNL     1     121.222 117.286 120.250  1.00  0.00     0.000 C 
BRANCH  21  22
ATOM     22  C   UNL     1     119.934 116.522 120.624  1.00  0.00     0.000 C 
BRANCH  22  23
ATOM     23  C   UNL     1     119.133 117.127 121.791  1.00  0.00     0.000 C 
BRANCH  23  24
ATOM     24  C   UNL     1     119.978 117.872 122.841  1.00  0.00     0.000 C 
BRANCH  24  25
ATOM     25  C   UNL     1     120.116 117.117 124.179  1.00  0.00     0.000 C 
BRANCH  25  26
ATOM     26  C   UNL     1     119.346 115.789 124.190  1.00  0.00     0.000 C 
BRANCH  26  27
ATOM     27  C   UNL     1     117.991 115.949 124.890  1.00  0.00     0.002 C 
BRANCH  27  28
ATOM     28  C   UNL     1     116.874 115.257 124.096  1.00  0.00     0.028 C 
BRANCH  28  29
ATOM     29  C   UNL     1     116.010 116.266 123.337  1.00  0.00     0.156 C 
BRANCH  29  30
ATOM     30  O   UNL     1     114.857 115.639 122.848  1.00  0.00    -0.396 OA
ATOM     31  H   UNL     1     114.159 115.765 123.541  1.00  0.00     0.210 HD
ENDBRANCH  29  30
ENDBRANCH  28  29
ENDBRANCH  27  28
ENDBRANCH  26  27
ENDBRANCH  25  26
ENDBRANCH  24  25
ENDBRANCH  23  24
ENDBRANCH  22  23
ENDBRANCH  21  22
ENDBRANCH  20  21
ENDBRANCH  19  20
ENDBRANCH  18  19
ENDBRANCH  17  18
ENDBRANCH   1  17
TORSDOF 28
ENDMDL
MODEL 4
REMARK VINA RESULT:    -3.413      1.939      4.101
REMARK INTER + INTRA:         -15.195
REMARK INTER:                  -9.019
REMARK INTRA:                  -6.177
REMARK UNBOUND:                -6.296
REMARK SMILES CCCCCCCCCCCCCCCCCCCCCCCCCCCCCO
REMARK SMILES IDX 16 1 15 2 14 3 13 4 12 5 11 6 10 7 9 8 8 9 7 10 6 11 5 12
REMARK SMILES IDX 4 13 3 14 2 15 1 16 17 17 18 18 19 19 20 20 21 21 22 22
REMARK SMILES IDX 23 23 24 24 25 25 26 26 27 27 28 28 29 29 30 30
REMARK H PARENT 30 31
REMARK Flexibility Score: inf
ROOT
ATOM      1  C   UNL     1     120.865 117.926 122.320  1.00  0.00     0.000 C 
ENDROOT
BRANCH   1   2
ATOM      2  C   UNL     1     121.377 116.682 121.572  1.00  0.00     0.000 C 
BRANCH   2   3
ATOM      3  C   UNL     1     120.558 116.336 120.311  1.00  0.00     0.000 C 
BRANCH   3   4
ATOM      4  C   UNL     1     119.135 116.915 120.361  1.00  0.00     0.000 C 
BRANCH   4   5
ATOM      5  C   UNL     1     118.172 116.087 119.502  1.00  0.00     0.000 C 
BRANCH   5   6
ATOM      6  C   UNL     1     116.909 116.894 119.163  1.00  0.00     0.000 C 
BRANCH   6   7
ATOM      7  C   UNL     1     116.749 118.145 120.042  1.00  0.00     0.000 C 
BRANCH   7   8
ATOM      8  C   UNL     1     116.372 119.427 119.273  1.00  0.00    -0.000 C 
BRANCH   8   9
ATOM      9  C   UNL     1     116.695 120.728 120.041  1.00  0.00    -0.000 C 
BRANCH   9  10
ATOM     10  C   UNL     1     117.225 120.449 121.459  1.00  0.00    -0.000 C 
BRANCH  10  11
ATOM     11  C   UNL     1     118.764 120.526 121.543  1.00  0.00    -0.000 C 
BRANCH  11  12
ATOM     12  C   UNL     1     119.423 121.205 120.326  1.00  0.00    -0.000 C 
BRANCH  12  13
ATOM     13  C   UNL     1     120.245 120.269 119.419  1.00  0.00    -0.000 C 
BRANCH  13  14
ATOM     14  C   UNL     1     119.766 120.192 117.958  1.00  0.00    -0.000 C 
BRANCH  14  15
ATOM     15  C   UNL     1     119.665 118.752 117.435  1.00  0.00    -0.003 C 
ATOM     16  C   UNL     1     118.640 118.646 116.310  1.00  0.00     0.004 C 
ENDBRANCH  14  15
ENDBRANCH  13  14
ENDBRANCH  12  13
ENDBRANCH  11  12
ENDBRANCH  10  11
ENDBRANCH   9  10
ENDBRANCH   8   9
ENDBRANCH   7   8
ENDBRANCH   6   7
ENDBRANCH   5   6
ENDBRANCH   4   5
ENDBRANCH   3   4
ENDBRANCH   2   3
ENDBRANCH   1   2
BRANCH   1  17
ATOM     17  C   UNL     1     120.943 117.780 123.846  1.00  0.00     0.000 C 
BRANCH  17  18
ATOM     18  C   UNL     1     119.554 117.905 124.485  1.00  0.00     0.000 C 
BRANCH  18  19
ATOM     19  C   UNL     1     118.636 116.763 124.025  1.00  0.00     0.000 C 
BRANCH  19  20
ATOM     20  C   UNL     1     117.299 117.265 123.452  1.00  0.00     0.000 C 
BRANCH  20  21
ATOM     21  C   UNL     1     116.235 117.628 124.507  1.00  0.00     0.000 C 
BRANCH  21  22
ATOM     22  C   UNL     1     115.830 119.117 124.548  1.00  0.00     0.000 C 
BRANCH  22  23
ATOM     23  C   UNL     1     116.552 119.960 125.614  1.00  0.00     0.000 C 
BRANCH  23  24
ATOM     24  C   UNL     1     117.398 121.122 125.061  1.00  0.00     0.000 C 
BRANCH  24  25
ATOM     25  C   UNL     1     118.759 121.294 125.769  1.00  0.00     0.000 C 
BRANCH  25  26
ATOM     26  C   UNL     1     119.864 121.770 124.817  1.00  0.00     0.000 C 
BRANCH  26  27
ATOM     27  C   UNL     1     121.222 121.179 125.216  1.00  0.00     0.002 C 
BRANCH  27  28
ATOM     28  C   UNL     1     122.357 121.789 124.382  1.00  0.00     0.028 C 
BRANCH  28  29
ATOM     29  C   UNL     1     121.848 122.338 123.048  1.00  0.00     0.156 C 
BRANCH  29  30
ATOM     30  O   UNL     1     122.520 121.719 121.985  1.00  0.00    -0.396 OA
ATOM     31  H   UNL     1     122.860 122.452 121.410  1.00  0.00     0.210 HD
ENDBRANCH  29  30
ENDBRANCH  28  29
ENDBRANCH  27  28
ENDBRANCH  26  27
ENDBRANCH  25  26
ENDBRANCH  24  25
ENDBRANCH  23  24
ENDBRANCH  22  23
ENDBRANCH  21  22
ENDBRANCH  20  21
ENDBRANCH  19  20
ENDBRANCH  18  19
ENDBRANCH  17  18
ENDBRANCH   1  17
TORSDOF 28
ENDMDL
MODEL 5
REMARK VINA RESULT:    -3.408      1.230      3.068
REMARK INTER + INTRA:         -15.182
REMARK INTER:                  -9.373
REMARK INTRA:                  -5.809
REMARK UNBOUND:                -6.296
REMARK SMILES CCCCCCCCCCCCCCCCCCCCCCCCCCCCCO
REMARK SMILES IDX 16 1 15 2 14 3 13 4 12 5 11 6 10 7 9 8 8 9 7 10 6 11 5 12
REMARK SMILES IDX 4 13 3 14 2 15 1 16 17 17 18 18 19 19 20 20 21 21 22 22
REMARK SMILES IDX 23 23 24 24 25 25 26 26 27 27 28 28 29 29 30 30
REMARK H PARENT 30 31
REMARK Flexibility Score: inf
ROOT
ATOM      1  C   UNL     1     119.710 116.308 120.086  1.00  0.00     0.000 C 
ENDROOT
BRANCH   1   2
ATOM      2  C   UNL     1     120.927 117.250 120.135  1.00  0.00     0.000 C 
BRANCH   2   3
ATOM      3  C   UNL     1     121.146 118.046 118.832  1.00  0.00     0.000 C 
BRANCH   3   4
ATOM      4  C   UNL     1     120.173 117.627 117.719  1.00  0.00     0.000 C 
BRANCH   4   5
ATOM      5  C   UNL     1     119.423 118.839 117.156  1.00  0.00     0.000 C 
BRANCH   5   6
ATOM      6  C   UNL     1     117.916 118.729 117.437  1.00  0.00     0.000 C 
BRANCH   6   7
ATOM      7  C   UNL     1     117.327 120.018 118.036  1.00  0.00     0.000 C 
BRANCH   7   8
ATOM      8  C   UNL     1     116.562 119.820 119.360  1.00  0.00    -0.000 C 
BRANCH   8   9
ATOM      9  C   UNL     1     116.914 120.866 120.441  1.00  0.00    -0.000 C 
BRANCH   9  10
ATOM     10  C   UNL     1     116.769 120.300 121.865  1.00  0.00    -0.000 C 
BRANCH  10  11
ATOM     11  C   UNL     1     117.953 120.680 122.778  1.00  0.00    -0.000 C 
BRANCH  11  12
ATOM     12  C   UNL     1     119.046 119.596 122.870  1.00  0.00    -0.000 C 
BRANCH  12  13
ATOM     13  C   UNL     1     120.447 120.038 122.408  1.00  0.00    -0.000 C 
BRANCH  13  14
ATOM     14  C   UNL     1     120.480 121.330 121.572  1.00  0.00    -0.000 C 
BRANCH  14  15
ATOM     15  C   UNL     1     121.273 121.179 120.266  1.00  0.00    -0.003 C 
ATOM     16  C   UNL     1     120.489 121.731 119.079  1.00  0.00     0.004 C 
ENDBRANCH  14  15
ENDBRANCH  13  14
ENDBRANCH  12  13
ENDBRANCH  11  12
ENDBRANCH  10  11
ENDBRANCH   9  10
ENDBRANCH   8   9
ENDBRANCH   7   8
ENDBRANCH   6   7
ENDBRANCH   5   6
ENDBRANCH   4   5
ENDBRANCH   3   4
ENDBRANCH   2   3
ENDBRANCH   1   2
BRANCH   1  17
ATOM     17  C   UNL     1     118.476 116.888 120.791  1.00  0.00     0.000 C 
BRANCH  17  18
ATOM     18  C   UNL     1     117.181 116.347 120.172  1.00  0.00     0.000 C 
BRANCH  18  19
ATOM     19  C   UNL     1     115.978 116.634 121.083  1.00  0.00     0.000 C 
BRANCH  19  20
ATOM     20  C   UNL     1     115.735 115.522 122.118  1.00  0.00     0.000 C 
BRANCH  20  21
ATOM     21  C   UNL     1     115.640 116.004 123.580  1.00  0.00     0.000 C 
BRANCH  21  22
ATOM     22  C   UNL     1     116.400 117.310 123.893  1.00  0.00     0.000 C 
BRANCH  22  23
ATOM     23  C   UNL     1     116.486 117.672 125.387  1.00  0.00     0.000 C 
BRANCH  23  24
ATOM     24  C   UNL     1     117.916 117.783 125.948  1.00  0.00     0.000 C 
BRANCH  24  25
ATOM     25  C   UNL     1     118.443 116.472 126.569  1.00  0.00     0.000 C 
BRANCH  25  26
ATOM     26  C   UNL     1     119.801 116.049 125.991  1.00  0.00     0.000 C 
BRANCH  26  27
ATOM     27  C   UNL     1     119.696 115.793 124.483  1.00  0.00     0.002 C 
BRANCH  27  28
ATOM     28  C   UNL     1     120.828 116.498 123.723  1.00  0.00     0.028 C 
BRANCH  28  29
ATOM     29  C   UNL     1     122.044 115.587 123.544  1.00  0.00     0.156 C 
BRANCH  29  30
ATOM     30  O   UNL     1     121.880 114.782 122.409  1.00  0.00    -0.396 OA
ATOM     31  H   UNL     1     122.000 113.846 122.715  1.00  0.00     0.210 HD
ENDBRANCH  29  30
ENDBRANCH  28  29
ENDBRANCH  27  28
ENDBRANCH  26  27
ENDBRANCH  25  26
ENDBRANCH  24  25
ENDBRANCH  23  24
ENDBRANCH  22  23
ENDBRANCH  21  22
ENDBRANCH  20  21
ENDBRANCH  19  20
ENDBRANCH  18  19
ENDBRANCH  17  18
ENDBRANCH   1  17
TORSDOF 28
ENDMDL
MODEL 6
REMARK VINA RESULT:    -3.323      2.066      5.162
REMARK INTER + INTRA:         -14.963
REMARK INTER:                  -9.559
REMARK INTRA:                  -5.404
REMARK UNBOUND:                -6.296
REMARK SMILES CCCCCCCCCCCCCCCCCCCCCCCCCCCCCO
REMARK SMILES IDX 16 1 15 2 14 3 13 4 12 5 11 6 10 7 9 8 8 9 7 10 6 11 5 12
REMARK SMILES IDX 4 13 3 14 2 15 1 16 17 17 18 18 19 19 20 20 21 21 22 22
REMARK SMILES IDX 23 23 24 24 25 25 26 26 27 27 28 28 29 29 30 30
REMARK H PARENT 30 31
REMARK Flexibility Score: inf
ROOT
ATOM      1  C   UNL     1     116.677 116.763 120.098  1.00  0.00     0.000 C 
ENDROOT
BRANCH   1   2
ATOM      2  C   UNL     1     117.981 116.187 119.518  1.00  0.00     0.000 C 
BRANCH   2   3
ATOM      3  C   UNL     1     119.232 117.025 119.856  1.00  0.00     0.000 C 
BRANCH   3   4
ATOM      4  C   UNL     1     119.944 117.546 118.597  1.00  0.00     0.000 C 
BRANCH   4   5
ATOM      5  C   UNL     1     118.932 117.941 117.515  1.00  0.00     0.000 C 
BRANCH   5   6
ATOM      6  C   UNL     1     118.887 119.467 117.339  1.00  0.00     0.000 C 
BRANCH   6   7
ATOM      7  C   UNL     1     120.168 120.161 117.831  1.00  0.00     0.000 C 
BRANCH   7   8
ATOM      8  C   UNL     1     119.941 121.237 118.912  1.00  0.00    -0.000 C 
BRANCH   8   9
ATOM      9  C   UNL     1     120.887 121.105 120.126  1.00  0.00    -0.000 C 
BRANCH   9  10
ATOM     10  C   UNL     1     120.143 121.277 121.462  1.00  0.00    -0.000 C 
BRANCH  10  11
ATOM     11  C   UNL     1     119.610 119.941 122.021  1.00  0.00    -0.000 C 
BRANCH  11  12
ATOM     12  C   UNL     1     120.698 119.046 122.646  1.00  0.00    -0.000 C 
BRANCH  12  13
ATOM     13  C   UNL     1     120.222 118.146 123.802  1.00  0.00    -0.000 C 
BRANCH  13  14
ATOM     14  C   UNL     1     120.078 116.655 123.449  1.00  0.00    -0.000 C 
BRANCH  14  15
ATOM     15  C   UNL     1     121.413 115.897 123.492  1.00  0.00    -0.003 C 
ATOM     16  C   UNL     1     121.957 115.660 122.087  1.00  0.00     0.004 C 
ENDBRANCH  14  15
ENDBRANCH  13  14
ENDBRANCH  12  13
ENDBRANCH  11  12
ENDBRANCH  10  11
ENDBRANCH   9  10
ENDBRANCH   8   9
ENDBRANCH   7   8
ENDBRANCH   6   7
ENDBRANCH   5   6
ENDBRANCH   4   5
ENDBRANCH   3   4
ENDBRANCH   2   3
ENDBRANCH   1   2
BRANCH   1  17
ATOM     17  C   UNL     1     116.831 118.205 120.601  1.00  0.00     0.000 C 
BRANCH  17  18
ATOM     18  C   UNL     1     116.026 119.181 119.734  1.00  0.00     0.000 C 
BRANCH  18  19
ATOM     19  C   UNL     1     116.688 120.567 119.714  1.00  0.00     0.000 C 
BRANCH  19  20
ATOM     20  C   UNL     1     115.977 121.582 120.626  1.00  0.00     0.000 C 
BRANCH  20  21
ATOM     21  C   UNL     1     116.358 121.494 122.117  1.00  0.00     0.000 C 
BRANCH  21  22
ATOM     22  C   UNL     1     115.173 121.554 123.104  1.00  0.00     0.000 C 
BRANCH  22  23
ATOM     23  C   UNL     1     115.135 120.422 124.147  1.00  0.00     0.000 C 
BRANCH  23  24
ATOM     24  C   UNL     1     116.274 119.392 124.029  1.00  0.00     0.000 C 
BRANCH  24  25
ATOM     25  C   UNL     1     117.030 119.145 125.351  1.00  0.00     0.000 C 
BRANCH  25  26
ATOM     26  C   UNL     1     117.086 117.660 125.732  1.00  0.00     0.000 C 
BRANCH  26  27
ATOM     27  C   UNL     1     116.067 116.849 124.921  1.00  0.00     0.002 C 
BRANCH  27  28
ATOM     28  C   UNL     1     116.731 115.636 124.254  1.00  0.00     0.028 C 
BRANCH  28  29
ATOM     29  C   UNL     1     115.732 114.828 123.424  1.00  0.00     0.156 C 
BRANCH  29  30
ATOM     30  O   UNL     1     114.823 115.689 122.793  1.00  0.00    -0.396 OA
ATOM     31  H   UNL     1     114.250 116.060 123.513  1.00  0.00     0.210 HD
ENDBRANCH  29  30
ENDBRANCH  28  29
ENDBRANCH  27  28
ENDBRANCH  26  27
ENDBRANCH  25  26
ENDBRANCH  24  25
ENDBRANCH  23  24
ENDBRANCH  22  23
ENDBRANCH  21  22
ENDBRANCH  20  21
ENDBRANCH  19  20
ENDBRANCH  18  19
ENDBRANCH  17  18
ENDBRANCH   1  17
TORSDOF 28
ENDMDL
MODEL 7
REMARK VINA RESULT:    -3.319      2.110      4.738
REMARK INTER + INTRA:         -14.951
REMARK INTER:                  -9.170
REMARK INTRA:                  -5.781
REMARK UNBOUND:                -6.296
REMARK SMILES CCCCCCCCCCCCCCCCCCCCCCCCCCCCCO
REMARK SMILES IDX 16 1 15 2 14 3 13 4 12 5 11 6 10 7 9 8 8 9 7 10 6 11 5 12
REMARK SMILES IDX 4 13 3 14 2 15 1 16 17 17 18 18 19 19 20 20 21 21 22 22
REMARK SMILES IDX 23 23 24 24 25 25 26 26 27 27 28 28 29 29 30 30
REMARK H PARENT 30 31
REMARK Flexibility Score: inf
ROOT
ATOM      1  C   UNL     1     116.741 119.931 118.378  1.00  0.00     0.000 C 
ENDROOT
BRANCH   1   2
ATOM      2  C   UNL     1     117.751 118.951 117.754  1.00  0.00     0.000 C 
BRANCH   2   3
ATOM      3  C   UNL     1     119.016 119.637 117.196  1.00  0.00     0.000 C 
BRANCH   3   4
ATOM      4  C   UNL     1     120.123 119.772 118.255  1.00  0.00     0.000 C 
BRANCH   4   5
ATOM      5  C   UNL     1     120.152 121.186 118.845  1.00  0.00     0.000 C 
BRANCH   5   6
ATOM      6  C   UNL     1     121.021 121.233 120.112  1.00  0.00     0.000 C 
BRANCH   6   7
ATOM      7  C   UNL     1     120.237 120.870 121.384  1.00  0.00     0.000 C 
BRANCH   7   8
ATOM      8  C   UNL     1     120.965 121.199 122.703  1.00  0.00    -0.000 C 
BRANCH   8   9
ATOM      9  C   UNL     1     120.999 120.022 123.702  1.00  0.00    -0.000 C 
BRANCH   9  10
ATOM     10  C   UNL     1     120.298 118.769 123.147  1.00  0.00    -0.000 C 
BRANCH  10  11
ATOM     11  C   UNL     1     121.098 117.476 123.411  1.00  0.00    -0.000 C 
BRANCH  11  12
ATOM     12  C   UNL     1     121.280 116.588 122.163  1.00  0.00    -0.000 C 
BRANCH  12  13
ATOM     13  C   UNL     1     120.955 117.270 120.821  1.00  0.00    -0.000 C 
BRANCH  13  14
ATOM     14  C   UNL     1     119.846 116.590 119.997  1.00  0.00    -0.000 C 
BRANCH  14  15
ATOM     15  C   UNL     1     118.451 116.761 120.615  1.00  0.00    -0.003 C 
ATOM     16  C   UNL     1     117.377 116.134 119.730  1.00  0.00     0.004 C 
ENDBRANCH  14  15
ENDBRANCH  13  14
ENDBRANCH  12  13
ENDBRANCH  11  12
ENDBRANCH  10  11
ENDBRANCH   9  10
ENDBRANCH   8   9
ENDBRANCH   7   8
ENDBRANCH   6   7
ENDBRANCH   5   6
ENDBRANCH   4   5
ENDBRANCH   3   4
ENDBRANCH   2   3
ENDBRANCH   1   2
BRANCH   1  17
ATOM     17  C   UNL     1     116.715 119.866 119.912  1.00  0.00     0.000 C 
BRANCH  17  18
ATOM     18  C   UNL     1     116.640 121.271 120.523  1.00  0.00     0.000 C 
BRANCH  18  19
ATOM     19  C   UNL     1     116.043 121.220 121.938  1.00  0.00     0.000 C 
BRANCH  19  20
ATOM     20  C   UNL     1     116.978 120.547 122.957  1.00  0.00     0.000 C 
BRANCH  20  21
ATOM     21  C   UNL     1     117.612 121.503 123.988  1.00  0.00     0.000 C 
BRANCH  21  22
ATOM     22  C   UNL     1     117.677 120.964 125.433  1.00  0.00     0.000 C 
BRANCH  22  23
ATOM     23  C   UNL     1     117.156 119.527 125.616  1.00  0.00     0.000 C 
BRANCH  23  24
ATOM     24  C   UNL     1     118.179 118.534 126.199  1.00  0.00     0.000 C 
BRANCH  24  25
ATOM     25  C   UNL     1     118.012 117.090 125.679  1.00  0.00     0.000 C 
BRANCH  25  26
ATOM     26  C   UNL     1     117.196 117.022 124.380  1.00  0.00     0.000 C 
BRANCH  26  27
ATOM     27  C   UNL     1     117.305 115.633 123.739  1.00  0.00     0.002 C 
BRANCH  27  28
ATOM     28  C   UNL     1     115.920 115.083 123.373  1.00  0.00     0.028 C 
BRANCH  28  29
ATOM     29  C   UNL     1     114.857 115.498 124.392  1.00  0.00     0.156 C 
BRANCH  29  30
ATOM     30  O   UNL     1     113.792 116.137 123.744  1.00  0.00    -0.396 OA
ATOM     31  H   UNL     1     113.339 115.439 123.204  1.00  0.00     0.210 HD
ENDBRANCH  29  30
ENDBRANCH  28  29
ENDBRANCH  27  28
ENDBRANCH  26  27
ENDBRANCH  25  26
ENDBRANCH  24  25
ENDBRANCH  23  24
ENDBRANCH  22  23
ENDBRANCH  21  22
ENDBRANCH  20  21
ENDBRANCH  19  20
ENDBRANCH  18  19
ENDBRANCH  17  18
ENDBRANCH   1  17
TORSDOF 28
ENDMDL
MODEL 8
REMARK VINA RESULT:    -3.301      1.903      4.057
REMARK INTER + INTRA:         -14.903
REMARK INTER:                  -9.283
REMARK INTRA:                  -5.620
REMARK UNBOUND:                -6.296
REMARK SMILES CCCCCCCCCCCCCCCCCCCCCCCCCCCCCO
REMARK SMILES IDX 16 1 15 2 14 3 13 4 12 5 11 6 10 7 9 8 8 9 7 10 6 11 5 12
REMARK SMILES IDX 4 13 3 14 2 15 1 16 17 17 18 18 19 19 20 20 21 21 22 22
REMARK SMILES IDX 23 23 24 24 25 25 26 26 27 27 28 28 29 29 30 30
REMARK H PARENT 30 31
REMARK Flexibility Score: inf
ROOT
ATOM      1  C   UNL     1     116.495 116.032 120.173  1.00  0.00     0.000 C 
ENDROOT
BRANCH   1   2
ATOM      2  C   UNL     1     117.877 116.188 119.514  1.00  0.00     0.000 C 
BRANCH   2   3
ATOM      3  C   UNL     1     118.888 116.977 120.374  1.00  0.00     0.000 C 
BRANCH   3   4
ATOM      4  C   UNL     1     120.344 116.603 120.055  1.00  0.00     0.000 C 
BRANCH   4   5
ATOM      5  C   UNL     1     121.238 117.848 120.017  1.00  0.00     0.000 C 
BRANCH   5   6
ATOM      6  C   UNL     1     120.453 119.098 120.443  1.00  0.00     0.000 C 
BRANCH   6   7
ATOM      7  C   UNL     1     120.831 120.345 119.626  1.00  0.00     0.000 C 
BRANCH   7   8
ATOM      8  C   UNL     1     119.877 120.661 118.457  1.00  0.00    -0.000 C 
BRANCH   8   9
ATOM      9  C   UNL     1     119.649 119.468 117.503  1.00  0.00    -0.000 C 
BRANCH   9  10
ATOM     10  C   UNL     1     118.169 119.053 117.437  1.00  0.00    -0.000 C 
BRANCH  10  11
ATOM     11  C   UNL     1     117.228 120.110 118.053  1.00  0.00    -0.000 C 
BRANCH  11  12
ATOM     12  C   UNL     1     116.416 119.598 119.259  1.00  0.00    -0.000 C 
BRANCH  12  13
ATOM     13  C   UNL     1     116.351 120.560 120.460  1.00  0.00    -0.000 C 
BRANCH  13  14
ATOM     14  C   UNL     1     117.229 120.162 121.661  1.00  0.00    -0.000 C 
BRANCH  14  15
ATOM     15  C   UNL     1     116.808 120.854 122.966  1.00  0.00    -0.003 C 
ATOM     16  C   UNL     1     115.873 119.967 123.782  1.00  0.00     0.004 C 
ENDBRANCH  14  15
ENDBRANCH  13  14
ENDBRANCH  12  13
ENDBRANCH  11  12
ENDBRANCH  10  11
ENDBRANCH   9  10
ENDBRANCH   8   9
ENDBRANCH   7   8
ENDBRANCH   6   7
ENDBRANCH   5   6
ENDBRANCH   4   5
ENDBRANCH   3   4
ENDBRANCH   2   3
ENDBRANCH   1   2
BRANCH   1  17
ATOM     17  C   UNL     1     116.427 116.654 121.575  1.00  0.00     0.000 C 
BRANCH  17  18
ATOM     18  C   UNL     1     115.987 115.619 122.618  1.00  0.00     0.000 C 
BRANCH  18  19
ATOM     19  C   UNL     1     116.796 115.772 123.915  1.00  0.00     0.000 C 
BRANCH  19  20
ATOM     20  C   UNL     1     118.199 116.357 123.678  1.00  0.00     0.000 C 
BRANCH  20  21
ATOM     21  C   UNL     1     118.551 117.577 124.552  1.00  0.00     0.000 C 
BRANCH  21  22
ATOM     22  C   UNL     1     119.610 118.530 123.957  1.00  0.00     0.000 C 
BRANCH  22  23
ATOM     23  C   UNL     1     121.055 118.270 124.422  1.00  0.00     0.000 C 
BRANCH  23  24
ATOM     24  C   UNL     1     121.832 117.239 123.583  1.00  0.00     0.000 C 
BRANCH  24  25
ATOM     25  C   UNL     1     122.436 116.087 124.414  1.00  0.00     0.000 C 
BRANCH  25  26
ATOM     26  C   UNL     1     121.824 114.724 124.065  1.00  0.00     0.000 C 
BRANCH  26  27
ATOM     27  C   UNL     1     120.797 114.299 125.122  1.00  0.00     0.002 C 
BRANCH  27  28
ATOM     28  C   UNL     1     121.112 112.899 125.668  1.00  0.00     0.028 C 
BRANCH  28  29
ATOM     29  C   UNL     1     121.232 111.867 124.545  1.00  0.00     0.156 C 
BRANCH  29  30
ATOM     30  O   UNL     1     120.235 110.891 124.680  1.00  0.00    -0.396 OA
ATOM     31  H   UNL     1     120.612 110.193 125.276  1.00  0.00     0.210 HD
ENDBRANCH  29  30
ENDBRANCH  28  29
ENDBRANCH  27  28
ENDBRANCH  26  27
ENDBRANCH  25  26
ENDBRANCH  24  25
ENDBRANCH  23  24
ENDBRANCH  22  23
ENDBRANCH  21  22
ENDBRANCH  20  21
ENDBRANCH  19  20
ENDBRANCH  18  19
ENDBRANCH  17  18
ENDBRANCH   1  17
TORSDOF 28
ENDMDL
MODEL 9
REMARK VINA RESULT:    -3.287      2.151      5.722
REMARK INTER + INTRA:         -14.869
REMARK INTER:                  -8.950
REMARK INTRA:                  -5.919
REMARK UNBOUND:                -6.296
REMARK SMILES CCCCCCCCCCCCCCCCCCCCCCCCCCCCCO
REMARK SMILES IDX 16 1 15 2 14 3 13 4 12 5 11 6 10 7 9 8 8 9 7 10 6 11 5 12
REMARK SMILES IDX 4 13 3 14 2 15 1 16 17 17 18 18 19 19 20 20 21 21 22 22
REMARK SMILES IDX 23 23 24 24 25 25 26 26 27 27 28 28 29 29 30 30
REMARK H PARENT 30 31
REMARK Flexibility Score: inf
ROOT
ATOM      1  C   UNL     1     120.297 120.165 119.026  1.00  0.00     0.000 C 
ENDROOT
BRANCH   1   2
ATOM      2  C   UNL     1     119.391 121.304 119.529  1.00  0.00     0.000 C 
BRANCH   2   3
ATOM      3  C   UNL     1     118.245 120.826 120.446  1.00  0.00     0.000 C 
BRANCH   3   4
ATOM      4  C   UNL     1     116.872 120.919 119.762  1.00  0.00     0.000 C 
BRANCH   4   5
ATOM      5  C   UNL     1     116.305 119.525 119.471  1.00  0.00     0.000 C 
BRANCH   5   6
ATOM      6  C   UNL     1     117.009 118.459 120.325  1.00  0.00     0.000 C 
BRANCH   6   7
ATOM      7  C   UNL     1     116.342 117.077 120.220  1.00  0.00     0.000 C 
BRANCH   7   8
ATOM      8  C   UNL     1     116.570 116.160 121.438  1.00  0.00    -0.000 C 
BRANCH   8   9
ATOM      9  C   UNL     1     117.020 116.915 122.708  1.00  0.00    -0.000 C 
BRANCH   9  10
ATOM     10  C   UNL     1     117.795 116.005 123.679  1.00  0.00    -0.000 C 
BRANCH  10  11
ATOM     11  C   UNL     1     117.474 116.309 125.158  1.00  0.00    -0.000 C 
BRANCH  11  12
ATOM     12  C   UNL     1     116.300 117.288 125.355  1.00  0.00    -0.000 C 
BRANCH  12  13
ATOM     13  C   UNL     1     116.589 118.476 126.293  1.00  0.00    -0.000 C 
BRANCH  13  14
ATOM     14  C   UNL     1     116.310 119.864 125.689  1.00  0.00    -0.000 C 
BRANCH  14  15
ATOM     15  C   UNL     1     115.360 119.813 124.484  1.00  0.00    -0.003 C 
ATOM     16  C   UNL     1     115.968 120.514 123.273  1.00  0.00     0.004 C 
ENDBRANCH  14  15
ENDBRANCH  13  14
ENDBRANCH  12  13
ENDBRANCH  11  12
ENDBRANCH  10  11
ENDBRANCH   9  10
ENDBRANCH   8   9
ENDBRANCH   7   8
ENDBRANCH   6   7
ENDBRANCH   5   6
ENDBRANCH   4   5
ENDBRANCH   3   4
ENDBRANCH   2   3
ENDBRANCH   1   2
BRANCH   1  17
ATOM     17  C   UNL     1     119.682 119.385 117.856  1.00  0.00     0.000 C 
BRANCH  17  18
ATOM     18  C   UNL     1     119.884 117.874 118.033  1.00  0.00     0.000 C 
BRANCH  18  19
ATOM     19  C   UNL     1     121.190 117.582 118.787  1.00  0.00     0.000 C 
BRANCH  19  20
ATOM     20  C   UNL     1     121.011 116.550 119.914  1.00  0.00     0.000 C 
BRANCH  20  21
ATOM     21  C   UNL     1     120.347 117.093 121.194  1.00  0.00     0.000 C 
BRANCH  21  22
ATOM     22  C   UNL     1     121.196 116.975 122.478  1.00  0.00     0.000 C 
BRANCH  22  23
ATOM     23  C   UNL     1     120.853 117.990 123.583  1.00  0.00     0.000 C 
BRANCH  23  24
ATOM     24  C   UNL     1     119.903 119.124 123.151  1.00  0.00     0.000 C 
BRANCH  24  25
ATOM     25  C   UNL     1     119.611 120.150 124.266  1.00  0.00     0.000 C 
BRANCH  25  26
ATOM     26  C   UNL     1     119.752 121.600 123.785  1.00  0.00     0.000 C 
BRANCH  26  27
ATOM     27  C   UNL     1     120.951 121.749 122.841  1.00  0.00     0.002 C 
BRANCH  27  28
ATOM     28  C   UNL     1     122.261 121.887 123.628  1.00  0.00     0.028 C 
BRANCH  28  29
ATOM     29  C   UNL     1     122.303 123.185 124.437  1.00  0.00     0.156 C 
BRANCH  29  30
ATOM     30  O   UNL     1     122.331 124.289 123.574  1.00  0.00    -0.396 OA
ATOM     31  H   UNL     1     121.767 124.985 123.999  1.00  0.00     0.210 HD
ENDBRANCH  29  30
ENDBRANCH  28  29
ENDBRANCH  27  28
ENDBRANCH  26  27
ENDBRANCH  25  26
ENDBRANCH  24  25
ENDBRANCH  23  24
ENDBRANCH  22  23
ENDBRANCH  21  22
ENDBRANCH  20  21
ENDBRANCH  19  20
ENDBRANCH  18  19
ENDBRANCH  17  18
ENDBRANCH   1  17
TORSDOF 28
ENDMDL
