MODEL 1
REMARK VINA RESULT:    -2.986      0.000      0.000
REMARK INTER + INTRA:          -3.813
REMARK INTER:                  -3.684
REMARK INTRA:                  -0.128
REMARK UNBOUND:                -0.128
REMARK SMILES CCCCCC=O
REMARK SMILES IDX 4 1 3 2 2 3 1 4 5 5 6 6 7 7
REMARK H PARENT
REMARK Flexibility Score: inf
ROOT
ATOM      1  C   UNL     1     -10.143   6.168  13.861  1.00  0.00     0.008 C 
ENDROOT
BRANCH   1   2
ATOM      2  C   UNL     1     -10.686   5.871  15.270  1.00  0.00     0.000 C 
BRANCH   2   3
ATOM      3  C   UNL     1      -9.630   5.897  16.390  1.00  0.00    -0.003 C 
ATOM      4  C   UNL     1      -9.755   7.117  17.302  1.00  0.00     0.004 C 
ENDBRANCH   2   3
ENDBRANCH   1   2
BRANCH   1   5
ATOM      5  C   UNL     1      -8.691   6.667  13.873  1.00  0.00     0.072 C 
BRANCH   5   6
ATOM      6  C   UNL     1      -7.779   5.703  13.175  1.00  0.00     0.224 C 
ATOM      7  O   UNL     1      -7.124   4.904  13.826  1.00  0.00    -0.303 OA
ENDBRANCH   5   6
ENDBRANCH   1   5
TORSDOF 4
ENDMDL
MODEL 2
REMARK VINA RESULT:    -2.894      2.212      3.863
REMARK INTER + INTRA:          -3.699
REMARK INTER:                  -3.607
REMARK INTRA:                  -0.091
REMARK UNBOUND:                -0.128
REMARK SMILES CCCCCC=O
REMARK SMILES IDX 4 1 3 2 2 3 1 4 5 5 6 6 7 7
REMARK H PARENT
REMARK Flexibility Score: inf
ROOT
ATOM      1  C   UNL     1     -10.582   5.922  15.391  1.00  0.00     0.008 C 
ENDROOT
BRANCH   1   2
ATOM      2  C   UNL     1      -9.866   6.164  14.051  1.00  0.00     0.000 C 
BRANCH   2   3
ATOM      3  C   UNL     1      -8.365   5.824  14.048  1.00  0.00    -0.003 C 
ATOM      4  C   UNL     1      -7.753   5.831  12.647  1.00  0.00     0.004 C 
ENDBRANCH   2   3
ENDBRANCH   1   2
BRANCH   1   5
ATOM      5  C   UNL     1      -9.640   6.026  16.599  1.00  0.00     0.072 C 
BRANCH   5   6
ATOM      6  C   UNL     1      -9.779   7.352  17.285  1.00  0.00     0.224 C 
ATOM      7  O   UNL     1      -9.358   7.496  18.422  1.00  0.00    -0.303 OA
ENDBRANCH   5   6
ENDBRANCH   1   5
TORSDOF 4
ENDMDL
MODEL 3
REMARK VINA RESULT:    -2.880      0.771      1.503
REMARK INTER + INTRA:          -3.681
REMARK INTER:                  -3.584
REMARK INTRA:                  -0.097
REMARK UNBOUND:                -0.128
REMARK SMILES CCCCCC=O
REMARK SMILES IDX 4 1 3 2 2 3 1 4 5 5 6 6 7 7
REMARK H PARENT
REMARK Flexibility Score: inf
ROOT
ATOM      1  C   UNL     1     -10.653   5.929  15.366  1.00  0.00     0.008 C 
ENDROOT
BRANCH   1   2
ATOM      2  C   UNL     1      -9.792   6.328  16.577  1.00  0.00     0.000 C 
BRANCH   2   3
ATOM      3  C   UNL     1     -10.204   7.645  17.258  1.00  0.00    -0.003 C 
ATOM      4  C   UNL     1      -9.372   7.961  18.501  1.00  0.00     0.004 C 
ENDBRANCH   2   3
ENDBRANCH   1   2
BRANCH   1   5
ATOM      5  C   UNL     1      -9.904   6.056  14.032  1.00  0.00     0.072 C 
BRANCH   5   6
ATOM      6  C   UNL     1      -8.420   6.108  14.245  1.00  0.00     0.224 C 
ATOM      7  O   UNL     1      -7.697   5.293  13.695  1.00  0.00    -0.303 OA
ENDBRANCH   5   6
ENDBRANCH   1   5
TORSDOF 4
ENDMDL
MODEL 4
REMARK VINA RESULT:    -2.872      2.814      4.291
REMARK INTER + INTRA:          -3.673
REMARK INTER:                  -3.591
REMARK INTRA:                  -0.081
REMARK UNBOUND:                -0.128
REMARK SMILES CCCCCC=O
REMARK SMILES IDX 4 1 3 2 2 3 1 4 5 5 6 6 7 7
REMARK H PARENT
REMARK Flexibility Score: inf
ROOT
ATOM      1  C   UNL     1      -9.754   6.350  16.624  1.00  0.00     0.008 C 
ENDROOT
BRANCH   1   2
ATOM      2  C   UNL     1     -10.669   5.954  15.451  1.00  0.00     0.000 C 
BRANCH   2   3
ATOM      3  C   UNL     1     -10.042   6.121  14.056  1.00  0.00    -0.003 C 
ATOM      4  C   UNL     1      -8.527   5.913  14.052  1.00  0.00     0.004 C 
ENDBRANCH   2   3
ENDBRANCH   1   2
BRANCH   1   5
ATOM      5  C   UNL     1     -10.173   7.668  17.290  1.00  0.00     0.072 C 
BRANCH   5   6
ATOM      6  C   UNL     1      -9.279   8.000  18.447  1.00  0.00     0.224 C 
ATOM      7  O   UNL     1      -9.720   8.630  19.395  1.00  0.00    -0.303 OA
ENDBRANCH   5   6
ENDBRANCH   1   5
TORSDOF 4
ENDMDL
MODEL 5
REMARK VINA RESULT:    -2.830      6.375      7.531
REMARK INTER + INTRA:          -3.621
REMARK INTER:                  -3.502
REMARK INTRA:                  -0.119
REMARK UNBOUND:                -0.128
REMARK SMILES CCCCCC=O
REMARK SMILES IDX 4 1 3 2 2 3 1 4 5 5 6 6 7 7
REMARK H PARENT
REMARK Flexibility Score: inf
ROOT
ATOM      1  C   UNL     1      -6.871   9.615  18.532  1.00  0.00     0.008 C 
ENDROOT
BRANCH   1   2
ATOM      2  C   UNL     1      -6.020  10.490  17.596  1.00  0.00     0.000 C 
BRANCH   2   3
ATOM      3  C   UNL     1      -4.517  10.520  17.927  1.00  0.00    -0.003 C 
ATOM      4  C   UNL     1      -3.639  10.059  16.764  1.00  0.00     0.004 C 
ENDBRANCH   2   3
ENDBRANCH   1   2
BRANCH   1   5
ATOM      5  C   UNL     1      -7.722  10.438  19.510  1.00  0.00     0.072 C 
BRANCH   5   6
ATOM      6  C   UNL     1      -7.291  10.211  20.929  1.00  0.00     0.224 C 
ATOM      7  O   UNL     1      -6.130   9.927  21.175  1.00  0.00    -0.303 OA
ENDBRANCH   5   6
ENDBRANCH   1   5
TORSDOF 4
ENDMDL
MODEL 6
REMARK VINA RESULT:    -2.821      2.276      3.753
REMARK INTER + INTRA:          -3.609
REMARK INTER:                  -3.473
REMARK INTRA:                  -0.136
REMARK UNBOUND:                -0.128
REMARK SMILES CCCCCC=O
REMARK SMILES IDX 4 1 3 2 2 3 1 4 5 5 6 6 7 7
REMARK H PARENT
REMARK Flexibility Score: inf
ROOT
ATOM      1  C   UNL     1      -9.616   6.117  16.507  1.00  0.00     0.008 C 
ENDROOT
BRANCH   1   2
ATOM      2  C   UNL     1     -10.764   5.904  15.504  1.00  0.00     0.000 C 
BRANCH   2   3
ATOM      3  C   UNL     1     -10.414   6.232  14.041  1.00  0.00    -0.003 C 
ATOM      4  C   UNL     1      -8.916   6.148  13.751  1.00  0.00     0.004 C 
ENDBRANCH   2   3
ENDBRANCH   1   2
BRANCH   1   5
ATOM      5  C   UNL     1      -9.820   7.353  17.395  1.00  0.00     0.072 C 
BRANCH   5   6
ATOM      6  C   UNL     1      -8.850   8.441  17.044  1.00  0.00     0.224 C 
ATOM      7  O   UNL     1      -8.069   8.856  17.886  1.00  0.00    -0.303 OA
ENDBRANCH   5   6
ENDBRANCH   1   5
TORSDOF 4
ENDMDL
MODEL 7
REMARK VINA RESULT:    -2.765      6.039      6.684
REMARK INTER + INTRA:          -3.539
REMARK INTER:                  -3.458
REMARK INTRA:                  -0.082
REMARK UNBOUND:                -0.128
REMARK SMILES CCCCCC=O
REMARK SMILES IDX 4 1 3 2 2 3 1 4 5 5 6 6 7 7
REMARK H PARENT
REMARK Flexibility Score: inf
ROOT
ATOM      1  C   UNL     1      -6.092  10.045  17.799  1.00  0.00     0.008 C 
ENDROOT
BRANCH   1   2
ATOM      2  C   UNL     1      -6.981   9.705  19.008  1.00  0.00     0.000 C 
BRANCH   2   3
ATOM      3  C   UNL     1      -6.333   9.964  20.380  1.00  0.00    -0.003 C 
ATOM      4  C   UNL     1      -7.358  10.168  21.496  1.00  0.00     0.004 C 
ENDBRANCH   2   3
ENDBRANCH   1   2
BRANCH   1   5
ATOM      5  C   UNL     1      -4.672  10.470  18.201  1.00  0.00     0.072 C 
BRANCH   5   6
ATOM      6  C   UNL     1      -3.778  10.583  17.002  1.00  0.00     0.224 C 
ATOM      7  O   UNL     1      -3.304   9.577  16.499  1.00  0.00    -0.303 OA
ENDBRANCH   5   6
ENDBRANCH   1   5
TORSDOF 4
ENDMDL
MODEL 8
REMARK VINA RESULT:    -2.715      6.250      7.142
REMARK INTER + INTRA:          -3.478
REMARK INTER:                  -3.371
REMARK INTRA:                  -0.107
REMARK UNBOUND:                -0.128
REMARK SMILES CCCCCC=O
REMARK SMILES IDX 4 1 3 2 2 3 1 4 5 5 6 6 7 7
REMARK H PARENT
REMARK Flexibility Score: inf
ROOT
ATOM      1  C   UNL     1      -6.360   9.935  20.464  1.00  0.00     0.008 C 
ENDROOT
BRANCH   1   2
ATOM      2  C   UNL     1      -7.421  10.137  21.560  1.00  0.00     0.000 C 
BRANCH   2   3
ATOM      3  C   UNL     1      -8.694  10.870  21.101  1.00  0.00    -0.003 C 
ATOM      4  C   UNL     1      -9.961  10.353  21.782  1.00  0.00     0.004 C 
ENDBRANCH   2   3
ENDBRANCH   1   2
BRANCH   1   5
ATOM      5  C   UNL     1      -6.973   9.657  19.083  1.00  0.00     0.072 C 
BRANCH   5   6
ATOM      6  C   UNL     1      -6.138  10.253  17.989  1.00  0.00     0.224 C 
ATOM      7  O   UNL     1      -4.926  10.323  18.116  1.00  0.00    -0.303 OA
ENDBRANCH   5   6
ENDBRANCH   1   5
TORSDOF 4
ENDMDL
MODEL 9
REMARK VINA RESULT:    -2.674      4.376      5.934
REMARK INTER + INTRA:          -3.427
REMARK INTER:                  -3.388
REMARK INTRA:                  -0.039
REMARK UNBOUND:                -0.128
REMARK SMILES CCCCCC=O
REMARK SMILES IDX 4 1 3 2 2 3 1 4 5 5 6 6 7 7
REMARK H PARENT
REMARK Flexibility Score: inf
ROOT
ATOM      1  C   UNL     1      -8.174   8.935  18.472  1.00  0.00     0.008 C 
ENDROOT
BRANCH   1   2
ATOM      2  C   UNL     1      -9.508   8.192  18.668  1.00  0.00     0.000 C 
BRANCH   2   3
ATOM      3  C   UNL     1     -10.246   7.832  17.366  1.00  0.00    -0.003 C 
ATOM      4  C   UNL     1      -9.720   6.554  16.714  1.00  0.00     0.004 C 
ENDBRANCH   2   3
ENDBRANCH   1   2
BRANCH   1   5
ATOM      5  C   UNL     1      -7.888   9.952  19.586  1.00  0.00     0.072 C 
BRANCH   5   6
ATOM      6  C   UNL     1      -6.437   9.950  19.964  1.00  0.00     0.224 C 
ATOM      7  O   UNL     1      -6.114   9.913  21.141  1.00  0.00    -0.303 OA
ENDBRANCH   5   6
ENDBRANCH   1   5
TORSDOF 4
ENDMDL
