MODEL 1
REMARK VINA RESULT:    -5.531      0.000      0.000
REMARK INTER + INTRA:          -5.943
REMARK INTER:                  -5.855
REMARK INTRA:                  -0.088
REMARK UNBOUND:                -0.088
REMARK SMILES C=C(C)[C@@H]1CC=C(C)C(=O)C1
REMARK SMILES IDX 8 1 7 2 6 3 5 4 4 5 11 6 9 7 10 8 2 9 1 10 3 11
REMARK H PARENT
REMARK Flexibility Score: inf
ROOT
ATOM      1  C   UNL     1       3.564  17.145  -5.740  1.00  0.00     0.048 C 
ATOM      2  C   UNL     1       3.630  15.818  -6.445  1.00  0.00    -0.012 C 
ATOM      3  C   UNL     1       2.613  15.428  -7.232  1.00  0.00    -0.019 C 
ATOM      4  C   UNL     1       2.636  14.119  -7.976  1.00  0.00     0.036 C 
ATOM      5  C   UNL     1       3.407  13.044  -7.185  1.00  0.00     0.025 C 
ATOM      6  C   UNL     1       4.821  13.546  -6.841  1.00  0.00     0.089 C 
ATOM      7  C   UNL     1       4.758  14.892  -6.175  1.00  0.00     0.158 C 
ATOM      8  O   UNL     1       5.695  15.243  -5.408  1.00  0.00    -0.295 OA
ENDROOT
BRANCH   5   9
ATOM      9  C   UNL     1       3.447  11.716  -7.931  1.00  0.00    -0.077 C 
ATOM     10  C   UNL     1       2.670  10.684  -7.562  1.00  0.00     0.008 C 
ATOM     11  C   UNL     1       4.372  11.539  -9.106  1.00  0.00     0.039 C 
ENDBRANCH   5   9
TORSDOF 1
ENDMDL
MODEL 2
REMARK VINA RESULT:    -5.328      1.151      1.295
REMARK INTER + INTRA:          -5.728
REMARK INTER:                  -5.634
REMARK INTRA:                  -0.094
REMARK UNBOUND:                -0.088
REMARK SMILES C=C(C)[C@@H]1CC=C(C)C(=O)C1
REMARK SMILES IDX 8 1 7 2 6 3 5 4 4 5 11 6 9 7 10 8 2 9 1 10 3 11
REMARK H PARENT
REMARK Flexibility Score: inf
ROOT
ATOM      1  C   UNL     1       1.884  16.382  -5.332  1.00  0.00     0.048 C 
ATOM      2  C   UNL     1       2.658  15.399  -6.167  1.00  0.00    -0.012 C 
ATOM      3  C   UNL     1       2.035  14.712  -7.140  1.00  0.00    -0.019 C 
ATOM      4  C   UNL     1       2.765  13.730  -8.017  1.00  0.00     0.036 C 
ATOM      5  C   UNL     1       3.907  13.040  -7.247  1.00  0.00     0.025 C 
ATOM      6  C   UNL     1       4.851  14.093  -6.636  1.00  0.00     0.089 C 
ATOM      7  C   UNL     1       4.074  15.101  -5.837  1.00  0.00     0.158 C 
ATOM      8  O   UNL     1       4.650  15.719  -4.901  1.00  0.00    -0.295 OA
ENDROOT
BRANCH   5   9
ATOM      9  C   UNL     1       4.662  12.050  -8.125  1.00  0.00    -0.077 C 
ATOM     10  C   UNL     1       4.011  11.163  -8.897  1.00  0.00     0.008 C 
ATOM     11  C   UNL     1       6.168  12.050  -8.140  1.00  0.00     0.039 C 
ENDBRANCH   5   9
TORSDOF 1
ENDMDL
MODEL 3
REMARK VINA RESULT:    -5.154      2.067      4.238
REMARK INTER + INTRA:          -5.543
REMARK INTER:                  -5.450
REMARK INTRA:                  -0.093
REMARK UNBOUND:                -0.088
REMARK SMILES C=C(C)[C@@H]1CC=C(C)C(=O)C1
REMARK SMILES IDX 8 1 7 2 6 3 5 4 4 5 11 6 9 7 10 8 2 9 1 10 3 11
REMARK H PARENT
REMARK Flexibility Score: inf
ROOT
ATOM      1  C   UNL     1       6.380  12.798  -8.704  1.00  0.00     0.048 C 
ATOM      2  C   UNL     1       5.404  13.680  -7.973  1.00  0.00    -0.012 C 
ATOM      3  C   UNL     1       4.682  14.585  -8.655  1.00  0.00    -0.019 C 
ATOM      4  C   UNL     1       3.679  15.481  -7.977  1.00  0.00     0.036 C 
ATOM      5  C   UNL     1       4.123  15.824  -6.542  1.00  0.00     0.025 C 
ATOM      6  C   UNL     1       4.391  14.536  -5.743  1.00  0.00     0.089 C 
ATOM      7  C   UNL     1       5.332  13.634  -6.492  1.00  0.00     0.158 C 
ATOM      8  O   UNL     1       6.036  12.810  -5.849  1.00  0.00    -0.295 OA
ENDROOT
BRANCH   5   9
ATOM      9  C   UNL     1       3.112  16.722  -5.839  1.00  0.00    -0.077 C 
ATOM     10  C   UNL     1       1.955  16.232  -5.362  1.00  0.00     0.008 C 
ATOM     11  C   UNL     1       3.397  18.191  -5.669  1.00  0.00     0.039 C 
ENDBRANCH   5   9
TORSDOF 1
ENDMDL
MODEL 4
REMARK VINA RESULT:    -5.004      1.351      1.519
REMARK INTER + INTRA:          -5.385
REMARK INTER:                  -5.289
REMARK INTRA:                  -0.096
REMARK UNBOUND:                -0.088
REMARK SMILES C=C(C)[C@@H]1CC=C(C)C(=O)C1
REMARK SMILES IDX 8 1 7 2 6 3 5 4 4 5 11 6 9 7 10 8 2 9 1 10 3 11
REMARK H PARENT
REMARK Flexibility Score: inf
ROOT
ATOM      1  C   UNL     1       3.438  17.291  -5.779  1.00  0.00     0.048 C 
ATOM      2  C   UNL     1       3.290  15.930  -6.401  1.00  0.00    -0.012 C 
ATOM      3  C   UNL     1       2.690  14.943  -5.713  1.00  0.00    -0.019 C 
ATOM      4  C   UNL     1       2.499  13.567  -6.294  1.00  0.00     0.036 C 
ATOM      5  C   UNL     1       3.655  13.201  -7.245  1.00  0.00     0.025 C 
ATOM      6  C   UNL     1       3.811  14.279  -8.334  1.00  0.00     0.089 C 
ATOM      7  C   UNL     1       3.916  15.645  -7.716  1.00  0.00     0.158 C 
ATOM      8  O   UNL     1       4.511  16.561  -8.346  1.00  0.00    -0.295 OA
ENDROOT
BRANCH   5   9
ATOM      9  C   UNL     1       3.470  11.815  -7.849  1.00  0.00    -0.077 C 
ATOM     10  C   UNL     1       2.681  10.897  -7.265  1.00  0.00     0.008 C 
ATOM     11  C   UNL     1       4.181  11.446  -9.125  1.00  0.00     0.039 C 
ENDBRANCH   5   9
TORSDOF 1
ENDMDL
MODEL 5
REMARK VINA RESULT:    -4.686      1.929      4.467
REMARK INTER + INTRA:          -5.048
REMARK INTER:                  -4.950
REMARK INTRA:                  -0.098
REMARK UNBOUND:                -0.088
REMARK SMILES C=C(C)[C@@H]1CC=C(C)C(=O)C1
REMARK SMILES IDX 8 1 7 2 6 3 5 4 4 5 11 6 9 7 10 8 2 9 1 10 3 11
REMARK H PARENT
REMARK Flexibility Score: inf
ROOT
ATOM      1  C   UNL     1       5.619  11.617  -8.368  1.00  0.00     0.048 C 
ATOM      2  C   UNL     1       4.869  12.815  -7.852  1.00  0.00    -0.012 C 
ATOM      3  C   UNL     1       5.467  14.018  -7.828  1.00  0.00    -0.019 C 
ATOM      4  C   UNL     1       4.758  15.253  -7.339  1.00  0.00     0.036 C 
ATOM      5  C   UNL     1       3.752  14.910  -6.223  1.00  0.00     0.025 C 
ATOM      6  C   UNL     1       2.772  13.823  -6.703  1.00  0.00     0.089 C 
ATOM      7  C   UNL     1       3.520  12.643  -7.258  1.00  0.00     0.158 C 
ATOM      8  O   UNL     1       2.972  11.508  -7.247  1.00  0.00    -0.295 OA
ENDROOT
BRANCH   5   9
ATOM      9  C   UNL     1       3.019  16.149  -5.726  1.00  0.00    -0.077 C 
ATOM     10  C   UNL     1       1.739  16.089  -5.321  1.00  0.00     0.008 C 
ATOM     11  C   UNL     1       3.726  17.478  -5.681  1.00  0.00     0.039 C 
ENDBRANCH   5   9
TORSDOF 1
ENDMDL
MODEL 6
REMARK VINA RESULT:    -3.676      1.654      4.432
REMARK INTER + INTRA:          -3.979
REMARK INTER:                  -3.886
REMARK INTRA:                  -0.094
REMARK UNBOUND:                -0.088
REMARK SMILES C=C(C)[C@@H]1CC=C(C)C(=O)C1
REMARK SMILES IDX 8 1 7 2 6 3 5 4 4 5 11 6 9 7 10 8 2 9 1 10 3 11
REMARK H PARENT
REMARK Flexibility Score: inf
ROOT
ATOM      1  C   UNL     1       2.630  12.493  -9.125  1.00  0.00     0.048 C 
ATOM      2  C   UNL     1       2.976  13.508  -8.071  1.00  0.00    -0.012 C 
ATOM      3  C   UNL     1       1.996  14.178  -7.441  1.00  0.00    -0.019 C 
ATOM      4  C   UNL     1       2.286  15.192  -6.365  1.00  0.00     0.036 C 
ATOM      5  C   UNL     1       3.619  15.918  -6.631  1.00  0.00     0.025 C 
ATOM      6  C   UNL     1       4.760  14.896  -6.794  1.00  0.00     0.089 C 
ATOM      7  C   UNL     1       4.397  13.856  -7.817  1.00  0.00     0.158 C 
ATOM      8  O   UNL     1       5.316  13.254  -8.434  1.00  0.00    -0.295 OA
ENDROOT
BRANCH   5   9
ATOM      9  C   UNL     1       3.930  16.940  -5.545  1.00  0.00    -0.077 C 
ATOM     10  C   UNL     1       4.510  16.576  -4.388  1.00  0.00     0.008 C 
ATOM     11  C   UNL     1       3.586  18.391  -5.753  1.00  0.00     0.039 C 
ENDBRANCH   5   9
TORSDOF 1
ENDMDL
MODEL 7
REMARK VINA RESULT:    -3.376      1.360      1.626
REMARK INTER + INTRA:          -3.661
REMARK INTER:                  -3.568
REMARK INTRA:                  -0.093
REMARK UNBOUND:                -0.088
REMARK SMILES C=C(C)[C@@H]1CC=C(C)C(=O)C1
REMARK SMILES IDX 8 1 7 2 6 3 5 4 4 5 11 6 9 7 10 8 2 9 1 10 3 11
REMARK H PARENT
REMARK Flexibility Score: inf
ROOT
ATOM      1  C   UNL     1       3.374  17.440  -5.750  1.00  0.00     0.048 C 
ATOM      2  C   UNL     1       3.814  16.127  -6.336  1.00  0.00    -0.012 C 
ATOM      3  C   UNL     1       4.128  16.049  -7.641  1.00  0.00    -0.019 C 
ATOM      4  C   UNL     1       4.592  14.764  -8.275  1.00  0.00     0.036 C 
ATOM      5  C   UNL     1       3.932  13.544  -7.604  1.00  0.00     0.025 C 
ATOM      6  C   UNL     1       4.182  13.570  -6.085  1.00  0.00     0.089 C 
ATOM      7  C   UNL     1       3.783  14.898  -5.504  1.00  0.00     0.158 C 
ATOM      8  O   UNL     1       3.454  14.964  -4.290  1.00  0.00    -0.295 OA
ENDROOT
BRANCH   5   9
ATOM      9  C   UNL     1       4.400  12.236  -8.229  1.00  0.00    -0.077 C 
ATOM     10  C   UNL     1       5.633  11.754  -8.000  1.00  0.00     0.008 C 
ATOM     11  C   UNL     1       3.476  11.454  -9.125  1.00  0.00     0.039 C 
ENDBRANCH   5   9
TORSDOF 1
ENDMDL
MODEL 8
REMARK VINA RESULT:    -3.294      1.904      2.649
REMARK INTER + INTRA:          -3.575
REMARK INTER:                  -3.482
REMARK INTRA:                  -0.093
REMARK UNBOUND:                -0.088
REMARK SMILES C=C(C)[C@@H]1CC=C(C)C(=O)C1
REMARK SMILES IDX 8 1 7 2 6 3 5 4 4 5 11 6 9 7 10 8 2 9 1 10 3 11
REMARK H PARENT
REMARK Flexibility Score: inf
ROOT
ATOM      1  C   UNL     1       3.907  15.469  -2.715  1.00  0.00     0.048 C 
ATOM      2  C   UNL     1       3.751  15.195  -4.186  1.00  0.00    -0.012 C 
ATOM      3  C   UNL     1       3.345  13.983  -4.601  1.00  0.00    -0.019 C 
ATOM      4  C   UNL     1       3.155  13.661  -6.060  1.00  0.00     0.036 C 
ATOM      5  C   UNL     1       4.156  14.439  -6.935  1.00  0.00     0.025 C 
ATOM      6  C   UNL     1       4.052  15.949  -6.651  1.00  0.00     0.089 C 
ATOM      7  C   UNL     1       4.164  16.220  -5.177  1.00  0.00     0.158 C 
ATOM      8  O   UNL     1       4.580  17.345  -4.788  1.00  0.00    -0.295 OA
ENDROOT
BRANCH   5   9
ATOM      9  C   UNL     1       3.969  14.131  -8.415  1.00  0.00    -0.077 C 
ATOM     10  C   UNL     1       2.956  14.665  -9.118  1.00  0.00     0.008 C 
ATOM     11  C   UNL     1       4.929  13.209  -9.121  1.00  0.00     0.039 C 
ENDBRANCH   5   9
TORSDOF 1
ENDMDL
