MODEL 1
REMARK VINA RESULT:    -5.760      0.000      0.000
REMARK INTER + INTRA:          -7.439
REMARK INTER:                  -7.107
REMARK INTRA:                  -0.332
REMARK UNBOUND:                -0.332
REMARK SMILES O=c1c(O)c(-c2cc(O)c(O)c(O)c2)oc2cc(O)cc(O)c12
REMARK SMILES IDX 5 1 3 2 2 3 1 4 23 5 21 6 20 7 18 8 17 9 16 10 15 11 6 12
REMARK SMILES IDX 7 13 8 14 14 15 10 16 12 17 9 18 11 20 13 22 4 24 22 26
REMARK SMILES IDX 19 28
REMARK H PARENT 9 19 11 21 13 23 4 25 22 27 19 29
REMARK Flexibility Score: inf
ROOT
ATOM      1  C   UNL     1    -105.924  44.549  54.213  1.00  0.00     0.180 A 
ATOM      2  C   UNL     1    -107.003  43.694  54.495  1.00  0.00     0.208 A 
ATOM      3  C   UNL     1    -106.858  42.720  55.497  1.00  0.00     0.238 A 
ATOM      4  O   UNL     1    -107.800  41.911  55.692  1.00  0.00    -0.285 OA
ATOM      5  C   UNL     1    -105.655  42.651  56.243  1.00  0.00     0.111 A 
ATOM      6  C   UNL     1    -105.413  41.734  57.311  1.00  0.00     0.134 A 
ATOM      7  C   UNL     1    -104.147  41.685  57.906  1.00  0.00     0.093 A 
ATOM      8  C   UNL     1    -103.133  42.564  57.515  1.00  0.00     0.123 A 
ATOM      9  C   UNL     1    -103.376  43.498  56.512  1.00  0.00     0.094 A 
ATOM     10  C   UNL     1    -104.617  43.546  55.874  1.00  0.00     0.146 A 
ATOM     11  O   UNL     1    -104.798  44.439  54.907  1.00  0.00    -0.452 OA
ENDROOT
BRANCH   1  12
ATOM     12  C   UNL     1    -105.996  45.590  53.163  1.00  0.00     0.029 A 
ATOM     13  C   UNL     1    -105.408  45.398  51.901  1.00  0.00     0.062 A 
ATOM     14  C   UNL     1    -105.466  46.404  50.927  1.00  0.00     0.162 A 
ATOM     15  C   UNL     1    -106.614  46.817  53.448  1.00  0.00     0.062 A 
ATOM     16  C   UNL     1    -106.107  47.622  51.214  1.00  0.00     0.200 A 
ATOM     17  C   UNL     1    -106.678  47.826  52.482  1.00  0.00     0.162 A 
BRANCH  14  18
ATOM     18  O   UNL     1    -104.884  46.200  49.677  1.00  0.00    -0.504 OA
ATOM     19  H   UNL     1    -103.905  46.396  49.509  1.00  0.00     0.293 HD
ENDBRANCH  14  18
BRANCH  16  20
ATOM     20  O   UNL     1    -106.178  48.633  50.255  1.00  0.00    -0.502 OA
ATOM     21  H   UNL     1    -106.995  48.767  49.673  1.00  0.00     0.293 HD
ENDBRANCH  16  20
BRANCH  17  22
ATOM     22  O   UNL     1    -107.313  49.025  52.801  1.00  0.00    -0.504 OA
ATOM     23  H   UNL     1    -108.103  49.065  53.435  1.00  0.00     0.293 HD
ENDBRANCH  17  22
ENDBRANCH   1  12
BRANCH   2  24
ATOM     24  O   UNL     1    -108.208  43.829  53.801  1.00  0.00    -0.502 OA
ATOM     25  H   UNL     1    -108.247  43.944  52.795  1.00  0.00     0.293 HD
ENDBRANCH   2  24
BRANCH   6  26
ATOM     26  O   UNL     1    -106.382  40.875  57.838  1.00  0.00    -0.507 OA
ATOM     27  H   UNL     1    -107.336  41.132  58.040  1.00  0.00     0.293 HD
ENDBRANCH   6  26
BRANCH   8  28
ATOM     28  O   UNL     1    -101.881  42.520  58.125  1.00  0.00    -0.508 OA
ATOM     29  H   UNL     1    -101.719  42.938  59.034  1.00  0.00     0.293 HD
ENDBRANCH   8  28
TORSDOF 7
ENDMDL
MODEL 2
REMARK VINA RESULT:    -5.744      0.076      1.756
REMARK INTER + INTRA:          -7.418
REMARK INTER:                  -7.096
REMARK INTRA:                  -0.322
REMARK UNBOUND:                -0.332
REMARK SMILES O=c1c(O)c(-c2cc(O)c(O)c(O)c2)oc2cc(O)cc(O)c12
REMARK SMILES IDX 5 1 3 2 2 3 1 4 23 5 21 6 20 7 18 8 17 9 16 10 15 11 6 12
REMARK SMILES IDX 7 13 8 14 14 15 10 16 12 17 9 18 11 20 13 22 4 24 22 26
REMARK SMILES IDX 19 28
REMARK H PARENT 9 19 11 21 13 23 4 25 22 27 19 29
REMARK Flexibility Score: inf
ROOT
ATOM      1  C   UNL     1    -105.920  44.571  54.235  1.00  0.00     0.180 A 
ATOM      2  C   UNL     1    -106.987  43.690  54.479  1.00  0.00     0.208 A 
ATOM      3  C   UNL     1    -106.835  42.688  55.452  1.00  0.00     0.238 A 
ATOM      4  O   UNL     1    -107.765  41.857  55.612  1.00  0.00    -0.285 OA
ATOM      5  C   UNL     1    -105.638  42.615  56.208  1.00  0.00     0.111 A 
ATOM      6  C   UNL     1    -105.392  41.670  57.249  1.00  0.00     0.134 A 
ATOM      7  C   UNL     1    -104.130  41.624  57.856  1.00  0.00     0.093 A 
ATOM      8  C   UNL     1    -103.128  42.531  57.503  1.00  0.00     0.123 A 
ATOM      9  C   UNL     1    -103.376  43.492  56.527  1.00  0.00     0.094 A 
ATOM     10  C   UNL     1    -104.612  43.538  55.877  1.00  0.00     0.146 A 
ATOM     11  O   UNL     1    -104.799  44.458  54.937  1.00  0.00    -0.452 OA
ENDROOT
BRANCH   1  12
ATOM     12  C   UNL     1    -106.000  45.643  53.217  1.00  0.00     0.029 A 
ATOM     13  C   UNL     1    -106.697  46.837  53.466  1.00  0.00     0.062 A 
ATOM     14  C   UNL     1    -106.782  47.831  52.482  1.00  0.00     0.162 A 
ATOM     15  C   UNL     1    -105.419  45.442  51.956  1.00  0.00     0.062 A 
ATOM     16  C   UNL     1    -106.177  47.631  51.229  1.00  0.00     0.200 A 
ATOM     17  C   UNL     1    -105.497  46.428  50.968  1.00  0.00     0.162 A 
BRANCH  14  18
ATOM     18  O   UNL     1    -107.470  49.015  52.742  1.00  0.00    -0.504 OA
ATOM     19  H   UNL     1    -107.469  49.785  52.085  1.00  0.00     0.293 HD
ENDBRANCH  14  18
BRANCH  16  20
ATOM     20  O   UNL     1    -106.248  48.611  50.239  1.00  0.00    -0.502 OA
ATOM     21  H   UNL     1    -105.422  48.976  49.780  1.00  0.00     0.293 HD
ENDBRANCH  16  20
BRANCH  17  22
ATOM     22  O   UNL     1    -104.894  46.196  49.733  1.00  0.00    -0.504 OA
ATOM     23  H   UNL     1    -104.188  46.815  49.352  1.00  0.00     0.293 HD
ENDBRANCH  17  22
ENDBRANCH   1  12
BRANCH   2  24
ATOM     24  O   UNL     1    -108.187  43.826  53.777  1.00  0.00    -0.502 OA
ATOM     25  H   UNL     1    -108.835  44.586  53.948  1.00  0.00     0.293 HD
ENDBRANCH   2  24
BRANCH   6  26
ATOM     26  O   UNL     1    -106.350  40.778  57.740  1.00  0.00    -0.507 OA
ATOM     27  H   UNL     1    -107.215  41.045  58.185  1.00  0.00     0.293 HD
ENDBRANCH   6  26
BRANCH   8  28
ATOM     28  O   UNL     1    -101.881  42.489  58.124  1.00  0.00    -0.508 OA
ATOM     29  H   UNL     1    -101.752  42.817  59.075  1.00  0.00     0.293 HD
ENDBRANCH   8  28
TORSDOF 7
ENDMDL
MODEL 3
REMARK VINA RESULT:    -5.210      1.652      3.797
REMARK INTER + INTRA:          -6.761
REMARK INTER:                  -6.395
REMARK INTRA:                  -0.365
REMARK UNBOUND:                -0.332
REMARK SMILES O=c1c(O)c(-c2cc(O)c(O)c(O)c2)oc2cc(O)cc(O)c12
REMARK SMILES IDX 5 1 3 2 2 3 1 4 23 5 21 6 20 7 18 8 17 9 16 10 15 11 6 12
REMARK SMILES IDX 7 13 8 14 14 15 10 16 12 17 9 18 11 20 13 22 4 24 22 26
REMARK SMILES IDX 19 28
REMARK H PARENT 9 19 11 21 13 23 4 25 22 27 19 29
REMARK Flexibility Score: inf
ROOT
ATOM      1  C   UNL     1    -106.162  43.908  53.880  1.00  0.00     0.180 A 
ATOM      2  C   UNL     1    -105.249  43.646  54.915  1.00  0.00     0.208 A 
ATOM      3  C   UNL     1    -105.461  42.534  55.747  1.00  0.00     0.238 A 
ATOM      4  O   UNL     1    -104.682  42.349  56.716  1.00  0.00    -0.285 OA
ATOM      5  C   UNL     1    -106.553  41.666  55.497  1.00  0.00     0.111 A 
ATOM      6  C   UNL     1    -106.840  40.486  56.247  1.00  0.00     0.134 A 
ATOM      7  C   UNL     1    -108.008  39.762  55.977  1.00  0.00     0.093 A 
ATOM      8  C   UNL     1    -108.866  40.141  54.942  1.00  0.00     0.123 A 
ATOM      9  C   UNL     1    -108.567  41.260  54.169  1.00  0.00     0.094 A 
ATOM     10  C   UNL     1    -107.429  42.023  54.439  1.00  0.00     0.146 A 
ATOM     11  O   UNL     1    -107.193  43.095  53.691  1.00  0.00    -0.452 OA
ENDROOT
BRANCH   1  12
ATOM     12  C   UNL     1    -106.013  45.068  52.972  1.00  0.00     0.029 A 
ATOM     13  C   UNL     1    -106.537  46.328  53.303  1.00  0.00     0.062 A 
ATOM     14  C   UNL     1    -106.407  47.409  52.421  1.00  0.00     0.162 A 
ATOM     15  C   UNL     1    -105.387  44.894  51.728  1.00  0.00     0.062 A 
ATOM     16  C   UNL     1    -105.757  47.232  51.186  1.00  0.00     0.200 A 
ATOM     17  C   UNL     1    -105.251  45.967  50.841  1.00  0.00     0.162 A 
BRANCH  14  18
ATOM     18  O   UNL     1    -106.924  48.657  52.763  1.00  0.00    -0.504 OA
ATOM     19  H   UNL     1    -107.666  48.755  53.445  1.00  0.00     0.293 HD
ENDBRANCH  14  18
BRANCH  16  20
ATOM     20  O   UNL     1    -105.615  48.298  50.297  1.00  0.00    -0.502 OA
ATOM     21  H   UNL     1    -105.300  48.166  49.343  1.00  0.00     0.293 HD
ENDBRANCH  16  20
BRANCH  17  22
ATOM     22  O   UNL     1    -104.610  45.756  49.621  1.00  0.00    -0.504 OA
ATOM     23  H   UNL     1    -105.002  45.160  48.901  1.00  0.00     0.293 HD
ENDBRANCH  17  22
ENDBRANCH   1  12
BRANCH   2  24
ATOM     24  O   UNL     1    -104.135  44.471  55.097  1.00  0.00    -0.502 OA
ATOM     25  H   UNL     1    -103.192  44.167  54.884  1.00  0.00     0.293 HD
ENDBRANCH   2  24
BRANCH   6  26
ATOM     26  O   UNL     1    -106.005  39.969  57.243  1.00  0.00    -0.507 OA
ATOM     27  H   UNL     1    -105.448  40.523  57.876  1.00  0.00     0.293 HD
ENDBRANCH   6  26
BRANCH   8  28
ATOM     28  O   UNL     1    -110.017  39.405  54.669  1.00  0.00    -0.508 OA
ATOM     29  H   UNL     1    -110.150  38.471  55.039  1.00  0.00     0.293 HD
ENDBRANCH   8  28
TORSDOF 7
ENDMDL
MODEL 4
REMARK VINA RESULT:    -5.060      2.787      4.977
REMARK INTER + INTRA:          -6.575
REMARK INTER:                  -6.237
REMARK INTRA:                  -0.339
REMARK UNBOUND:                -0.332
REMARK SMILES O=c1c(O)c(-c2cc(O)c(O)c(O)c2)oc2cc(O)cc(O)c12
REMARK SMILES IDX 5 1 3 2 2 3 1 4 23 5 21 6 20 7 18 8 17 9 16 10 15 11 6 12
REMARK SMILES IDX 7 13 8 14 14 15 10 16 12 17 9 18 11 20 13 22 4 24 22 26
REMARK SMILES IDX 19 28
REMARK H PARENT 9 19 11 21 13 23 4 25 22 27 19 29
REMARK Flexibility Score: inf
ROOT
ATOM      1  C   UNL     1    -107.124  47.929  53.536  1.00  0.00     0.180 A 
ATOM      2  C   UNL     1    -106.607  47.458  52.317  1.00  0.00     0.208 A 
ATOM      3  C   UNL     1    -105.952  46.215  52.289  1.00  0.00     0.238 A 
ATOM      4  O   UNL     1    -105.427  45.835  51.212  1.00  0.00    -0.285 OA
ATOM      5  C   UNL     1    -105.873  45.434  53.469  1.00  0.00     0.111 A 
ATOM      6  C   UNL     1    -105.272  44.141  53.547  1.00  0.00     0.134 A 
ATOM      7  C   UNL     1    -105.156  43.508  54.791  1.00  0.00     0.093 A 
ATOM      8  C   UNL     1    -105.677  44.092  55.948  1.00  0.00     0.123 A 
ATOM      9  C   UNL     1    -106.313  45.328  55.873  1.00  0.00     0.094 A 
ATOM     10  C   UNL     1    -106.410  46.002  54.653  1.00  0.00     0.146 A 
ATOM     11  O   UNL     1    -107.006  47.189  54.631  1.00  0.00    -0.452 OA
ENDROOT
BRANCH   1  12
ATOM     12  C   UNL     1    -107.814  49.234  53.648  1.00  0.00     0.029 A 
ATOM     13  C   UNL     1    -107.154  50.370  54.145  1.00  0.00     0.062 A 
ATOM     14  C   UNL     1    -107.830  51.592  54.266  1.00  0.00     0.162 A 
ATOM     15  C   UNL     1    -109.171  49.328  53.306  1.00  0.00     0.062 A 
ATOM     16  C   UNL     1    -109.184  51.683  53.899  1.00  0.00     0.200 A 
ATOM     17  C   UNL     1    -109.855  50.543  53.422  1.00  0.00     0.162 A 
BRANCH  14  18
ATOM     18  O   UNL     1    -107.163  52.714  54.754  1.00  0.00    -0.504 OA
ATOM     19  H   UNL     1    -107.222  52.985  55.728  1.00  0.00     0.293 HD
ENDBRANCH  14  18
BRANCH  16  20
ATOM     20  O   UNL     1    -109.872  52.892  54.009  1.00  0.00    -0.502 OA
ATOM     21  H   UNL     1    -109.992  53.518  53.222  1.00  0.00     0.293 HD
ENDBRANCH  16  20
BRANCH  17  22
ATOM     22  O   UNL     1    -111.199  50.598  53.058  1.00  0.00    -0.504 OA
ATOM     23  H   UNL     1    -111.701  49.784  52.723  1.00  0.00     0.293 HD
ENDBRANCH  17  22
ENDBRANCH   1  12
BRANCH   2  24
ATOM     24  O   UNL     1    -106.764  48.208  51.149  1.00  0.00    -0.502 OA
ATOM     25  H   UNL     1    -105.979  48.616  50.654  1.00  0.00     0.293 HD
ENDBRANCH   2  24
BRANCH   6  26
ATOM     26  O   UNL     1    -104.800  43.429  52.441  1.00  0.00    -0.507 OA
ATOM     27  H   UNL     1    -103.919  42.939  52.401  1.00  0.00     0.293 HD
ENDBRANCH   6  26
BRANCH   8  28
ATOM     28  O   UNL     1    -105.572  43.447  57.178  1.00  0.00    -0.508 OA
ATOM     29  H   UNL     1    -105.070  42.572  57.277  1.00  0.00     0.293 HD
ENDBRANCH   8  28
TORSDOF 7
ENDMDL
MODEL 5
REMARK VINA RESULT:    -4.998      2.693      4.231
REMARK INTER + INTRA:          -6.499
REMARK INTER:                  -6.150
REMARK INTRA:                  -0.349
REMARK UNBOUND:                -0.332
REMARK SMILES O=c1c(O)c(-c2cc(O)c(O)c(O)c2)oc2cc(O)cc(O)c12
REMARK SMILES IDX 5 1 3 2 2 3 1 4 23 5 21 6 20 7 18 8 17 9 16 10 15 11 6 12
REMARK SMILES IDX 7 13 8 14 14 15 10 16 12 17 9 18 11 20 13 22 4 24 22 26
REMARK SMILES IDX 19 28
REMARK H PARENT 9 19 11 21 13 23 4 25 22 27 19 29
REMARK Flexibility Score: inf
ROOT
ATOM      1  C   UNL     1    -107.105  47.457  54.130  1.00  0.00     0.180 A 
ATOM      2  C   UNL     1    -107.879  46.761  53.187  1.00  0.00     0.208 A 
ATOM      3  C   UNL     1    -107.735  45.368  53.081  1.00  0.00     0.238 A 
ATOM      4  O   UNL     1    -108.375  44.762  52.184  1.00  0.00    -0.285 OA
ATOM      5  C   UNL     1    -106.860  44.681  53.959  1.00  0.00     0.111 A 
ATOM      6  C   UNL     1    -106.668  43.267  53.972  1.00  0.00     0.134 A 
ATOM      7  C   UNL     1    -105.697  42.709  54.813  1.00  0.00     0.093 A 
ATOM      8  C   UNL     1    -104.956  43.508  55.687  1.00  0.00     0.123 A 
ATOM      9  C   UNL     1    -105.174  44.883  55.721  1.00  0.00     0.094 A 
ATOM     10  C   UNL     1    -106.109  45.473  54.867  1.00  0.00     0.146 A 
ATOM     11  O   UNL     1    -106.270  46.790  54.917  1.00  0.00    -0.452 OA
ENDROOT
BRANCH   1  12
ATOM     12  C   UNL     1    -107.192  48.926  54.291  1.00  0.00     0.029 A 
ATOM     13  C   UNL     1    -106.260  49.784  53.683  1.00  0.00     0.062 A 
ATOM     14  C   UNL     1    -106.343  51.172  53.865  1.00  0.00     0.162 A 
ATOM     15  C   UNL     1    -108.187  49.473  55.114  1.00  0.00     0.062 A 
ATOM     16  C   UNL     1    -107.359  51.713  54.673  1.00  0.00     0.200 A 
ATOM     17  C   UNL     1    -108.279  50.856  55.301  1.00  0.00     0.162 A 
BRANCH  14  18
ATOM     18  O   UNL     1    -105.417  52.014  53.252  1.00  0.00    -0.504 OA
ATOM     19  H   UNL     1    -105.441  52.192  52.255  1.00  0.00     0.293 HD
ENDBRANCH  14  18
BRANCH  16  20
ATOM     20  O   UNL     1    -107.459  53.091  54.863  1.00  0.00    -0.502 OA
ATOM     21  H   UNL     1    -107.525  53.739  54.087  1.00  0.00     0.293 HD
ENDBRANCH  16  20
BRANCH  17  22
ATOM     22  O   UNL     1    -109.293  51.361  56.115  1.00  0.00    -0.504 OA
ATOM     23  H   UNL     1    -110.047  50.778  56.461  1.00  0.00     0.293 HD
ENDBRANCH  17  22
ENDBRANCH   1  12
BRANCH   2  24
ATOM     24  O   UNL     1    -108.794  47.447  52.382  1.00  0.00    -0.502 OA
ATOM     25  H   UNL     1    -109.626  47.007  52.008  1.00  0.00     0.293 HD
ENDBRANCH   2  24
BRANCH   6  26
ATOM     26  O   UNL     1    -107.415  42.368  53.204  1.00  0.00    -0.507 OA
ATOM     27  H   UNL     1    -108.103  42.629  52.515  1.00  0.00     0.293 HD
ENDBRANCH   6  26
BRANCH   8  28
ATOM     28  O   UNL     1    -104.004  42.943  56.532  1.00  0.00    -0.508 OA
ATOM     29  H   UNL     1    -103.308  43.512  57.003  1.00  0.00     0.293 HD
ENDBRANCH   8  28
TORSDOF 7
ENDMDL
MODEL 6
REMARK VINA RESULT:    -4.948      1.851      2.634
REMARK INTER + INTRA:          -6.437
REMARK INTER:                  -6.377
REMARK INTRA:                  -0.060
REMARK UNBOUND:                -0.332
REMARK SMILES O=c1c(O)c(-c2cc(O)c(O)c(O)c2)oc2cc(O)cc(O)c12
REMARK SMILES IDX 5 1 3 2 2 3 1 4 23 5 21 6 20 7 18 8 17 9 16 10 15 11 6 12
REMARK SMILES IDX 7 13 8 14 14 15 10 16 12 17 9 18 11 20 13 22 4 24 22 26
REMARK SMILES IDX 19 28
REMARK H PARENT 9 19 11 21 13 23 4 25 22 27 19 29
REMARK Flexibility Score: inf
ROOT
ATOM      1  C   UNL     1    -107.095  44.561  53.795  1.00  0.00     0.180 A 
ATOM      2  C   UNL     1    -107.949  43.777  53.000  1.00  0.00     0.208 A 
ATOM      3  C   UNL     1    -108.113  42.417  53.310  1.00  0.00     0.238 A 
ATOM      4  O   UNL     1    -108.819  41.706  52.550  1.00  0.00    -0.285 OA
ATOM      5  C   UNL     1    -107.465  41.871  54.446  1.00  0.00     0.111 A 
ATOM      6  C   UNL     1    -107.594  40.517  54.881  1.00  0.00     0.134 A 
ATOM      7  C   UNL     1    -106.822  40.061  55.956  1.00  0.00     0.093 A 
ATOM      8  C   UNL     1    -105.974  40.926  56.652  1.00  0.00     0.123 A 
ATOM      9  C   UNL     1    -105.882  42.261  56.270  1.00  0.00     0.094 A 
ATOM     10  C   UNL     1    -106.611  42.736  55.177  1.00  0.00     0.146 A 
ATOM     11  O   UNL     1    -106.477  44.012  54.833  1.00  0.00    -0.452 OA
ENDROOT
BRANCH   1  12
ATOM     12  C   UNL     1    -106.862  45.997  53.522  1.00  0.00     0.029 A 
ATOM     13  C   UNL     1    -106.491  46.447  52.244  1.00  0.00     0.062 A 
ATOM     14  C   UNL     1    -106.251  47.808  52.010  1.00  0.00     0.162 A 
ATOM     15  C   UNL     1    -106.954  46.922  54.572  1.00  0.00     0.062 A 
ATOM     16  C   UNL     1    -106.368  48.732  53.063  1.00  0.00     0.200 A 
ATOM     17  C   UNL     1    -106.717  48.282  54.348  1.00  0.00     0.162 A 
BRANCH  14  18
ATOM     18  O   UNL     1    -105.890  48.245  50.736  1.00  0.00    -0.504 OA
ATOM     19  H   UNL     1    -105.766  47.597  49.968  1.00  0.00     0.293 HD
ENDBRANCH  14  18
BRANCH  16  20
ATOM     20  O   UNL     1    -106.137  50.091  52.848  1.00  0.00    -0.502 OA
ATOM     21  H   UNL     1    -105.530  50.424  52.108  1.00  0.00     0.293 HD
ENDBRANCH  16  20
BRANCH  17  22
ATOM     22  O   UNL     1    -106.833  49.172  55.416  1.00  0.00    -0.504 OA
ATOM     23  H   UNL     1    -106.111  49.848  55.635  1.00  0.00     0.293 HD
ENDBRANCH  17  22
ENDBRANCH   1  12
BRANCH   2  24
ATOM     24  O   UNL     1    -108.639  44.353  51.930  1.00  0.00    -0.502 OA
ATOM     25  H   UNL     1    -108.621  43.961  50.995  1.00  0.00     0.293 HD
ENDBRANCH   2  24
BRANCH   6  26
ATOM     26  O   UNL     1    -108.477  39.593  54.314  1.00  0.00    -0.507 OA
ATOM     27  H   UNL     1    -108.720  39.550  53.336  1.00  0.00     0.293 HD
ENDBRANCH   6  26
BRANCH   8  28
ATOM     28  O   UNL     1    -105.222  40.467  57.732  1.00  0.00    -0.508 OA
ATOM     29  H   UNL     1    -105.147  41.001  58.590  1.00  0.00     0.293 HD
ENDBRANCH   8  28
TORSDOF 7
ENDMDL
MODEL 7
REMARK VINA RESULT:    -4.931      1.618      6.840
REMARK INTER + INTRA:          -6.415
REMARK INTER:                  -6.795
REMARK INTRA:                   0.379
REMARK UNBOUND:                -0.332
REMARK SMILES O=c1c(O)c(-c2cc(O)c(O)c(O)c2)oc2cc(O)cc(O)c12
REMARK SMILES IDX 5 1 3 2 2 3 1 4 23 5 21 6 20 7 18 8 17 9 16 10 15 11 6 12
REMARK SMILES IDX 7 13 8 14 14 15 10 16 12 17 9 18 11 20 13 22 4 24 22 26
REMARK SMILES IDX 19 28
REMARK H PARENT 9 19 11 21 13 23 4 25 22 27 19 29
REMARK Flexibility Score: inf
ROOT
ATOM      1  C   UNL     1    -106.489  44.293  54.311  1.00  0.00     0.180 A 
ATOM      2  C   UNL     1    -107.859  44.017  54.169  1.00  0.00     0.208 A 
ATOM      3  C   UNL     1    -108.608  44.745  53.230  1.00  0.00     0.238 A 
ATOM      4  O   UNL     1    -109.847  44.544  53.161  1.00  0.00    -0.285 OA
ATOM      5  C   UNL     1    -107.965  45.702  52.406  1.00  0.00     0.111 A 
ATOM      6  C   UNL     1    -108.615  46.466  51.390  1.00  0.00     0.134 A 
ATOM      7  C   UNL     1    -107.901  47.460  50.709  1.00  0.00     0.093 A 
ATOM      8  C   UNL     1    -106.543  47.673  50.963  1.00  0.00     0.123 A 
ATOM      9  C   UNL     1    -105.887  46.895  51.913  1.00  0.00     0.094 A 
ATOM     10  C   UNL     1    -106.582  45.922  52.635  1.00  0.00     0.146 A 
ATOM     11  O   UNL     1    -105.921  45.218  53.547  1.00  0.00    -0.452 OA
ENDROOT
BRANCH   1  12
ATOM     12  C   UNL     1    -105.637  43.578  55.288  1.00  0.00     0.029 A 
ATOM     13  C   UNL     1    -106.052  42.368  55.872  1.00  0.00     0.062 A 
ATOM     14  C   UNL     1    -105.243  41.717  56.812  1.00  0.00     0.162 A 
ATOM     15  C   UNL     1    -104.417  44.144  55.686  1.00  0.00     0.062 A 
ATOM     16  C   UNL     1    -104.011  42.280  57.188  1.00  0.00     0.200 A 
ATOM     17  C   UNL     1    -103.603  43.501  56.623  1.00  0.00     0.162 A 
BRANCH  14  18
ATOM     18  O   UNL     1    -105.661  40.514  57.380  1.00  0.00    -0.504 OA
ATOM     19  H   UNL     1    -105.407  40.256  58.326  1.00  0.00     0.293 HD
ENDBRANCH  14  18
BRANCH  16  20
ATOM     20  O   UNL     1    -103.191  41.643  58.120  1.00  0.00    -0.502 OA
ATOM     21  H   UNL     1    -102.901  42.093  58.980  1.00  0.00     0.293 HD
ENDBRANCH  16  20
BRANCH  17  22
ATOM     22  O   UNL     1    -102.391  44.090  56.981  1.00  0.00    -0.504 OA
ATOM     23  H   UNL     1    -101.508  43.597  56.905  1.00  0.00     0.293 HD
ENDBRANCH  17  22
ENDBRANCH   1  12
BRANCH   2  24
ATOM     24  O   UNL     1    -108.459  43.015  54.937  1.00  0.00    -0.502 OA
ATOM     25  H   UNL     1    -109.156  43.216  55.644  1.00  0.00     0.293 HD
ENDBRANCH   2  24
BRANCH   6  26
ATOM     26  O   UNL     1    -109.943  46.275  50.996  1.00  0.00    -0.507 OA
ATOM     27  H   UNL     1    -110.568  47.007  50.693  1.00  0.00     0.293 HD
ENDBRANCH   6  26
BRANCH   8  28
ATOM     28  O   UNL     1    -105.836  48.652  50.269  1.00  0.00    -0.508 OA
ATOM     29  H   UNL     1    -105.468  49.473  50.738  1.00  0.00     0.293 HD
ENDBRANCH   8  28
TORSDOF 7
ENDMDL
MODEL 8
REMARK VINA RESULT:    -4.802      2.678      5.046
REMARK INTER + INTRA:          -6.257
REMARK INTER:                  -5.917
REMARK INTRA:                  -0.340
REMARK UNBOUND:                -0.332
REMARK SMILES O=c1c(O)c(-c2cc(O)c(O)c(O)c2)oc2cc(O)cc(O)c12
REMARK SMILES IDX 5 1 3 2 2 3 1 4 23 5 21 6 20 7 18 8 17 9 16 10 15 11 6 12
REMARK SMILES IDX 7 13 8 14 14 15 10 16 12 17 9 18 11 20 13 22 4 24 22 26
REMARK SMILES IDX 19 28
REMARK H PARENT 9 19 11 21 13 23 4 25 22 27 19 29
REMARK Flexibility Score: inf
ROOT
ATOM      1  C   UNL     1    -107.478  44.533  53.420  1.00  0.00     0.180 A 
ATOM      2  C   UNL     1    -106.614  43.542  53.916  1.00  0.00     0.208 A 
ATOM      3  C   UNL     1    -107.074  42.218  54.003  1.00  0.00     0.238 A 
ATOM      4  O   UNL     1    -106.321  41.351  54.517  1.00  0.00    -0.285 OA
ATOM      5  C   UNL     1    -108.372  41.890  53.540  1.00  0.00     0.111 A 
ATOM      6  C   UNL     1    -108.926  40.574  53.537  1.00  0.00     0.134 A 
ATOM      7  C   UNL     1    -110.259  40.386  53.154  1.00  0.00     0.093 A 
ATOM      8  C   UNL     1    -111.040  41.458  52.712  1.00  0.00     0.123 A 
ATOM      9  C   UNL     1    -110.492  42.737  52.659  1.00  0.00     0.094 A 
ATOM     10  C   UNL     1    -109.176  42.961  53.070  1.00  0.00     0.146 A 
ATOM     11  O   UNL     1    -108.701  44.201  53.023  1.00  0.00    -0.452 OA
ENDROOT
BRANCH   1  12
ATOM     12  C   UNL     1    -107.071  45.952  53.311  1.00  0.00     0.029 A 
ATOM     13  C   UNL     1    -107.074  46.801  54.431  1.00  0.00     0.062 A 
ATOM     14  C   UNL     1    -106.709  48.148  54.305  1.00  0.00     0.162 A 
ATOM     15  C   UNL     1    -106.731  46.478  52.056  1.00  0.00     0.062 A 
ATOM     16  C   UNL     1    -106.346  48.661  53.047  1.00  0.00     0.200 A 
ATOM     17  C   UNL     1    -106.364  47.821  51.920  1.00  0.00     0.162 A 
BRANCH  14  18
ATOM     18  O   UNL     1    -106.708  48.980  55.423  1.00  0.00    -0.504 OA
ATOM     19  H   UNL     1    -106.100  49.787  55.484  1.00  0.00     0.293 HD
ENDBRANCH  14  18
BRANCH  16  20
ATOM     20  O   UNL     1    -105.975  49.999  52.903  1.00  0.00    -0.502 OA
ATOM     21  H   UNL     1    -105.185  50.281  52.336  1.00  0.00     0.293 HD
ENDBRANCH  16  20
BRANCH  17  22
ATOM     22  O   UNL     1    -106.018  48.301  50.658  1.00  0.00    -0.504 OA
ATOM     23  H   UNL     1    -105.058  48.329  50.336  1.00  0.00     0.293 HD
ENDBRANCH  17  22
ENDBRANCH   1  12
BRANCH   2  24
ATOM     24  O   UNL     1    -105.311  43.872  54.297  1.00  0.00    -0.502 OA
ATOM     25  H   UNL     1    -104.977  44.828  54.326  1.00  0.00     0.293 HD
ENDBRANCH   2  24
BRANCH   6  26
ATOM     26  O   UNL     1    -108.208  39.423  53.875  1.00  0.00    -0.507 OA
ATOM     27  H   UNL     1    -107.594  38.920  53.252  1.00  0.00     0.293 HD
ENDBRANCH   6  26
BRANCH   8  28
ATOM     28  O   UNL     1    -112.360  41.259  52.317  1.00  0.00    -0.508 OA
ATOM     29  H   UNL     1    -112.890  41.988  51.852  1.00  0.00     0.293 HD
ENDBRANCH   8  28
TORSDOF 7
ENDMDL
MODEL 9
REMARK VINA RESULT:    -4.775      1.414      7.093
REMARK INTER + INTRA:          -6.223
REMARK INTER:                  -5.885
REMARK INTRA:                  -0.338
REMARK UNBOUND:                -0.332
REMARK SMILES O=c1c(O)c(-c2cc(O)c(O)c(O)c2)oc2cc(O)cc(O)c12
REMARK SMILES IDX 5 1 3 2 2 3 1 4 23 5 21 6 20 7 18 8 17 9 16 10 15 11 6 12
REMARK SMILES IDX 7 13 8 14 14 15 10 16 12 17 9 18 11 20 13 22 4 24 22 26
REMARK SMILES IDX 19 28
REMARK H PARENT 9 19 11 21 13 23 4 25 22 27 19 29
REMARK Flexibility Score: inf
ROOT
ATOM      1  C   UNL     1    -105.726  44.723  54.627  1.00  0.00     0.180 A 
ATOM      2  C   UNL     1    -105.479  44.637  53.247  1.00  0.00     0.208 A 
ATOM      3  C   UNL     1    -105.829  45.719  52.422  1.00  0.00     0.238 A 
ATOM      4  O   UNL     1    -105.674  45.605  51.180  1.00  0.00    -0.285 OA
ATOM      5  C   UNL     1    -106.369  46.896  52.997  1.00  0.00     0.111 A 
ATOM      6  C   UNL     1    -106.719  48.071  52.264  1.00  0.00     0.134 A 
ATOM      7  C   UNL     1    -107.345  49.136  52.924  1.00  0.00     0.093 A 
ATOM      8  C   UNL     1    -107.576  49.094  54.301  1.00  0.00     0.123 A 
ATOM      9  C   UNL     1    -107.189  47.976  55.034  1.00  0.00     0.094 A 
ATOM     10  C   UNL     1    -106.596  46.882  54.398  1.00  0.00     0.146 A 
ATOM     11  O   UNL     1    -106.263  45.827  55.132  1.00  0.00    -0.452 OA
ENDROOT
BRANCH   1  12
ATOM     12  C   UNL     1    -105.397  43.619  55.557  1.00  0.00     0.029 A 
ATOM     13  C   UNL     1    -104.189  43.602  56.274  1.00  0.00     0.062 A 
ATOM     14  C   UNL     1    -103.884  42.537  57.133  1.00  0.00     0.162 A 
ATOM     15  C   UNL     1    -106.281  42.537  55.684  1.00  0.00     0.062 A 
ATOM     16  C   UNL     1    -104.787  41.468  57.271  1.00  0.00     0.200 A 
ATOM     17  C   UNL     1    -105.986  41.470  56.539  1.00  0.00     0.162 A 
BRANCH  14  18
ATOM     18  O   UNL     1    -102.686  42.534  57.845  1.00  0.00    -0.504 OA
ATOM     19  H   UNL     1    -101.988  43.256  57.712  1.00  0.00     0.293 HD
ENDBRANCH  14  18
BRANCH  16  20
ATOM     20  O   UNL     1    -104.502  40.401  58.125  1.00  0.00    -0.502 OA
ATOM     21  H   UNL     1    -104.172  39.508  57.780  1.00  0.00     0.293 HD
ENDBRANCH  16  20
BRANCH  17  22
ATOM     22  O   UNL     1    -106.898  40.421  56.648  1.00  0.00    -0.504 OA
ATOM     23  H   UNL     1    -106.716  39.605  57.220  1.00  0.00     0.293 HD
ENDBRANCH  17  22
ENDBRANCH   1  12
BRANCH   2  24
ATOM     24  O   UNL     1    -104.874  43.497  52.710  1.00  0.00    -0.502 OA
ATOM     25  H   UNL     1    -104.866  42.606  53.192  1.00  0.00     0.293 HD
ENDBRANCH   2  24
BRANCH   6  26
ATOM     26  O   UNL     1    -106.453  48.253  50.904  1.00  0.00    -0.507 OA
ATOM     27  H   UNL     1    -107.024  47.900  50.150  1.00  0.00     0.293 HD
ENDBRANCH   6  26
BRANCH   8  28
ATOM     28  O   UNL     1    -108.184  50.165  54.952  1.00  0.00    -0.508 OA
ATOM     29  H   UNL     1    -107.637  50.881  55.418  1.00  0.00     0.293 HD
ENDBRANCH   8  28
TORSDOF 7
ENDMDL
