MODEL 1
REMARK VINA RESULT:    -6.763      0.000      0.000
REMARK INTER + INTRA:         -11.971
REMARK INTER:                 -10.518
REMARK INTRA:                  -1.453
REMARK UNBOUND:                -1.453
REMARK SMILES COc1cc(CNC(=O)CCCCC=CC(C)C)ccc1O
REMARK SMILES IDX 11 1 12 2 13 3 14 4 15 5 16 6 17 7 18 8 10 9 8 10 9 11 7 12
REMARK SMILES IDX 6 14 5 15 4 16 19 17 3 18 20 19 21 20 2 21 1 22 22 23
REMARK H PARENT 7 13 22 24
REMARK Flexibility Score: inf
ROOT
ATOM      1  C   UNL     1     -12.982 -28.501  -8.491  1.00  0.00     0.010 C 
ENDROOT
BRANCH   1   2
ATOM      2  C   UNL     1     -12.391 -27.398  -9.383  1.00  0.00     0.005 C 
BRANCH   2   3
ATOM      3  C   UNL     1     -12.296 -27.826 -10.856  1.00  0.00     0.027 C 
BRANCH   3   4
ATOM      4  C   UNL     1     -13.540 -27.454 -11.614  1.00  0.00    -0.031 C 
ATOM      5  C   UNL     1     -13.640 -27.642 -12.942  1.00  0.00    -0.028 C 
BRANCH   5   6
ATOM      6  C   UNL     1     -14.884 -27.288 -13.726  1.00  0.00     0.005 C 
ATOM      7  C   UNL     1     -16.090 -28.113 -13.260  1.00  0.00     0.012 C 
ATOM      8  C   UNL     1     -15.180 -25.784 -13.656  1.00  0.00     0.012 C 
ENDBRANCH   5   6
ENDBRANCH   3   4
ENDBRANCH   2   3
ENDBRANCH   1   2
BRANCH   1   9
ATOM      9  C   UNL     1     -11.909 -29.239  -7.677  1.00  0.00     0.100 C 
BRANCH   9  10
ATOM     10  C   UNL     1     -11.639 -30.580  -8.288  1.00  0.00     0.220 C 
ATOM     11  O   UNL     1     -10.682 -31.278  -7.858  1.00  0.00    -0.275 OA
ATOM     12  N   UNL     1     -12.417 -31.028  -9.407  1.00  0.00    -0.352 N 
ATOM     13  H   UNL     1     -13.290 -30.510  -9.658  1.00  0.00     0.163 HD
BRANCH  12  14
ATOM     14  C   UNL     1     -11.932 -32.053 -10.326  1.00  0.00     0.151 C 
BRANCH  14  15
ATOM     15  C   UNL     1     -12.768 -32.046 -11.577  1.00  0.00    -0.025 A 
ATOM     16  C   UNL     1     -12.312 -32.712 -12.726  1.00  0.00     0.056 A 
ATOM     17  C   UNL     1     -14.035 -31.444 -11.585  1.00  0.00     0.009 A 
ATOM     18  C   UNL     1     -13.112 -32.773 -13.884  1.00  0.00     0.160 A 
ATOM     19  C   UNL     1     -14.830 -31.499 -12.731  1.00  0.00     0.050 A 
ATOM     20  C   UNL     1     -14.379 -32.161 -13.877  1.00  0.00     0.157 A 
BRANCH  18  21
ATOM     21  O   UNL     1     -12.684 -33.433 -15.047  1.00  0.00    -0.493 OA
ATOM     22  C   UNL     1     -12.744 -34.841 -15.245  1.00  0.00     0.278 C 
ENDBRANCH  18  21
BRANCH  20  23
ATOM     23  O   UNL     1     -15.207 -32.204 -15.001  1.00  0.00    -0.504 OA
ATOM     24  H   UNL     1     -15.032 -31.642 -15.825  1.00  0.00     0.293 HD
ENDBRANCH  20  23
ENDBRANCH  14  15
ENDBRANCH  12  14
ENDBRANCH   9  10
ENDBRANCH   1   9
TORSDOF 10
ENDMDL
MODEL 2
REMARK VINA RESULT:    -6.634      2.308      5.426
REMARK INTER + INTRA:         -11.770
REMARK INTER:                 -10.769
REMARK INTRA:                  -1.001
REMARK UNBOUND:                -1.453
REMARK SMILES COc1cc(CNC(=O)CCCCC=CC(C)C)ccc1O
REMARK SMILES IDX 11 1 12 2 13 3 14 4 15 5 16 6 17 7 18 8 10 9 8 10 9 11 7 12
REMARK SMILES IDX 6 14 5 15 4 16 19 17 3 18 20 19 21 20 2 21 1 22 22 23
REMARK H PARENT 7 13 22 24
REMARK Flexibility Score: inf
ROOT
ATOM      1  C   UNL     1     -11.938 -29.985  -8.331  1.00  0.00     0.010 C 
ENDROOT
BRANCH   1   2
ATOM      2  C   UNL     1     -10.878 -30.178  -7.236  1.00  0.00     0.005 C 
BRANCH   2   3
ATOM      3  C   UNL     1     -10.284 -31.595  -7.240  1.00  0.00     0.027 C 
BRANCH   3   4
ATOM      4  C   UNL     1     -10.578 -32.307  -8.531  1.00  0.00    -0.031 C 
ATOM      5  C   UNL     1      -9.772 -33.276  -9.002  1.00  0.00    -0.028 C 
BRANCH   5   6
ATOM      6  C   UNL     1     -10.052 -34.016 -10.291  1.00  0.00     0.005 C 
ATOM      7  C   UNL     1      -9.484 -35.441 -10.250  1.00  0.00     0.012 C 
ATOM      8  C   UNL     1     -11.551 -34.025 -10.617  1.00  0.00     0.012 C 
ENDBRANCH   5   6
ENDBRANCH   3   4
ENDBRANCH   2   3
ENDBRANCH   1   2
BRANCH   1   9
ATOM      9  C   UNL     1     -12.947 -28.880  -7.988  1.00  0.00     0.100 C 
BRANCH   9  10
ATOM     10  C   UNL     1     -12.928 -27.824  -9.050  1.00  0.00     0.220 C 
ATOM     11  O   UNL     1     -13.584 -26.761  -8.883  1.00  0.00    -0.275 OA
ATOM     12  N   UNL     1     -12.234 -28.061 -10.283  1.00  0.00    -0.352 N 
ATOM     13  H   UNL     1     -11.583 -28.876 -10.351  1.00  0.00     0.163 HD
BRANCH  12  14
ATOM     14  C   UNL     1     -12.552 -27.326 -11.504  1.00  0.00     0.151 C 
BRANCH  14  15
ATOM     15  C   UNL     1     -13.791 -27.905 -12.133  1.00  0.00    -0.025 A 
ATOM     16  C   UNL     1     -13.950 -29.297 -12.209  1.00  0.00     0.056 A 
ATOM     17  C   UNL     1     -14.823 -27.067 -12.577  1.00  0.00     0.009 A 
ATOM     18  C   UNL     1     -15.132 -29.857 -12.734  1.00  0.00     0.160 A 
ATOM     19  C   UNL     1     -15.996 -27.615 -13.100  1.00  0.00     0.050 A 
ATOM     20  C   UNL     1     -16.158 -29.002 -13.178  1.00  0.00     0.157 A 
BRANCH  18  21
ATOM     21  O   UNL     1     -15.321 -31.244 -12.821  1.00  0.00    -0.493 OA
ATOM     22  C   UNL     1     -14.916 -32.047 -13.924  1.00  0.00     0.278 C 
ENDBRANCH  18  21
BRANCH  20  23
ATOM     23  O   UNL     1     -17.349 -29.514 -13.697  1.00  0.00    -0.504 OA
ATOM     24  H   UNL     1     -17.683 -30.443 -13.470  1.00  0.00     0.293 HD
ENDBRANCH  20  23
ENDBRANCH  14  15
ENDBRANCH  12  14
ENDBRANCH   9  10
ENDBRANCH   1   9
TORSDOF 10
ENDMDL
MODEL 3
REMARK VINA RESULT:    -6.550      2.581      4.044
REMARK INTER + INTRA:         -11.640
REMARK INTER:                 -10.597
REMARK INTRA:                  -1.043
REMARK UNBOUND:                -1.453
REMARK SMILES COc1cc(CNC(=O)CCCCC=CC(C)C)ccc1O
REMARK SMILES IDX 11 1 12 2 13 3 14 4 15 5 16 6 17 7 18 8 10 9 8 10 9 11 7 12
REMARK SMILES IDX 6 14 5 15 4 16 19 17 3 18 20 19 21 20 2 21 1 22 22 23
REMARK H PARENT 7 13 22 24
REMARK Flexibility Score: inf
ROOT
ATOM      1  C   UNL     1     -14.035 -30.850 -12.108  1.00  0.00     0.010 C 
ENDROOT
BRANCH   1   2
ATOM      2  C   UNL     1     -15.371 -31.513 -12.479  1.00  0.00     0.005 C 
BRANCH   2   3
ATOM      3  C   UNL     1     -16.382 -30.509 -13.054  1.00  0.00     0.027 C 
BRANCH   3   4
ATOM      4  C   UNL     1     -15.920 -29.092 -12.855  1.00  0.00    -0.031 C 
ATOM      5  C   UNL     1     -15.509 -28.332 -13.885  1.00  0.00    -0.028 C 
BRANCH   5   6
ATOM      6  C   UNL     1     -15.052 -26.901 -13.713  1.00  0.00     0.005 C 
ATOM      7  C   UNL     1     -14.678 -26.607 -12.254  1.00  0.00     0.012 C 
ATOM      8  C   UNL     1     -13.893 -26.566 -14.661  1.00  0.00     0.012 C 
ENDBRANCH   5   6
ENDBRANCH   3   4
ENDBRANCH   2   3
ENDBRANCH   1   2
BRANCH   1   9
ATOM      9  C   UNL     1     -13.278 -31.620 -11.017  1.00  0.00     0.100 C 
BRANCH   9  10
ATOM     10  C   UNL     1     -12.299 -32.564 -11.645  1.00  0.00     0.220 C 
ATOM     11  O   UNL     1     -11.279 -32.107 -12.227  1.00  0.00    -0.275 OA
ATOM     12  N   UNL     1     -12.565 -33.973 -11.651  1.00  0.00    -0.352 N 
ATOM     13  H   UNL     1     -13.332 -34.348 -11.046  1.00  0.00     0.163 HD
BRANCH  12  14
ATOM     14  C   UNL     1     -11.941 -34.875 -12.614  1.00  0.00     0.151 C 
BRANCH  14  15
ATOM     15  C   UNL     1     -12.900 -35.150 -13.742  1.00  0.00    -0.025 A 
ATOM     16  C   UNL     1     -14.279 -34.977 -13.545  1.00  0.00     0.056 A 
ATOM     17  C   UNL     1     -12.424 -35.506 -15.012  1.00  0.00     0.009 A 
ATOM     18  C   UNL     1     -15.185 -35.164 -14.608  1.00  0.00     0.160 A 
ATOM     19  C   UNL     1     -13.317 -35.696 -16.068  1.00  0.00     0.050 A 
ATOM     20  C   UNL     1     -14.691 -35.525 -15.875  1.00  0.00     0.157 A 
BRANCH  18  21
ATOM     21  O   UNL     1     -16.568 -34.996 -14.442  1.00  0.00    -0.493 OA
ATOM     22  C   UNL     1     -17.382 -35.795 -13.591  1.00  0.00     0.278 C 
ENDBRANCH  18  21
BRANCH  20  23
ATOM     23  O   UNL     1     -15.553 -35.713 -16.957  1.00  0.00    -0.504 OA
ATOM     24  H   UNL     1     -15.966 -36.613 -17.170  1.00  0.00     0.293 HD
ENDBRANCH  20  23
ENDBRANCH  14  15
ENDBRANCH  12  14
ENDBRANCH   9  10
ENDBRANCH   1   9
TORSDOF 10
ENDMDL
MODEL 4
REMARK VINA RESULT:    -6.478      2.664      7.202
REMARK INTER + INTRA:         -11.529
REMARK INTER:                 -10.581
REMARK INTRA:                  -0.948
REMARK UNBOUND:                -1.453
REMARK SMILES COc1cc(CNC(=O)CCCCC=CC(C)C)ccc1O
REMARK SMILES IDX 11 1 12 2 13 3 14 4 15 5 16 6 17 7 18 8 10 9 8 10 9 11 7 12
REMARK SMILES IDX 6 14 5 15 4 16 19 17 3 18 20 19 21 20 2 21 1 22 22 23
REMARK H PARENT 7 13 22 24
REMARK Flexibility Score: inf
ROOT
ATOM      1  C   UNL     1     -11.340 -33.592 -14.327  1.00  0.00     0.010 C 
ENDROOT
BRANCH   1   2
ATOM      2  C   UNL     1     -10.487 -34.840 -14.053  1.00  0.00     0.005 C 
BRANCH   2   3
ATOM      3  C   UNL     1     -11.342 -36.069 -13.709  1.00  0.00     0.027 C 
BRANCH   3   4
ATOM      4  C   UNL     1     -12.233 -36.454 -14.857  1.00  0.00    -0.031 C 
ATOM      5  C   UNL     1     -13.572 -36.353 -14.778  1.00  0.00    -0.028 C 
BRANCH   5   6
ATOM      6  C   UNL     1     -14.488 -36.722 -15.922  1.00  0.00     0.005 C 
ATOM      7  C   UNL     1     -15.951 -36.400 -15.591  1.00  0.00     0.012 C 
ATOM      8  C   UNL     1     -14.053 -36.046 -17.229  1.00  0.00     0.012 C 
ENDBRANCH   5   6
ENDBRANCH   3   4
ENDBRANCH   2   3
ENDBRANCH   1   2
BRANCH   1   9
ATOM      9  C   UNL     1     -12.135 -33.138 -13.094  1.00  0.00     0.100 C 
BRANCH   9  10
ATOM     10  C   UNL     1     -13.555 -32.857 -13.478  1.00  0.00     0.220 C 
ATOM     11  O   UNL     1     -13.952 -33.133 -14.642  1.00  0.00    -0.275 OA
ATOM     12  N   UNL     1     -14.432 -32.203 -12.550  1.00  0.00    -0.352 N 
ATOM     13  H   UNL     1     -14.137 -32.110 -11.551  1.00  0.00     0.163 HD
BRANCH  12  14
ATOM     14  C   UNL     1     -15.627 -31.488 -12.987  1.00  0.00     0.151 C 
BRANCH  14  15
ATOM     15  C   UNL     1     -15.423 -30.007 -12.810  1.00  0.00    -0.025 A 
ATOM     16  C   UNL     1     -14.265 -29.533 -12.175  1.00  0.00     0.056 A 
ATOM     17  C   UNL     1     -16.343 -29.091 -13.340  1.00  0.00     0.009 A 
ATOM     18  C   UNL     1     -14.024 -28.149 -12.061  1.00  0.00     0.160 A 
ATOM     19  C   UNL     1     -16.112 -27.719 -13.227  1.00  0.00     0.050 A 
ATOM     20  C   UNL     1     -14.960 -27.243 -12.595  1.00  0.00     0.157 A 
BRANCH  18  21
ATOM     21  O   UNL     1     -12.875 -27.645 -11.434  1.00  0.00    -0.493 OA
ATOM     22  C   UNL     1     -12.739 -27.452 -10.030  1.00  0.00     0.278 C 
ENDBRANCH  18  21
BRANCH  20  23
ATOM     23  O   UNL     1     -14.757 -25.864 -12.511  1.00  0.00    -0.504 OA
ATOM     24  H   UNL     1     -13.866 -25.463 -12.246  1.00  0.00     0.293 HD
ENDBRANCH  20  23
ENDBRANCH  14  15
ENDBRANCH  12  14
ENDBRANCH   9  10
ENDBRANCH   1   9
TORSDOF 10
ENDMDL
MODEL 5
REMARK VINA RESULT:    -6.464      2.416      5.283
REMARK INTER + INTRA:         -11.507
REMARK INTER:                 -10.474
REMARK INTRA:                  -1.033
REMARK UNBOUND:                -1.453
REMARK SMILES COc1cc(CNC(=O)CCCCC=CC(C)C)ccc1O
REMARK SMILES IDX 11 1 12 2 13 3 14 4 15 5 16 6 17 7 18 8 10 9 8 10 9 11 7 12
REMARK SMILES IDX 6 14 5 15 4 16 19 17 3 18 20 19 21 20 2 21 1 22 22 23
REMARK H PARENT 7 13 22 24
REMARK Flexibility Score: inf
ROOT
ATOM      1  C   UNL     1     -12.870 -27.823  -8.816  1.00  0.00     0.010 C 
ENDROOT
BRANCH   1   2
ATOM      2  C   UNL     1     -12.397 -29.138  -8.177  1.00  0.00     0.005 C 
BRANCH   2   3
ATOM      3  C   UNL     1     -12.488 -30.326  -9.146  1.00  0.00     0.027 C 
BRANCH   3   4
ATOM      4  C   UNL     1     -11.439 -31.360  -8.844  1.00  0.00    -0.031 C 
ATOM      5  C   UNL     1     -10.394 -31.092  -8.041  1.00  0.00    -0.028 C 
BRANCH   5   6
ATOM      6  C   UNL     1      -9.333 -32.117  -7.711  1.00  0.00     0.005 C 
ATOM      7  C   UNL     1      -9.484 -32.634  -6.274  1.00  0.00     0.012 C 
ATOM      8  C   UNL     1      -9.338 -33.273  -8.720  1.00  0.00     0.012 C 
ENDBRANCH   5   6
ENDBRANCH   3   4
ENDBRANCH   2   3
ENDBRANCH   1   2
BRANCH   1   9
ATOM      9  C   UNL     1     -12.242 -27.579 -10.195  1.00  0.00     0.100 C 
BRANCH   9  10
ATOM     10  C   UNL     1     -13.294 -27.130 -11.162  1.00  0.00     0.220 C 
ATOM     11  O   UNL     1     -14.408 -26.732 -10.729  1.00  0.00    -0.275 OA
ATOM     12  N   UNL     1     -13.059 -27.231 -12.574  1.00  0.00    -0.352 N 
ATOM     13  H   UNL     1     -12.090 -27.425 -12.915  1.00  0.00     0.163 HD
BRANCH  12  14
ATOM     14  C   UNL     1     -14.153 -27.272 -13.539  1.00  0.00     0.151 C 
BRANCH  14  15
ATOM     15  C   UNL     1     -14.711 -28.668 -13.612  1.00  0.00    -0.025 A 
ATOM     16  C   UNL     1     -13.887 -29.729 -14.017  1.00  0.00     0.056 A 
ATOM     17  C   UNL     1     -16.027 -28.932 -13.205  1.00  0.00     0.009 A 
ATOM     18  C   UNL     1     -14.373 -31.052 -14.025  1.00  0.00     0.160 A 
ATOM     19  C   UNL     1     -16.515 -30.240 -13.215  1.00  0.00     0.050 A 
ATOM     20  C   UNL     1     -15.697 -31.300 -13.619  1.00  0.00     0.157 A 
BRANCH  18  21
ATOM     21  O   UNL     1     -13.573 -32.134 -14.424  1.00  0.00    -0.493 OA
ATOM     22  C   UNL     1     -12.477 -32.647 -13.674  1.00  0.00     0.278 C 
ENDBRANCH  18  21
BRANCH  20  23
ATOM     23  O   UNL     1     -16.216 -32.596 -13.604  1.00  0.00    -0.504 OA
ATOM     24  H   UNL     1     -15.661 -33.404 -13.859  1.00  0.00     0.293 HD
ENDBRANCH  20  23
ENDBRANCH  14  15
ENDBRANCH  12  14
ENDBRANCH   9  10
ENDBRANCH   1   9
TORSDOF 10
ENDMDL
MODEL 6
REMARK VINA RESULT:    -6.450      2.840      6.755
REMARK INTER + INTRA:         -11.485
REMARK INTER:                 -10.648
REMARK INTRA:                  -0.837
REMARK UNBOUND:                -1.453
REMARK SMILES COc1cc(CNC(=O)CCCCC=CC(C)C)ccc1O
REMARK SMILES IDX 11 1 12 2 13 3 14 4 15 5 16 6 17 7 18 8 10 9 8 10 9 11 7 12
REMARK SMILES IDX 6 14 5 15 4 16 19 17 3 18 20 19 21 20 2 21 1 22 22 23
REMARK H PARENT 7 13 22 24
REMARK Flexibility Score: inf
ROOT
ATOM      1  C   UNL     1     -11.707 -33.409 -10.909  1.00  0.00     0.010 C 
ENDROOT
BRANCH   1   2
ATOM      2  C   UNL     1     -10.775 -34.604 -10.657  1.00  0.00     0.005 C 
BRANCH   2   3
ATOM      3  C   UNL     1      -9.361 -34.167 -10.247  1.00  0.00     0.027 C 
BRANCH   3   4
ATOM      4  C   UNL     1      -9.344 -33.612  -8.849  1.00  0.00    -0.031 C 
ATOM      5  C   UNL     1      -8.989 -32.339  -8.599  1.00  0.00    -0.028 C 
BRANCH   5   6
ATOM      6  C   UNL     1      -8.975 -31.753  -7.206  1.00  0.00     0.005 C 
ATOM      7  C   UNL     1      -9.964 -30.586  -7.082  1.00  0.00     0.012 C 
ATOM      8  C   UNL     1      -9.249 -32.827  -6.144  1.00  0.00     0.012 C 
ENDBRANCH   5   6
ENDBRANCH   3   4
ENDBRANCH   2   3
ENDBRANCH   1   2
BRANCH   1   9
ATOM      9  C   UNL     1     -11.751 -32.996 -12.387  1.00  0.00     0.100 C 
BRANCH   9  10
ATOM     10  C   UNL     1     -13.173 -32.827 -12.827  1.00  0.00     0.220 C 
ATOM     11  O   UNL     1     -13.565 -33.378 -13.890  1.00  0.00    -0.275 OA
ATOM     12  N   UNL     1     -14.057 -31.976 -12.083  1.00  0.00    -0.352 N 
ATOM     13  H   UNL     1     -13.765 -31.645 -11.136  1.00  0.00     0.163 HD
BRANCH  12  14
ATOM     14  C   UNL     1     -15.257 -31.398 -12.679  1.00  0.00     0.151 C 
BRANCH  14  15
ATOM     15  C   UNL     1     -15.165 -29.895 -12.642  1.00  0.00    -0.025 A 
ATOM     16  C   UNL     1     -14.047 -29.278 -12.061  1.00  0.00     0.056 A 
ATOM     17  C   UNL     1     -16.151 -29.105 -13.251  1.00  0.00     0.009 A 
ATOM     18  C   UNL     1     -13.912 -27.876 -12.078  1.00  0.00     0.160 A 
ATOM     19  C   UNL     1     -16.024 -27.716 -13.268  1.00  0.00     0.050 A 
ATOM     20  C   UNL     1     -14.912 -27.097 -12.689  1.00  0.00     0.157 A 
BRANCH  18  21
ATOM     21  O   UNL     1     -12.805 -27.230 -11.506  1.00  0.00    -0.493 OA
ATOM     22  C   UNL     1     -11.847 -27.862 -10.664  1.00  0.00     0.278 C 
ENDBRANCH  18  21
BRANCH  20  23
ATOM     23  O   UNL     1     -14.814 -25.705 -12.735  1.00  0.00    -0.504 OA
ATOM     24  H   UNL     1     -14.316 -25.222 -13.474  1.00  0.00     0.293 HD
ENDBRANCH  20  23
ENDBRANCH  14  15
ENDBRANCH  12  14
ENDBRANCH   9  10
ENDBRANCH   1   9
TORSDOF 10
ENDMDL
MODEL 7
REMARK VINA RESULT:    -6.410      1.085      2.044
REMARK INTER + INTRA:         -11.422
REMARK INTER:                 -10.101
REMARK INTRA:                  -1.321
REMARK UNBOUND:                -1.453
REMARK SMILES COc1cc(CNC(=O)CCCCC=CC(C)C)ccc1O
REMARK SMILES IDX 11 1 12 2 13 3 14 4 15 5 16 6 17 7 18 8 10 9 8 10 9 11 7 12
REMARK SMILES IDX 6 14 5 15 4 16 19 17 3 18 20 19 21 20 2 21 1 22 22 23
REMARK H PARENT 7 13 22 24
REMARK Flexibility Score: inf
ROOT
ATOM      1  C   UNL     1     -12.867 -28.774  -8.444  1.00  0.00     0.010 C 
ENDROOT
BRANCH   1   2
ATOM      2  C   UNL     1     -12.641 -27.486  -9.251  1.00  0.00     0.005 C 
BRANCH   2   3
ATOM      3  C   UNL     1     -12.013 -27.759 -10.626  1.00  0.00     0.027 C 
BRANCH   3   4
ATOM      4  C   UNL     1     -12.939 -27.358 -11.740  1.00  0.00    -0.031 C 
ATOM      5  C   UNL     1     -13.265 -28.209 -12.729  1.00  0.00    -0.028 C 
BRANCH   5   6
ATOM      6  C   UNL     1     -14.203 -27.835 -13.854  1.00  0.00     0.005 C 
ATOM      7  C   UNL     1     -15.443 -27.102 -13.325  1.00  0.00     0.012 C 
ATOM      8  C   UNL     1     -13.487 -27.008 -14.929  1.00  0.00     0.012 C 
ENDBRANCH   5   6
ENDBRANCH   3   4
ENDBRANCH   2   3
ENDBRANCH   1   2
BRANCH   1   9
ATOM      9  C   UNL     1     -11.551 -29.455  -8.041  1.00  0.00     0.100 C 
BRANCH   9  10
ATOM     10  C   UNL     1     -11.577 -30.896  -8.452  1.00  0.00     0.220 C 
ATOM     11  O   UNL     1     -11.092 -31.770  -7.685  1.00  0.00    -0.275 OA
ATOM     12  N   UNL     1     -12.077 -31.264  -9.745  1.00  0.00    -0.352 N 
ATOM     13  H   UNL     1     -12.602 -30.556 -10.307  1.00  0.00     0.163 HD
BRANCH  12  14
ATOM     14  C   UNL     1     -11.710 -32.522 -10.387  1.00  0.00     0.151 C 
BRANCH  14  15
ATOM     15  C   UNL     1     -12.675 -32.820 -11.504  1.00  0.00    -0.025 A 
ATOM     16  C   UNL     1     -13.560 -31.824 -11.946  1.00  0.00     0.056 A 
ATOM     17  C   UNL     1     -12.647 -34.059 -12.159  1.00  0.00     0.009 A 
ATOM     18  C   UNL     1     -14.423 -32.063 -13.034  1.00  0.00     0.160 A 
ATOM     19  C   UNL     1     -13.501 -34.302 -13.236  1.00  0.00     0.050 A 
ATOM     20  C   UNL     1     -14.385 -33.313 -13.678  1.00  0.00     0.157 A 
BRANCH  18  21
ATOM     21  O   UNL     1     -15.317 -31.087 -13.499  1.00  0.00    -0.493 OA
ATOM     22  C   UNL     1     -16.489 -30.669 -12.807  1.00  0.00     0.278 C 
ENDBRANCH  18  21
BRANCH  20  23
ATOM     23  O   UNL     1     -15.217 -33.589 -14.765  1.00  0.00    -0.504 OA
ATOM     24  H   UNL     1     -15.377 -32.919 -15.508  1.00  0.00     0.293 HD
ENDBRANCH  20  23
ENDBRANCH  14  15
ENDBRANCH  12  14
ENDBRANCH   9  10
ENDBRANCH   1   9
TORSDOF 10
ENDMDL
MODEL 8
REMARK VINA RESULT:    -6.386      2.210      5.567
REMARK INTER + INTRA:         -11.385
REMARK INTER:                 -10.067
REMARK INTRA:                  -1.318
REMARK UNBOUND:                -1.453
REMARK SMILES COc1cc(CNC(=O)CCCCC=CC(C)C)ccc1O
REMARK SMILES IDX 11 1 12 2 13 3 14 4 15 5 16 6 17 7 18 8 10 9 8 10 9 11 7 12
REMARK SMILES IDX 6 14 5 15 4 16 19 17 3 18 20 19 21 20 2 21 1 22 22 23
REMARK H PARENT 7 13 22 24
REMARK Flexibility Score: inf
ROOT
ATOM      1  C   UNL     1     -16.029 -32.223 -13.578  1.00  0.00     0.010 C 
ENDROOT
BRANCH   1   2
ATOM      2  C   UNL     1     -16.059 -30.982 -12.673  1.00  0.00     0.005 C 
BRANCH   2   3
ATOM      3  C   UNL     1     -16.937 -29.859 -13.247  1.00  0.00     0.027 C 
BRANCH   3   4
ATOM      4  C   UNL     1     -16.202 -28.548 -13.270  1.00  0.00    -0.031 C 
ATOM      5  C   UNL     1     -14.907 -28.470 -13.625  1.00  0.00    -0.028 C 
BRANCH   5   6
ATOM      6  C   UNL     1     -14.149 -27.163 -13.669  1.00  0.00     0.005 C 
ATOM      7  C   UNL     1     -13.241 -27.086 -14.903  1.00  0.00     0.012 C 
ATOM      8  C   UNL     1     -15.101 -25.962 -13.604  1.00  0.00     0.012 C 
ENDBRANCH   5   6
ENDBRANCH   3   4
ENDBRANCH   2   3
ENDBRANCH   1   2
BRANCH   1   9
ATOM      9  C   UNL     1     -14.825 -32.229 -14.531  1.00  0.00     0.100 C 
BRANCH   9  10
ATOM     10  C   UNL     1     -13.615 -32.751 -13.819  1.00  0.00     0.220 C 
ATOM     11  O   UNL     1     -13.490 -33.990 -13.630  1.00  0.00    -0.275 OA
ATOM     12  N   UNL     1     -12.646 -31.836 -13.288  1.00  0.00    -0.352 N 
ATOM     13  H   UNL     1     -12.686 -30.831 -13.573  1.00  0.00     0.163 HD
BRANCH  12  14
ATOM     14  C   UNL     1     -11.733 -32.214 -12.213  1.00  0.00     0.151 C 
BRANCH  14  15
ATOM     15  C   UNL     1     -11.180 -30.975 -11.560  1.00  0.00    -0.025 A 
ATOM     16  C   UNL     1     -11.992 -29.839 -11.419  1.00  0.00     0.056 A 
ATOM     17  C   UNL     1      -9.886 -30.969 -11.022  1.00  0.00     0.009 A 
ATOM     18  C   UNL     1     -11.515 -28.695 -10.751  1.00  0.00     0.160 A 
ATOM     19  C   UNL     1      -9.406 -29.837 -10.362  1.00  0.00     0.050 A 
ATOM     20  C   UNL     1     -10.211 -28.703 -10.220  1.00  0.00     0.157 A 
BRANCH  18  21
ATOM     21  O   UNL     1     -12.303 -27.545 -10.593  1.00  0.00    -0.493 OA
ATOM     22  C   UNL     1     -13.207 -27.327  -9.515  1.00  0.00     0.278 C 
ENDBRANCH  18  21
BRANCH  20  23
ATOM     23  O   UNL     1      -9.701 -27.594  -9.543  1.00  0.00    -0.504 OA
ATOM     24  H   UNL     1      -8.953 -27.670  -8.865  1.00  0.00     0.293 HD
ENDBRANCH  20  23
ENDBRANCH  14  15
ENDBRANCH  12  14
ENDBRANCH   9  10
ENDBRANCH   1   9
TORSDOF 10
ENDMDL
MODEL 9
REMARK VINA RESULT:    -6.307      1.853      5.245
REMARK INTER + INTRA:         -11.262
REMARK INTER:                  -9.801
REMARK INTRA:                  -1.461
REMARK UNBOUND:                -1.453
REMARK SMILES COc1cc(CNC(=O)CCCCC=CC(C)C)ccc1O
REMARK SMILES IDX 11 1 12 2 13 3 14 4 15 5 16 6 17 7 18 8 10 9 8 10 9 11 7 12
REMARK SMILES IDX 6 14 5 15 4 16 19 17 3 18 20 19 21 20 2 21 1 22 22 23
REMARK H PARENT 7 13 22 24
REMARK Flexibility Score: inf
ROOT
ATOM      1  C   UNL     1     -15.856 -32.441 -13.325  1.00  0.00     0.010 C 
ENDROOT
BRANCH   1   2
ATOM      2  C   UNL     1     -15.717 -31.076 -12.634  1.00  0.00     0.005 C 
BRANCH   2   3
ATOM      3  C   UNL     1     -16.710 -30.039 -13.180  1.00  0.00     0.027 C 
BRANCH   3   4
ATOM      4  C   UNL     1     -16.081 -28.677 -13.274  1.00  0.00    -0.031 C 
ATOM      5  C   UNL     1     -14.792 -28.516 -13.620  1.00  0.00    -0.028 C 
BRANCH   5   6
ATOM      6  C   UNL     1     -14.139 -27.157 -13.734  1.00  0.00     0.005 C 
ATOM      7  C   UNL     1     -13.317 -27.039 -15.024  1.00  0.00     0.012 C 
ATOM      8  C   UNL     1     -15.173 -26.029 -13.629  1.00  0.00     0.012 C 
ENDBRANCH   5   6
ENDBRANCH   3   4
ENDBRANCH   2   3
ENDBRANCH   1   2
BRANCH   1   9
ATOM      9  C   UNL     1     -14.817 -32.649 -14.436  1.00  0.00     0.100 C 
BRANCH   9  10
ATOM     10  C   UNL     1     -13.558 -33.216 -13.856  1.00  0.00     0.220 C 
ATOM     11  O   UNL     1     -13.529 -34.422 -13.492  1.00  0.00    -0.275 OA
ATOM     12  N   UNL     1     -12.420 -32.368 -13.644  1.00  0.00    -0.352 N 
ATOM     13  H   UNL     1     -12.408 -31.417 -14.078  1.00  0.00     0.163 HD
BRANCH  12  14
ATOM     14  C   UNL     1     -11.372 -32.705 -12.686  1.00  0.00     0.151 C 
BRANCH  14  15
ATOM     15  C   UNL     1     -11.559 -31.900 -11.428  1.00  0.00    -0.025 A 
ATOM     16  C   UNL     1     -12.248 -30.678 -11.478  1.00  0.00     0.056 A 
ATOM     17  C   UNL     1     -11.119 -32.394 -10.192  1.00  0.00     0.009 A 
ATOM     18  C   UNL     1     -12.492 -29.943 -10.300  1.00  0.00     0.160 A 
ATOM     19  C   UNL     1     -11.355 -31.670  -9.023  1.00  0.00     0.050 A 
ATOM     20  C   UNL     1     -12.040 -30.451  -9.068  1.00  0.00     0.157 A 
BRANCH  18  21
ATOM     21  O   UNL     1     -13.179 -28.720 -10.318  1.00  0.00    -0.493 OA
ATOM     22  C   UNL     1     -12.567 -27.453 -10.537  1.00  0.00     0.278 C 
ENDBRANCH  18  21
BRANCH  20  23
ATOM     23  O   UNL     1     -12.267 -29.760  -7.876  1.00  0.00    -0.504 OA
ATOM     24  H   UNL     1     -12.013 -30.141  -6.973  1.00  0.00     0.293 HD
ENDBRANCH  20  23
ENDBRANCH  14  15
ENDBRANCH  12  14
ENDBRANCH   9  10
ENDBRANCH   1   9
TORSDOF 10
ENDMDL
