MODEL 1
REMARK VINA RESULT:    14.631      0.000      0.000
REMARK INTER + INTRA:          35.355
REMARK INTER:                  36.869
REMARK INTRA:                  -1.514
REMARK UNBOUND:                -1.514
REMARK SMILES CCCCCCCCCCCCCCCCCCCCCCCCCCCC(=O)[O-]
REMARK SMILES IDX 15 1 16 2 17 3 18 4 19 5 20 6 21 7 22 8 23 9 24 10 25 11
REMARK SMILES IDX 26 12 27 13 28 14 29 15 30 16 14 17 13 18 12 19 11 20 10 21
REMARK SMILES IDX 9 22 8 23 7 24 6 25 5 26 4 27 3 28 2 29 1 30
REMARK H PARENT
REMARK Flexibility Score: inf
ROOT
ATOM      1  C   UNL     1     -34.687   8.400   3.522  1.00  0.00     0.000 C 
ENDROOT
BRANCH   1   2
ATOM      2  C   UNL     1     -34.101   9.252   2.383  1.00  0.00     0.000 C 
BRANCH   2   3
ATOM      3  C   UNL     1     -32.743   8.718   1.873  1.00  0.00     0.000 C 
BRANCH   3   4
ATOM      4  C   UNL     1     -32.756   8.298   0.392  1.00  0.00     0.000 C 
BRANCH   4   5
ATOM      5  C   UNL     1     -31.726   7.217   0.020  1.00  0.00     0.000 C 
BRANCH   5   6
ATOM      6  C   UNL     1     -30.685   6.943   1.130  1.00  0.00     0.000 C 
BRANCH   6   7
ATOM      7  C   UNL     1     -29.295   7.506   0.789  1.00  0.00     0.000 C 
BRANCH   7   8
ATOM      8  C   UNL     1     -28.971   7.411  -0.711  1.00  0.00     0.000 C 
BRANCH   8   9
ATOM      9  C   UNL     1     -27.750   8.259  -1.104  1.00  0.00     0.000 C 
BRANCH   9  10
ATOM     10  C   UNL     1     -27.217   7.914  -2.504  1.00  0.00     0.000 C 
BRANCH  10  11
ATOM     11  C   UNL     1     -28.324   7.887  -3.572  1.00  0.00     0.000 C 
BRANCH  11  12
ATOM     12  C   UNL     1     -28.206   9.035  -4.592  1.00  0.00     0.006 C 
BRANCH  12  13
ATOM     13  C   UNL     1     -27.921   8.567  -6.031  1.00  0.00     0.053 C 
BRANCH  13  14
ATOM     14  C   UNL     1     -26.487   8.749  -6.427  1.00  0.00     0.041 C 
ATOM     15  O   UNL     1     -26.093   9.846  -6.907  1.00  0.00    -0.550 OA
ATOM     16  O   UNL     1     -25.578   7.715  -6.242  1.00  0.00    -0.550 OA
ENDBRANCH  13  14
ENDBRANCH  12  13
ENDBRANCH  11  12
ENDBRANCH  10  11
ENDBRANCH   9  10
ENDBRANCH   8   9
ENDBRANCH   7   8
ENDBRANCH   6   7
ENDBRANCH   5   6
ENDBRANCH   4   5
ENDBRANCH   3   4
ENDBRANCH   2   3
ENDBRANCH   1   2
BRANCH   1  17
ATOM     17  C   UNL     1     -36.213   8.535   3.633  1.00  0.00     0.000 C 
BRANCH  17  18
ATOM     18  C   UNL     1     -36.884   7.257   4.165  1.00  0.00     0.000 C 
BRANCH  18  19
ATOM     19  C   UNL     1     -38.175   7.542   4.953  1.00  0.00     0.000 C 
BRANCH  19  20
ATOM     20  C   UNL     1     -38.924   6.290   5.446  1.00  0.00     0.000 C 
BRANCH  20  21
ATOM     21  C   UNL     1     -39.290   6.363   6.938  1.00  0.00     0.000 C 
BRANCH  21  22
ATOM     22  C   UNL     1     -40.522   7.244   7.205  1.00  0.00    -0.000 C 
BRANCH  22  23
ATOM     23  C   UNL     1     -40.151   8.691   7.569  1.00  0.00    -0.000 C 
BRANCH  23  24
ATOM     24  C   UNL     1     -41.285   9.659   7.196  1.00  0.00    -0.000 C 
BRANCH  24  25
ATOM     25  C   UNL     1     -40.912  10.601   6.037  1.00  0.00    -0.000 C 
BRANCH  25  26
ATOM     26  C   UNL     1     -40.998   9.973   4.630  1.00  0.00    -0.000 C 
BRANCH  26  27
ATOM     27  C   UNL     1     -41.652  10.860   3.556  1.00  0.00    -0.000 C 
BRANCH  27  28
ATOM     28  C   UNL     1     -42.897  10.215   2.925  1.00  0.00    -0.000 C 
BRANCH  28  29
ATOM     29  C   UNL     1     -42.659   9.770   1.473  1.00  0.00    -0.003 C 
ATOM     30  C   UNL     1     -42.977   8.293   1.246  1.00  0.00     0.004 C 
ENDBRANCH  28  29
ENDBRANCH  27  28
ENDBRANCH  26  27
ENDBRANCH  25  26
ENDBRANCH  24  25
ENDBRANCH  23  24
ENDBRANCH  22  23
ENDBRANCH  21  22
ENDBRANCH  20  21
ENDBRANCH  19  20
ENDBRANCH  18  19
ENDBRANCH  17  18
ENDBRANCH   1  17
TORSDOF 26
ENDMDL
MODEL 2
REMARK VINA RESULT:    14.937      4.881     13.590
REMARK INTER + INTRA:          36.128
REMARK INTER:                  37.688
REMARK INTRA:                  -1.560
REMARK UNBOUND:                -1.514
REMARK SMILES CCCCCCCCCCCCCCCCCCCCCCCCCCCC(=O)[O-]
REMARK SMILES IDX 15 1 16 2 17 3 18 4 19 5 20 6 21 7 22 8 23 9 24 10 25 11
REMARK SMILES IDX 26 12 27 13 28 14 29 15 30 16 14 17 13 18 12 19 11 20 10 21
REMARK SMILES IDX 9 22 8 23 7 24 6 25 5 26 4 27 3 28 2 29 1 30
REMARK H PARENT
REMARK Flexibility Score: inf
ROOT
ATOM      1  C   UNL     1     -35.753   8.821   3.943  1.00  0.00     0.000 C 
ENDROOT
BRANCH   1   2
ATOM      2  C   UNL     1     -36.890   7.815   3.699  1.00  0.00     0.000 C 
BRANCH   2   3
ATOM      3  C   UNL     1     -37.298   7.050   4.979  1.00  0.00     0.000 C 
BRANCH   3   4
ATOM      4  C   UNL     1     -38.783   7.211   5.352  1.00  0.00     0.000 C 
BRANCH   4   5
ATOM      5  C   UNL     1     -39.172   6.617   6.717  1.00  0.00     0.000 C 
BRANCH   5   6
ATOM      6  C   UNL     1     -40.415   7.283   7.352  1.00  0.00     0.000 C 
BRANCH   6   7
ATOM      7  C   UNL     1     -40.203   8.779   7.639  1.00  0.00     0.000 C 
BRANCH   7   8
ATOM      8  C   UNL     1     -41.271   9.665   6.976  1.00  0.00     0.000 C 
BRANCH   8   9
ATOM      9  C   UNL     1     -40.673  10.633   5.941  1.00  0.00     0.000 C 
BRANCH   9  10
ATOM     10  C   UNL     1     -40.933  10.184   4.495  1.00  0.00     0.000 C 
BRANCH  10  11
ATOM     11  C   UNL     1     -42.391  10.403   4.055  1.00  0.00     0.000 C 
BRANCH  11  12
ATOM     12  C   UNL     1     -42.847   9.416   2.964  1.00  0.00     0.006 C 
BRANCH  12  13
ATOM     13  C   UNL     1     -42.157   9.627   1.604  1.00  0.00     0.053 C 
BRANCH  13  14
ATOM     14  C   UNL     1     -43.132   9.856   0.488  1.00  0.00     0.041 C 
ATOM     15  O   UNL     1     -44.111  10.634   0.646  1.00  0.00    -0.550 OA
ATOM     16  O   UNL     1     -42.944   9.230  -0.738  1.00  0.00    -0.550 OA
ENDBRANCH  13  14
ENDBRANCH  12  13
ENDBRANCH  11  12
ENDBRANCH  10  11
ENDBRANCH   9  10
ENDBRANCH   8   9
ENDBRANCH   7   8
ENDBRANCH   6   7
ENDBRANCH   5   6
ENDBRANCH   4   5
ENDBRANCH   3   4
ENDBRANCH   2   3
ENDBRANCH   1   2
BRANCH   1  17
ATOM     17  C   UNL     1     -34.417   8.359   3.341  1.00  0.00     0.000 C 
BRANCH  17  18
ATOM     18  C   UNL     1     -33.885   9.324   2.268  1.00  0.00     0.000 C 
BRANCH  18  19
ATOM     19  C   UNL     1     -32.574   8.839   1.624  1.00  0.00     0.000 C 
BRANCH  19  20
ATOM     20  C   UNL     1     -32.735   8.180   0.241  1.00  0.00     0.000 C 
BRANCH  20  21
ATOM     21  C   UNL     1     -31.552   7.269  -0.127  1.00  0.00     0.000 C 
BRANCH  21  22
ATOM     22  C   UNL     1     -30.530   7.133   1.014  1.00  0.00    -0.000 C 
BRANCH  22  23
ATOM     23  C   UNL     1     -29.083   7.353   0.544  1.00  0.00    -0.000 C 
BRANCH  23  24
ATOM     24  C   UNL     1     -28.966   7.179  -0.978  1.00  0.00    -0.000 C 
BRANCH  24  25
ATOM     25  C   UNL     1     -28.140   8.292  -1.647  1.00  0.00    -0.000 C 
BRANCH  25  26
ATOM     26  C   UNL     1     -27.444   7.890  -2.964  1.00  0.00    -0.000 C 
BRANCH  26  27
ATOM     27  C   UNL     1     -27.863   8.705  -4.201  1.00  0.00    -0.000 C 
BRANCH  27  28
ATOM     28  C   UNL     1     -27.531   7.993  -5.524  1.00  0.00    -0.000 C 
BRANCH  28  29
ATOM     29  C   UNL     1     -26.736   8.886  -6.490  1.00  0.00    -0.003 C 
ATOM     30  C   UNL     1     -25.225   8.713  -6.351  1.00  0.00     0.004 C 
ENDBRANCH  28  29
ENDBRANCH  27  28
ENDBRANCH  26  27
ENDBRANCH  25  26
ENDBRANCH  24  25
ENDBRANCH  23  24
ENDBRANCH  22  23
ENDBRANCH  21  22
ENDBRANCH  20  21
ENDBRANCH  19  20
ENDBRANCH  18  19
ENDBRANCH  17  18
ENDBRANCH   1  17
TORSDOF 26
ENDMDL
MODEL 3
REMARK VINA RESULT:    16.466      4.875     13.896
REMARK INTER + INTRA:          39.980
REMARK INTER:                  40.816
REMARK INTRA:                  -0.836
REMARK UNBOUND:                -1.514
REMARK SMILES CCCCCCCCCCCCCCCCCCCCCCCCCCCC(=O)[O-]
REMARK SMILES IDX 15 1 16 2 17 3 18 4 19 5 20 6 21 7 22 8 23 9 24 10 25 11
REMARK SMILES IDX 26 12 27 13 28 14 29 15 30 16 14 17 13 18 12 19 11 20 10 21
REMARK SMILES IDX 9 22 8 23 7 24 6 25 5 26 4 27 3 28 2 29 1 30
REMARK H PARENT
REMARK Flexibility Score: inf
ROOT
ATOM      1  C   UNL     1     -33.632   8.989   2.495  1.00  0.00     0.000 C 
ENDROOT
BRANCH   1   2
ATOM      2  C   UNL     1     -35.101   9.174   2.911  1.00  0.00     0.000 C 
BRANCH   2   3
ATOM      3  C   UNL     1     -35.529   8.210   4.041  1.00  0.00     0.000 C 
BRANCH   3   4
ATOM      4  C   UNL     1     -36.996   7.753   3.946  1.00  0.00     0.000 C 
BRANCH   4   5
ATOM      5  C   UNL     1     -37.405   6.681   4.971  1.00  0.00     0.000 C 
BRANCH   5   6
ATOM      6  C   UNL     1     -38.920   6.660   5.277  1.00  0.00     0.000 C 
BRANCH   6   7
ATOM      7  C   UNL     1     -39.220   6.692   6.786  1.00  0.00     0.000 C 
BRANCH   7   8
ATOM      8  C   UNL     1     -39.899   8.000   7.225  1.00  0.00     0.000 C 
BRANCH   8   9
ATOM      9  C   UNL     1     -40.605   8.716   6.061  1.00  0.00     0.000 C 
BRANCH   9  10
ATOM     10  C   UNL     1     -40.926  10.185   6.378  1.00  0.00     0.000 C 
BRANCH  10  11
ATOM     11  C   UNL     1     -41.256  11.008   5.121  1.00  0.00     0.000 C 
BRANCH  11  12
ATOM     12  C   UNL     1     -41.302  10.158   3.838  1.00  0.00     0.006 C 
BRANCH  12  13
ATOM     13  C   UNL     1     -42.719   9.957   3.272  1.00  0.00     0.053 C 
BRANCH  13  14
ATOM     14  C   UNL     1     -42.715   9.486   1.849  1.00  0.00     0.041 C 
ATOM     15  O   UNL     1     -42.116  10.148   0.959  1.00  0.00    -0.550 OA
ATOM     16  O   UNL     1     -43.351   8.299   1.508  1.00  0.00    -0.550 OA
ENDBRANCH  13  14
ENDBRANCH  12  13
ENDBRANCH  11  12
ENDBRANCH  10  11
ENDBRANCH   9  10
ENDBRANCH   8   9
ENDBRANCH   7   8
ENDBRANCH   6   7
ENDBRANCH   5   6
ENDBRANCH   4   5
ENDBRANCH   3   4
ENDBRANCH   2   3
ENDBRANCH   1   2
BRANCH   1  17
ATOM     17  C   UNL     1     -33.420   9.176   0.985  1.00  0.00     0.000 C 
BRANCH  17  18
ATOM     18  C   UNL     1     -32.382   8.198   0.407  1.00  0.00     0.000 C 
BRANCH  18  19
ATOM     19  C   UNL     1     -31.647   7.394   1.494  1.00  0.00     0.000 C 
BRANCH  19  20
ATOM     20  C   UNL     1     -30.284   6.820   1.067  1.00  0.00     0.000 C 
BRANCH  20  21
ATOM     21  C   UNL     1     -29.705   7.520  -0.175  1.00  0.00     0.000 C 
BRANCH  21  22
ATOM     22  C   UNL     1     -28.240   7.948   0.014  1.00  0.00    -0.000 C 
BRANCH  22  23
ATOM     23  C   UNL     1     -27.383   7.703  -1.238  1.00  0.00    -0.000 C 
BRANCH  23  24
ATOM     24  C   UNL     1     -27.822   8.616  -2.393  1.00  0.00    -0.000 C 
BRANCH  24  25
ATOM     25  C   UNL     1     -28.329   7.833  -3.617  1.00  0.00    -0.000 C 
BRANCH  25  26
ATOM     26  C   UNL     1     -27.474   7.986  -4.892  1.00  0.00    -0.000 C 
BRANCH  26  27
ATOM     27  C   UNL     1     -28.058   8.923  -5.964  1.00  0.00    -0.000 C 
BRANCH  27  28
ATOM     28  C   UNL     1     -27.006   9.393  -6.983  1.00  0.00    -0.000 C 
BRANCH  28  29
ATOM     29  C   UNL     1     -25.575   9.322  -6.427  1.00  0.00    -0.003 C 
ATOM     30  C   UNL     1     -25.011   7.902  -6.418  1.00  0.00     0.004 C 
ENDBRANCH  28  29
ENDBRANCH  27  28
ENDBRANCH  26  27
ENDBRANCH  25  26
ENDBRANCH  24  25
ENDBRANCH  23  24
ENDBRANCH  22  23
ENDBRANCH  21  22
ENDBRANCH  20  21
ENDBRANCH  19  20
ENDBRANCH  18  19
ENDBRANCH  17  18
ENDBRANCH   1  17
TORSDOF 26
ENDMDL
MODEL 4
REMARK VINA RESULT:    16.680      8.262     14.028
REMARK INTER + INTRA:          40.518
REMARK INTER:                  39.780
REMARK INTRA:                   0.739
REMARK UNBOUND:                -1.514
REMARK SMILES CCCCCCCCCCCCCCCCCCCCCCCCCCCC(=O)[O-]
REMARK SMILES IDX 15 1 16 2 17 3 18 4 19 5 20 6 21 7 22 8 23 9 24 10 25 11
REMARK SMILES IDX 26 12 27 13 28 14 29 15 30 16 14 17 13 18 12 19 11 20 10 21
REMARK SMILES IDX 9 22 8 23 7 24 6 25 5 26 4 27 3 28 2 29 1 30
REMARK H PARENT
REMARK Flexibility Score: inf
ROOT
ATOM      1  C   UNL     1     -30.024   7.310   3.545  1.00  0.00     0.000 C 
ENDROOT
BRANCH   1   2
ATOM      2  C   UNL     1     -28.528   7.494   3.849  1.00  0.00     0.000 C 
BRANCH   2   3
ATOM      3  C   UNL     1     -28.237   7.642   5.359  1.00  0.00     0.000 C 
BRANCH   3   4
ATOM      4  C   UNL     1     -27.950   6.307   6.070  1.00  0.00     0.000 C 
BRANCH   4   5
ATOM      5  C   UNL     1     -26.488   6.112   6.510  1.00  0.00     0.000 C 
BRANCH   5   6
ATOM      6  C   UNL     1     -26.321   5.128   7.691  1.00  0.00     0.000 C 
BRANCH   6   7
ATOM      7  C   UNL     1     -25.720   5.797   8.939  1.00  0.00     0.000 C 
BRANCH   7   8
ATOM      8  C   UNL     1     -24.970   4.802   9.839  1.00  0.00     0.000 C 
BRANCH   8   9
ATOM      9  C   UNL     1     -25.420   4.882  11.307  1.00  0.00     0.000 C 
BRANCH   9  10
ATOM     10  C   UNL     1     -26.862   4.392  11.510  1.00  0.00     0.000 C 
BRANCH  10  11
ATOM     11  C   UNL     1     -27.899   5.284  10.806  1.00  0.00     0.000 C 
BRANCH  11  12
ATOM     12  C   UNL     1     -29.269   5.288  11.510  1.00  0.00     0.006 C 
BRANCH  12  13
ATOM     13  C   UNL     1     -29.463   4.131  12.507  1.00  0.00     0.053 C 
BRANCH  13  14
ATOM     14  C   UNL     1     -29.988   2.887  11.857  1.00  0.00     0.041 C 
ATOM     15  O   UNL     1     -31.098   2.403  12.210  1.00  0.00    -0.550 OA
ATOM     16  O   UNL     1     -29.264   2.274  10.843  1.00  0.00    -0.550 OA
ENDBRANCH  13  14
ENDBRANCH  12  13
ENDBRANCH  11  12
ENDBRANCH  10  11
ENDBRANCH   9  10
ENDBRANCH   8   9
ENDBRANCH   7   8
ENDBRANCH   6   7
ENDBRANCH   5   6
ENDBRANCH   4   5
ENDBRANCH   3   4
ENDBRANCH   2   3
ENDBRANCH   1   2
BRANCH   1  17
ATOM     17  C   UNL     1     -30.314   7.231   2.037  1.00  0.00     0.000 C 
BRANCH  17  18
ATOM     18  C   UNL     1     -31.818   7.285   1.720  1.00  0.00     0.000 C 
BRANCH  18  19
ATOM     19  C   UNL     1     -32.135   6.912   0.261  1.00  0.00     0.000 C 
BRANCH  19  20
ATOM     20  C   UNL     1     -31.202   7.545  -0.788  1.00  0.00     0.000 C 
BRANCH  20  21
ATOM     21  C   UNL     1     -30.241   6.527  -1.423  1.00  0.00     0.000 C 
BRANCH  21  22
ATOM     22  C   UNL     1     -29.108   7.196  -2.220  1.00  0.00    -0.000 C 
BRANCH  22  23
ATOM     23  C   UNL     1     -28.214   8.090  -1.346  1.00  0.00    -0.000 C 
BRANCH  23  24
ATOM     24  C   UNL     1     -27.016   8.621  -2.148  1.00  0.00    -0.000 C 
BRANCH  24  25
ATOM     25  C   UNL     1     -26.461   7.592  -3.149  1.00  0.00    -0.000 C 
BRANCH  25  26
ATOM     26  C   UNL     1     -27.195   7.537  -4.506  1.00  0.00    -0.000 C 
BRANCH  26  27
ATOM     27  C   UNL     1     -27.768   8.879  -4.995  1.00  0.00    -0.000 C 
BRANCH  27  28
ATOM     28  C   UNL     1     -26.946   9.498  -6.138  1.00  0.00    -0.000 C 
BRANCH  28  29
ATOM     29  C   UNL     1     -25.807   8.579  -6.608  1.00  0.00    -0.003 C 
ATOM     30  C   UNL     1     -26.308   7.230  -7.124  1.00  0.00     0.004 C 
ENDBRANCH  28  29
ENDBRANCH  27  28
ENDBRANCH  26  27
ENDBRANCH  25  26
ENDBRANCH  24  25
ENDBRANCH  23  24
ENDBRANCH  22  23
ENDBRANCH  21  22
ENDBRANCH  20  21
ENDBRANCH  19  20
ENDBRANCH  18  19
ENDBRANCH  17  18
ENDBRANCH   1  17
TORSDOF 26
ENDMDL
MODEL 5
REMARK VINA RESULT:    17.167      8.311     13.186
REMARK INTER + INTRA:          41.746
REMARK INTER:                  41.835
REMARK INTRA:                  -0.089
REMARK UNBOUND:                -1.514
REMARK SMILES CCCCCCCCCCCCCCCCCCCCCCCCCCCC(=O)[O-]
REMARK SMILES IDX 15 1 16 2 17 3 18 4 19 5 20 6 21 7 22 8 23 9 24 10 25 11
REMARK SMILES IDX 26 12 27 13 28 14 29 15 30 16 14 17 13 18 12 19 11 20 10 21
REMARK SMILES IDX 9 22 8 23 7 24 6 25 5 26 4 27 3 28 2 29 1 30
REMARK H PARENT
REMARK Flexibility Score: inf
ROOT
ATOM      1  C   UNL     1     -31.952   7.500  -0.073  1.00  0.00     0.000 C 
ENDROOT
BRANCH   1   2
ATOM      2  C   UNL     1     -31.805   7.627   1.453  1.00  0.00     0.000 C 
BRANCH   2   3
ATOM      3  C   UNL     1     -30.552   6.904   1.996  1.00  0.00     0.000 C 
BRANCH   3   4
ATOM      4  C   UNL     1     -29.797   7.696   3.079  1.00  0.00     0.000 C 
BRANCH   4   5
ATOM      5  C   UNL     1     -29.799   7.045   4.473  1.00  0.00     0.000 C 
BRANCH   5   6
ATOM      6  C   UNL     1     -29.003   7.843   5.532  1.00  0.00     0.000 C 
BRANCH   6   7
ATOM      7  C   UNL     1     -27.620   7.232   5.817  1.00  0.00     0.000 C 
BRANCH   7   8
ATOM      8  C   UNL     1     -27.711   5.862   6.509  1.00  0.00     0.000 C 
BRANCH   8   9
ATOM      9  C   UNL     1     -26.541   5.613   7.476  1.00  0.00     0.000 C 
BRANCH   9  10
ATOM     10  C   UNL     1     -26.979   4.884   8.757  1.00  0.00     0.000 C 
BRANCH  10  11
ATOM     11  C   UNL     1     -25.960   5.025   9.901  1.00  0.00     0.000 C 
BRANCH  11  12
ATOM     12  C   UNL     1     -26.622   5.163  11.284  1.00  0.00     0.006 C 
BRANCH  12  13
ATOM     13  C   UNL     1     -27.348   3.892  11.760  1.00  0.00     0.053 C 
BRANCH  13  14
ATOM     14  C   UNL     1     -28.841   4.021  11.708  1.00  0.00     0.041 C 
ATOM     15  O   UNL     1     -29.568   2.993  11.663  1.00  0.00    -0.550 OA
ATOM     16  O   UNL     1     -29.430   5.279  11.736  1.00  0.00    -0.550 OA
ENDBRANCH  13  14
ENDBRANCH  12  13
ENDBRANCH  11  12
ENDBRANCH  10  11
ENDBRANCH   9  10
ENDBRANCH   8   9
ENDBRANCH   7   8
ENDBRANCH   6   7
ENDBRANCH   5   6
ENDBRANCH   4   5
ENDBRANCH   3   4
ENDBRANCH   2   3
ENDBRANCH   1   2
BRANCH   1  17
ATOM     17  C   UNL     1     -30.919   6.542  -0.687  1.00  0.00     0.000 C 
BRANCH  17  18
ATOM     18  C   UNL     1     -29.912   7.263  -1.598  1.00  0.00     0.000 C 
BRANCH  18  19
ATOM     19  C   UNL     1     -28.566   7.537  -0.904  1.00  0.00     0.000 C 
BRANCH  19  20
ATOM     20  C   UNL     1     -27.407   7.896  -1.853  1.00  0.00     0.000 C 
BRANCH  20  21
ATOM     21  C   UNL     1     -27.858   8.041  -3.316  1.00  0.00     0.000 C 
BRANCH  21  22
ATOM     22  C   UNL     1     -26.776   7.602  -4.318  1.00  0.00    -0.000 C 
BRANCH  22  23
ATOM     23  C   UNL     1     -26.653   8.557  -5.515  1.00  0.00    -0.000 C 
BRANCH  23  24
ATOM     24  C   UNL     1     -28.030   8.853  -6.128  1.00  0.00    -0.000 C 
BRANCH  24  25
ATOM     25  C   UNL     1     -29.169   8.808  -5.093  1.00  0.00    -0.000 C 
BRANCH  25  26
ATOM     26  C   UNL     1     -30.582   8.620  -5.682  1.00  0.00    -0.000 C 
BRANCH  26  27
ATOM     27  C   UNL     1     -31.375   7.429  -5.116  1.00  0.00    -0.000 C 
BRANCH  27  28
ATOM     28  C   UNL     1     -32.883   7.523  -5.406  1.00  0.00    -0.000 C 
BRANCH  28  29
ATOM     29  C   UNL     1     -33.235   7.084  -6.837  1.00  0.00    -0.003 C 
ATOM     30  C   UNL     1     -33.139   5.572  -7.034  1.00  0.00     0.004 C 
ENDBRANCH  28  29
ENDBRANCH  27  28
ENDBRANCH  26  27
ENDBRANCH  25  26
ENDBRANCH  24  25
ENDBRANCH  23  24
ENDBRANCH  22  23
ENDBRANCH  21  22
ENDBRANCH  20  21
ENDBRANCH  19  20
ENDBRANCH  18  19
ENDBRANCH  17  18
ENDBRANCH   1  17
TORSDOF 26
ENDMDL
