MODEL 1
REMARK VINA RESULT:    -6.287      0.000      0.000
REMARK INTER + INTRA:         -10.154
REMARK INTER:                  -8.860
REMARK INTRA:                  -1.294
REMARK UNBOUND:                -1.294
REMARK SMILES OC[C@@H]1O[C@@H](O[C@@H]2OC=C[C@@H]3[C@@H](O)[C@@H]4O[C@]4(CO)[C@@H]23)[C@H](O)[C@H](O)[C@H]1O
REMARK SMILES IDX 6 1 7 2 10 3 9 4 11 5 8 6 19 7 12 8 16 9 14 10 15 11 13 12
REMARK SMILES IDX 17 14 18 15 5 17 20 18 4 19 22 20 3 21 24 22 21 23 23 25
REMARK SMILES IDX 2 27 1 28 25 30
REMARK H PARENT 13 13 18 16 21 24 23 26 1 29 25 31
REMARK Flexibility Score: inf
ROOT
ATOM      1  O   UNL     1      -7.739  -1.596  -5.736  1.00  0.00    -0.310 OA
ENDROOT
BRANCH   1   2
ATOM      2  C   UNL     1      -8.272  -2.707  -6.461  1.00  0.00     0.315 C 
ATOM      3  C   UNL     1      -8.444  -5.559  -6.983  1.00  0.00     0.018 C 
ATOM      4  C   UNL     1      -8.983  -5.036  -5.876  1.00  0.00     0.186 C 
ATOM      5  C   UNL     1      -7.777  -4.629  -7.960  1.00  0.00     0.059 C 
ATOM      6  O   UNL     1      -8.849  -3.655  -5.542  1.00  0.00    -0.472 OA
ATOM      7  C   UNL     1      -7.173  -3.416  -7.245  1.00  0.00     0.105 C 
ATOM      8  C   UNL     1      -6.563  -5.159  -8.707  1.00  0.00     0.154 C 
ATOM      9  C   UNL     1      -6.390  -2.760  -8.388  1.00  0.00     0.130 C 
ATOM     10  C   UNL     1      -5.869  -3.877  -9.259  1.00  0.00     0.183 C 
ATOM     11  O   UNL     1      -5.019  -3.113  -8.391  1.00  0.00    -0.360 OA
BRANCH   8  12
ATOM     12  O   UNL     1      -6.999  -5.984  -9.784  1.00  0.00    -0.390 OA
ATOM     13  H   UNL     1      -6.301  -5.871 -10.488  1.00  0.00     0.211 HD
ENDBRANCH   8  12
BRANCH   9  14
ATOM     14  C   UNL     1      -6.779  -1.464  -9.134  1.00  0.00     0.195 C 
BRANCH  14  15
ATOM     15  O   UNL     1      -6.803  -0.312  -8.297  1.00  0.00    -0.393 OA
ATOM     16  H   UNL     1      -6.894  -0.647  -7.356  1.00  0.00     0.210 HD
ENDBRANCH  14  15
ENDBRANCH   9  14
ENDBRANCH   1   2
BRANCH   1  17
ATOM     17  C   UNL     1      -8.768  -0.775  -5.180  1.00  0.00     0.286 C 
ATOM     18  C   UNL     1      -8.535  -0.626  -3.639  1.00  0.00     0.202 C 
ATOM     19  O   UNL     1      -8.822   0.464  -5.933  1.00  0.00    -0.341 OA
ATOM     20  C   UNL     1      -7.402   0.370  -3.387  1.00  0.00     0.179 C 
ATOM     21  C   UNL     1      -8.716   1.713  -5.208  1.00  0.00     0.178 C 
ATOM     22  C   UNL     1      -7.607   1.743  -4.075  1.00  0.00     0.177 C 
BRANCH  18  23
ATOM     23  O   UNL     1      -9.720  -0.244  -2.947  1.00  0.00    -0.385 OA
ATOM     24  H   UNL     1      -9.491   0.472  -2.295  1.00  0.00     0.211 HD
ENDBRANCH  18  23
BRANCH  20  25
ATOM     25  O   UNL     1      -7.135   0.509  -2.017  1.00  0.00    -0.387 OA
ATOM     26  H   UNL     1      -6.406  -0.137  -1.790  1.00  0.00     0.211 HD
ENDBRANCH  20  25
BRANCH  21  27
ATOM     27  C   UNL     1     -10.120   2.227  -4.753  1.00  0.00     0.191 C 
BRANCH  27  28
ATOM     28  O   UNL     1     -10.124   2.702  -3.414  1.00  0.00    -0.394 OA
ATOM     29  H   UNL     1     -10.049   3.704  -3.468  1.00  0.00     0.210 HD
ENDBRANCH  27  28
ENDBRANCH  21  27
BRANCH  22  30
ATOM     30  O   UNL     1      -6.344   2.246  -4.466  1.00  0.00    -0.387 OA
ATOM     31  H   UNL     1      -5.957   1.681  -5.177  1.00  0.00     0.211 HD
ENDBRANCH  22  30
ENDBRANCH   1  17
TORSDOF 10
ENDMDL
MODEL 2
REMARK VINA RESULT:    -5.867     13.728     17.072
REMARK INTER + INTRA:          -9.562
REMARK INTER:                  -8.146
REMARK INTRA:                  -1.416
REMARK UNBOUND:                -1.294
REMARK SMILES OC[C@@H]1O[C@@H](O[C@@H]2OC=C[C@@H]3[C@@H](O)[C@@H]4O[C@]4(CO)[C@@H]23)[C@H](O)[C@H](O)[C@H]1O
REMARK SMILES IDX 6 1 7 2 10 3 9 4 11 5 8 6 19 7 12 8 16 9 14 10 15 11 13 12
REMARK SMILES IDX 17 14 18 15 5 17 20 18 4 19 22 20 3 21 24 22 21 23 23 25
REMARK SMILES IDX 2 27 1 28 25 30
REMARK H PARENT 13 13 18 16 21 24 23 26 1 29 25 31
REMARK Flexibility Score: inf
ROOT
ATOM      1  O   UNL     1      -2.705   4.848   8.088  1.00  0.00    -0.310 OA
ENDROOT
BRANCH   1   2
ATOM      2  C   UNL     1      -3.505   6.027   7.972  1.00  0.00     0.315 C 
ATOM      3  C   UNL     1      -6.075   7.376   8.061  1.00  0.00     0.018 C 
ATOM      4  C   UNL     1      -5.488   6.955   9.187  1.00  0.00     0.186 C 
ATOM      5  C   UNL     1      -5.356   7.161   6.757  1.00  0.00     0.059 C 
ATOM      6  O   UNL     1      -4.268   6.216   9.180  1.00  0.00    -0.472 OA
ATOM      7  C   UNL     1      -4.483   5.902   6.809  1.00  0.00     0.105 C 
ATOM      8  C   UNL     1      -6.208   6.871   5.532  1.00  0.00     0.154 C 
ATOM      9  C   UNL     1      -4.047   5.786   5.344  1.00  0.00     0.130 C 
ATOM     10  C   UNL     1      -5.203   6.271   4.504  1.00  0.00     0.183 C 
ATOM     11  O   UNL     1      -4.846   4.884   4.600  1.00  0.00    -0.360 OA
BRANCH   8  12
ATOM     12  O   UNL     1      -6.747   8.094   5.036  1.00  0.00    -0.390 OA
ATOM     13  H   UNL     1      -7.479   8.325   5.673  1.00  0.00     0.211 HD
ENDBRANCH   8  12
BRANCH   9  14
ATOM     14  C   UNL     1      -2.641   6.098   4.783  1.00  0.00     0.195 C 
BRANCH  14  15
ATOM     15  O   UNL     1      -1.684   5.078   5.048  1.00  0.00    -0.393 OA
ATOM     16  H   UNL     1      -1.747   4.878   6.029  1.00  0.00     0.210 HD
ENDBRANCH  14  15
ENDBRANCH   9  14
ENDBRANCH   1   2
BRANCH   1  17
ATOM     17  C   UNL     1      -1.653   5.005   9.042  1.00  0.00     0.286 C 
ATOM     18  C   UNL     1      -0.664   3.797   8.925  1.00  0.00     0.202 C 
ATOM     19  O   UNL     1      -1.067   6.321   8.866  1.00  0.00    -0.341 OA
ATOM     20  C   UNL     1       0.227   3.983   7.696  1.00  0.00     0.179 C 
ATOM     21  C   UNL     1       0.363   6.413   8.658  1.00  0.00     0.178 C 
ATOM     22  C   UNL     1       0.969   5.343   7.656  1.00  0.00     0.177 C 
BRANCH  18  23
ATOM     23  O   UNL     1       0.116   3.620  10.104  1.00  0.00    -0.385 OA
ATOM     24  H   UNL     1       0.572   2.736  10.055  1.00  0.00     0.211 HD
ENDBRANCH  18  23
BRANCH  20  25
ATOM     25  O   UNL     1       1.108   2.904   7.531  1.00  0.00    -0.387 OA
ATOM     26  H   UNL     1       1.723   3.136   6.778  1.00  0.00     0.211 HD
ENDBRANCH  20  25
BRANCH  21  27
ATOM     27  C   UNL     1       1.129   6.535  10.014  1.00  0.00     0.191 C 
BRANCH  27  28
ATOM     28  O   UNL     1       2.203   5.611  10.125  1.00  0.00    -0.394 OA
ATOM     29  H   UNL     1       2.945   5.968   9.545  1.00  0.00     0.210 HD
ENDBRANCH  27  28
ENDBRANCH  21  27
BRANCH  22  30
ATOM     30  O   UNL     1       1.080   5.758   6.308  1.00  0.00    -0.387 OA
ATOM     31  H   UNL     1       2.029   5.891   6.069  1.00  0.00     0.211 HD
ENDBRANCH  22  30
ENDBRANCH   1  17
TORSDOF 10
ENDMDL
MODEL 3
REMARK VINA RESULT:    -5.670     14.049     17.024
REMARK INTER + INTRA:          -9.284
REMARK INTER:                  -7.860
REMARK INTRA:                  -1.424
REMARK UNBOUND:                -1.294
REMARK SMILES OC[C@@H]1O[C@@H](O[C@@H]2OC=C[C@@H]3[C@@H](O)[C@@H]4O[C@]4(CO)[C@@H]23)[C@H](O)[C@H](O)[C@H]1O
REMARK SMILES IDX 6 1 7 2 10 3 9 4 11 5 8 6 19 7 12 8 16 9 14 10 15 11 13 12
REMARK SMILES IDX 17 14 18 15 5 17 20 18 4 19 22 20 3 21 24 22 21 23 23 25
REMARK SMILES IDX 2 27 1 28 25 30
REMARK H PARENT 13 13 18 16 21 24 23 26 1 29 25 31
REMARK Flexibility Score: inf
ROOT
ATOM      1  O   UNL     1      -1.112   5.734   5.794  1.00  0.00    -0.310 OA
ENDROOT
BRANCH   1   2
ATOM      2  C   UNL     1      -2.425   6.295   5.721  1.00  0.00     0.315 C 
ATOM      3  C   UNL     1      -4.829   6.959   4.232  1.00  0.00     0.018 C 
ATOM      4  C   UNL     1      -4.555   5.688   4.552  1.00  0.00     0.186 C 
ATOM      5  C   UNL     1      -3.879   8.031   4.690  1.00  0.00     0.059 C 
ATOM      6  O   UNL     1      -3.346   5.312   5.208  1.00  0.00    -0.472 OA
ATOM      7  C   UNL     1      -2.445   7.497   4.782  1.00  0.00     0.105 C 
ATOM      8  C   UNL     1      -3.684   9.227   3.772  1.00  0.00     0.154 C 
ATOM      9  C   UNL     1      -1.665   8.790   5.045  1.00  0.00     0.130 C 
ATOM     10  C   UNL     1      -2.368   9.887   4.284  1.00  0.00     0.183 C 
ATOM     11  O   UNL     1      -1.105   9.346   3.869  1.00  0.00    -0.360 OA
BRANCH   8  12
ATOM     12  O   UNL     1      -4.779  10.125   3.931  1.00  0.00    -0.390 OA
ATOM     13  H   UNL     1      -4.815  10.634   3.075  1.00  0.00     0.211 HD
ENDBRANCH   8  12
BRANCH   9  14
ATOM     14  C   UNL     1      -1.031   9.216   6.388  1.00  0.00     0.195 C 
BRANCH  14  15
ATOM     15  O   UNL     1      -0.022   8.324   6.848  1.00  0.00    -0.393 OA
ATOM     16  H   UNL     1      -0.455   7.732   7.532  1.00  0.00     0.210 HD
ENDBRANCH  14  15
ENDBRANCH   9  14
ENDBRANCH   1   2
BRANCH   1  17
ATOM     17  C   UNL     1      -1.029   4.689   6.765  1.00  0.00     0.286 C 
ATOM     18  C   UNL     1       0.452   4.192   6.864  1.00  0.00     0.202 C 
ATOM     19  O   UNL     1      -1.620   5.164   8.002  1.00  0.00    -0.341 OA
ATOM     20  C   UNL     1       1.277   5.199   7.665  1.00  0.00     0.179 C 
ATOM     21  C   UNL     1      -0.829   5.090   9.213  1.00  0.00     0.178 C 
ATOM     22  C   UNL     1       0.686   5.532   9.058  1.00  0.00     0.177 C 
BRANCH  18  23
ATOM     23  O   UNL     1       0.548   2.886   7.426  1.00  0.00    -0.385 OA
ATOM     24  H   UNL     1       1.300   2.404   6.987  1.00  0.00     0.211 HD
ENDBRANCH  18  23
BRANCH  20  25
ATOM     25  O   UNL     1       2.622   4.811   7.750  1.00  0.00    -0.387 OA
ATOM     26  H   UNL     1       2.822   4.644   8.715  1.00  0.00     0.211 HD
ENDBRANCH  20  25
BRANCH  21  27
ATOM     27  C   UNL     1      -1.033   3.723   9.941  1.00  0.00     0.191 C 
BRANCH  27  28
ATOM     28  O   UNL     1       0.183   3.010  10.124  1.00  0.00    -0.394 OA
ATOM     29  H   UNL     1       0.285   2.872  11.116  1.00  0.00     0.210 HD
ENDBRANCH  27  28
ENDBRANCH  21  27
BRANCH  22  30
ATOM     30  O   UNL     1       0.963   6.887   9.355  1.00  0.00    -0.387 OA
ATOM     31  H   UNL     1       1.934   7.055   9.308  1.00  0.00     0.211 HD
ENDBRANCH  22  30
ENDBRANCH   1  17
TORSDOF 10
ENDMDL
MODEL 4
REMARK VINA RESULT:    -5.351      1.433      6.986
REMARK INTER + INTRA:          -8.835
REMARK INTER:                  -7.799
REMARK INTRA:                  -1.035
REMARK UNBOUND:                -1.294
REMARK SMILES OC[C@@H]1O[C@@H](O[C@@H]2OC=C[C@@H]3[C@@H](O)[C@@H]4O[C@]4(CO)[C@@H]23)[C@H](O)[C@H](O)[C@H]1O
REMARK SMILES IDX 6 1 7 2 10 3 9 4 11 5 8 6 19 7 12 8 16 9 14 10 15 11 13 12
REMARK SMILES IDX 17 14 18 15 5 17 20 18 4 19 22 20 3 21 24 22 21 23 23 25
REMARK SMILES IDX 2 27 1 28 25 30
REMARK H PARENT 13 13 18 16 21 24 23 26 1 29 25 31
REMARK Flexibility Score: inf
ROOT
ATOM      1  O   UNL     1      -7.765  -1.262  -6.580  1.00  0.00    -0.310 OA
ENDROOT
BRANCH   1   2
ATOM      2  C   UNL     1      -8.843  -0.433  -6.136  1.00  0.00     0.315 C 
ATOM      3  C   UNL     1     -10.043   2.181  -5.734  1.00  0.00     0.018 C 
ATOM      4  C   UNL     1      -9.929   1.666  -6.964  1.00  0.00     0.186 C 
ATOM      5  C   UNL     1      -9.564   1.359  -4.569  1.00  0.00     0.059 C 
ATOM      6  O   UNL     1      -9.271   0.424  -7.212  1.00  0.00    -0.472 OA
ATOM      7  C   UNL     1      -8.399   0.450  -4.974  1.00  0.00     0.105 C 
ATOM      8  C   UNL     1      -8.953   2.106  -3.394  1.00  0.00     0.154 C 
ATOM      9  C   UNL     1      -7.964  -0.099  -3.611  1.00  0.00     0.130 C 
ATOM     10  C   UNL     1      -8.180   1.006  -2.606  1.00  0.00     0.183 C 
ATOM     11  O   UNL     1      -6.874   0.612  -3.052  1.00  0.00    -0.360 OA
BRANCH   8  12
ATOM     12  O   UNL     1      -9.996   2.647  -2.588  1.00  0.00    -0.390 OA
ATOM     13  H   UNL     1     -10.815   2.151  -2.867  1.00  0.00     0.211 HD
ENDBRANCH   8  12
BRANCH   9  14
ATOM     14  C   UNL     1      -8.207  -1.531  -3.085  1.00  0.00     0.195 C 
BRANCH  14  15
ATOM     15  O   UNL     1      -8.153  -2.527  -4.101  1.00  0.00    -0.393 OA
ATOM     16  H   UNL     1      -9.087  -2.625  -4.452  1.00  0.00     0.210 HD
ENDBRANCH  14  15
ENDBRANCH   9  14
ENDBRANCH   1   2
BRANCH   1  17
ATOM     17  C   UNL     1      -8.195  -2.231  -7.539  1.00  0.00     0.286 C 
ATOM     18  C   UNL     1      -7.436  -1.994  -8.888  1.00  0.00     0.202 C 
ATOM     19  O   UNL     1      -8.048  -3.550  -6.954  1.00  0.00    -0.341 OA
ATOM     20  C   UNL     1      -6.008  -2.528  -8.772  1.00  0.00     0.179 C 
ATOM     21  C   UNL     1      -7.276  -4.539  -7.678  1.00  0.00     0.178 C 
ATOM     22  C   UNL     1      -5.924  -4.006  -8.313  1.00  0.00     0.177 C 
BRANCH  18  23
ATOM     23  O   UNL     1      -8.114  -2.574  -9.998  1.00  0.00    -0.385 OA
ATOM     24  H   UNL     1      -7.754  -3.490 -10.149  1.00  0.00     0.211 HD
ENDBRANCH  18  23
BRANCH  20  25
ATOM     25  O   UNL     1      -5.279  -2.306  -9.949  1.00  0.00    -0.387 OA
ATOM     26  H   UNL     1      -4.923  -1.373  -9.906  1.00  0.00     0.211 HD
ENDBRANCH  20  25
BRANCH  21  27
ATOM     27  C   UNL     1      -8.175  -5.355  -8.661  1.00  0.00     0.191 C 
BRANCH  27  28
ATOM     28  O   UNL     1      -7.613  -5.461  -9.962  1.00  0.00    -0.394 OA
ATOM     29  H   UNL     1      -6.679  -5.816  -9.839  1.00  0.00     0.210 HD
ENDBRANCH  27  28
ENDBRANCH  21  27
BRANCH  22  30
ATOM     30  O   UNL     1      -4.766  -4.168  -7.518  1.00  0.00    -0.387 OA
ATOM     31  H   UNL     1      -4.578  -3.339  -7.016  1.00  0.00     0.211 HD
ENDBRANCH  22  30
ENDBRANCH   1  17
TORSDOF 10
ENDMDL
MODEL 5
REMARK VINA RESULT:    -5.313     13.762     16.670
REMARK INTER + INTRA:          -8.781
REMARK INTER:                  -8.048
REMARK INTRA:                  -0.732
REMARK UNBOUND:                -1.294
REMARK SMILES OC[C@@H]1O[C@@H](O[C@@H]2OC=C[C@@H]3[C@@H](O)[C@@H]4O[C@]4(CO)[C@@H]23)[C@H](O)[C@H](O)[C@H]1O
REMARK SMILES IDX 6 1 7 2 10 3 9 4 11 5 8 6 19 7 12 8 16 9 14 10 15 11 13 12
REMARK SMILES IDX 17 14 18 15 5 17 20 18 4 19 22 20 3 21 24 22 21 23 23 25
REMARK SMILES IDX 2 27 1 28 25 30
REMARK H PARENT 13 13 18 16 21 24 23 26 1 29 25 31
REMARK Flexibility Score: inf
ROOT
ATOM      1  O   UNL     1      -2.917   6.443   7.579  1.00  0.00    -0.310 OA
ENDROOT
BRANCH   1   2
ATOM      2  C   UNL     1      -2.468   5.137   7.951  1.00  0.00     0.315 C 
ATOM      3  C   UNL     1      -1.932   3.106   9.957  1.00  0.00     0.018 C 
ATOM      4  C   UNL     1      -3.190   3.420   9.626  1.00  0.00     0.186 C 
ATOM      5  C   UNL     1      -0.809   3.808   9.243  1.00  0.00     0.059 C 
ATOM      6  O   UNL     1      -3.497   4.468   8.707  1.00  0.00    -0.472 OA
ATOM      7  C   UNL     1      -1.220   5.224   8.823  1.00  0.00     0.105 C 
ATOM      8  C   UNL     1       0.450   4.099  10.043  1.00  0.00     0.154 C 
ATOM      9  C   UNL     1       0.118   5.785   8.332  1.00  0.00     0.130 C 
ATOM     10  C   UNL     1       1.192   5.181   9.203  1.00  0.00     0.183 C 
ATOM     11  O   UNL     1       0.788   6.553   9.315  1.00  0.00    -0.360 OA
BRANCH   8  12
ATOM     12  O   UNL     1       1.238   2.913  10.125  1.00  0.00    -0.390 OA
ATOM     13  H   UNL     1       1.390   2.645   9.176  1.00  0.00     0.211 HD
ENDBRANCH   8  12
BRANCH   9  14
ATOM     14  C   UNL     1       0.519   6.034   6.860  1.00  0.00     0.195 C 
BRANCH  14  15
ATOM     15  O   UNL     1       0.562   4.847   6.075  1.00  0.00    -0.393 OA
ATOM     16  H   UNL     1      -0.103   4.971   5.336  1.00  0.00     0.210 HD
ENDBRANCH  14  15
ENDBRANCH   9  14
ENDBRANCH   1   2
BRANCH   1  17
ATOM     17  C   UNL     1      -2.617   6.745   6.215  1.00  0.00     0.286 C 
ATOM     18  C   UNL     1      -3.126   5.578   5.304  1.00  0.00     0.202 C 
ATOM     19  O   UNL     1      -3.144   8.061   5.910  1.00  0.00    -0.341 OA
ATOM     20  C   UNL     1      -4.644   5.678   5.145  1.00  0.00     0.179 C 
ATOM     21  C   UNL     1      -4.036   8.197   4.776  1.00  0.00     0.178 C 
ATOM     22  C   UNL     1      -5.133   7.060   4.641  1.00  0.00     0.177 C 
BRANCH  18  23
ATOM     23  O   UNL     1      -2.476   5.557   4.037  1.00  0.00    -0.385 OA
ATOM     24  H   UNL     1      -2.588   6.448   3.607  1.00  0.00     0.211 HD
ENDBRANCH  18  23
BRANCH  20  25
ATOM     25  O   UNL     1      -5.149   4.630   4.362  1.00  0.00    -0.387 OA
ATOM     26  H   UNL     1      -5.728   4.070   4.955  1.00  0.00     0.211 HD
ENDBRANCH  20  25
BRANCH  21  27
ATOM     27  C   UNL     1      -3.244   8.491   3.462  1.00  0.00     0.191 C 
BRANCH  27  28
ATOM     28  O   UNL     1      -3.482   7.524   2.448  1.00  0.00    -0.394 OA
ATOM     29  H   UNL     1      -4.457   7.282   2.510  1.00  0.00     0.210 HD
ENDBRANCH  27  28
ENDBRANCH  21  27
BRANCH  22  30
ATOM     30  O   UNL     1      -6.385   7.341   5.237  1.00  0.00    -0.387 OA
ATOM     31  H   UNL     1      -6.810   6.506   5.547  1.00  0.00     0.211 HD
ENDBRANCH  22  30
ENDBRANCH   1  17
TORSDOF 10
ENDMDL
MODEL 6
REMARK VINA RESULT:    -5.127     13.128     16.498
REMARK INTER + INTRA:          -8.519
REMARK INTER:                  -7.677
REMARK INTRA:                  -0.842
REMARK UNBOUND:                -1.294
REMARK SMILES OC[C@@H]1O[C@@H](O[C@@H]2OC=C[C@@H]3[C@@H](O)[C@@H]4O[C@]4(CO)[C@@H]23)[C@H](O)[C@H](O)[C@H]1O
REMARK SMILES IDX 6 1 7 2 10 3 9 4 11 5 8 6 19 7 12 8 16 9 14 10 15 11 13 12
REMARK SMILES IDX 17 14 18 15 5 17 20 18 4 19 22 20 3 21 24 22 21 23 23 25
REMARK SMILES IDX 2 27 1 28 25 30
REMARK H PARENT 13 13 18 16 21 24 23 26 1 29 25 31
REMARK Flexibility Score: inf
ROOT
ATOM      1  O   UNL     1      -2.961   6.109   8.154  1.00  0.00    -0.310 OA
ENDROOT
BRANCH   1   2
ATOM      2  C   UNL     1      -2.257   4.870   8.273  1.00  0.00     0.315 C 
ATOM      3  C   UNL     1      -0.562   3.040   9.761  1.00  0.00     0.018 C 
ATOM      4  C   UNL     1      -1.835   3.237  10.125  1.00  0.00     0.186 C 
ATOM      5  C   UNL     1      -0.045   3.765   8.548  1.00  0.00     0.059 C 
ATOM      6  O   UNL     1      -2.675   4.188   9.473  1.00  0.00    -0.472 OA
ATOM      7  C   UNL     1      -0.754   5.111   8.365  1.00  0.00     0.105 C 
ATOM      8  C   UNL     1       1.410   4.204   8.567  1.00  0.00     0.154 C 
ATOM      9  C   UNL     1       0.075   5.729   7.234  1.00  0.00     0.130 C 
ATOM     10  C   UNL     1       1.499   5.271   7.434  1.00  0.00     0.183 C 
ATOM     11  O   UNL     1       1.075   6.615   7.703  1.00  0.00    -0.360 OA
BRANCH   8  12
ATOM     12  O   UNL     1       2.241   3.089   8.259  1.00  0.00    -0.390 OA
ATOM     13  H   UNL     1       2.369   2.620   9.130  1.00  0.00     0.211 HD
ENDBRANCH   8  12
BRANCH   9  14
ATOM     14  C   UNL     1      -0.368   5.894   5.763  1.00  0.00     0.195 C 
BRANCH  14  15
ATOM     15  O   UNL     1      -0.693   4.663   5.126  1.00  0.00    -0.393 OA
ATOM     16  H   UNL     1       0.160   4.314   4.731  1.00  0.00     0.210 HD
ENDBRANCH  14  15
ENDBRANCH   9  14
ENDBRANCH   1   2
BRANCH   1  17
ATOM     17  C   UNL     1      -4.196   5.958   7.451  1.00  0.00     0.286 C 
ATOM     18  C   UNL     1      -4.876   7.359   7.295  1.00  0.00     0.202 C 
ATOM     19  O   UNL     1      -3.937   5.240   6.217  1.00  0.00    -0.341 OA
ATOM     20  C   UNL     1      -4.174   8.147   6.188  1.00  0.00     0.179 C 
ATOM     21  C   UNL     1      -4.369   5.839   4.971  1.00  0.00     0.178 C 
ATOM     22  C   UNL     1      -4.087   7.393   4.836  1.00  0.00     0.177 C 
BRANCH  18  23
ATOM     23  O   UNL     1      -6.275   7.257   7.046  1.00  0.00    -0.385 OA
ATOM     24  H   UNL     1      -6.717   8.090   7.365  1.00  0.00     0.211 HD
ENDBRANCH  18  23
BRANCH  20  25
ATOM     25  O   UNL     1      -4.729   9.426   6.035  1.00  0.00    -0.387 OA
ATOM     26  H   UNL     1      -4.889   9.791   6.952  1.00  0.00     0.211 HD
ENDBRANCH  20  25
BRANCH  21  27
ATOM     27  C   UNL     1      -5.828   5.412   4.612  1.00  0.00     0.191 C 
BRANCH  27  28
ATOM     28  O   UNL     1      -5.949   4.018   4.362  1.00  0.00    -0.394 OA
ATOM     29  H   UNL     1      -5.061   3.609   4.602  1.00  0.00     0.210 HD
ENDBRANCH  27  28
ENDBRANCH  21  27
BRANCH  22  30
ATOM     30  O   UNL     1      -2.874   7.744   4.200  1.00  0.00    -0.387 OA
ATOM     31  H   UNL     1      -2.482   6.956   3.753  1.00  0.00     0.211 HD
ENDBRANCH  22  30
ENDBRANCH   1  17
TORSDOF 10
ENDMDL
MODEL 7
REMARK VINA RESULT:    -5.117     14.192     16.654
REMARK INTER + INTRA:          -8.505
REMARK INTER:                  -7.347
REMARK INTRA:                  -1.159
REMARK UNBOUND:                -1.294
REMARK SMILES OC[C@@H]1O[C@@H](O[C@@H]2OC=C[C@@H]3[C@@H](O)[C@@H]4O[C@]4(CO)[C@@H]23)[C@H](O)[C@H](O)[C@H]1O
REMARK SMILES IDX 6 1 7 2 10 3 9 4 11 5 8 6 19 7 12 8 16 9 14 10 15 11 13 12
REMARK SMILES IDX 17 14 18 15 5 17 20 18 4 19 22 20 3 21 24 22 21 23 23 25
REMARK SMILES IDX 2 27 1 28 25 30
REMARK H PARENT 13 13 18 16 21 24 23 26 1 29 25 31
REMARK Flexibility Score: inf
ROOT
ATOM      1  O   UNL     1      -2.874   5.238   5.793  1.00  0.00    -0.310 OA
ENDROOT
BRANCH   1   2
ATOM      2  C   UNL     1      -3.733   5.935   4.888  1.00  0.00     0.315 C 
ATOM      3  C   UNL     1      -4.501   8.340   3.452  1.00  0.00     0.018 C 
ATOM      4  C   UNL     1      -3.407   7.656   3.097  1.00  0.00     0.186 C 
ATOM      5  C   UNL     1      -5.335   7.815   4.588  1.00  0.00     0.059 C 
ATOM      6  O   UNL     1      -2.950   6.519   3.828  1.00  0.00    -0.472 OA
ATOM      7  C   UNL     1      -4.472   7.061   5.605  1.00  0.00     0.105 C 
ATOM      8  C   UNL     1      -6.012   8.838   5.486  1.00  0.00     0.154 C 
ATOM      9  C   UNL     1      -5.483   6.825   6.733  1.00  0.00     0.130 C 
ATOM     10  C   UNL     1      -6.393   8.029   6.762  1.00  0.00     0.183 C 
ATOM     11  O   UNL     1      -5.393   7.791   7.764  1.00  0.00    -0.360 OA
BRANCH   8  12
ATOM     12  O   UNL     1      -7.188   9.321   4.842  1.00  0.00    -0.390 OA
ATOM     13  H   UNL     1      -7.625   9.909   5.520  1.00  0.00     0.211 HD
ENDBRANCH   8  12
BRANCH   9  14
ATOM     14  C   UNL     1      -6.150   5.479   7.093  1.00  0.00     0.195 C 
BRANCH  14  15
ATOM     15  O   UNL     1      -5.236   4.505   7.585  1.00  0.00    -0.393 OA
ATOM     16  H   UNL     1      -4.807   4.904   8.399  1.00  0.00     0.210 HD
ENDBRANCH  14  15
ENDBRANCH   9  14
ENDBRANCH   1   2
BRANCH   1  17
ATOM     17  C   UNL     1      -2.158   6.131   6.648  1.00  0.00     0.286 C 
ATOM     18  C   UNL     1      -2.132   5.547   8.100  1.00  0.00     0.202 C 
ATOM     19  O   UNL     1      -0.863   6.398   6.052  1.00  0.00    -0.341 OA
ATOM     20  C   UNL     1      -1.105   4.417   8.179  1.00  0.00     0.179 C 
ATOM     21  C   UNL     1       0.322   6.162   6.850  1.00  0.00     0.178 C 
ATOM     22  C   UNL     1       0.311   4.818   7.693  1.00  0.00     0.177 C 
BRANCH  18  23
ATOM     23  O   UNL     1      -1.873   6.547   9.082  1.00  0.00    -0.385 OA
ATOM     24  H   UNL     1      -1.271   6.164   9.776  1.00  0.00     0.211 HD
ENDBRANCH  18  23
BRANCH  20  25
ATOM     25  O   UNL     1      -1.072   3.839   9.456  1.00  0.00    -0.387 OA
ATOM     26  H   UNL     1      -0.377   3.121   9.439  1.00  0.00     0.211 HD
ENDBRANCH  20  25
BRANCH  21  27
ATOM     27  C   UNL     1       0.722   7.433   7.665  1.00  0.00     0.191 C 
BRANCH  27  28
ATOM     28  O   UNL     1       0.968   7.153   9.037  1.00  0.00    -0.394 OA
ATOM     29  H   UNL     1       0.124   7.393   9.531  1.00  0.00     0.210 HD
ENDBRANCH  27  28
ENDBRANCH  21  27
BRANCH  22  30
ATOM     30  O   UNL     1       0.910   3.698   7.070  1.00  0.00    -0.387 OA
ATOM     31  H   UNL     1       0.508   2.864   7.410  1.00  0.00     0.211 HD
ENDBRANCH  22  30
ENDBRANCH   1  17
TORSDOF 10
ENDMDL
MODEL 8
REMARK VINA RESULT:    -5.070     13.823     16.655
REMARK INTER + INTRA:          -8.439
REMARK INTER:                  -7.441
REMARK INTRA:                  -0.998
REMARK UNBOUND:                -1.294
REMARK SMILES OC[C@@H]1O[C@@H](O[C@@H]2OC=C[C@@H]3[C@@H](O)[C@@H]4O[C@]4(CO)[C@@H]23)[C@H](O)[C@H](O)[C@H]1O
REMARK SMILES IDX 6 1 7 2 10 3 9 4 11 5 8 6 19 7 12 8 16 9 14 10 15 11 13 12
REMARK SMILES IDX 17 14 18 15 5 17 20 18 4 19 22 20 3 21 24 22 21 23 23 25
REMARK SMILES IDX 2 27 1 28 25 30
REMARK H PARENT 13 13 18 16 21 24 23 26 1 29 25 31
REMARK Flexibility Score: inf
ROOT
ATOM      1  O   UNL     1      -2.028   6.232   4.926  1.00  0.00    -0.310 OA
ENDROOT
BRANCH   1   2
ATOM      2  C   UNL     1      -3.370   6.369   5.400  1.00  0.00     0.315 C 
ATOM      3  C   UNL     1      -6.241   6.327   4.959  1.00  0.00     0.018 C 
ATOM      4  C   UNL     1      -5.537   5.189   4.966  1.00  0.00     0.186 C 
ATOM      5  C   UNL     1      -5.513   7.619   5.215  1.00  0.00     0.059 C 
ATOM      6  O   UNL     1      -4.116   5.173   5.097  1.00  0.00    -0.472 OA
ATOM      7  C   UNL     1      -4.065   7.545   4.721  1.00  0.00     0.105 C 
ATOM      8  C   UNL     1      -6.007   8.853   4.479  1.00  0.00     0.154 C 
ATOM      9  C   UNL     1      -3.621   9.002   4.889  1.00  0.00     0.130 C 
ATOM     10  C   UNL     1      -4.826   9.862   4.595  1.00  0.00     0.183 C 
ATOM     11  O   UNL     1      -3.717   9.750   3.691  1.00  0.00    -0.360 OA
BRANCH   8  12
ATOM     12  O   UNL     1      -7.159   9.366   5.143  1.00  0.00    -0.390 OA
ATOM     13  H   UNL     1      -7.894   8.739   4.896  1.00  0.00     0.211 HD
ENDBRANCH   8  12
BRANCH   9  14
ATOM     14  C   UNL     1      -2.667   9.545   5.976  1.00  0.00     0.195 C 
BRANCH  14  15
ATOM     15  O   UNL     1      -3.134   9.327   7.303  1.00  0.00    -0.393 OA
ATOM     16  H   UNL     1      -2.506   8.668   7.721  1.00  0.00     0.210 HD
ENDBRANCH  14  15
ENDBRANCH   9  14
ENDBRANCH   1   2
BRANCH   1  17
ATOM     17  C   UNL     1      -1.246   5.383   5.768  1.00  0.00     0.286 C 
ATOM     18  C   UNL     1       0.149   6.048   6.018  1.00  0.00     0.202 C 
ATOM     19  O   UNL     1      -2.021   5.075   6.955  1.00  0.00    -0.341 OA
ATOM     20  C   UNL     1       0.004   7.174   7.042  1.00  0.00     0.179 C 
ATOM     21  C   UNL     1      -1.431   5.348   8.250  1.00  0.00     0.178 C 
ATOM     22  C   UNL     1      -0.673   6.737   8.366  1.00  0.00     0.177 C 
BRANCH  18  23
ATOM     23  O   UNL     1       1.133   5.102   6.429  1.00  0.00    -0.385 OA
ATOM     24  H   UNL     1       1.649   4.811   5.629  1.00  0.00     0.211 HD
ENDBRANCH  18  23
BRANCH  20  25
ATOM     25  O   UNL     1       1.226   7.821   7.272  1.00  0.00    -0.387 OA
ATOM     26  H   UNL     1       1.908   7.386   6.685  1.00  0.00     0.211 HD
ENDBRANCH  20  25
BRANCH  21  27
ATOM     27  C   UNL     1      -0.618   4.122   8.774  1.00  0.00     0.191 C 
BRANCH  27  28
ATOM     28  O   UNL     1       0.679   4.477   9.234  1.00  0.00    -0.394 OA
ATOM     29  H   UNL     1       1.316   3.814   8.824  1.00  0.00     0.210 HD
ENDBRANCH  27  28
ENDBRANCH  21  27
BRANCH  22  30
ATOM     30  O   UNL     1      -1.443   7.816   8.859  1.00  0.00    -0.387 OA
ATOM     31  H   UNL     1      -2.387   7.712   8.592  1.00  0.00     0.211 HD
ENDBRANCH  22  30
ENDBRANCH   1  17
TORSDOF 10
ENDMDL
MODEL 9
REMARK VINA RESULT:    -4.955     14.843     17.014
REMARK INTER + INTRA:          -8.276
REMARK INTER:                  -7.112
REMARK INTRA:                  -1.164
REMARK UNBOUND:                -1.294
REMARK SMILES OC[C@@H]1O[C@@H](O[C@@H]2OC=C[C@@H]3[C@@H](O)[C@@H]4O[C@]4(CO)[C@@H]23)[C@H](O)[C@H](O)[C@H]1O
REMARK SMILES IDX 6 1 7 2 10 3 9 4 11 5 8 6 19 7 12 8 16 9 14 10 15 11 13 12
REMARK SMILES IDX 17 14 18 15 5 17 20 18 4 19 22 20 3 21 24 22 21 23 23 25
REMARK SMILES IDX 2 27 1 28 25 30
REMARK H PARENT 13 13 18 16 21 24 23 26 1 29 25 31
REMARK Flexibility Score: inf
ROOT
ATOM      1  O   UNL     1      -3.599   5.283   6.265  1.00  0.00    -0.310 OA
ENDROOT
BRANCH   1   2
ATOM      2  C   UNL     1      -4.886   5.867   6.052  1.00  0.00     0.315 C 
ATOM      3  C   UNL     1      -6.641   8.177   5.910  1.00  0.00     0.018 C 
ATOM      4  C   UNL     1      -5.733   7.953   4.953  1.00  0.00     0.186 C 
ATOM      5  C   UNL     1      -6.749   7.187   7.038  1.00  0.00     0.059 C 
ATOM      6  O   UNL     1      -4.798   6.878   5.028  1.00  0.00    -0.472 OA
ATOM      7  C   UNL     1      -5.396   6.529   7.328  1.00  0.00     0.105 C 
ATOM      8  C   UNL     1      -7.104   7.734   8.412  1.00  0.00     0.154 C 
ATOM      9  C   UNL     1      -5.713   5.756   8.613  1.00  0.00     0.130 C 
ATOM     10  C   UNL     1      -6.703   6.590   9.390  1.00  0.00     0.183 C 
ATOM     11  O   UNL     1      -5.330   6.454   9.784  1.00  0.00    -0.360 OA
BRANCH   8  12
ATOM     12  O   UNL     1      -8.509   7.966   8.476  1.00  0.00    -0.390 OA
ATOM     13  H   UNL     1      -8.689   8.164   9.437  1.00  0.00     0.211 HD
ENDBRANCH   8  12
BRANCH   9  14
ATOM     14  C   UNL     1      -5.890   4.227   8.739  1.00  0.00     0.195 C 
BRANCH  14  15
ATOM     15  O   UNL     1      -4.665   3.505   8.664  1.00  0.00    -0.393 OA
ATOM     16  H   UNL     1      -4.319   3.630   7.731  1.00  0.00     0.210 HD
ENDBRANCH  14  15
ENDBRANCH   9  14
ENDBRANCH   1   2
BRANCH   1  17
ATOM     17  C   UNL     1      -2.659   6.231   6.775  1.00  0.00     0.286 C 
ATOM     18  C   UNL     1      -1.765   5.540   7.859  1.00  0.00     0.202 C 
ATOM     19  O   UNL     1      -1.951   6.823   5.656  1.00  0.00    -0.341 OA
ATOM     20  C   UNL     1      -0.722   4.656   7.175  1.00  0.00     0.179 C 
ATOM     21  C   UNL     1      -0.503   6.778   5.659  1.00  0.00     0.178 C 
ATOM     22  C   UNL     1       0.128   5.395   6.110  1.00  0.00     0.177 C 
BRANCH  18  23
ATOM     23  O   UNL     1      -1.148   6.482   8.732  1.00  0.00    -0.385 OA
ATOM     24  H   UNL     1      -0.985   7.325   8.228  1.00  0.00     0.211 HD
ENDBRANCH  18  23
BRANCH  20  25
ATOM     25  O   UNL     1       0.081   3.989   8.111  1.00  0.00    -0.387 OA
ATOM     26  H   UNL     1       0.939   3.756   7.653  1.00  0.00     0.211 HD
ENDBRANCH  20  25
BRANCH  21  27
ATOM     27  C   UNL     1       0.103   8.029   6.373  1.00  0.00     0.191 C 
BRANCH  27  28
ATOM     28  O   UNL     1       1.120   7.692   7.306  1.00  0.00    -0.394 OA
ATOM     29  H   UNL     1       0.974   6.726   7.549  1.00  0.00     0.210 HD
ENDBRANCH  27  28
ENDBRANCH  21  27
BRANCH  22  30
ATOM     30  O   UNL     1       0.433   4.490   5.067  1.00  0.00    -0.387 OA
ATOM     31  H   UNL     1      -0.029   3.631   5.215  1.00  0.00     0.211 HD
ENDBRANCH  22  30
ENDBRANCH   1  17
TORSDOF 10
ENDMDL
