MODEL 1
REMARK VINA RESULT:    -4.342      0.000      0.000
REMARK INTER + INTRA:          -6.281
REMARK INTER:                  -5.865
REMARK INTRA:                  -0.416
REMARK UNBOUND:                -0.416
REMARK SMILES CC[C@H](CC[C@H](C)[C@@H]1CC[C@@H]2[C@@H]3CC(=O)C4=CC(=O)CC[C@@]4(C)[C@@H]3CC[C@]21C)C(C)C
REMARK SMILES IDX 4 1 3 2 2 3 1 4 29 5 30 6 31 7 5 8 6 9 7 10 8 11 9 12 27 13
REMARK SMILES IDX 10 14 11 15 26 16 28 17 12 18 25 19 24 20 13 21 22 22 14 23
REMARK SMILES IDX 16 24 21 25 23 26 15 27 17 28 20 29 18 30 19 31
REMARK H PARENT
REMARK Flexibility Score: inf
ROOT
ATOM      1  C   UNL     1      23.557  23.360   4.799  1.00  0.00     0.004 C 
ENDROOT
BRANCH   1   2
ATOM      2  C   UNL     1      24.778  24.174   4.276  1.00  0.00    -0.009 C 
BRANCH   2   3
ATOM      3  C   UNL     1      25.405  23.478   3.029  1.00  0.00     0.000 C 
ATOM      4  C   UNL     1      26.935  23.592   2.998  1.00  0.00     0.004 C 
ENDBRANCH   2   3
BRANCH   2   5
ATOM      5  C   UNL     1      24.471  25.692   4.021  1.00  0.00    -0.014 C 
ATOM      6  C   UNL     1      23.534  26.263   5.097  1.00  0.00     0.007 C 
ATOM      7  C   UNL     1      23.844  25.928   2.635  1.00  0.00     0.007 C 
ENDBRANCH   2   5
ENDBRANCH   1   2
BRANCH   1   8
ATOM      8  C   UNL     1      23.887  22.284   5.864  1.00  0.00     0.004 C 
BRANCH   8   9
ATOM      9  C   UNL     1      24.154  20.874   5.255  1.00  0.00    -0.011 C 
ATOM     10  C   UNL     1      22.871  20.024   5.339  1.00  0.00     0.008 C 
BRANCH   9  11
ATOM     11  C   UNL     1      25.367  20.179   5.979  1.00  0.00    -0.002 C 
ATOM     12  C   UNL     1      25.068  19.882   7.477  1.00  0.00     0.005 C 
ATOM     13  C   UNL     1      26.751  20.911   6.019  1.00  0.00    -0.026 C 
ATOM     14  C   UNL     1      26.391  20.021   8.247  1.00  0.00     0.005 C 
ATOM     15  C   UNL     1      27.442  20.140   7.154  1.00  0.00    -0.001 C 
ATOM     16  C   UNL     1      27.639  20.711   4.767  1.00  0.00     0.007 C 
ATOM     17  C   UNL     1      26.553  22.424   6.343  1.00  0.00     0.012 C 
ATOM     18  C   UNL     1      28.892  20.572   7.518  1.00  0.00     0.004 C 
ATOM     19  C   UNL     1      29.028  21.341   4.972  1.00  0.00     0.005 C 
ATOM     20  C   UNL     1      29.794  20.862   6.252  1.00  0.00     0.003 C 
ATOM     21  C   UNL     1      29.043  21.587   8.666  1.00  0.00     0.085 C 
ATOM     22  C   UNL     1      31.104  21.720   6.549  1.00  0.00    -0.000 C 
ATOM     23  C   UNL     1      30.489  21.673   9.055  1.00  0.00     0.159 C 
ATOM     24  C   UNL     1      31.536  21.562   8.012  1.00  0.00     0.005 C 
ATOM     25  C   UNL     1      32.245  21.235   5.588  1.00  0.00     0.020 C 
ATOM     26  C   UNL     1      30.877  23.243   6.324  1.00  0.00     0.017 C 
ATOM     27  O   UNL     1      30.798  21.846  10.266  1.00  0.00    -0.295 OA
ATOM     28  C   UNL     1      32.836  21.514   8.373  1.00  0.00     0.055 C 
ATOM     29  C   UNL     1      33.614  21.825   5.943  1.00  0.00     0.081 C 
ATOM     30  C   UNL     1      33.920  21.554   7.383  1.00  0.00     0.156 C 
ATOM     31  O   UNL     1      35.115  21.438   7.760  1.00  0.00    -0.295 OA
ENDBRANCH   9  11
ENDBRANCH   8   9
ENDBRANCH   1   8
TORSDOF 6
ENDMDL
MODEL 2
REMARK VINA RESULT:    -4.181      1.472      2.800
REMARK INTER + INTRA:          -6.064
REMARK INTER:                  -6.418
REMARK INTRA:                   0.355
REMARK UNBOUND:                -0.416
REMARK SMILES CC[C@H](CC[C@H](C)[C@@H]1CC[C@@H]2[C@@H]3CC(=O)C4=CC(=O)CC[C@@]4(C)[C@@H]3CC[C@]21C)C(C)C
REMARK SMILES IDX 4 1 3 2 2 3 1 4 29 5 30 6 31 7 5 8 6 9 7 10 8 11 9 12 27 13
REMARK SMILES IDX 10 14 11 15 26 16 28 17 12 18 25 19 24 20 13 21 22 22 14 23
REMARK SMILES IDX 16 24 21 25 23 26 15 27 17 28 20 29 18 30 19 31
REMARK H PARENT
REMARK Flexibility Score: inf
ROOT
ATOM      1  C   UNL     1      23.853  23.805   5.628  1.00  0.00     0.004 C 
ENDROOT
BRANCH   1   2
ATOM      2  C   UNL     1      23.377  24.813   4.540  1.00  0.00    -0.009 C 
BRANCH   2   3
ATOM      3  C   UNL     1      23.499  26.278   5.060  1.00  0.00     0.000 C 
ATOM      4  C   UNL     1      24.895  26.594   5.613  1.00  0.00     0.004 C 
ENDBRANCH   2   3
BRANCH   2   5
ATOM      5  C   UNL     1      24.063  24.617   3.142  1.00  0.00    -0.014 C 
ATOM      6  C   UNL     1      25.559  24.295   3.293  1.00  0.00     0.007 C 
ATOM      7  C   UNL     1      23.907  25.857   2.244  1.00  0.00     0.007 C 
ENDBRANCH   2   5
ENDBRANCH   1   2
BRANCH   1   8
ATOM      8  C   UNL     1      23.084  22.461   5.665  1.00  0.00     0.004 C 
BRANCH   8   9
ATOM      9  C   UNL     1      23.994  21.222   5.401  1.00  0.00    -0.011 C 
ATOM     10  C   UNL     1      24.122  20.392   6.694  1.00  0.00     0.008 C 
BRANCH   9  11
ATOM     11  C   UNL     1      25.398  21.673   4.852  1.00  0.00    -0.002 C 
ATOM     12  C   UNL     1      25.886  20.779   3.675  1.00  0.00     0.005 C 
ATOM     13  C   UNL     1      26.624  21.697   5.826  1.00  0.00    -0.026 C 
ATOM     14  C   UNL     1      27.418  20.694   3.764  1.00  0.00     0.005 C 
ATOM     15  C   UNL     1      27.783  21.731   4.818  1.00  0.00    -0.001 C 
ATOM     16  C   UNL     1      26.766  22.983   6.676  1.00  0.00     0.007 C 
ATOM     17  C   UNL     1      26.632  20.418   6.719  1.00  0.00     0.012 C 
ATOM     18  C   UNL     1      29.225  21.767   5.401  1.00  0.00     0.004 C 
ATOM     19  C   UNL     1      28.077  22.969   7.481  1.00  0.00     0.005 C 
ATOM     20  C   UNL     1      29.375  22.745   6.633  1.00  0.00     0.003 C 
ATOM     21  C   UNL     1      29.941  20.412   5.559  1.00  0.00     0.085 C 
ATOM     22  C   UNL     1      30.668  22.492   7.532  1.00  0.00    -0.000 C 
ATOM     23  C   UNL     1      31.388  20.658   5.867  1.00  0.00     0.159 C 
ATOM     24  C   UNL     1      31.771  21.810   6.715  1.00  0.00     0.005 C 
ATOM     25  C   UNL     1      31.169  23.872   8.082  1.00  0.00     0.020 C 
ATOM     26  C   UNL     1      30.374  21.552   8.737  1.00  0.00     0.017 C 
ATOM     27  O   UNL     1      32.263  19.875   5.403  1.00  0.00    -0.295 OA
ATOM     28  C   UNL     1      33.077  22.105   6.890  1.00  0.00     0.055 C 
ATOM     29  C   UNL     1      32.538  23.779   8.764  1.00  0.00     0.081 C 
ATOM     30  C   UNL     1      33.521  23.139   7.834  1.00  0.00     0.156 C 
ATOM     31  O   UNL     1      34.743  23.428   7.915  1.00  0.00    -0.295 OA
ENDBRANCH   9  11
ENDBRANCH   8   9
ENDBRANCH   1   8
TORSDOF 6
ENDMDL
MODEL 3
REMARK VINA RESULT:    -3.824      3.100      7.695
REMARK INTER + INTRA:          -5.582
REMARK INTER:                  -5.037
REMARK INTRA:                  -0.545
REMARK UNBOUND:                -0.416
REMARK SMILES CC[C@H](CC[C@H](C)[C@@H]1CC[C@@H]2[C@@H]3CC(=O)C4=CC(=O)CC[C@@]4(C)[C@@H]3CC[C@]21C)C(C)C
REMARK SMILES IDX 4 1 3 2 2 3 1 4 29 5 30 6 31 7 5 8 6 9 7 10 8 11 9 12 27 13
REMARK SMILES IDX 10 14 11 15 26 16 28 17 12 18 25 19 24 20 13 21 22 22 14 23
REMARK SMILES IDX 16 24 21 25 23 26 15 27 17 28 20 29 18 30 19 31
REMARK H PARENT
REMARK Flexibility Score: inf
ROOT
ATOM      1  C   UNL     1      31.780  21.356   8.201  1.00  0.00     0.004 C 
ENDROOT
BRANCH   1   2
ATOM      2  C   UNL     1      32.493  22.718   7.943  1.00  0.00    -0.009 C 
BRANCH   2   3
ATOM      3  C   UNL     1      33.600  22.559   6.857  1.00  0.00     0.000 C 
ATOM      4  C   UNL     1      34.944  22.109   7.445  1.00  0.00     0.004 C 
ENDBRANCH   2   3
BRANCH   2   5
ATOM      5  C   UNL     1      31.512  23.902   7.627  1.00  0.00    -0.014 C 
ATOM      6  C   UNL     1      32.089  25.247   8.097  1.00  0.00     0.007 C 
ATOM      7  C   UNL     1      30.132  23.696   8.277  1.00  0.00     0.007 C 
ENDBRANCH   2   5
ENDBRANCH   1   2
BRANCH   1   8
ATOM      8  C   UNL     1      31.981  20.286   7.099  1.00  0.00     0.004 C 
BRANCH   8   9
ATOM      9  C   UNL     1      30.656  19.875   6.389  1.00  0.00    -0.011 C 
ATOM     10  C   UNL     1      30.815  20.039   4.865  1.00  0.00     0.008 C 
BRANCH   9  11
ATOM     11  C   UNL     1      29.446  20.714   6.946  1.00  0.00    -0.002 C 
ATOM     12  C   UNL     1      28.528  19.876   7.883  1.00  0.00     0.005 C 
ATOM     13  C   UNL     1      28.441  21.364   5.935  1.00  0.00    -0.026 C 
ATOM     14  C   UNL     1      27.090  20.386   7.698  1.00  0.00     0.005 C 
ATOM     15  C   UNL     1      27.253  21.650   6.866  1.00  0.00    -0.001 C 
ATOM     16  C   UNL     1      28.874  22.737   5.366  1.00  0.00     0.007 C 
ATOM     17  C   UNL     1      28.093  20.357   4.796  1.00  0.00     0.012 C 
ATOM     18  C   UNL     1      26.004  22.323   6.228  1.00  0.00     0.004 C 
ATOM     19  C   UNL     1      27.756  23.354   4.509  1.00  0.00     0.005 C 
ATOM     20  C   UNL     1      26.367  23.487   5.221  1.00  0.00     0.003 C 
ATOM     21  C   UNL     1      24.879  21.384   5.754  1.00  0.00     0.085 C 
ATOM     22  C   UNL     1      25.193  23.895   4.222  1.00  0.00    -0.000 C 
ATOM     23  C   UNL     1      23.665  22.201   5.428  1.00  0.00     0.159 C 
ATOM     24  C   UNL     1      23.826  23.542   4.820  1.00  0.00     0.005 C 
ATOM     25  C   UNL     1      25.288  25.436   3.947  1.00  0.00     0.020 C 
ATOM     26  C   UNL     1      25.283  23.140   2.865  1.00  0.00     0.017 C 
ATOM     27  O   UNL     1      22.518  21.734   5.671  1.00  0.00    -0.295 OA
ATOM     28  C   UNL     1      22.743  24.330   4.642  1.00  0.00     0.055 C 
ATOM     29  C   UNL     1      24.073  25.981   3.190  1.00  0.00     0.081 C 
ATOM     30  C   UNL     1      22.818  25.602   3.912  1.00  0.00     0.156 C 
ATOM     31  O   UNL     1      21.799  26.336   3.829  1.00  0.00    -0.295 OA
ENDBRANCH   9  11
ENDBRANCH   8   9
ENDBRANCH   1   8
TORSDOF 6
ENDMDL
MODEL 4
REMARK VINA RESULT:    -1.659      1.786      4.132
REMARK INTER + INTRA:          -2.657
REMARK INTER:                  -2.391
REMARK INTRA:                  -0.266
REMARK UNBOUND:                -0.416
REMARK SMILES CC[C@H](CC[C@H](C)[C@@H]1CC[C@@H]2[C@@H]3CC(=O)C4=CC(=O)CC[C@@]4(C)[C@@H]3CC[C@]21C)C(C)C
REMARK SMILES IDX 4 1 3 2 2 3 1 4 29 5 30 6 31 7 5 8 6 9 7 10 8 11 9 12 27 13
REMARK SMILES IDX 10 14 11 15 26 16 28 17 12 18 25 19 24 20 13 21 22 22 14 23
REMARK SMILES IDX 16 24 21 25 23 26 15 27 17 28 20 29 18 30 19 31
REMARK H PARENT
REMARK Flexibility Score: inf
ROOT
ATOM      1  C   UNL     1      22.099  20.689   5.494  1.00  0.00     0.004 C 
ENDROOT
BRANCH   1   2
ATOM      2  C   UNL     1      22.268  19.891   6.821  1.00  0.00    -0.009 C 
BRANCH   2   3
ATOM      3  C   UNL     1      23.729  20.014   7.351  1.00  0.00     0.000 C 
ATOM      4  C   UNL     1      23.810  19.949   8.882  1.00  0.00     0.004 C 
ENDBRANCH   2   3
BRANCH   2   5
ATOM      5  C   UNL     1      21.203  20.243   7.919  1.00  0.00    -0.014 C 
ATOM      6  C   UNL     1      19.780  19.902   7.449  1.00  0.00     0.007 C 
ATOM      7  C   UNL     1      21.255  21.729   8.317  1.00  0.00     0.007 C 
ENDBRANCH   2   5
ENDBRANCH   1   2
BRANCH   1   8
ATOM      8  C   UNL     1      23.408  21.265   4.896  1.00  0.00     0.004 C 
BRANCH   8   9
ATOM      9  C   UNL     1      24.023  22.413   5.751  1.00  0.00    -0.011 C 
ATOM     10  C   UNL     1      23.074  23.628   5.743  1.00  0.00     0.008 C 
BRANCH   9  11
ATOM     11  C   UNL     1      25.459  22.788   5.225  1.00  0.00    -0.002 C 
ATOM     12  C   UNL     1      25.728  22.227   3.799  1.00  0.00     0.005 C 
ATOM     13  C   UNL     1      26.713  22.328   6.043  1.00  0.00    -0.026 C 
ATOM     14  C   UNL     1      27.225  21.885   3.713  1.00  0.00     0.005 C 
ATOM     15  C   UNL     1      27.812  22.486   4.982  1.00  0.00    -0.001 C 
ATOM     16  C   UNL     1      27.115  23.259   7.212  1.00  0.00     0.007 C 
ATOM     17  C   UNL     1      26.536  20.854   6.522  1.00  0.00     0.012 C 
ATOM     18  C   UNL     1      29.263  22.122   5.411  1.00  0.00     0.004 C 
ATOM     19  C   UNL     1      28.438  22.802   7.849  1.00  0.00     0.005 C 
ATOM     20  C   UNL     1      29.638  22.648   6.853  1.00  0.00     0.003 C 
ATOM     21  C   UNL     1      29.737  20.690   5.099  1.00  0.00     0.085 C 
ATOM     22  C   UNL     1      30.905  21.939   7.513  1.00  0.00    -0.000 C 
ATOM     23  C   UNL     1      31.218  20.606   5.326  1.00  0.00     0.159 C 
ATOM     24  C   UNL     1      31.834  21.375   6.431  1.00  0.00     0.005 C 
ATOM     25  C   UNL     1      31.665  22.994   8.389  1.00  0.00     0.020 C 
ATOM     26  C   UNL     1      30.507  20.736   8.416  1.00  0.00     0.017 C 
ATOM     27  O   UNL     1      31.921  19.875   4.574  1.00  0.00    -0.295 OA
ATOM     28  C   UNL     1      33.179  21.399   6.559  1.00  0.00     0.055 C 
ATOM     29  C   UNL     1      33.026  22.491   8.881  1.00  0.00     0.081 C 
ATOM     30  C   UNL     1      33.839  22.018   7.716  1.00  0.00     0.156 C 
ATOM     31  O   UNL     1      35.095  22.078   7.761  1.00  0.00    -0.295 OA
ENDBRANCH   9  11
ENDBRANCH   8   9
ENDBRANCH   1   8
TORSDOF 6
ENDMDL
