MODEL 1
REMARK VINA RESULT:    -5.064      0.000      0.000
REMARK INTER + INTRA:         -10.058
REMARK INTER:                  -8.912
REMARK INTRA:                  -1.146
REMARK UNBOUND:                -1.146
REMARK SMILES CCCCCCCCCCCCCCC(=O)[O-]
REMARK SMILES IDX 9 1 10 2 11 3 12 4 13 5 14 6 15 7 16 8 17 9 8 10 7 11 6 12
REMARK SMILES IDX 5 13 4 14 3 15 2 16 1 17
REMARK H PARENT
REMARK Flexibility Score: inf
ROOT
ATOM      1  C   UNL     1      14.162 -23.090 -28.406  1.00  0.00     0.000 C 
ENDROOT
BRANCH   1   2
ATOM      2  C   UNL     1      12.689 -22.665 -28.332  1.00  0.00     0.000 C 
BRANCH   2   3
ATOM      3  C   UNL     1      12.166 -22.749 -26.890  1.00  0.00     0.000 C 
BRANCH   3   4
ATOM      4  C   UNL     1      11.964 -21.367 -26.242  1.00  0.00     0.000 C 
BRANCH   4   5
ATOM      5  C   UNL     1      12.280 -20.166 -27.156  1.00  0.00     0.006 C 
BRANCH   5   6
ATOM      6  C   UNL     1      12.916 -18.967 -26.435  1.00  0.00     0.053 C 
BRANCH   6   7
ATOM      7  C   UNL     1      12.111 -18.534 -25.248  1.00  0.00     0.041 C 
ATOM      8  O   UNL     1      12.648 -18.457 -24.112  1.00  0.00    -0.550 OA
ATOM      9  O   UNL     1      10.775 -18.185 -25.403  1.00  0.00    -0.550 OA
ENDBRANCH   6   7
ENDBRANCH   5   6
ENDBRANCH   4   5
ENDBRANCH   3   4
ENDBRANCH   2   3
ENDBRANCH   1   2
BRANCH   1  10
ATOM     10  C   UNL     1      14.827 -23.172 -27.022  1.00  0.00     0.000 C 
BRANCH  10  11
ATOM     11  C   UNL     1      16.348 -23.371 -27.107  1.00  0.00    -0.000 C 
BRANCH  11  12
ATOM     12  C   UNL     1      17.087 -22.040 -26.906  1.00  0.00    -0.000 C 
BRANCH  12  13
ATOM     13  C   UNL     1      18.424 -22.208 -26.167  1.00  0.00    -0.000 C 
BRANCH  13  14
ATOM     14  C   UNL     1      18.447 -23.445 -25.258  1.00  0.00    -0.000 C 
BRANCH  14  15
ATOM     15  C   UNL     1      18.554 -23.037 -23.780  1.00  0.00    -0.000 C 
BRANCH  15  16
ATOM     16  C   UNL     1      17.605 -23.839 -22.875  1.00  0.00    -0.003 C 
ATOM     17  C   UNL     1      16.460 -24.492 -23.649  1.00  0.00     0.004 C 
ENDBRANCH  15  16
ENDBRANCH  14  15
ENDBRANCH  13  14
ENDBRANCH  12  13
ENDBRANCH  11  12
ENDBRANCH  10  11
ENDBRANCH   1  10
TORSDOF 13
ENDMDL
MODEL 2
REMARK VINA RESULT:    -4.995      3.204      4.656
REMARK INTER + INTRA:          -9.936
REMARK INTER:                  -9.210
REMARK INTRA:                  -0.726
REMARK UNBOUND:                -1.146
REMARK SMILES CCCCCCCCCCCCCCC(=O)[O-]
REMARK SMILES IDX 9 1 10 2 11 3 12 4 13 5 14 6 15 7 16 8 17 9 8 10 7 11 6 12
REMARK SMILES IDX 5 13 4 14 3 15 2 16 1 17
REMARK H PARENT
REMARK Flexibility Score: inf
ROOT
ATOM      1  C   UNL     1      11.862 -20.471 -26.429  1.00  0.00     0.000 C 
ENDROOT
BRANCH   1   2
ATOM      2  C   UNL     1      12.563 -19.110 -26.313  1.00  0.00     0.000 C 
BRANCH   2   3
ATOM      3  C   UNL     1      12.107 -18.161 -27.432  1.00  0.00     0.000 C 
BRANCH   3   4
ATOM      4  C   UNL     1      10.592 -17.892 -27.411  1.00  0.00     0.000 C 
BRANCH   4   5
ATOM      5  C   UNL     1       9.889 -18.007 -28.780  1.00  0.00     0.006 C 
BRANCH   5   6
ATOM      6  C   UNL     1       8.640 -17.125 -28.931  1.00  0.00     0.053 C 
BRANCH   6   7
ATOM      7  C   UNL     1       8.472 -16.626 -30.333  1.00  0.00     0.041 C 
ATOM      8  O   UNL     1       7.509 -15.869 -30.625  1.00  0.00    -0.550 OA
ATOM      9  O   UNL     1       9.398 -16.969 -31.310  1.00  0.00    -0.550 OA
ENDBRANCH   6   7
ENDBRANCH   5   6
ENDBRANCH   4   5
ENDBRANCH   3   4
ENDBRANCH   2   3
ENDBRANCH   1   2
BRANCH   1  10
ATOM     10  C   UNL     1      12.405 -21.321 -27.589  1.00  0.00     0.000 C 
BRANCH  10  11
ATOM     11  C   UNL     1      13.106 -22.602 -27.107  1.00  0.00    -0.000 C 
BRANCH  11  12
ATOM     12  C   UNL     1      13.675 -23.393 -28.294  1.00  0.00    -0.000 C 
BRANCH  12  13
ATOM     13  C   UNL     1      15.205 -23.281 -28.402  1.00  0.00    -0.000 C 
BRANCH  13  14
ATOM     14  C   UNL     1      15.841 -22.641 -27.160  1.00  0.00    -0.000 C 
BRANCH  14  15
ATOM     15  C   UNL     1      16.557 -23.699 -26.305  1.00  0.00    -0.000 C 
BRANCH  15  16
ATOM     16  C   UNL     1      18.030 -23.348 -26.041  1.00  0.00    -0.003 C 
ATOM     17  C   UNL     1      18.309 -21.849 -26.149  1.00  0.00     0.004 C 
ENDBRANCH  15  16
ENDBRANCH  14  15
ENDBRANCH  13  14
ENDBRANCH  12  13
ENDBRANCH  11  12
ENDBRANCH  10  11
ENDBRANCH   1  10
TORSDOF 13
ENDMDL
MODEL 3
REMARK VINA RESULT:    -4.930      4.685      7.698
REMARK INTER + INTRA:          -9.822
REMARK INTER:                  -8.518
REMARK INTRA:                  -1.304
REMARK UNBOUND:                -1.146
REMARK SMILES CCCCCCCCCCCCCCC(=O)[O-]
REMARK SMILES IDX 9 1 10 2 11 3 12 4 13 5 14 6 15 7 16 8 17 9 8 10 7 11 6 12
REMARK SMILES IDX 5 13 4 14 3 15 2 16 1 17
REMARK H PARENT
REMARK Flexibility Score: inf
ROOT
ATOM      1  C   UNL     1      15.603 -23.029 -27.231  1.00  0.00     0.000 C 
ENDROOT
BRANCH   1   2
ATOM      2  C   UNL     1      16.606 -23.765 -26.331  1.00  0.00     0.000 C 
BRANCH   2   3
ATOM      3  C   UNL     1      17.686 -24.464 -27.172  1.00  0.00     0.000 C 
BRANCH   3   4
ATOM      4  C   UNL     1      17.799 -25.969 -26.872  1.00  0.00     0.000 C 
BRANCH   4   5
ATOM      5  C   UNL     1      17.983 -26.870 -28.112  1.00  0.00     0.006 C 
BRANCH   5   6
ATOM      6  C   UNL     1      17.124 -28.143 -28.107  1.00  0.00     0.053 C 
BRANCH   6   7
ATOM      7  C   UNL     1      16.202 -28.203 -29.286  1.00  0.00     0.041 C 
ATOM      8  O   UNL     1      15.495 -27.207 -29.589  1.00  0.00    -0.550 OA
ATOM      9  O   UNL     1      16.150 -29.349 -30.071  1.00  0.00    -0.550 OA
ENDBRANCH   6   7
ENDBRANCH   5   6
ENDBRANCH   4   5
ENDBRANCH   3   4
ENDBRANCH   2   3
ENDBRANCH   1   2
BRANCH   1  10
ATOM     10  C   UNL     1      15.414 -23.713 -28.594  1.00  0.00     0.000 C 
BRANCH  10  11
ATOM     11  C   UNL     1      14.093 -23.323 -29.275  1.00  0.00    -0.000 C 
BRANCH  11  12
ATOM     12  C   UNL     1      12.949 -24.240 -28.816  1.00  0.00    -0.000 C 
BRANCH  12  13
ATOM     13  C   UNL     1      11.684 -23.459 -28.424  1.00  0.00    -0.000 C 
BRANCH  13  14
ATOM     14  C   UNL     1      11.457 -23.422 -26.906  1.00  0.00    -0.000 C 
BRANCH  14  15
ATOM     15  C   UNL     1      12.115 -22.182 -26.283  1.00  0.00    -0.000 C 
BRANCH  15  16
ATOM     16  C   UNL     1      12.151 -20.985 -27.247  1.00  0.00    -0.003 C 
ATOM     17  C   UNL     1      12.528 -19.677 -26.551  1.00  0.00     0.004 C 
ENDBRANCH  15  16
ENDBRANCH  14  15
ENDBRANCH  13  14
ENDBRANCH  12  13
ENDBRANCH  11  12
ENDBRANCH  10  11
ENDBRANCH   1  10
TORSDOF 13
ENDMDL
MODEL 4
REMARK VINA RESULT:    -4.929      3.092      4.556
REMARK INTER + INTRA:          -9.820
REMARK INTER:                  -8.871
REMARK INTRA:                  -0.950
REMARK UNBOUND:                -1.146
REMARK SMILES CCCCCCCCCCCCCCC(=O)[O-]
REMARK SMILES IDX 9 1 10 2 11 3 12 4 13 5 14 6 15 7 16 8 17 9 8 10 7 11 6 12
REMARK SMILES IDX 5 13 4 14 3 15 2 16 1 17
REMARK H PARENT
REMARK Flexibility Score: inf
ROOT
ATOM      1  C   UNL     1      12.224 -20.428 -27.446  1.00  0.00     0.000 C 
ENDROOT
BRANCH   1   2
ATOM      2  C   UNL     1      12.888 -19.294 -26.650  1.00  0.00     0.000 C 
BRANCH   2   3
ATOM      3  C   UNL     1      12.037 -18.910 -25.430  1.00  0.00     0.000 C 
BRANCH   3   4
ATOM      4  C   UNL     1      10.557 -18.676 -25.779  1.00  0.00     0.000 C 
BRANCH   4   5
ATOM      5  C   UNL     1      10.270 -17.388 -26.580  1.00  0.00     0.006 C 
BRANCH   5   6
ATOM      6  C   UNL     1       9.029 -17.462 -27.482  1.00  0.00     0.053 C 
BRANCH   6   7
ATOM      7  C   UNL     1       9.391 -17.670 -28.921  1.00  0.00     0.041 C 
ATOM      8  O   UNL     1      10.594 -17.836 -29.253  1.00  0.00    -0.550 OA
ATOM      9  O   UNL     1       8.397 -17.713 -29.890  1.00  0.00    -0.550 OA
ENDBRANCH   6   7
ENDBRANCH   5   6
ENDBRANCH   4   5
ENDBRANCH   3   4
ENDBRANCH   2   3
ENDBRANCH   1   2
BRANCH   1  10
ATOM     10  C   UNL     1      12.198 -21.757 -26.675  1.00  0.00     0.000 C 
BRANCH  10  11
ATOM     11  C   UNL     1      13.049 -22.848 -27.345  1.00  0.00    -0.000 C 
BRANCH  11  12
ATOM     12  C   UNL     1      14.539 -22.647 -27.033  1.00  0.00    -0.000 C 
BRANCH  12  13
ATOM     13  C   UNL     1      15.457 -23.342 -28.051  1.00  0.00    -0.000 C 
BRANCH  13  14
ATOM     14  C   UNL     1      14.679 -24.182 -29.074  1.00  0.00    -0.000 C 
BRANCH  14  15
ATOM     15  C   UNL     1      15.599 -25.205 -29.757  1.00  0.00    -0.000 C 
BRANCH  15  16
ATOM     16  C   UNL     1      16.816 -25.575 -28.893  1.00  0.00    -0.003 C 
ATOM     17  C   UNL     1      16.955 -27.082 -28.683  1.00  0.00     0.004 C 
ENDBRANCH  15  16
ENDBRANCH  14  15
ENDBRANCH  13  14
ENDBRANCH  12  13
ENDBRANCH  11  12
ENDBRANCH  10  11
ENDBRANCH   1  10
TORSDOF 13
ENDMDL
MODEL 5
REMARK VINA RESULT:    -4.910      4.589      7.469
REMARK INTER + INTRA:          -9.788
REMARK INTER:                  -8.614
REMARK INTRA:                  -1.174
REMARK UNBOUND:                -1.146
REMARK SMILES CCCCCCCCCCCCCCC(=O)[O-]
REMARK SMILES IDX 9 1 10 2 11 3 12 4 13 5 14 6 15 7 16 8 17 9 8 10 7 11 6 12
REMARK SMILES IDX 5 13 4 14 3 15 2 16 1 17
REMARK H PARENT
REMARK Flexibility Score: inf
ROOT
ATOM      1  C   UNL     1      17.146 -24.042 -25.119  1.00  0.00     0.000 C 
ENDROOT
BRANCH   1   2
ATOM      2  C   UNL     1      17.748 -25.442 -25.309  1.00  0.00     0.000 C 
BRANCH   2   3
ATOM      3  C   UNL     1      18.634 -25.492 -26.562  1.00  0.00     0.000 C 
BRANCH   3   4
ATOM      4  C   UNL     1      17.878 -25.970 -27.815  1.00  0.00     0.000 C 
BRANCH   4   5
ATOM      5  C   UNL     1      18.294 -27.360 -28.338  1.00  0.00     0.006 C 
BRANCH   5   6
ATOM      6  C   UNL     1      17.333 -27.964 -29.374  1.00  0.00     0.053 C 
BRANCH   6   7
ATOM      7  C   UNL     1      15.994 -28.278 -28.782  1.00  0.00     0.041 C 
ATOM      8  O   UNL     1      15.912 -28.949 -27.720  1.00  0.00    -0.550 OA
ATOM      9  O   UNL     1      14.836 -27.801 -29.385  1.00  0.00    -0.550 OA
ENDBRANCH   6   7
ENDBRANCH   5   6
ENDBRANCH   4   5
ENDBRANCH   3   4
ENDBRANCH   2   3
ENDBRANCH   1   2
BRANCH   1  10
ATOM     10  C   UNL     1      17.949 -22.948 -25.840  1.00  0.00     0.000 C 
BRANCH  10  11
ATOM     11  C   UNL     1      17.159 -22.290 -26.983  1.00  0.00    -0.000 C 
BRANCH  11  12
ATOM     12  C   UNL     1      15.693 -22.747 -26.969  1.00  0.00    -0.000 C 
BRANCH  12  13
ATOM     13  C   UNL     1      15.222 -23.271 -28.335  1.00  0.00    -0.000 C 
BRANCH  13  14
ATOM     14  C   UNL     1      13.716 -23.072 -28.558  1.00  0.00    -0.000 C 
BRANCH  14  15
ATOM     15  C   UNL     1      13.108 -22.199 -27.450  1.00  0.00    -0.000 C 
BRANCH  15  16
ATOM     16  C   UNL     1      12.094 -22.963 -26.584  1.00  0.00    -0.003 C 
ATOM     17  C   UNL     1      11.057 -23.718 -27.415  1.00  0.00     0.004 C 
ENDBRANCH  15  16
ENDBRANCH  14  15
ENDBRANCH  13  14
ENDBRANCH  12  13
ENDBRANCH  11  12
ENDBRANCH  10  11
ENDBRANCH   1  10
TORSDOF 13
ENDMDL
MODEL 6
REMARK VINA RESULT:    -4.896      2.289      3.146
REMARK INTER + INTRA:          -9.763
REMARK INTER:                  -8.689
REMARK INTRA:                  -1.074
REMARK UNBOUND:                -1.146
REMARK SMILES CCCCCCCCCCCCCCC(=O)[O-]
REMARK SMILES IDX 9 1 10 2 11 3 12 4 13 5 14 6 15 7 16 8 17 9 8 10 7 11 6 12
REMARK SMILES IDX 5 13 4 14 3 15 2 16 1 17
REMARK H PARENT
REMARK Flexibility Score: inf
ROOT
ATOM      1  C   UNL     1      14.385 -22.892 -27.371  1.00  0.00     0.000 C 
ENDROOT
BRANCH   1   2
ATOM      2  C   UNL     1      13.440 -22.594 -28.545  1.00  0.00     0.000 C 
BRANCH   2   3
ATOM      3  C   UNL     1      12.127 -21.971 -28.047  1.00  0.00     0.000 C 
BRANCH   3   4
ATOM      4  C   UNL     1      12.288 -21.217 -26.714  1.00  0.00     0.000 C 
BRANCH   4   5
ATOM      5  C   UNL     1      12.502 -19.695 -26.847  1.00  0.00     0.006 C 
BRANCH   5   6
ATOM      6  C   UNL     1      11.980 -19.090 -28.160  1.00  0.00     0.053 C 
BRANCH   6   7
ATOM      7  C   UNL     1      10.639 -18.447 -27.988  1.00  0.00     0.041 C 
ATOM      8  O   UNL     1       9.820 -18.422 -28.944  1.00  0.00    -0.550 OA
ATOM      9  O   UNL     1      10.280 -17.903 -26.761  1.00  0.00    -0.550 OA
ENDBRANCH   6   7
ENDBRANCH   5   6
ENDBRANCH   4   5
ENDBRANCH   3   4
ENDBRANCH   2   3
ENDBRANCH   1   2
BRANCH   1  10
ATOM     10  C   UNL     1      15.830 -23.152 -27.825  1.00  0.00     0.000 C 
BRANCH  10  11
ATOM     11  C   UNL     1      16.862 -22.826 -26.732  1.00  0.00    -0.000 C 
BRANCH  11  12
ATOM     12  C   UNL     1      16.773 -23.835 -25.578  1.00  0.00    -0.000 C 
BRANCH  12  13
ATOM     13  C   UNL     1      17.444 -25.177 -25.910  1.00  0.00    -0.000 C 
BRANCH  13  14
ATOM     14  C   UNL     1      18.895 -25.014 -26.384  1.00  0.00    -0.000 C 
BRANCH  14  15
ATOM     15  C   UNL     1      19.171 -25.891 -27.615  1.00  0.00    -0.000 C 
BRANCH  15  16
ATOM     16  C   UNL     1      17.883 -26.394 -28.284  1.00  0.00    -0.003 C 
ATOM     17  C   UNL     1      17.845 -27.915 -28.425  1.00  0.00     0.004 C 
ENDBRANCH  15  16
ENDBRANCH  14  15
ENDBRANCH  13  14
ENDBRANCH  12  13
ENDBRANCH  11  12
ENDBRANCH  10  11
ENDBRANCH   1  10
TORSDOF 13
ENDMDL
MODEL 7
REMARK VINA RESULT:    -4.894      1.677      2.308
REMARK INTER + INTRA:          -9.760
REMARK INTER:                  -8.734
REMARK INTRA:                  -1.026
REMARK UNBOUND:                -1.146
REMARK SMILES CCCCCCCCCCCCCCC(=O)[O-]
REMARK SMILES IDX 9 1 10 2 11 3 12 4 13 5 14 6 15 7 16 8 17 9 8 10 7 11 6 12
REMARK SMILES IDX 5 13 4 14 3 15 2 16 1 17
REMARK H PARENT
REMARK Flexibility Score: inf
ROOT
ATOM      1  C   UNL     1      14.124 -22.649 -27.344  1.00  0.00     0.000 C 
ENDROOT
BRANCH   1   2
ATOM      2  C   UNL     1      12.607 -22.830 -27.198  1.00  0.00     0.000 C 
BRANCH   2   3
ATOM      3  C   UNL     1      11.924 -21.494 -26.870  1.00  0.00     0.000 C 
BRANCH   3   4
ATOM      4  C   UNL     1      12.095 -20.444 -27.983  1.00  0.00     0.000 C 
BRANCH   4   5
ATOM      5  C   UNL     1      12.246 -18.989 -27.490  1.00  0.00     0.006 C 
BRANCH   5   6
ATOM      6  C   UNL     1      12.742 -18.856 -26.041  1.00  0.00     0.053 C 
BRANCH   6   7
ATOM      7  C   UNL     1      11.690 -18.289 -25.138  1.00  0.00     0.041 C 
ATOM      8  O   UNL     1      12.019 -17.664 -24.096  1.00  0.00    -0.550 OA
ATOM      9  O   UNL     1      10.346 -18.422 -25.466  1.00  0.00    -0.550 OA
ENDBRANCH   6   7
ENDBRANCH   5   6
ENDBRANCH   4   5
ENDBRANCH   3   4
ENDBRANCH   2   3
ENDBRANCH   1   2
BRANCH   1  10
ATOM     10  C   UNL     1      14.721 -23.518 -28.462  1.00  0.00     0.000 C 
BRANCH  10  11
ATOM     11  C   UNL     1      16.235 -23.731 -28.303  1.00  0.00    -0.000 C 
BRANCH  11  12
ATOM     12  C   UNL     1      16.827 -22.726 -27.304  1.00  0.00    -0.000 C 
BRANCH  12  13
ATOM     13  C   UNL     1      17.182 -23.370 -25.954  1.00  0.00    -0.000 C 
BRANCH  13  14
ATOM     14  C   UNL     1      17.361 -24.892 -26.053  1.00  0.00    -0.000 C 
BRANCH  14  15
ATOM     15  C   UNL     1      18.848 -25.265 -26.139  1.00  0.00    -0.000 C 
BRANCH  15  16
ATOM     16  C   UNL     1      19.260 -25.733 -27.543  1.00  0.00    -0.003 C 
ATOM     17  C   UNL     1      18.472 -26.955 -28.014  1.00  0.00     0.004 C 
ENDBRANCH  15  16
ENDBRANCH  14  15
ENDBRANCH  13  14
ENDBRANCH  12  13
ENDBRANCH  11  12
ENDBRANCH  10  11
ENDBRANCH   1  10
TORSDOF 13
ENDMDL
MODEL 8
REMARK VINA RESULT:    -4.875      1.621      2.053
REMARK INTER + INTRA:          -9.725
REMARK INTER:                  -8.941
REMARK INTRA:                  -0.784
REMARK UNBOUND:                -1.146
REMARK SMILES CCCCCCCCCCCCCCC(=O)[O-]
REMARK SMILES IDX 9 1 10 2 11 3 12 4 13 5 14 6 15 7 16 8 17 9 8 10 7 11 6 12
REMARK SMILES IDX 5 13 4 14 3 15 2 16 1 17
REMARK H PARENT
REMARK Flexibility Score: inf
ROOT
ATOM      1  C   UNL     1      13.924 -22.874 -27.775  1.00  0.00     0.000 C 
ENDROOT
BRANCH   1   2
ATOM      2  C   UNL     1      12.712 -22.971 -26.838  1.00  0.00     0.000 C 
BRANCH   2   3
ATOM      3  C   UNL     1      11.830 -21.719 -26.952  1.00  0.00     0.000 C 
BRANCH   3   4
ATOM      4  C   UNL     1      12.637 -20.409 -26.902  1.00  0.00     0.000 C 
BRANCH   4   5
ATOM      5  C   UNL     1      11.796 -19.132 -26.693  1.00  0.00     0.006 C 
BRANCH   5   6
ATOM      6  C   UNL     1      11.520 -18.334 -27.977  1.00  0.00     0.053 C 
BRANCH   6   7
ATOM      7  C   UNL     1      10.059 -18.063 -28.166  1.00  0.00     0.041 C 
ATOM      8  O   UNL     1       9.540 -18.152 -29.309  1.00  0.00    -0.550 OA
ATOM      9  O   UNL     1       9.263 -17.746 -27.072  1.00  0.00    -0.550 OA
ENDBRANCH   6   7
ENDBRANCH   5   6
ENDBRANCH   4   5
ENDBRANCH   3   4
ENDBRANCH   2   3
ENDBRANCH   1   2
BRANCH   1  10
ATOM     10  C   UNL     1      15.263 -22.962 -27.025  1.00  0.00     0.000 C 
BRANCH  10  11
ATOM     11  C   UNL     1      16.464 -23.113 -27.972  1.00  0.00    -0.000 C 
BRANCH  11  12
ATOM     12  C   UNL     1      17.715 -22.447 -27.380  1.00  0.00    -0.000 C 
BRANCH  12  13
ATOM     13  C   UNL     1      18.411 -23.323 -26.326  1.00  0.00    -0.000 C 
BRANCH  13  14
ATOM     14  C   UNL     1      18.332 -22.726 -24.913  1.00  0.00    -0.000 C 
BRANCH  14  15
ATOM     15  C   UNL     1      18.508 -23.818 -23.847  1.00  0.00    -0.000 C 
BRANCH  15  16
ATOM     16  C   UNL     1      17.279 -23.956 -22.934  1.00  0.00    -0.003 C 
ATOM     17  C   UNL     1      16.108 -24.657 -23.623  1.00  0.00     0.004 C 
ENDBRANCH  15  16
ENDBRANCH  14  15
ENDBRANCH  13  14
ENDBRANCH  12  13
ENDBRANCH  11  12
ENDBRANCH  10  11
ENDBRANCH   1  10
TORSDOF 13
ENDMDL
MODEL 9
REMARK VINA RESULT:    -3.370      2.195      2.865
REMARK INTER + INTRA:          -7.078
REMARK INTER:                  -6.399
REMARK INTRA:                  -0.679
REMARK UNBOUND:                -1.146
REMARK SMILES CCCCCCCCCCCCCCC(=O)[O-]
REMARK SMILES IDX 9 1 10 2 11 3 12 4 13 5 14 6 15 7 16 8 17 9 8 10 7 11 6 12
REMARK SMILES IDX 5 13 4 14 3 15 2 16 1 17
REMARK H PARENT
REMARK Flexibility Score: inf
ROOT
ATOM      1  C   UNL     1      12.869 -21.990 -27.992  1.00  0.00     0.000 C 
ENDROOT
BRANCH   1   2
ATOM      2  C   UNL     1      12.050 -21.254 -26.921  1.00  0.00     0.000 C 
BRANCH   2   3
ATOM      3  C   UNL     1      12.615 -19.848 -26.671  1.00  0.00     0.000 C 
BRANCH   3   4
ATOM      4  C   UNL     1      11.536 -18.834 -26.248  1.00  0.00     0.000 C 
BRANCH   4   5
ATOM      5  C   UNL     1      10.655 -18.301 -27.397  1.00  0.00     0.006 C 
BRANCH   5   6
ATOM      6  C   UNL     1       9.577 -17.297 -26.961  1.00  0.00     0.053 C 
BRANCH   6   7
ATOM      7  C   UNL     1       8.216 -17.687 -27.448  1.00  0.00     0.041 C 
ATOM      8  O   UNL     1       7.232 -17.669 -26.663  1.00  0.00    -0.550 OA
ATOM      9  O   UNL     1       8.028 -18.040 -28.779  1.00  0.00    -0.550 OA
ENDBRANCH   6   7
ENDBRANCH   5   6
ENDBRANCH   4   5
ENDBRANCH   3   4
ENDBRANCH   2   3
ENDBRANCH   1   2
BRANCH   1  10
ATOM     10  C   UNL     1      14.073 -22.743 -27.404  1.00  0.00     0.000 C 
BRANCH  10  11
ATOM     11  C   UNL     1      14.945 -23.401 -28.486  1.00  0.00    -0.000 C 
BRANCH  11  12
ATOM     12  C   UNL     1      16.424 -23.398 -28.073  1.00  0.00    -0.000 C 
BRANCH  12  13
ATOM     13  C   UNL     1      16.738 -22.345 -26.997  1.00  0.00    -0.000 C 
BRANCH  13  14
ATOM     14  C   UNL     1      17.671 -22.879 -25.900  1.00  0.00    -0.000 C 
BRANCH  14  15
ATOM     15  C   UNL     1      17.058 -24.106 -25.209  1.00  0.00    -0.000 C 
BRANCH  15  16
ATOM     16  C   UNL     1      17.352 -24.143 -23.701  1.00  0.00    -0.003 C 
ATOM     17  C   UNL     1      16.149 -24.598 -22.875  1.00  0.00     0.004 C 
ENDBRANCH  15  16
ENDBRANCH  14  15
ENDBRANCH  13  14
ENDBRANCH  12  13
ENDBRANCH  11  12
ENDBRANCH  10  11
ENDBRANCH   1  10
TORSDOF 13
ENDMDL
