MODEL 1
REMARK VINA RESULT:    -4.664      0.000      0.000
REMARK INTER + INTRA:          -6.896
REMARK INTER:                  -6.572
REMARK INTRA:                  -0.324
REMARK UNBOUND:                -0.324
REMARK SMILES CC1=CCC(=C(C)C)C(=O)CC(C)=CCC1
REMARK SMILES IDX 12 1 14 2 13 3 15 4 16 5 2 6 1 7 3 8 11 10 9 11 10 12 5 13
REMARK SMILES IDX 6 14 7 15 8 16 4 17
REMARK H PARENT
REMARK Flexibility Score: 60.00
ROOT
ATOM      1  C   UNL     1      16.898 -30.993  22.134  1.00  0.00    -0.070 C 
ATOM      2  C   UNL     1      17.604 -31.320  21.027  1.00  0.00    -0.027 C 
ATOM      3  C   UNL     1      16.610 -29.528  22.358  1.00  0.00     0.039 C 
ENDROOT
BRANCH   2   4
ATOM      4  C   UNL     1      18.046 -32.704  20.623  1.00  0.00     0.032 C 
BRANCH   4   5
ATOM      5  C   UNL     1      17.244 -33.339  19.462  1.00  0.00     0.034 C 
BRANCH   5   6
ATOM      6  C   UNL     1      16.241 -34.411  19.864  1.00  0.00    -0.077 C 
ATOM      7  C   UNL     1      16.670 -35.852  19.735  1.00  0.00     0.039 C 
ATOM      8  C   UNL     1      15.006 -34.176  20.388  1.00  0.00    -0.023 CG0
ATOM      9  G   UNL     1      14.232 -32.872  20.514  1.00  0.00     0.000 G0
ENDBRANCH   5   6
ENDBRANCH   4   5
ENDBRANCH   2   4
BRANCH   1  10
ATOM     10  C   UNL     1      16.418 -31.983  23.190  1.00  0.00     0.111 C 
BRANCH  10  11
ATOM     11  C   UNL     1      15.079 -32.641  22.944  1.00  0.00     0.163 C 
ATOM     12  O   UNL     1      14.789 -33.614  23.691  1.00  0.00    -0.294 OA
BRANCH  11  13
ATOM     13  C   UNL     1      14.115 -32.205  21.870  1.00  0.00    -0.002 C 
ATOM     14  C   UNL     1      13.129 -31.284  22.108  1.00  0.00    -0.069 C 
ATOM     15  C   UNL     1      13.033 -30.523  23.412  1.00  0.00     0.039 C 
ATOM     16  C   UNL     1      12.092 -30.949  21.055  1.00  0.00     0.039 C 
BRANCH  13  17
ATOM     17  C   UNL     1      14.215 -32.865  20.503  1.00  0.00     0.066 CG0
ATOM     18  G   UNL     1      15.008 -34.162  20.423  1.00  0.00     0.000 G0
ENDBRANCH  13  17
ENDBRANCH  11  13
ENDBRANCH  10  11
ENDBRANCH   1  10
TORSDOF 0
ENDMDL
MODEL 2
REMARK VINA RESULT:    -4.575      1.915      4.719
REMARK INTER + INTRA:          -6.772
REMARK INTER:                  -6.531
REMARK INTRA:                  -0.241
REMARK UNBOUND:                -0.324
REMARK SMILES CC1=CCC(=C(C)C)C(=O)CC(C)=CCC1
REMARK SMILES IDX 12 1 14 2 13 3 15 4 16 5 2 6 1 7 3 8 11 10 9 11 10 12 5 13
REMARK SMILES IDX 6 14 7 15 8 16 4 17
REMARK H PARENT
REMARK Flexibility Score: 60.00
ROOT
ATOM      1  C   UNL     1      15.846 -33.952  23.322  1.00  0.00    -0.070 C 
ATOM      2  C   UNL     1      15.174 -33.174  24.201  1.00  0.00    -0.027 C 
ATOM      3  C   UNL     1      17.225 -34.415  23.728  1.00  0.00     0.039 C 
ENDROOT
BRANCH   2   4
ATOM      4  C   UNL     1      13.811 -32.562  23.994  1.00  0.00     0.032 C 
BRANCH   4   5
ATOM      5  C   UNL     1      13.814 -31.064  23.606  1.00  0.00     0.034 C 
BRANCH   5   6
ATOM      6  C   UNL     1      13.615 -30.767  22.126  1.00  0.00    -0.077 C 
ATOM      7  C   UNL     1      12.200 -30.572  21.637  1.00  0.00     0.039 C 
ATOM      8  C   UNL     1      14.614 -30.606  21.215  1.00  0.00    -0.023 CG0
ATOM      9  G   UNL     1      16.107 -30.869  21.347  1.00  0.00     0.000 G0
ENDBRANCH   5   6
ENDBRANCH   4   5
ENDBRANCH   2   4
BRANCH   1  10
ATOM     10  C   UNL     1      15.339 -34.352  21.940  1.00  0.00     0.111 C 
BRANCH  10  11
ATOM     11  C   UNL     1      15.599 -33.377  20.815  1.00  0.00     0.163 C 
ATOM     12  O   UNL     1      14.937 -33.556  19.757  1.00  0.00    -0.294 OA
BRANCH  11  13
ATOM     13  C   UNL     1      16.593 -32.246  20.896  1.00  0.00    -0.002 C 
ATOM     14  C   UNL     1      17.926 -32.430  20.635  1.00  0.00    -0.069 C 
ATOM     15  C   UNL     1      18.470 -33.733  20.096  1.00  0.00     0.039 C 
ATOM     16  C   UNL     1      18.931 -31.314  20.841  1.00  0.00     0.039 C 
BRANCH  13  17
ATOM     17  C   UNL     1      16.094 -30.881  21.344  1.00  0.00     0.066 CG0
ATOM     18  G   UNL     1      14.601 -30.618  21.207  1.00  0.00     0.000 G0
ENDBRANCH  13  17
ENDBRANCH  11  13
ENDBRANCH  10  11
ENDBRANCH   1  10
TORSDOF 0
ENDMDL
MODEL 3
REMARK VINA RESULT:    -4.456      1.874      4.057
REMARK INTER + INTRA:          -6.603
REMARK INTER:                  -6.411
REMARK INTRA:                  -0.192
REMARK UNBOUND:                -0.324
REMARK SMILES CC1=CCC(=C(C)C)C(=O)CC(C)=CCC1
REMARK SMILES IDX 12 1 14 2 13 3 15 4 16 5 2 6 1 7 3 8 11 10 9 11 10 12 5 13
REMARK SMILES IDX 6 14 7 15 8 16 4 17
REMARK H PARENT
REMARK Flexibility Score: 60.00
ROOT
ATOM      1  C   UNL     1      14.320 -30.629  21.864  1.00  0.00    -0.070 C 
ATOM      2  C   UNL     1      13.674 -31.752  21.475  1.00  0.00    -0.027 C 
ATOM      3  C   UNL     1      13.523 -29.612  22.645  1.00  0.00     0.039 C 
ENDROOT
BRANCH   2   4
ATOM      4  C   UNL     1      14.250 -32.877  20.652  1.00  0.00     0.032 C 
BRANCH   4   5
ATOM      5  C   UNL     1      15.094 -33.905  21.443  1.00  0.00     0.034 C 
BRANCH   5   6
ATOM      6  C   UNL     1      16.375 -34.367  20.761  1.00  0.00    -0.077 C 
ATOM      7  C   UNL     1      16.244 -35.351  19.624  1.00  0.00     0.039 C 
ATOM      8  C   UNL     1      17.627 -33.920  21.054  1.00  0.00    -0.023 CG0
ATOM      9  G   UNL     1      18.109 -33.056  22.211  1.00  0.00     0.000 G0
ENDBRANCH   5   6
ENDBRANCH   4   5
ENDBRANCH   2   4
BRANCH   1  10
ATOM     10  C   UNL     1      15.769 -30.293  21.529  1.00  0.00     0.111 C 
BRANCH  10  11
ATOM     11  C   UNL     1      16.823 -30.820  22.476  1.00  0.00     0.163 C 
ATOM     12  O   UNL     1      16.621 -30.620  23.704  1.00  0.00    -0.294 OA
BRANCH  11  13
ATOM     13  C   UNL     1      18.071 -31.539  22.028  1.00  0.00    -0.002 C 
ATOM     14  C   UNL     1      19.111 -30.882  21.424  1.00  0.00    -0.069 C 
ATOM     15  C   UNL     1      19.153 -29.375  21.305  1.00  0.00     0.039 C 
ATOM     16  C   UNL     1      20.302 -31.635  20.868  1.00  0.00     0.039 C 
BRANCH  13  17
ATOM     17  C   UNL     1      18.132 -33.048  22.203  1.00  0.00     0.066 CG0
ATOM     18  G   UNL     1      17.603 -33.895  21.055  1.00  0.00     0.000 G0
ENDBRANCH  13  17
ENDBRANCH  11  13
ENDBRANCH  10  11
ENDBRANCH   1  10
TORSDOF 0
ENDMDL
MODEL 4
REMARK VINA RESULT:    -4.378      2.127      4.538
REMARK INTER + INTRA:          -6.494
REMARK INTER:                  -6.234
REMARK INTRA:                  -0.259
REMARK UNBOUND:                -0.324
REMARK SMILES CC1=CCC(=C(C)C)C(=O)CC(C)=CCC1
REMARK SMILES IDX 12 1 14 2 13 3 15 4 16 5 2 6 1 7 3 8 11 10 9 11 10 12 5 13
REMARK SMILES IDX 6 14 7 15 8 16 4 17
REMARK H PARENT
REMARK Flexibility Score: 60.00
ROOT
ATOM      1  C   UNL     1      17.998 -32.079  21.025  1.00  0.00    -0.070 C 
ATOM      2  C   UNL     1      17.753 -30.875  21.590  1.00  0.00    -0.027 C 
ATOM      3  C   UNL     1      19.424 -32.575  21.052  1.00  0.00     0.039 C 
ENDROOT
BRANCH   2   4
ATOM      4  C   UNL     1      16.424 -30.163  21.640  1.00  0.00     0.032 C 
BRANCH   4   5
ATOM      5  C   UNL     1      15.729 -30.163  23.023  1.00  0.00     0.034 C 
BRANCH   5   6
ATOM      6  C   UNL     1      14.533 -31.096  23.157  1.00  0.00    -0.077 C 
ATOM      7  C   UNL     1      13.159 -30.498  22.980  1.00  0.00     0.039 C 
ATOM      8  C   UNL     1      14.604 -32.440  23.365  1.00  0.00    -0.023 CG0
ATOM      9  G   UNL     1      15.800 -33.311  23.718  1.00  0.00     0.000 G0
ENDBRANCH   5   6
ENDBRANCH   4   5
ENDBRANCH   2   4
BRANCH   1  10
ATOM     10  C   UNL     1      16.956 -32.944  20.322  1.00  0.00     0.111 C 
BRANCH  10  11
ATOM     11  C   UNL     1      16.101 -33.825  21.203  1.00  0.00     0.163 C 
ATOM     12  O   UNL     1      15.045 -34.278  20.684  1.00  0.00    -0.294 OA
BRANCH  11  13
ATOM     13  C   UNL     1      16.437 -34.161  22.634  1.00  0.00    -0.002 C 
ATOM     14  C   UNL     1      17.237 -35.224  22.963  1.00  0.00    -0.069 C 
ATOM     15  C   UNL     1      17.964 -36.039  21.917  1.00  0.00     0.039 C 
ATOM     16  C   UNL     1      17.465 -35.623  24.406  1.00  0.00     0.039 C 
BRANCH  13  17
ATOM     17  C   UNL     1      15.811 -33.320  23.736  1.00  0.00     0.066 CG0
ATOM     18  G   UNL     1      14.618 -32.459  23.349  1.00  0.00     0.000 G0
ENDBRANCH  13  17
ENDBRANCH  11  13
ENDBRANCH  10  11
ENDBRANCH   1  10
TORSDOF 0
ENDMDL
MODEL 5
REMARK VINA RESULT:    -4.342      2.198      3.818
REMARK INTER + INTRA:          -6.443
REMARK INTER:                  -6.358
REMARK INTRA:                  -0.085
REMARK UNBOUND:                -0.324
REMARK SMILES CC1=CCC(=C(C)C)C(=O)CC(C)=CCC1
REMARK SMILES IDX 12 1 14 2 13 3 15 4 16 5 2 6 1 7 3 8 11 10 9 11 10 12 5 13
REMARK SMILES IDX 6 14 7 15 8 16 4 17
REMARK H PARENT
REMARK Flexibility Score: 60.00
ROOT
ATOM      1  C   UNL     1      16.825 -31.393  21.552  1.00  0.00    -0.070 C 
ATOM      2  C   UNL     1      17.854 -31.117  20.718  1.00  0.00    -0.027 C 
ATOM      3  C   UNL     1      15.569 -30.572  21.389  1.00  0.00     0.039 C 
ENDROOT
BRANCH   2   4
ATOM      4  C   UNL     1      19.213 -31.772  20.726  1.00  0.00     0.032 C 
BRANCH   4   5
ATOM      5  C   UNL     1      19.209 -33.301  20.485  1.00  0.00     0.034 C 
BRANCH   5   6
ATOM      6  C   UNL     1      19.736 -34.149  21.634  1.00  0.00    -0.077 C 
ATOM      7  C   UNL     1      21.133 -33.863  22.128  1.00  0.00     0.039 C 
ATOM      8  C   UNL     1      19.028 -35.107  22.294  1.00  0.00    -0.023 CG0
ATOM      9  G   UNL     1      17.676 -35.723  21.962  1.00  0.00     0.000 G0
ENDBRANCH   5   6
ENDBRANCH   4   5
ENDBRANCH   2   4
BRANCH   1  10
ATOM     10  C   UNL     1      16.858 -32.430  22.670  1.00  0.00     0.111 C 
BRANCH  10  11
ATOM     11  C   UNL     1      16.105 -33.717  22.424  1.00  0.00     0.163 C 
ATOM     12  O   UNL     1      15.029 -33.866  23.064  1.00  0.00    -0.294 OA
BRANCH  11  13
ATOM     13  C   UNL     1      16.576 -34.800  21.486  1.00  0.00    -0.002 C 
ATOM     14  C   UNL     1      16.012 -34.990  20.252  1.00  0.00    -0.069 C 
ATOM     15  C   UNL     1      14.988 -34.036  19.678  1.00  0.00     0.039 C 
ATOM     16  C   UNL     1      16.411 -36.157  19.373  1.00  0.00     0.039 C 
BRANCH  13  17
ATOM     17  C   UNL     1      17.672 -35.739  21.966  1.00  0.00     0.066 CG0
ATOM     18  G   UNL     1      19.018 -35.111  22.300  1.00  0.00     0.000 G0
ENDBRANCH  13  17
ENDBRANCH  11  13
ENDBRANCH  10  11
ENDBRANCH   1  10
TORSDOF 0
ENDMDL
MODEL 6
REMARK VINA RESULT:    -4.333      1.311      3.917
REMARK INTER + INTRA:          -6.431
REMARK INTER:                  -6.020
REMARK INTRA:                  -0.411
REMARK UNBOUND:                -0.324
REMARK SMILES CC1=CCC(=C(C)C)C(=O)CC(C)=CCC1
REMARK SMILES IDX 12 1 14 2 13 3 15 4 16 5 2 6 1 7 3 8 11 10 9 11 10 12 5 13
REMARK SMILES IDX 6 14 7 15 8 16 4 17
REMARK H PARENT
REMARK Flexibility Score: 60.00
ROOT
ATOM      1  C   UNL     1      16.983 -30.284  21.767  1.00  0.00    -0.070 C 
ATOM      2  C   UNL     1      15.685 -29.930  21.912  1.00  0.00    -0.027 C 
ATOM      3  C   UNL     1      17.707 -29.763  20.549  1.00  0.00     0.039 C 
ENDROOT
BRANCH   2   4
ATOM      4  C   UNL     1      14.756 -30.365  23.018  1.00  0.00     0.032 C 
BRANCH   4   5
ATOM      5  C   UNL     1      13.977 -31.674  22.746  1.00  0.00     0.034 C 
BRANCH   5   6
ATOM      6  C   UNL     1      13.839 -32.065  21.282  1.00  0.00    -0.077 C 
ATOM      7  C   UNL     1      12.788 -31.353  20.465  1.00  0.00     0.039 C 
ATOM      8  C   UNL     1      14.626 -32.965  20.631  1.00  0.00    -0.023 CG0
ATOM      9  G   UNL     1      15.659 -33.937  21.183  1.00  0.00     0.000 G0
ENDBRANCH   5   6
ENDBRANCH   4   5
ENDBRANCH   2   4
BRANCH   1  10
ATOM     10  C   UNL     1      17.749 -31.205  22.711  1.00  0.00     0.111 C 
BRANCH  10  11
ATOM     11  C   UNL     1      17.408 -32.676  22.647  1.00  0.00     0.163 C 
ATOM     12  O   UNL     1      17.422 -33.301  23.741  1.00  0.00    -0.294 OA
BRANCH  11  13
ATOM     13  C   UNL     1      17.078 -33.406  21.369  1.00  0.00    -0.002 C 
ATOM     14  C   UNL     1      17.991 -33.552  20.357  1.00  0.00    -0.069 C 
ATOM     15  C   UNL     1      19.435 -33.131  20.509  1.00  0.00     0.039 C 
ATOM     16  C   UNL     1      17.606 -34.178  19.033  1.00  0.00     0.039 C 
BRANCH  13  17
ATOM     17  C   UNL     1      15.664 -33.937  21.190  1.00  0.00     0.066 CG0
ATOM     18  G   UNL     1      14.635 -32.973  20.618  1.00  0.00     0.000 G0
ENDBRANCH  13  17
ENDBRANCH  11  13
ENDBRANCH  10  11
ENDBRANCH   1  10
TORSDOF 0
ENDMDL
MODEL 7
REMARK VINA RESULT:    -4.279      1.816      2.430
REMARK INTER + INTRA:          -6.354
REMARK INTER:                  -6.183
REMARK INTRA:                  -0.171
REMARK UNBOUND:                -0.324
REMARK SMILES CC1=CCC(=C(C)C)C(=O)CC(C)=CCC1
REMARK SMILES IDX 12 1 14 2 13 3 15 4 16 5 2 6 1 7 3 8 11 10 9 11 10 12 5 13
REMARK SMILES IDX 6 14 7 15 8 16 4 17
REMARK H PARENT
REMARK Flexibility Score: 60.00
ROOT
ATOM      1  C   UNL     1      19.138 -31.215  20.954  1.00  0.00    -0.070 C 
ATOM      2  C   UNL     1      19.449 -32.439  20.468  1.00  0.00    -0.027 C 
ATOM      3  C   UNL     1      20.287 -30.325  21.363  1.00  0.00     0.039 C 
ENDROOT
BRANCH   2   4
ATOM      4  C   UNL     1      18.474 -33.507  20.042  1.00  0.00     0.032 C 
BRANCH   4   5
ATOM      5  C   UNL     1      17.780 -34.264  21.199  1.00  0.00     0.034 C 
BRANCH   5   6
ATOM      6  C   UNL     1      16.272 -34.424  21.069  1.00  0.00    -0.077 C 
ATOM      7  C   UNL     1      15.755 -35.270  19.931  1.00  0.00     0.039 C 
ATOM      8  C   UNL     1      15.349 -33.914  21.932  1.00  0.00    -0.023 CG0
ATOM      9  G   UNL     1      15.525 -32.923  23.073  1.00  0.00     0.000 G0
ENDBRANCH   5   6
ENDBRANCH   4   5
ENDBRANCH   2   4
BRANCH   1  10
ATOM     10  C   UNL     1      17.721 -30.692  21.166  1.00  0.00     0.111 C 
BRANCH  10  11
ATOM     11  C   UNL     1      17.102 -30.943  22.521  1.00  0.00     0.163 C 
ATOM     12  O   UNL     1      17.833 -30.710  23.522  1.00  0.00    -0.294 OA
BRANCH  11  13
ATOM     13  C   UNL     1      15.698 -31.456  22.721  1.00  0.00    -0.002 C 
ATOM     14  C   UNL     1      14.604 -30.636  22.630  1.00  0.00    -0.069 C 
ATOM     15  C   UNL     1      14.710 -29.199  22.172  1.00  0.00     0.039 C 
ATOM     16  C   UNL     1      13.212 -31.139  22.954  1.00  0.00     0.039 C 
BRANCH  13  17
ATOM     17  C   UNL     1      15.514 -32.919  23.094  1.00  0.00     0.066 CG0
ATOM     18  G   UNL     1      15.350 -33.905  21.946  1.00  0.00     0.000 G0
ENDBRANCH  13  17
ENDBRANCH  11  13
ENDBRANCH  10  11
ENDBRANCH   1  10
TORSDOF 0
ENDMDL
MODEL 8
REMARK VINA RESULT:    -4.174      1.880      3.307
REMARK INTER + INTRA:          -6.207
REMARK INTER:                  -5.926
REMARK INTRA:                  -0.281
REMARK UNBOUND:                -0.324
REMARK SMILES CC1=CCC(=C(C)C)C(=O)CC(C)=CCC1
REMARK SMILES IDX 12 1 14 2 13 3 15 4 16 5 2 6 1 7 3 8 11 10 9 11 10 12 5 13
REMARK SMILES IDX 6 14 7 15 8 16 4 17
REMARK H PARENT
REMARK Flexibility Score: 60.00
ROOT
ATOM      1  C   UNL     1      15.472 -33.924  19.912  1.00  0.00    -0.070 C 
ATOM      2  C   UNL     1      16.548 -34.010  19.095  1.00  0.00    -0.027 C 
ATOM      3  C   UNL     1      14.232 -33.274  19.348  1.00  0.00     0.039 C 
ENDROOT
BRANCH   2   4
ATOM      4  C   UNL     1      17.900 -34.574  19.453  1.00  0.00     0.032 C 
BRANCH   4   5
ATOM      5  C   UNL     1      18.998 -33.522  19.740  1.00  0.00     0.034 C 
BRANCH   5   6
ATOM      6  C   UNL     1      19.251 -33.220  21.210  1.00  0.00    -0.077 C 
ATOM      7  C   UNL     1      20.350 -33.990  21.901  1.00  0.00     0.039 C 
ATOM      8  C   UNL     1      18.606 -32.268  21.940  1.00  0.00    -0.023 CG0
ATOM      9  G   UNL     1      17.381 -31.436  21.591  1.00  0.00     0.000 G0
ENDBRANCH   5   6
ENDBRANCH   4   5
ENDBRANCH   2   4
BRANCH   1  10
ATOM     10  C   UNL     1      15.437 -34.385  21.365  1.00  0.00     0.111 C 
BRANCH  10  11
ATOM     11  C   UNL     1      15.859 -33.374  22.407  1.00  0.00     0.163 C 
ATOM     12  O   UNL     1      16.053 -33.818  23.570  1.00  0.00    -0.294 OA
BRANCH  11  13
ATOM     13  C   UNL     1      16.036 -31.903  22.126  1.00  0.00    -0.002 C 
ATOM     14  C   UNL     1      15.015 -31.003  22.285  1.00  0.00    -0.069 C 
ATOM     15  C   UNL     1      13.688 -31.390  22.900  1.00  0.00     0.039 C 
ATOM     16  C   UNL     1      15.172 -29.552  21.881  1.00  0.00     0.039 C 
BRANCH  13  17
ATOM     17  C   UNL     1      17.380 -31.431  21.591  1.00  0.00     0.066 CG0
ATOM     18  G   UNL     1      18.596 -32.271  21.952  1.00  0.00     0.000 G0
ENDBRANCH  13  17
ENDBRANCH  11  13
ENDBRANCH  10  11
ENDBRANCH   1  10
TORSDOF 0
ENDMDL
MODEL 9
REMARK VINA RESULT:    -4.130      2.199      5.056
REMARK INTER + INTRA:          -6.144
REMARK INTER:                  -6.166
REMARK INTRA:                   0.021
REMARK UNBOUND:                -0.324
REMARK SMILES CC1=CCC(=C(C)C)C(=O)CC(C)=CCC1
REMARK SMILES IDX 12 1 14 2 13 3 15 4 16 5 2 6 1 7 3 8 11 10 9 11 10 12 5 13
REMARK SMILES IDX 6 14 7 15 8 16 4 17
REMARK H PARENT
REMARK Flexibility Score: 60.00
ROOT
ATOM      1  C   UNL     1      14.425 -32.488  21.174  1.00  0.00    -0.070 C 
ATOM      2  C   UNL     1      14.805 -31.579  22.102  1.00  0.00    -0.027 C 
ATOM      3  C   UNL     1      13.404 -32.045  20.155  1.00  0.00     0.039 C 
ENDROOT
BRANCH   2   4
ATOM      4  C   UNL     1      15.771 -31.809  23.237  1.00  0.00     0.032 C 
BRANCH   4   5
ATOM      5  C   UNL     1      17.038 -30.921  23.214  1.00  0.00     0.034 C 
BRANCH   5   6
ATOM      6  C   UNL     1      18.002 -31.182  22.065  1.00  0.00    -0.077 C 
ATOM      7  C   UNL     1      18.469 -29.993  21.261  1.00  0.00     0.039 C 
ATOM      8  C   UNL     1      18.526 -32.396  21.738  1.00  0.00    -0.023 CG0
ATOM      9  G   UNL     1      18.162 -33.784  22.246  1.00  0.00     0.000 G0
ENDBRANCH   5   6
ENDBRANCH   4   5
ENDBRANCH   2   4
BRANCH   1  10
ATOM     10  C   UNL     1      14.911 -33.933  21.115  1.00  0.00     0.111 C 
BRANCH  10  11
ATOM     11  C   UNL     1      16.269 -34.166  20.496  1.00  0.00     0.163 C 
ATOM     12  O   UNL     1      16.380 -33.889  19.271  1.00  0.00    -0.294 OA
BRANCH  11  13
ATOM     13  C   UNL     1      17.454 -34.712  21.252  1.00  0.00    -0.002 C 
ATOM     14  C   UNL     1      17.867 -36.012  21.117  1.00  0.00    -0.069 C 
ATOM     15  C   UNL     1      17.268 -36.946  20.090  1.00  0.00     0.039 C 
ATOM     16  C   UNL     1      18.980 -36.579  21.975  1.00  0.00     0.039 C 
BRANCH  13  17
ATOM     17  C   UNL     1      18.163 -33.795  22.237  1.00  0.00     0.066 CG0
ATOM     18  G   UNL     1      18.520 -32.401  21.741  1.00  0.00     0.000 G0
ENDBRANCH  13  17
ENDBRANCH  11  13
ENDBRANCH  10  11
ENDBRANCH   1  10
TORSDOF 0
ENDMDL
