MODEL 1
REMARK VINA RESULT:    -4.912      0.000      0.000
REMARK INTER + INTRA:          -7.934
REMARK INTER:                  -7.496
REMARK INTRA:                  -0.438
REMARK UNBOUND:                -0.438
REMARK SMILES CCCCCCCCCCC(=O)[O-]
REMARK SMILES IDX 7 1 8 2 9 3 10 4 11 5 12 6 13 7 6 8 5 9 4 10 3 11 2 12 1 13
REMARK H PARENT
REMARK Flexibility Score: inf
ROOT
ATOM      1  C   UNL     1       2.481  43.212  10.189  1.00  0.00     0.000 C 
ENDROOT
BRANCH   1   2
ATOM      2  C   UNL     1       2.506  42.866  11.685  1.00  0.00     0.000 C 
BRANCH   2   3
ATOM      3  C   UNL     1       3.393  41.640  11.950  1.00  0.00     0.006 C 
BRANCH   3   4
ATOM      4  C   UNL     1       2.598  40.460  12.524  1.00  0.00     0.053 C 
BRANCH   4   5
ATOM      5  C   UNL     1       3.465  39.257  12.740  1.00  0.00     0.041 C 
ATOM      6  O   UNL     1       4.626  39.389  13.209  1.00  0.00    -0.550 OA
ATOM      7  O   UNL     1       3.004  37.993  12.392  1.00  0.00    -0.550 OA
ENDBRANCH   4   5
ENDBRANCH   3   4
ENDBRANCH   2   3
ENDBRANCH   1   2
BRANCH   1   8
ATOM      8  C   UNL     1       3.884  43.471   9.615  1.00  0.00     0.000 C 
BRANCH   8   9
ATOM      9  C   UNL     1       4.141  44.961   9.330  1.00  0.00    -0.000 C 
BRANCH   9  10
ATOM     10  C   UNL     1       4.449  45.762  10.607  1.00  0.00    -0.000 C 
BRANCH  10  11
ATOM     11  C   UNL     1       4.635  47.264  10.331  1.00  0.00    -0.000 C 
BRANCH  11  12
ATOM     12  C   UNL     1       5.459  47.531   9.062  1.00  0.00    -0.003 C 
ATOM     13  C   UNL     1       6.963  47.582   9.330  1.00  0.00     0.004 C 
ENDBRANCH  11  12
ENDBRANCH  10  11
ENDBRANCH   9  10
ENDBRANCH   8   9
ENDBRANCH   1   8
TORSDOF 9
ENDMDL
MODEL 2
REMARK VINA RESULT:    -4.831      4.072      7.168
REMARK INTER + INTRA:          -7.811
REMARK INTER:                  -7.245
REMARK INTRA:                  -0.566
REMARK UNBOUND:                -0.438
REMARK SMILES CCCCCCCCCCC(=O)[O-]
REMARK SMILES IDX 7 1 8 2 9 3 10 4 11 5 12 6 13 7 6 8 5 9 4 10 3 11 2 12 1 13
REMARK H PARENT
REMARK Flexibility Score: inf
ROOT
ATOM      1  C   UNL     1       4.438  45.019  11.385  1.00  0.00     0.000 C 
ENDROOT
BRANCH   1   2
ATOM      2  C   UNL     1       4.102  44.793   9.903  1.00  0.00     0.000 C 
BRANCH   2   3
ATOM      3  C   UNL     1       4.169  46.111   9.118  1.00  0.00     0.006 C 
BRANCH   3   4
ATOM      4  C   UNL     1       5.309  47.019   9.599  1.00  0.00     0.053 C 
BRANCH   4   5
ATOM      5  C   UNL     1       4.794  48.317  10.144  1.00  0.00     0.041 C 
ATOM      6  O   UNL     1       3.604  48.409  10.543  1.00  0.00    -0.550 OA
ATOM      7  O   UNL     1       5.620  49.434  10.178  1.00  0.00    -0.550 OA
ENDBRANCH   4   5
ENDBRANCH   3   4
ENDBRANCH   2   3
ENDBRANCH   1   2
BRANCH   1   8
ATOM      8  C   UNL     1       3.768  43.991  12.310  1.00  0.00     0.000 C 
BRANCH   8   9
ATOM      9  C   UNL     1       2.272  43.802  12.000  1.00  0.00    -0.000 C 
BRANCH   9  10
ATOM     10  C   UNL     1       1.861  42.321  11.951  1.00  0.00    -0.000 C 
BRANCH  10  11
ATOM     11  C   UNL     1       3.064  41.381  11.758  1.00  0.00    -0.000 C 
BRANCH  11  12
ATOM     12  C   UNL     1       2.907  40.061  12.529  1.00  0.00    -0.003 C 
ATOM     13  C   UNL     1       4.240  39.503  13.027  1.00  0.00     0.004 C 
ENDBRANCH  11  12
ENDBRANCH  10  11
ENDBRANCH   9  10
ENDBRANCH   8   9
ENDBRANCH   1   8
TORSDOF 9
ENDMDL
MODEL 3
REMARK VINA RESULT:    -4.806      4.316      6.585
REMARK INTER + INTRA:          -7.773
REMARK INTER:                  -6.711
REMARK INTRA:                  -1.062
REMARK UNBOUND:                -0.438
REMARK SMILES CCCCCCCCCCC(=O)[O-]
REMARK SMILES IDX 7 1 8 2 9 3 10 4 11 5 12 6 13 7 6 8 5 9 4 10 3 11 2 12 1 13
REMARK H PARENT
REMARK Flexibility Score: inf
ROOT
ATOM      1  C   UNL     1       1.464  46.596   9.294  1.00  0.00     0.000 C 
ENDROOT
BRANCH   1   2
ATOM      2  C   UNL     1       2.800  47.062   9.890  1.00  0.00     0.000 C 
BRANCH   2   3
ATOM      3  C   UNL     1       3.956  46.812   8.910  1.00  0.00     0.006 C 
BRANCH   3   4
ATOM      4  C   UNL     1       5.298  46.620   9.629  1.00  0.00     0.053 C 
BRANCH   4   5
ATOM      5  C   UNL     1       6.308  47.644   9.206  1.00  0.00     0.041 C 
ATOM      6  O   UNL     1       7.533  47.451   9.422  1.00  0.00    -0.550 OA
ATOM      7  O   UNL     1       5.892  48.825   8.605  1.00  0.00    -0.550 OA
ENDBRANCH   4   5
ENDBRANCH   3   4
ENDBRANCH   2   3
ENDBRANCH   1   2
BRANCH   1   8
ATOM      8  C   UNL     1       0.979  45.265   9.890  1.00  0.00     0.000 C 
BRANCH   8   9
ATOM      9  C   UNL     1       1.217  44.073   8.946  1.00  0.00    -0.000 C 
BRANCH   9  10
ATOM     10  C   UNL     1       2.423  43.217   9.369  1.00  0.00    -0.000 C 
BRANCH  10  11
ATOM     11  C   UNL     1       2.310  42.713  10.818  1.00  0.00    -0.000 C 
BRANCH  11  12
ATOM     12  C   UNL     1       3.637  42.823  11.584  1.00  0.00    -0.003 C 
ATOM     13  C   UNL     1       3.855  44.206  12.199  1.00  0.00     0.004 C 
ENDBRANCH  11  12
ENDBRANCH  10  11
ENDBRANCH   9  10
ENDBRANCH   8   9
ENDBRANCH   1   8
TORSDOF 9
ENDMDL
MODEL 4
REMARK VINA RESULT:    -4.740      2.633      4.377
REMARK INTER + INTRA:          -7.671
REMARK INTER:                  -6.883
REMARK INTRA:                  -0.788
REMARK UNBOUND:                -0.438
REMARK SMILES CCCCCCCCCCC(=O)[O-]
REMARK SMILES IDX 7 1 8 2 9 3 10 4 11 5 12 6 13 7 6 8 5 9 4 10 3 11 2 12 1 13
REMARK H PARENT
REMARK Flexibility Score: inf
ROOT
ATOM      1  C   UNL     1       5.062  46.840   9.204  1.00  0.00     0.000 C 
ENDROOT
BRANCH   1   2
ATOM      2  C   UNL     1       4.422  46.399  10.529  1.00  0.00     0.000 C 
BRANCH   2   3
ATOM      3  C   UNL     1       4.422  44.869  10.657  1.00  0.00     0.006 C 
BRANCH   3   4
ATOM      4  C   UNL     1       3.933  44.400  12.034  1.00  0.00     0.053 C 
BRANCH   4   5
ATOM      5  C   UNL     1       2.754  43.482  11.924  1.00  0.00     0.041 C 
ATOM      6  O   UNL     1       1.585  43.950  11.918  1.00  0.00    -0.550 OA
ATOM      7  O   UNL     1       2.945  42.107  11.864  1.00  0.00    -0.550 OA
ENDBRANCH   4   5
ENDBRANCH   3   4
ENDBRANCH   2   3
ENDBRANCH   1   2
BRANCH   1   8
ATOM      8  C   UNL     1       6.416  47.539   9.401  1.00  0.00     0.000 C 
BRANCH   8   9
ATOM      9  C   UNL     1       6.364  49.037   9.051  1.00  0.00    -0.000 C 
BRANCH   9  10
ATOM     10  C   UNL     1       5.905  49.904  10.235  1.00  0.00    -0.000 C 
BRANCH  10  11
ATOM     11  C   UNL     1       4.560  50.603   9.969  1.00  0.00    -0.000 C 
BRANCH  11  12
ATOM     12  C   UNL     1       3.376  49.861  10.607  1.00  0.00    -0.003 C 
ATOM     13  C   UNL     1       2.350  49.385   9.578  1.00  0.00     0.004 C 
ENDBRANCH  11  12
ENDBRANCH  10  11
ENDBRANCH   9  10
ENDBRANCH   8   9
ENDBRANCH   1   8
TORSDOF 9
ENDMDL
MODEL 5
REMARK VINA RESULT:    -4.735      2.631      4.067
REMARK INTER + INTRA:          -7.665
REMARK INTER:                  -6.756
REMARK INTRA:                  -0.909
REMARK UNBOUND:                -0.438
REMARK SMILES CCCCCCCCCCC(=O)[O-]
REMARK SMILES IDX 7 1 8 2 9 3 10 4 11 5 12 6 13 7 6 8 5 9 4 10 3 11 2 12 1 13
REMARK H PARENT
REMARK Flexibility Score: inf
ROOT
ATOM      1  C   UNL     1       2.939  46.924   9.800  1.00  0.00     0.000 C 
ENDROOT
BRANCH   1   2
ATOM      2  C   UNL     1       4.052  46.425  10.733  1.00  0.00     0.000 C 
BRANCH   2   3
ATOM      3  C   UNL     1       4.130  44.892  10.723  1.00  0.00     0.006 C 
BRANCH   3   4
ATOM      4  C   UNL     1       3.640  44.275  12.040  1.00  0.00     0.053 C 
BRANCH   4   5
ATOM      5  C   UNL     1       2.339  43.550  11.865  1.00  0.00     0.041 C 
ATOM      6  O   UNL     1       2.262  42.319  12.118  1.00  0.00    -0.550 OA
ATOM      7  O   UNL     1       1.223  44.227  11.391  1.00  0.00    -0.550 OA
ENDBRANCH   4   5
ENDBRANCH   3   4
ENDBRANCH   2   3
ENDBRANCH   1   2
BRANCH   1   8
ATOM      8  C   UNL     1       2.675  48.432   9.942  1.00  0.00     0.000 C 
BRANCH   8   9
ATOM      9  C   UNL     1       3.676  49.121  10.887  1.00  0.00    -0.000 C 
BRANCH   9  10
ATOM     10  C   UNL     1       4.534  50.177  10.169  1.00  0.00    -0.000 C 
BRANCH  10  11
ATOM     11  C   UNL     1       6.031  49.822  10.171  1.00  0.00    -0.000 C 
BRANCH  11  12
ATOM     12  C   UNL     1       6.442  49.003   8.938  1.00  0.00    -0.003 C 
ATOM     13  C   UNL     1       7.131  47.688   9.301  1.00  0.00     0.004 C 
ENDBRANCH  11  12
ENDBRANCH  10  11
ENDBRANCH   9  10
ENDBRANCH   8   9
ENDBRANCH   1   8
TORSDOF 9
ENDMDL
MODEL 6
REMARK VINA RESULT:    -4.716      3.241      4.556
REMARK INTER + INTRA:          -7.636
REMARK INTER:                  -6.439
REMARK INTRA:                  -1.197
REMARK UNBOUND:                -0.438
REMARK SMILES CCCCCCCCCCC(=O)[O-]
REMARK SMILES IDX 7 1 8 2 9 3 10 4 11 5 12 6 13 7 6 8 5 9 4 10 3 11 2 12 1 13
REMARK H PARENT
REMARK Flexibility Score: inf
ROOT
ATOM      1  C   UNL     1       2.213  47.853   8.414  1.00  0.00     0.000 C 
ENDROOT
BRANCH   1   2
ATOM      2  C   UNL     1       2.266  46.530   9.193  1.00  0.00     0.000 C 
BRANCH   2   3
ATOM      3  C   UNL     1       3.709  46.014   9.299  1.00  0.00     0.006 C 
BRANCH   3   4
ATOM      4  C   UNL     1       4.163  45.851  10.756  1.00  0.00     0.053 C 
BRANCH   4   5
ATOM      5  C   UNL     1       4.024  44.435  11.228  1.00  0.00     0.041 C 
ATOM      6  O   UNL     1       3.847  44.189  12.450  1.00  0.00    -0.550 OA
ATOM      7  O   UNL     1       4.126  43.386  10.322  1.00  0.00    -0.550 OA
ENDBRANCH   4   5
ENDBRANCH   3   4
ENDBRANCH   2   3
ENDBRANCH   1   2
BRANCH   1   8
ATOM      8  C   UNL     1       3.496  48.123   7.612  1.00  0.00     0.000 C 
BRANCH   8   9
ATOM      9  C   UNL     1       4.064  49.531   7.862  1.00  0.00    -0.000 C 
BRANCH   9  10
ATOM     10  C   UNL     1       4.032  49.926   9.348  1.00  0.00    -0.000 C 
BRANCH  10  11
ATOM     11  C   UNL     1       5.194  49.312  10.148  1.00  0.00    -0.000 C 
BRANCH  11  12
ATOM     12  C   UNL     1       6.470  49.159   9.306  1.00  0.00    -0.003 C 
ATOM     13  C   UNL     1       7.061  47.751   9.375  1.00  0.00     0.004 C 
ENDBRANCH  11  12
ENDBRANCH  10  11
ENDBRANCH   9  10
ENDBRANCH   8   9
ENDBRANCH   1   8
TORSDOF 9
ENDMDL
MODEL 7
REMARK VINA RESULT:    -4.708      1.982      3.054
REMARK INTER + INTRA:          -7.624
REMARK INTER:                  -6.911
REMARK INTRA:                  -0.713
REMARK UNBOUND:                -0.438
REMARK SMILES CCCCCCCCCCC(=O)[O-]
REMARK SMILES IDX 7 1 8 2 9 3 10 4 11 5 12 6 13 7 6 8 5 9 4 10 3 11 2 12 1 13
REMARK H PARENT
REMARK Flexibility Score: inf
ROOT
ATOM      1  C   UNL     1       4.008  46.147  10.853  1.00  0.00     0.000 C 
ENDROOT
BRANCH   1   2
ATOM      2  C   UNL     1       3.963  44.701  11.371  1.00  0.00     0.000 C 
BRANCH   2   3
ATOM      3  C   UNL     1       3.915  43.702  10.207  1.00  0.00     0.006 C 
BRANCH   3   4
ATOM      4  C   UNL     1       2.644  42.843  10.229  1.00  0.00     0.053 C 
BRANCH   4   5
ATOM      5  C   UNL     1       2.439  42.184  11.559  1.00  0.00     0.041 C 
ATOM      6  O   UNL     1       3.231  41.288  11.950  1.00  0.00    -0.550 OA
ATOM      7  O   UNL     1       1.353  42.537  12.351  1.00  0.00    -0.550 OA
ENDBRANCH   4   5
ENDBRANCH   3   4
ENDBRANCH   2   3
ENDBRANCH   1   2
BRANCH   1   8
ATOM      8  C   UNL     1       3.701  46.249   9.351  1.00  0.00     0.000 C 
BRANCH   8   9
ATOM      9  C   UNL     1       4.687  47.168   8.607  1.00  0.00    -0.000 C 
BRANCH   9  10
ATOM     10  C   UNL     1       6.034  47.302   9.336  1.00  0.00    -0.000 C 
BRANCH  10  11
ATOM     11  C   UNL     1       6.738  48.637   9.035  1.00  0.00    -0.000 C 
BRANCH  11  12
ATOM     12  C   UNL     1       5.776  49.834   9.090  1.00  0.00    -0.003 C 
ATOM     13  C   UNL     1       5.380  50.212  10.516  1.00  0.00     0.004 C 
ENDBRANCH  11  12
ENDBRANCH  10  11
ENDBRANCH   9  10
ENDBRANCH   8   9
ENDBRANCH   1   8
TORSDOF 9
ENDMDL
MODEL 8
REMARK VINA RESULT:    -4.690      4.916      7.259
REMARK INTER + INTRA:          -7.596
REMARK INTER:                  -6.723
REMARK INTRA:                  -0.873
REMARK UNBOUND:                -0.438
REMARK SMILES CCCCCCCCCCC(=O)[O-]
REMARK SMILES IDX 7 1 8 2 9 3 10 4 11 5 12 6 13 7 6 8 5 9 4 10 3 11 2 12 1 13
REMARK H PARENT
REMARK Flexibility Score: inf
ROOT
ATOM      1  C   UNL     1       4.477  44.915  10.576  1.00  0.00     0.000 C 
ENDROOT
BRANCH   1   2
ATOM      2  C   UNL     1       4.146  46.396  10.344  1.00  0.00     0.000 C 
BRANCH   2   3
ATOM      3  C   UNL     1       4.671  46.870   8.981  1.00  0.00     0.006 C 
BRANCH   3   4
ATOM      4  C   UNL     1       5.920  47.752   9.113  1.00  0.00     0.053 C 
BRANCH   4   5
ATOM      5  C   UNL     1       5.692  49.126   8.561  1.00  0.00     0.041 C 
ATOM      6  O   UNL     1       6.631  49.965   8.542  1.00  0.00    -0.550 OA
ATOM      7  O   UNL     1       4.434  49.491   8.098  1.00  0.00    -0.550 OA
ENDBRANCH   4   5
ENDBRANCH   3   4
ENDBRANCH   2   3
ENDBRANCH   1   2
BRANCH   1   8
ATOM      8  C   UNL     1       4.125  44.442  11.996  1.00  0.00     0.000 C 
BRANCH   8   9
ATOM      9  C   UNL     1       3.598  42.997  12.024  1.00  0.00    -0.000 C 
BRANCH   9  10
ATOM     10  C   UNL     1       2.364  42.800  11.127  1.00  0.00    -0.000 C 
BRANCH  10  11
ATOM     11  C   UNL     1       1.153  43.622  11.600  1.00  0.00    -0.000 C 
BRANCH  11  12
ATOM     12  C   UNL     1       0.693  44.649  10.553  1.00  0.00    -0.003 C 
ATOM     13  C   UNL     1       1.095  44.264   9.129  1.00  0.00     0.004 C 
ENDBRANCH  11  12
ENDBRANCH  10  11
ENDBRANCH   9  10
ENDBRANCH   8   9
ENDBRANCH   1   8
TORSDOF 9
ENDMDL
MODEL 9
REMARK VINA RESULT:    -4.689      2.746      4.954
REMARK INTER + INTRA:          -7.594
REMARK INTER:                  -6.555
REMARK INTRA:                  -1.039
REMARK UNBOUND:                -0.438
REMARK SMILES CCCCCCCCCCC(=O)[O-]
REMARK SMILES IDX 7 1 8 2 9 3 10 4 11 5 12 6 13 7 6 8 5 9 4 10 3 11 2 12 1 13
REMARK H PARENT
REMARK Flexibility Score: inf
ROOT
ATOM      1  C   UNL     1       6.442  47.533   9.382  1.00  0.00     0.000 C 
ENDROOT
BRANCH   1   2
ATOM      2  C   UNL     1       5.137  46.769   9.116  1.00  0.00     0.000 C 
BRANCH   2   3
ATOM      3  C   UNL     1       4.624  46.093  10.396  1.00  0.00     0.006 C 
BRANCH   3   4
ATOM      4  C   UNL     1       4.124  44.665  10.141  1.00  0.00     0.053 C 
BRANCH   4   5
ATOM      5  C   UNL     1       3.761  43.966  11.415  1.00  0.00     0.041 C 
ATOM      6  O   UNL     1       4.164  44.415  12.521  1.00  0.00    -0.550 OA
ATOM      7  O   UNL     1       3.007  42.799  11.380  1.00  0.00    -0.550 OA
ENDBRANCH   4   5
ENDBRANCH   3   4
ENDBRANCH   2   3
ENDBRANCH   1   2
BRANCH   1   8
ATOM      8  C   UNL     1       6.339  49.026   9.031  1.00  0.00     0.000 C 
BRANCH   8   9
ATOM      9  C   UNL     1       5.769  49.868  10.187  1.00  0.00    -0.000 C 
BRANCH   9  10
ATOM     10  C   UNL     1       4.403  50.488   9.849  1.00  0.00    -0.000 C 
BRANCH  10  11
ATOM     11  C   UNL     1       3.237  49.763  10.544  1.00  0.00    -0.000 C 
BRANCH  11  12
ATOM     12  C   UNL     1       2.330  49.022   9.551  1.00  0.00    -0.003 C 
ATOM     13  C   UNL     1       2.615  49.392   8.096  1.00  0.00     0.004 C 
ENDBRANCH  11  12
ENDBRANCH  10  11
ENDBRANCH   9  10
ENDBRANCH   8   9
ENDBRANCH   1   8
TORSDOF 9
ENDMDL
