MODEL 1
REMARK VINA RESULT:    -2.624      0.000      0.000
REMARK INTER + INTRA:          -3.209
REMARK INTER:                  -3.084
REMARK INTRA:                  -0.125
REMARK UNBOUND:                -0.125
REMARK SMILES O=C([O-])CCC(=O)[O-]
REMARK SMILES IDX 4 1 2 2 1 3 3 4 5 5 6 6 7 7 8 8
REMARK H PARENT
REMARK Flexibility Score: inf
ROOT
ATOM      1  C   UNL     1     124.574  55.796  43.367  1.00  0.00     0.059 C 
ENDROOT
BRANCH   1   2
ATOM      2  C   UNL     1     124.668  56.710  44.547  1.00  0.00     0.042 C 
ATOM      3  O   UNL     1     124.762  57.955  44.379  1.00  0.00    -0.550 OA
ATOM      4  O   UNL     1     124.603  56.193  45.835  1.00  0.00    -0.550 OA
ENDBRANCH   1   2
BRANCH   1   5
ATOM      5  C   UNL     1     125.947  55.214  43.031  1.00  0.00     0.059 C 
BRANCH   5   6
ATOM      6  C   UNL     1     126.067  53.818  43.553  1.00  0.00     0.042 C 
ATOM      7  O   UNL     1     125.590  52.854  42.898  1.00  0.00    -0.550 OA
ATOM      8  O   UNL     1     126.660  53.585  44.787  1.00  0.00    -0.550 OA
ENDBRANCH   5   6
ENDBRANCH   1   5
TORSDOF 3
ENDMDL
MODEL 2
REMARK VINA RESULT:    -2.612     12.247     13.366
REMARK INTER + INTRA:          -3.195
REMARK INTER:                  -3.075
REMARK INTRA:                  -0.121
REMARK UNBOUND:                -0.125
REMARK SMILES O=C([O-])CCC(=O)[O-]
REMARK SMILES IDX 4 1 2 2 1 3 3 4 5 5 6 6 7 7 8 8
REMARK H PARENT
REMARK Flexibility Score: inf
ROOT
ATOM      1  C   UNL     1     117.941  52.158  54.166  1.00  0.00     0.059 C 
ENDROOT
BRANCH   1   2
ATOM      2  C   UNL     1     118.600  53.484  54.377  1.00  0.00     0.042 C 
ATOM      3  O   UNL     1     118.774  54.267  53.406  1.00  0.00    -0.550 OA
ATOM      4  O   UNL     1     118.979  53.877  55.654  1.00  0.00    -0.550 OA
ENDBRANCH   1   2
BRANCH   1   5
ATOM      5  C   UNL     1     116.465  52.225  54.560  1.00  0.00     0.059 C 
BRANCH   5   6
ATOM      6  C   UNL     1     115.611  52.451  53.353  1.00  0.00     0.042 C 
ATOM      7  O   UNL     1     115.212  53.611  53.068  1.00  0.00    -0.550 OA
ATOM      8  O   UNL     1     115.215  51.375  52.569  1.00  0.00    -0.550 OA
ENDBRANCH   5   6
ENDBRANCH   1   5
TORSDOF 3
ENDMDL
MODEL 3
REMARK VINA RESULT:    -2.609     12.189     13.310
REMARK INTER + INTRA:          -3.192
REMARK INTER:                  -3.078
REMARK INTRA:                  -0.113
REMARK UNBOUND:                -0.125
REMARK SMILES O=C([O-])CCC(=O)[O-]
REMARK SMILES IDX 4 1 2 2 1 3 3 4 5 5 6 6 7 7 8 8
REMARK H PARENT
REMARK Flexibility Score: inf
ROOT
ATOM      1  C   UNL     1     116.470  52.296  54.527  1.00  0.00     0.059 C 
ENDROOT
BRANCH   1   2
ATOM      2  C   UNL     1     115.560  52.484  53.355  1.00  0.00     0.042 C 
ATOM      3  O   UNL     1     115.161  53.637  53.041  1.00  0.00    -0.550 OA
ATOM      4  O   UNL     1     115.191  51.393  52.579  1.00  0.00    -0.550 OA
ENDBRANCH   1   2
BRANCH   1   5
ATOM      5  C   UNL     1     117.925  52.209  54.066  1.00  0.00     0.059 C 
BRANCH   5   6
ATOM      6  C   UNL     1     118.614  53.523  54.255  1.00  0.00     0.042 C 
ATOM      7  O   UNL     1     118.819  54.278  53.268  1.00  0.00    -0.550 OA
ATOM      8  O   UNL     1     119.073  53.895  55.512  1.00  0.00    -0.550 OA
ENDBRANCH   5   6
ENDBRANCH   1   5
TORSDOF 3
ENDMDL
MODEL 4
REMARK VINA RESULT:    -2.576      0.141      3.762
REMARK INTER + INTRA:          -3.153
REMARK INTER:                  -3.035
REMARK INTRA:                  -0.118
REMARK UNBOUND:                -0.125
REMARK SMILES O=C([O-])CCC(=O)[O-]
REMARK SMILES IDX 4 1 2 2 1 3 3 4 5 5 6 6 7 7 8 8
REMARK H PARENT
REMARK Flexibility Score: inf
ROOT
ATOM      1  C   UNL     1     126.043  55.148  43.132  1.00  0.00     0.059 C 
ENDROOT
BRANCH   1   2
ATOM      2  C   UNL     1     126.098  53.748  43.657  1.00  0.00     0.042 C 
ATOM      3  O   UNL     1     126.631  53.510  44.773  1.00  0.00    -0.550 OA
ATOM      4  O   UNL     1     125.518  52.712  42.937  1.00  0.00    -0.550 OA
ENDBRANCH   1   2
BRANCH   1   5
ATOM      5  C   UNL     1     124.643  55.734  43.315  1.00  0.00     0.059 C 
BRANCH   5   6
ATOM      6  C   UNL     1     124.632  56.722  44.437  1.00  0.00     0.042 C 
ATOM      7  O   UNL     1     124.664  57.958  44.192  1.00  0.00    -0.550 OA
ATOM      8  O   UNL     1     124.635  56.282  45.754  1.00  0.00    -0.550 OA
ENDBRANCH   5   6
ENDBRANCH   1   5
TORSDOF 3
ENDMDL
MODEL 5
REMARK VINA RESULT:    -2.551     12.793     13.383
REMARK INTER + INTRA:          -3.124
REMARK INTER:                  -2.983
REMARK INTRA:                  -0.141
REMARK UNBOUND:                -0.125
REMARK SMILES O=C([O-])CCC(=O)[O-]
REMARK SMILES IDX 4 1 2 2 1 3 3 4 5 5 6 6 7 7 8 8
REMARK H PARENT
REMARK Flexibility Score: inf
ROOT
ATOM      1  C   UNL     1     115.542  53.101  53.538  1.00  0.00     0.059 C 
ENDROOT
BRANCH   1   2
ATOM      2  C   UNL     1     115.359  52.337  52.265  1.00  0.00     0.042 C 
ATOM      3  O   UNL     1     115.219  51.086  52.292  1.00  0.00    -0.550 OA
ATOM      4  O   UNL     1     115.295  53.010  51.052  1.00  0.00    -0.550 OA
ENDBRANCH   1   2
BRANCH   1   5
ATOM      5  C   UNL     1     116.382  52.295  54.530  1.00  0.00     0.059 C 
BRANCH   5   6
ATOM      6  C   UNL     1     117.838  52.444  54.225  1.00  0.00     0.042 C 
ATOM      7  O   UNL     1     118.431  53.526  54.479  1.00  0.00    -0.550 OA
ATOM      8  O   UNL     1     118.531  51.406  53.616  1.00  0.00    -0.550 OA
ENDBRANCH   5   6
ENDBRANCH   1   5
TORSDOF 3
ENDMDL
MODEL 6
REMARK VINA RESULT:    -2.381     12.323     13.176
REMARK INTER + INTRA:          -2.924
REMARK INTER:                  -2.810
REMARK INTRA:                  -0.114
REMARK UNBOUND:                -0.125
REMARK SMILES O=C([O-])CCC(=O)[O-]
REMARK SMILES IDX 4 1 2 2 1 3 3 4 5 5 6 6 7 7 8 8
REMARK H PARENT
REMARK Flexibility Score: inf
ROOT
ATOM      1  C   UNL     1     115.673  53.814  52.164  1.00  0.00     0.059 C 
ENDROOT
BRANCH   1   2
ATOM      2  C   UNL     1     115.273  53.347  50.800  1.00  0.00     0.042 C 
ATOM      3  O   UNL     1     114.780  54.158  49.972  1.00  0.00    -0.550 OA
ATOM      4  O   UNL     1     115.489  52.027  50.426  1.00  0.00    -0.550 OA
ENDBRANCH   1   2
BRANCH   1   5
ATOM      5  C   UNL     1     115.253  52.793  53.223  1.00  0.00     0.059 C 
BRANCH   5   6
ATOM      6  C   UNL     1     116.446  52.305  53.981  1.00  0.00     0.042 C 
ATOM      7  O   UNL     1     116.679  52.737  55.141  1.00  0.00    -0.550 OA
ATOM      8  O   UNL     1     117.328  51.410  53.390  1.00  0.00    -0.550 OA
ENDBRANCH   5   6
ENDBRANCH   1   5
TORSDOF 3
ENDMDL
MODEL 7
REMARK VINA RESULT:    -2.357     12.526     13.180
REMARK INTER + INTRA:          -2.895
REMARK INTER:                  -2.775
REMARK INTRA:                  -0.120
REMARK UNBOUND:                -0.125
REMARK SMILES O=C([O-])CCC(=O)[O-]
REMARK SMILES IDX 4 1 2 2 1 3 3 4 5 5 6 6 7 7 8 8
REMARK H PARENT
REMARK Flexibility Score: inf
ROOT
ATOM      1  C   UNL     1     116.004  52.418  54.055  1.00  0.00     0.059 C 
ENDROOT
BRANCH   1   2
ATOM      2  C   UNL     1     117.495  52.316  54.129  1.00  0.00     0.042 C 
ATOM      3  O   UNL     1     118.080  51.277  53.724  1.00  0.00    -0.550 OA
ATOM      4  O   UNL     1     118.243  53.388  54.599  1.00  0.00    -0.550 OA
ENDBRANCH   1   2
BRANCH   1   5
ATOM      5  C   UNL     1     115.479  51.686  52.819  1.00  0.00     0.059 C 
BRANCH   5   6
ATOM      6  C   UNL     1     115.530  52.579  51.621  1.00  0.00     0.042 C 
ATOM      7  O   UNL     1     115.755  52.096  50.480  1.00  0.00    -0.550 OA
ATOM      8  O   UNL     1     115.379  53.952  51.768  1.00  0.00    -0.550 OA
ENDBRANCH   5   6
ENDBRANCH   1   5
TORSDOF 3
ENDMDL
MODEL 8
REMARK VINA RESULT:    -2.355      7.560      8.221
REMARK INTER + INTRA:          -2.894
REMARK INTER:                  -2.864
REMARK INTRA:                  -0.029
REMARK UNBOUND:                -0.125
REMARK SMILES O=C([O-])CCC(=O)[O-]
REMARK SMILES IDX 4 1 2 2 1 3 3 4 5 5 6 6 7 7 8 8
REMARK H PARENT
REMARK Flexibility Score: inf
ROOT
ATOM      1  C   UNL     1     122.698  57.312  50.801  1.00  0.00     0.059 C 
ENDROOT
BRANCH   1   2
ATOM      2  C   UNL     1     121.548  58.039  50.179  1.00  0.00     0.042 C 
ATOM      3  O   UNL     1     120.521  58.300  50.859  1.00  0.00    -0.550 OA
ATOM      4  O   UNL     1     121.630  58.472  48.862  1.00  0.00    -0.550 OA
ENDBRANCH   1   2
BRANCH   1   5
ATOM      5  C   UNL     1     123.571  58.278  51.602  1.00  0.00     0.059 C 
BRANCH   5   6
ATOM      6  C   UNL     1     124.862  57.625  51.983  1.00  0.00     0.042 C 
ATOM      7  O   UNL     1     124.871  56.435  52.396  1.00  0.00    -0.550 OA
ATOM      8  O   UNL     1     126.049  58.344  51.928  1.00  0.00    -0.550 OA
ENDBRANCH   5   6
ENDBRANCH   1   5
TORSDOF 3
ENDMDL
MODEL 9
REMARK VINA RESULT:    -2.343      2.169      4.066
REMARK INTER + INTRA:          -2.879
REMARK INTER:                  -2.756
REMARK INTRA:                  -0.123
REMARK UNBOUND:                -0.125
REMARK SMILES O=C([O-])CCC(=O)[O-]
REMARK SMILES IDX 4 1 2 2 1 3 3 4 5 5 6 6 7 7 8 8
REMARK H PARENT
REMARK Flexibility Score: inf
ROOT
ATOM      1  C   UNL     1     126.144  53.423  45.217  1.00  0.00     0.059 C 
ENDROOT
BRANCH   1   2
ATOM      2  C   UNL     1     125.718  51.990  45.248  1.00  0.00     0.042 C 
ATOM      3  O   UNL     1     126.212  51.200  46.095  1.00  0.00    -0.550 OA
ATOM      4  O   UNL     1     124.738  51.537  44.374  1.00  0.00    -0.550 OA
ENDBRANCH   1   2
BRANCH   1   5
ATOM      5  C   UNL     1     126.558  53.827  43.801  1.00  0.00     0.059 C 
BRANCH   5   6
ATOM      6  C   UNL     1     125.627  54.864  43.259  1.00  0.00     0.042 C 
ATOM      7  O   UNL     1     126.079  55.850  42.620  1.00  0.00    -0.550 OA
ATOM      8  O   UNL     1     124.262  54.770  43.502  1.00  0.00    -0.550 OA
ENDBRANCH   5   6
ENDBRANCH   1   5
TORSDOF 3
ENDMDL
