MODEL 1
REMARK VINA RESULT:    -3.395      0.000      0.000
REMARK INTER + INTRA:          -4.537
REMARK INTER:                  -4.387
REMARK INTRA:                  -0.149
REMARK UNBOUND:                -0.149
REMARK SMILES C=CC(=O)CCCCC
REMARK SMILES IDX 6 1 7 2 8 3 9 4 5 5 3 6 4 7 2 8 1 9
REMARK H PARENT
REMARK Flexibility Score: inf
ROOT
ATOM      1  C   UNL     1      -1.289 -20.241 -19.892  1.00  0.00     0.008 C 
ENDROOT
BRANCH   1   2
ATOM      2  C   UNL     1       0.151 -20.197 -19.370  1.00  0.00     0.000 C 
BRANCH   2   3
ATOM      3  C   UNL     1       0.883 -18.950 -19.880  1.00  0.00    -0.003 C 
ATOM      4  C   UNL     1       2.038 -18.573 -18.957  1.00  0.00     0.004 C 
ENDBRANCH   2   3
ENDBRANCH   1   2
BRANCH   1   5
ATOM      5  C   UNL     1      -2.199 -21.013 -18.931  1.00  0.00     0.080 C 
BRANCH   5   6
ATOM      6  C   UNL     1      -3.462 -20.245 -18.671  1.00  0.00     0.155 C 
ATOM      7  O   UNL     1      -3.559 -19.554 -17.620  1.00  0.00    -0.295 OA
BRANCH   6   8
ATOM      8  C   UNL     1      -4.558 -20.267 -19.658  1.00  0.00     0.039 C 
ATOM      9  C   UNL     1      -5.234 -19.172 -20.000  1.00  0.00     0.012 C 
ENDBRANCH   6   8
ENDBRANCH   5   6
ENDBRANCH   1   5
TORSDOF 5
ENDMDL
MODEL 2
REMARK VINA RESULT:    -3.356      1.523      2.164
REMARK INTER + INTRA:          -4.486
REMARK INTER:                  -4.367
REMARK INTRA:                  -0.119
REMARK UNBOUND:                -0.149
REMARK SMILES C=CC(=O)CCCCC
REMARK SMILES IDX 6 1 7 2 8 3 9 4 5 5 3 6 4 7 2 8 1 9
REMARK H PARENT
REMARK Flexibility Score: inf
ROOT
ATOM      1  C   UNL     1       0.577 -20.119 -19.270  1.00  0.00     0.008 C 
ENDROOT
BRANCH   1   2
ATOM      2  C   UNL     1       1.259 -18.806 -19.669  1.00  0.00     0.000 C 
BRANCH   2   3
ATOM      3  C   UNL     1       2.271 -18.366 -18.604  1.00  0.00    -0.003 C 
ATOM      4  C   UNL     1       3.254 -19.488 -18.281  1.00  0.00     0.004 C 
ENDBRANCH   2   3
ENDBRANCH   1   2
BRANCH   1   5
ATOM      5  C   UNL     1      -0.815 -20.228 -19.901  1.00  0.00     0.080 C 
BRANCH   5   6
ATOM      6  C   UNL     1      -1.757 -20.945 -18.978  1.00  0.00     0.155 C 
ATOM      7  O   UNL     1      -1.427 -22.070 -18.512  1.00  0.00    -0.295 OA
BRANCH   6   8
ATOM      8  C   UNL     1      -3.033 -20.315 -18.588  1.00  0.00     0.039 C 
ATOM      9  C   UNL     1      -4.191 -20.970 -18.617  1.00  0.00     0.012 C 
ENDBRANCH   6   8
ENDBRANCH   5   6
ENDBRANCH   1   5
TORSDOF 5
ENDMDL
MODEL 3
REMARK VINA RESULT:    -3.321     14.912     15.982
REMARK INTER + INTRA:          -4.441
REMARK INTER:                  -4.066
REMARK INTRA:                  -0.376
REMARK UNBOUND:                -0.149
REMARK SMILES C=CC(=O)CCCCC
REMARK SMILES IDX 6 1 7 2 8 3 9 4 5 5 3 6 4 7 2 8 1 9
REMARK H PARENT
REMARK Flexibility Score: inf
ROOT
ATOM      1  C   UNL     1       9.887 -10.142 -19.862  1.00  0.00     0.008 C 
ENDROOT
BRANCH   1   2
ATOM      2  C   UNL     1      10.409 -11.215 -18.900  1.00  0.00     0.000 C 
BRANCH   2   3
ATOM      3  C   UNL     1      10.716 -10.615 -17.523  1.00  0.00    -0.003 C 
ATOM      4  C   UNL     1      10.415 -11.613 -16.407  1.00  0.00     0.004 C 
ENDBRANCH   2   3
ENDBRANCH   1   2
BRANCH   1   5
ATOM      5  C   UNL     1       8.529  -9.603 -19.399  1.00  0.00     0.080 C 
BRANCH   5   6
ATOM      6  C   UNL     1       8.620  -8.135 -19.104  1.00  0.00     0.155 C 
ATOM      7  O   UNL     1       7.702  -7.581 -18.438  1.00  0.00    -0.295 OA
BRANCH   6   8
ATOM      8  C   UNL     1       9.794  -7.361 -19.551  1.00  0.00     0.039 C 
ATOM      9  C   UNL     1      10.567  -6.682 -18.707  1.00  0.00     0.012 C 
ENDBRANCH   6   8
ENDBRANCH   5   6
ENDBRANCH   1   5
TORSDOF 5
ENDMDL
MODEL 4
REMARK VINA RESULT:    -3.251      2.152      5.294
REMARK INTER + INTRA:          -4.351
REMARK INTER:                  -4.229
REMARK INTRA:                  -0.122
REMARK UNBOUND:                -0.149
REMARK SMILES C=CC(=O)CCCCC
REMARK SMILES IDX 6 1 7 2 8 3 9 4 5 5 3 6 4 7 2 8 1 9
REMARK H PARENT
REMARK Flexibility Score: inf
ROOT
ATOM      1  C   UNL     1      -1.183 -20.854 -19.245  1.00  0.00     0.008 C 
ENDROOT
BRANCH   1   2
ATOM      2  C   UNL     1      -2.551 -20.361 -19.729  1.00  0.00     0.000 C 
BRANCH   2   3
ATOM      3  C   UNL     1      -3.517 -20.179 -18.552  1.00  0.00    -0.003 C 
ATOM      4  C   UNL     1      -3.482 -21.386 -17.618  1.00  0.00     0.004 C 
ENDBRANCH   2   3
ENDBRANCH   1   2
BRANCH   1   5
ATOM      5  C   UNL     1      -0.062 -19.929 -19.733  1.00  0.00     0.080 C 
BRANCH   5   6
ATOM      6  C   UNL     1       1.204 -20.191 -18.972  1.00  0.00     0.155 C 
ATOM      7  O   UNL     1       1.423 -21.347 -18.515  1.00  0.00    -0.295 OA
BRANCH   6   8
ATOM      8  C   UNL     1       2.201 -19.116 -18.802  1.00  0.00     0.039 C 
ATOM      9  C   UNL     1       3.279 -19.256 -18.034  1.00  0.00     0.012 C 
ENDBRANCH   6   8
ENDBRANCH   5   6
ENDBRANCH   1   5
TORSDOF 5
ENDMDL
MODEL 5
REMARK VINA RESULT:    -3.141     14.920     16.069
REMARK INTER + INTRA:          -4.209
REMARK INTER:                  -3.792
REMARK INTRA:                  -0.416
REMARK UNBOUND:                -0.149
REMARK SMILES C=CC(=O)CCCCC
REMARK SMILES IDX 6 1 7 2 8 3 9 4 5 5 3 6 4 7 2 8 1 9
REMARK H PARENT
REMARK Flexibility Score: inf
ROOT
ATOM      1  C   UNL     1      11.072  -9.352 -18.553  1.00  0.00     0.008 C 
ENDROOT
BRANCH   1   2
ATOM      2  C   UNL     1      10.876 -10.840 -18.866  1.00  0.00     0.000 C 
BRANCH   2   3
ATOM      3  C   UNL     1       9.985 -11.510 -17.813  1.00  0.00    -0.003 C 
ATOM      4  C   UNL     1      10.601 -11.402 -16.420  1.00  0.00     0.004 C 
ENDBRANCH   2   3
ENDBRANCH   1   2
BRANCH   1   5
ATOM      5  C   UNL     1      10.638  -8.480 -19.736  1.00  0.00     0.080 C 
BRANCH   5   6
ATOM      6  C   UNL     1       9.479  -7.609 -19.350  1.00  0.00     0.155 C 
ATOM      7  O   UNL     1       9.633  -6.357 -19.309  1.00  0.00    -0.295 OA
BRANCH   6   8
ATOM      8  C   UNL     1       8.162  -8.212 -19.067  1.00  0.00     0.039 C 
ATOM      9  C   UNL     1       7.669  -9.221 -19.782  1.00  0.00     0.012 C 
ENDBRANCH   6   8
ENDBRANCH   5   6
ENDBRANCH   1   5
TORSDOF 5
ENDMDL
MODEL 6
REMARK VINA RESULT:    -3.063     20.751     21.589
REMARK INTER + INTRA:          -4.108
REMARK INTER:                  -3.713
REMARK INTRA:                  -0.394
REMARK UNBOUND:                -0.149
REMARK SMILES C=CC(=O)CCCCC
REMARK SMILES IDX 6 1 7 2 8 3 9 4 5 5 3 6 4 7 2 8 1 9
REMARK H PARENT
REMARK Flexibility Score: inf
ROOT
ATOM      1  C   UNL     1      -7.236  -6.737  -5.200  1.00  0.00     0.008 C 
ENDROOT
BRANCH   1   2
ATOM      2  C   UNL     1      -7.454  -6.196  -6.618  1.00  0.00     0.000 C 
BRANCH   2   3
ATOM      3  C   UNL     1      -8.631  -5.214  -6.656  1.00  0.00    -0.003 C 
ATOM      4  C   UNL     1      -8.192  -3.847  -7.173  1.00  0.00     0.004 C 
ENDBRANCH   2   3
ENDBRANCH   1   2
BRANCH   1   5
ATOM      5  C   UNL     1      -8.519  -6.631  -4.369  1.00  0.00     0.080 C 
BRANCH   5   6
ATOM      6  C   UNL     1      -8.263  -5.868  -3.102  1.00  0.00     0.155 C 
ATOM      7  O   UNL     1      -8.777  -6.272  -2.023  1.00  0.00    -0.295 OA
BRANCH   6   8
ATOM      8  C   UNL     1      -7.382  -4.684  -3.117  1.00  0.00     0.039 C 
ATOM      9  C   UNL     1      -6.336  -4.561  -2.303  1.00  0.00     0.012 C 
ENDBRANCH   6   8
ENDBRANCH   5   6
ENDBRANCH   1   5
TORSDOF 5
ENDMDL
MODEL 7
REMARK VINA RESULT:    -3.056     20.409     21.340
REMARK INTER + INTRA:          -4.099
REMARK INTER:                  -3.904
REMARK INTRA:                  -0.195
REMARK UNBOUND:                -0.149
REMARK SMILES C=CC(=O)CCCCC
REMARK SMILES IDX 6 1 7 2 8 3 9 4 5 5 3 6 4 7 2 8 1 9
REMARK H PARENT
REMARK Flexibility Score: inf
ROOT
ATOM      1  C   UNL     1      -8.551  -4.534  -6.178  1.00  0.00     0.008 C 
ENDROOT
BRANCH   1   2
ATOM      2  C   UNL     1      -7.795  -5.851  -6.387  1.00  0.00     0.000 C 
BRANCH   2   3
ATOM      3  C   UNL     1      -7.354  -6.449  -5.046  1.00  0.00    -0.003 C 
ATOM      4  C   UNL     1      -7.503  -5.436  -3.914  1.00  0.00     0.004 C 
ENDBRANCH   2   3
ENDBRANCH   1   2
BRANCH   1   5
ATOM      5  C   UNL     1      -8.767  -3.808  -7.511  1.00  0.00     0.080 C 
BRANCH   5   6
ATOM      6  C   UNL     1      -8.009  -2.514  -7.533  1.00  0.00     0.155 C 
ATOM      7  O   UNL     1      -7.630  -2.000  -6.445  1.00  0.00    -0.295 OA
BRANCH   6   8
ATOM      8  C   UNL     1      -7.673  -1.875  -8.821  1.00  0.00     0.039 C 
ATOM      9  C   UNL     1      -8.222  -2.255  -9.972  1.00  0.00     0.012 C 
ENDBRANCH   6   8
ENDBRANCH   5   6
ENDBRANCH   1   5
TORSDOF 5
ENDMDL
MODEL 8
REMARK VINA RESULT:    -3.027     20.842     21.630
REMARK INTER + INTRA:          -4.061
REMARK INTER:                  -3.787
REMARK INTRA:                  -0.274
REMARK UNBOUND:                -0.149
REMARK SMILES C=CC(=O)CCCCC
REMARK SMILES IDX 6 1 7 2 8 3 9 4 5 5 3 6 4 7 2 8 1 9
REMARK H PARENT
REMARK Flexibility Score: inf
ROOT
ATOM      1  C   UNL     1      -8.138  -5.396  -3.676  1.00  0.00     0.008 C 
ENDROOT
BRANCH   1   2
ATOM      2  C   UNL     1      -6.867  -4.869  -3.001  1.00  0.00     0.000 C 
BRANCH   2   3
ATOM      3  C   UNL     1      -7.088  -4.663  -1.499  1.00  0.00    -0.003 C 
ATOM      4  C   UNL     1      -8.230  -5.536  -0.984  1.00  0.00     0.004 C 
ENDBRANCH   2   3
ENDBRANCH   1   2
BRANCH   1   5
ATOM      5  C   UNL     1      -7.823  -6.589  -4.586  1.00  0.00     0.080 C 
BRANCH   5   6
ATOM      6  C   UNL     1      -7.655  -6.136  -6.007  1.00  0.00     0.155 C 
ATOM      7  O   UNL     1      -6.741  -6.643  -6.713  1.00  0.00    -0.295 OA
BRANCH   6   8
ATOM      8  C   UNL     1      -8.580  -5.140  -6.581  1.00  0.00     0.039 C 
ATOM      9  C   UNL     1      -8.182  -4.207  -7.443  1.00  0.00     0.012 C 
ENDBRANCH   6   8
ENDBRANCH   5   6
ENDBRANCH   1   5
TORSDOF 5
ENDMDL
MODEL 9
REMARK VINA RESULT:    -2.966     15.107     16.078
REMARK INTER + INTRA:          -3.982
REMARK INTER:                  -3.605
REMARK INTRA:                  -0.376
REMARK UNBOUND:                -0.149
REMARK SMILES C=CC(=O)CCCCC
REMARK SMILES IDX 6 1 7 2 8 3 9 4 5 5 3 6 4 7 2 8 1 9
REMARK H PARENT
REMARK Flexibility Score: inf
ROOT
ATOM      1  C   UNL     1       8.535  -9.133 -19.233  1.00  0.00     0.008 C 
ENDROOT
BRANCH   1   2
ATOM      2  C   UNL     1       8.530  -7.650 -19.622  1.00  0.00     0.000 C 
BRANCH   2   3
ATOM      3  C   UNL     1       9.947  -7.164 -19.949  1.00  0.00    -0.003 C 
ATOM      4  C   UNL     1      10.690  -6.739 -18.685  1.00  0.00     0.004 C 
ENDBRANCH   2   3
ENDBRANCH   1   2
BRANCH   1   5
ATOM      5  C   UNL     1       9.592  -9.906 -20.030  1.00  0.00     0.080 C 
BRANCH   5   6
ATOM      6  C   UNL     1      10.306 -10.885 -19.144  1.00  0.00     0.155 C 
ATOM      7  O   UNL     1      10.825 -11.915 -19.655  1.00  0.00    -0.295 OA
BRANCH   6   8
ATOM      8  C   UNL     1      10.435 -10.617 -17.699  1.00  0.00     0.039 C 
ATOM      9  C   UNL     1      10.328 -11.576 -16.782  1.00  0.00     0.012 C 
ENDBRANCH   6   8
ENDBRANCH   5   6
ENDBRANCH   1   5
TORSDOF 5
ENDMDL
