MODEL 1
REMARK VINA RESULT:    -3.896      0.000      0.000
REMARK INTER + INTRA:          -4.641
REMARK INTER:                  -4.352
REMARK INTRA:                  -0.289
REMARK UNBOUND:                -0.289
REMARK SMILES CC(=O)c1ccc(O)cc1O
REMARK SMILES IDX 4 1 10 2 9 3 7 4 6 5 5 6 2 7 1 8 3 9 11 10 8 12
REMARK H PARENT 11 11 8 13
REMARK Flexibility Score: inf
ROOT
ATOM      1  C   UNL     1      28.517  28.988  25.322  1.00  0.00     0.059 A 
ATOM      2  C   UNL     1      28.912  30.236  25.868  1.00  0.00     0.130 A 
ATOM      3  C   UNL     1      29.072  31.343  25.026  1.00  0.00     0.093 A 
ATOM      4  C   UNL     1      28.812  31.240  23.654  1.00  0.00     0.119 A 
ATOM      5  C   UNL     1      28.395  30.022  23.118  1.00  0.00     0.047 A 
ATOM      6  C   UNL     1      28.247  28.904  23.943  1.00  0.00     0.019 A 
ENDROOT
BRANCH   1   7
ATOM      7  C   UNL     1      28.414  27.765  26.152  1.00  0.00     0.163 C 
ATOM      8  C   UNL     1      27.549  26.615  25.734  1.00  0.00     0.093 C 
ATOM      9  O   UNL     1      29.124  27.645  27.187  1.00  0.00    -0.294 OA
ENDBRANCH   1   7
BRANCH   2  10
ATOM     10  O   UNL     1      29.124  30.421  27.236  1.00  0.00    -0.507 OA
ATOM     11  H   UNL     1      29.636  29.767  27.812  1.00  0.00     0.293 HD
ENDBRANCH   2  10
BRANCH   4  12
ATOM     12  O   UNL     1      28.964  32.344  22.817  1.00  0.00    -0.508 OA
ATOM     13  H   UNL     1      28.246  33.054  22.742  1.00  0.00     0.293 HD
ENDBRANCH   4  12
TORSDOF 3
ENDMDL
MODEL 2
REMARK VINA RESULT:    -3.815      1.365      4.650
REMARK INTER + INTRA:          -4.550
REMARK INTER:                  -4.302
REMARK INTRA:                  -0.248
REMARK UNBOUND:                -0.289
REMARK SMILES CC(=O)c1ccc(O)cc1O
REMARK SMILES IDX 4 1 10 2 9 3 7 4 6 5 5 6 2 7 1 8 3 9 11 10 8 12
REMARK H PARENT 11 11 8 13
REMARK Flexibility Score: inf
ROOT
ATOM      1  C   UNL     1      28.919  31.092  24.569  1.00  0.00     0.059 A 
ATOM      2  C   UNL     1      28.703  29.850  23.919  1.00  0.00     0.130 A 
ATOM      3  C   UNL     1      28.717  28.664  24.664  1.00  0.00     0.093 A 
ATOM      4  C   UNL     1      28.910  28.695  26.051  1.00  0.00     0.119 A 
ATOM      5  C   UNL     1      29.094  29.918  26.697  1.00  0.00     0.047 A 
ATOM      6  C   UNL     1      29.098  31.107  25.965  1.00  0.00     0.019 A 
ENDROOT
BRANCH   1   7
ATOM      7  C   UNL     1      28.998  32.367  23.818  1.00  0.00     0.163 C 
ATOM      8  C   UNL     1      29.030  33.685  24.531  1.00  0.00     0.093 C 
ATOM      9  O   UNL     1      29.123  32.352  22.564  1.00  0.00    -0.294 OA
ENDBRANCH   1   7
BRANCH   2  10
ATOM     10  O   UNL     1      28.442  29.757  22.551  1.00  0.00    -0.507 OA
ATOM     11  H   UNL     1      28.143  30.541  21.986  1.00  0.00     0.293 HD
ENDBRANCH   2  10
BRANCH   4  12
ATOM     12  O   UNL     1      28.917  27.516  26.793  1.00  0.00    -0.508 OA
ATOM     13  H   UNL     1      28.125  27.244  27.363  1.00  0.00     0.293 HD
ENDBRANCH   4  12
TORSDOF 3
ENDMDL
MODEL 3
REMARK VINA RESULT:    -3.591      1.373      4.082
REMARK INTER + INTRA:          -4.300
REMARK INTER:                  -4.088
REMARK INTRA:                  -0.212
REMARK UNBOUND:                -0.289
REMARK SMILES CC(=O)c1ccc(O)cc1O
REMARK SMILES IDX 4 1 10 2 9 3 7 4 6 5 5 6 2 7 1 8 3 9 11 10 8 12
REMARK H PARENT 11 11 8 13
REMARK Flexibility Score: inf
ROOT
ATOM      1  C   UNL     1      29.037  29.349  25.215  1.00  0.00     0.059 A 
ATOM      2  C   UNL     1      29.070  29.256  26.629  1.00  0.00     0.130 A 
ATOM      3  C   UNL     1      29.084  27.997  27.243  1.00  0.00     0.093 A 
ATOM      4  C   UNL     1      29.101  26.828  26.472  1.00  0.00     0.119 A 
ATOM      5  C   UNL     1      29.098  26.917  25.080  1.00  0.00     0.047 A 
ATOM      6  C   UNL     1      29.067  28.166  24.454  1.00  0.00     0.019 A 
ENDROOT
BRANCH   1   7
ATOM      7  C   UNL     1      28.936  30.652  24.517  1.00  0.00     0.163 C 
ATOM      8  C   UNL     1      28.936  30.731  23.021  1.00  0.00     0.093 C 
ATOM      9  O   UNL     1      28.764  31.710  25.180  1.00  0.00    -0.294 OA
ENDBRANCH   1   7
BRANCH   2  10
ATOM     10  O   UNL     1      29.119  30.382  27.453  1.00  0.00    -0.507 OA
ATOM     11  H   UNL     1      28.471  30.546  28.211  1.00  0.00     0.293 HD
ENDBRANCH   2  10
BRANCH   4  12
ATOM     12  O   UNL     1      29.123  25.575  27.081  1.00  0.00    -0.508 OA
ATOM     13  H   UNL     1      28.845  24.738  26.583  1.00  0.00     0.293 HD
ENDBRANCH   4  12
TORSDOF 3
ENDMDL
MODEL 4
REMARK VINA RESULT:    -3.150      1.841      2.780
REMARK INTER + INTRA:          -3.808
REMARK INTER:                  -3.520
REMARK INTRA:                  -0.288
REMARK UNBOUND:                -0.289
REMARK SMILES CC(=O)c1ccc(O)cc1O
REMARK SMILES IDX 4 1 10 2 9 3 7 4 6 5 5 6 2 7 1 8 3 9 11 10 8 12
REMARK H PARENT 11 11 8 13
REMARK Flexibility Score: inf
ROOT
ATOM      1  C   UNL     1      28.875  30.398  24.600  1.00  0.00     0.059 A 
ATOM      2  C   UNL     1      29.017  30.375  23.189  1.00  0.00     0.130 A 
ATOM      3  C   UNL     1      29.085  31.580  22.478  1.00  0.00     0.093 A 
ATOM      4  C   UNL     1      29.049  32.808  23.150  1.00  0.00     0.119 A 
ATOM      5  C   UNL     1      28.940  32.833  24.540  1.00  0.00     0.047 A 
ATOM      6  C   UNL     1      28.854  31.640  25.261  1.00  0.00     0.019 A 
ENDROOT
BRANCH   1   7
ATOM      7  C   UNL     1      28.714  29.156  25.393  1.00  0.00     0.163 C 
ATOM      8  C   UNL     1      29.051  29.120  26.852  1.00  0.00     0.093 C 
ATOM      9  O   UNL     1      28.209  28.131  24.861  1.00  0.00    -0.294 OA
ENDBRANCH   1   7
BRANCH   2  10
ATOM     10  O   UNL     1      29.122  29.185  22.467  1.00  0.00    -0.507 OA
ATOM     11  H   UNL     1      28.577  28.359  22.673  1.00  0.00     0.293 HD
ENDBRANCH   2  10
BRANCH   4  12
ATOM     12  O   UNL     1      29.125  34.006  22.443  1.00  0.00    -0.508 OA
ATOM     13  H   UNL     1      28.600  34.824  22.729  1.00  0.00     0.293 HD
ENDBRANCH   4  12
TORSDOF 3
ENDMDL
MODEL 5
REMARK VINA RESULT:    -3.125      6.789      7.177
REMARK INTER + INTRA:          -3.779
REMARK INTER:                  -3.527
REMARK INTRA:                  -0.252
REMARK UNBOUND:                -0.289
REMARK SMILES CC(=O)c1ccc(O)cc1O
REMARK SMILES IDX 4 1 10 2 9 3 7 4 6 5 5 6 2 7 1 8 3 9 11 10 8 12
REMARK H PARENT 11 11 8 13
REMARK Flexibility Score: inf
ROOT
ATOM      1  C   UNL     1      25.443  23.669  26.248  1.00  0.00     0.059 A 
ATOM      2  C   UNL     1      26.638  23.292  26.911  1.00  0.00     0.130 A 
ATOM      3  C   UNL     1      27.791  23.017  26.164  1.00  0.00     0.093 A 
ATOM      4  C   UNL     1      27.784  23.145  24.770  1.00  0.00     0.119 A 
ATOM      5  C   UNL     1      26.618  23.544  24.117  1.00  0.00     0.047 A 
ATOM      6  C   UNL     1      25.456  23.805  24.847  1.00  0.00     0.019 A 
ENDROOT
BRANCH   1   7
ATOM      7  C   UNL     1      24.174  23.889  26.981  1.00  0.00     0.163 C 
ATOM      8  C   UNL     1      23.063  22.886  26.927  1.00  0.00     0.093 C 
ATOM      9  O   UNL     1      24.048  24.894  27.732  1.00  0.00    -0.294 OA
ENDBRANCH   1   7
BRANCH   2  10
ATOM     10  O   UNL     1      26.728  23.208  28.302  1.00  0.00    -0.507 OA
ATOM     11  H   UNL     1      27.127  22.416  28.787  1.00  0.00     0.293 HD
ENDBRANCH   2  10
BRANCH   4  12
ATOM     12  O   UNL     1      28.933  22.879  24.027  1.00  0.00    -0.508 OA
ATOM     13  H   UNL     1      29.025  23.185  23.067  1.00  0.00     0.293 HD
ENDBRANCH   4  12
TORSDOF 3
ENDMDL
MODEL 6
REMARK VINA RESULT:    -2.957      2.366      5.168
REMARK INTER + INTRA:          -3.592
REMARK INTER:                  -3.353
REMARK INTRA:                  -0.239
REMARK UNBOUND:                -0.289
REMARK SMILES CC(=O)c1ccc(O)cc1O
REMARK SMILES IDX 4 1 10 2 9 3 7 4 6 5 5 6 2 7 1 8 3 9 11 10 8 12
REMARK H PARENT 11 11 8 13
REMARK Flexibility Score: inf
ROOT
ATOM      1  C   UNL     1      28.044  27.064  25.735  1.00  0.00     0.059 A 
ATOM      2  C   UNL     1      26.942  26.316  26.219  1.00  0.00     0.130 A 
ATOM      3  C   UNL     1      26.924  24.924  26.061  1.00  0.00     0.093 A 
ATOM      4  C   UNL     1      28.001  24.260  25.460  1.00  0.00     0.119 A 
ATOM      5  C   UNL     1      29.100  24.991  25.010  1.00  0.00     0.047 A 
ATOM      6  C   UNL     1      29.125  26.382  25.146  1.00  0.00     0.019 A 
ENDROOT
BRANCH   1   7
ATOM      7  C   UNL     1      28.078  28.545  25.800  1.00  0.00     0.163 C 
ATOM      8  C   UNL     1      27.815  29.380  24.585  1.00  0.00     0.093 C 
ATOM      9  O   UNL     1      28.247  29.122  26.909  1.00  0.00    -0.294 OA
ENDBRANCH   1   7
BRANCH   2  10
ATOM     10  O   UNL     1      25.867  26.910  26.883  1.00  0.00    -0.507 OA
ATOM     11  H   UNL     1      25.210  27.532  26.432  1.00  0.00     0.293 HD
ENDBRANCH   2  10
BRANCH   4  12
ATOM     12  O   UNL     1      27.987  22.875  25.310  1.00  0.00    -0.508 OA
ATOM     13  H   UNL     1      27.135  22.375  25.087  1.00  0.00     0.293 HD
ENDBRANCH   4  12
TORSDOF 3
ENDMDL
MODEL 7
REMARK VINA RESULT:    -2.850      2.937      4.795
REMARK INTER + INTRA:          -3.473
REMARK INTER:                  -3.169
REMARK INTRA:                  -0.303
REMARK UNBOUND:                -0.289
REMARK SMILES CC(=O)c1ccc(O)cc1O
REMARK SMILES IDX 4 1 10 2 9 3 7 4 6 5 5 6 2 7 1 8 3 9 11 10 8 12
REMARK H PARENT 11 11 8 13
REMARK Flexibility Score: inf
ROOT
ATOM      1  C   UNL     1      27.041  25.104  26.127  1.00  0.00     0.059 A 
ATOM      2  C   UNL     1      28.403  25.026  25.741  1.00  0.00     0.130 A 
ATOM      3  C   UNL     1      29.085  26.188  25.359  1.00  0.00     0.093 A 
ATOM      4  C   UNL     1      28.445  27.433  25.387  1.00  0.00     0.119 A 
ATOM      5  C   UNL     1      27.113  27.517  25.795  1.00  0.00     0.047 A 
ATOM      6  C   UNL     1      26.415  26.364  26.163  1.00  0.00     0.019 A 
ENDROOT
BRANCH   1   7
ATOM      7  C   UNL     1      26.249  23.896  26.459  1.00  0.00     0.163 C 
ATOM      8  C   UNL     1      25.347  23.866  27.655  1.00  0.00     0.093 C 
ATOM      9  O   UNL     1      26.262  22.902  25.683  1.00  0.00    -0.294 OA
ENDBRANCH   1   7
BRANCH   2  10
ATOM     10  O   UNL     1      29.117  23.826  25.752  1.00  0.00    -0.507 OA
ATOM     11  H   UNL     1      29.361  23.316  24.913  1.00  0.00     0.293 HD
ENDBRANCH   2  10
BRANCH   4  12
ATOM     12  O   UNL     1      29.125  28.590  25.015  1.00  0.00    -0.508 OA
ATOM     13  H   UNL     1      29.223  29.374  25.649  1.00  0.00     0.293 HD
ENDBRANCH   4  12
TORSDOF 3
ENDMDL
MODEL 8
REMARK VINA RESULT:    -2.809      2.188      4.695
REMARK INTER + INTRA:          -3.427
REMARK INTER:                  -3.120
REMARK INTRA:                  -0.307
REMARK UNBOUND:                -0.289
REMARK SMILES CC(=O)c1ccc(O)cc1O
REMARK SMILES IDX 4 1 10 2 9 3 7 4 6 5 5 6 2 7 1 8 3 9 11 10 8 12
REMARK H PARENT 11 11 8 13
REMARK Flexibility Score: inf
ROOT
ATOM      1  C   UNL     1      28.374  28.299  25.952  1.00  0.00     0.059 A 
ATOM      2  C   UNL     1      27.314  27.860  25.119  1.00  0.00     0.130 A 
ATOM      3  C   UNL     1      27.064  26.489  24.977  1.00  0.00     0.093 A 
ATOM      4  C   UNL     1      27.828  25.548  25.677  1.00  0.00     0.119 A 
ATOM      5  C   UNL     1      28.852  25.978  26.521  1.00  0.00     0.047 A 
ATOM      6  C   UNL     1      29.125  27.341  26.659  1.00  0.00     0.019 A 
ENDROOT
BRANCH   1   7
ATOM      7  C   UNL     1      28.737  29.731  26.073  1.00  0.00     0.163 C 
ATOM      8  C   UNL     1      29.124  30.323  27.393  1.00  0.00     0.093 C 
ATOM      9  O   UNL     1      28.804  30.452  25.041  1.00  0.00    -0.294 OA
ENDBRANCH   1   7
BRANCH   2  10
ATOM     10  O   UNL     1      26.476  28.749  24.444  1.00  0.00    -0.507 OA
ATOM     11  H   UNL     1      26.332  28.727  23.443  1.00  0.00     0.293 HD
ENDBRANCH   2  10
BRANCH   4  12
ATOM     12  O   UNL     1      27.574  24.185  25.542  1.00  0.00    -0.508 OA
ATOM     13  H   UNL     1      27.793  23.687  24.688  1.00  0.00     0.293 HD
ENDBRANCH   4  12
TORSDOF 3
ENDMDL
MODEL 9
REMARK VINA RESULT:    -2.621      5.481      7.665
REMARK INTER + INTRA:          -3.216
REMARK INTER:                  -3.277
REMARK INTRA:                   0.061
REMARK UNBOUND:                -0.289
REMARK SMILES CC(=O)c1ccc(O)cc1O
REMARK SMILES IDX 4 1 10 2 9 3 7 4 6 5 5 6 2 7 1 8 3 9 11 10 8 12
REMARK H PARENT 11 11 8 13
REMARK Flexibility Score: inf
ROOT
ATOM      1  C   UNL     1      26.196  23.550  25.640  1.00  0.00     0.059 A 
ATOM      2  C   UNL     1      25.929  23.712  27.023  1.00  0.00     0.130 A 
ATOM      3  C   UNL     1      24.633  23.499  27.510  1.00  0.00     0.093 A 
ATOM      4  C   UNL     1      23.605  23.094  26.650  1.00  0.00     0.119 A 
ATOM      5  C   UNL     1      23.872  22.905  25.294  1.00  0.00     0.047 A 
ATOM      6  C   UNL     1      25.155  23.130  24.791  1.00  0.00     0.019 A 
ENDROOT
BRANCH   1   7
ATOM      7  C   UNL     1      27.527  23.843  25.057  1.00  0.00     0.163 C 
ATOM      8  C   UNL     1      28.196  25.165  25.279  1.00  0.00     0.093 C 
ATOM      9  O   UNL     1      28.152  22.943  24.433  1.00  0.00    -0.294 OA
ENDBRANCH   1   7
BRANCH   2  10
ATOM     10  O   UNL     1      26.923  24.052  27.942  1.00  0.00    -0.507 OA
ATOM     11  H   UNL     1      27.686  23.437  28.190  1.00  0.00     0.293 HD
ENDBRANCH   2  10
BRANCH   4  12
ATOM     12  O   UNL     1      22.318  22.875  27.136  1.00  0.00    -0.508 OA
ATOM     13  H   UNL     1      21.819  22.015  26.944  1.00  0.00     0.293 HD
ENDBRANCH   4  12
TORSDOF 3
ENDMDL
