MODEL 1
REMARK VINA RESULT:    -4.314      0.000      0.000
REMARK INTER + INTRA:          -5.395
REMARK INTER:                  -5.323
REMARK INTRA:                  -0.071
REMARK UNBOUND:                -0.071
REMARK SMILES CCCCCC(=O)[O-]
REMARK SMILES IDX 4 1 5 2 6 3 7 4 8 5 3 6 2 7 1 8
REMARK H PARENT
REMARK Flexibility Score: inf
ROOT
ATOM      1  C   UNL     1      95.905 123.334 123.861  1.00  0.00     0.006 C 
ENDROOT
BRANCH   1   2
ATOM      2  C   UNL     1      96.456 124.735 124.180  1.00  0.00     0.053 C 
BRANCH   2   3
ATOM      3  C   UNL     1      97.429 124.728 125.321  1.00  0.00     0.041 C 
ATOM      4  O   UNL     1      97.563 123.699 126.036  1.00  0.00    -0.550 OA
ATOM      5  O   UNL     1      98.212 125.847 125.573  1.00  0.00    -0.550 OA
ENDBRANCH   2   3
ENDBRANCH   1   2
BRANCH   1   6
ATOM      6  C   UNL     1      94.371 123.275 123.753  1.00  0.00     0.000 C 
BRANCH   6   7
ATOM      7  C   UNL     1      93.862 121.971 123.125  1.00  0.00    -0.003 C 
ATOM      8  C   UNL     1      93.181 122.235 121.784  1.00  0.00     0.004 C 
ENDBRANCH   6   7
ENDBRANCH   1   6
TORSDOF 4
ENDMDL
MODEL 2
REMARK VINA RESULT:    -4.130      2.622      4.907
REMARK INTER + INTRA:          -5.167
REMARK INTER:                  -5.100
REMARK INTRA:                  -0.067
REMARK UNBOUND:                -0.071
REMARK SMILES CCCCCC(=O)[O-]
REMARK SMILES IDX 4 1 5 2 6 3 7 4 8 5 3 6 2 7 1 8
REMARK H PARENT
REMARK Flexibility Score: inf
ROOT
ATOM      1  C   UNL     1      96.087 124.378 124.104  1.00  0.00     0.006 C 
ENDROOT
BRANCH   1   2
ATOM      2  C   UNL     1      95.805 123.063 123.358  1.00  0.00     0.053 C 
BRANCH   2   3
ATOM      3  C   UNL     1      94.374 122.631 123.466  1.00  0.00     0.041 C 
ATOM      4  O   UNL     1      93.794 122.098 122.483  1.00  0.00    -0.550 OA
ATOM      5  O   UNL     1      93.689 122.789 124.665  1.00  0.00    -0.550 OA
ENDBRANCH   2   3
ENDBRANCH   1   2
BRANCH   1   6
ATOM      6  C   UNL     1      97.158 124.256 125.203  1.00  0.00     0.000 C 
BRANCH   6   7
ATOM      7  C   UNL     1      97.946 125.555 125.422  1.00  0.00    -0.003 C 
ATOM      8  C   UNL     1      98.327 125.726 126.890  1.00  0.00     0.004 C 
ENDBRANCH   6   7
ENDBRANCH   1   6
TORSDOF 4
ENDMDL
MODEL 3
REMARK VINA RESULT:    -4.026      1.182      1.465
REMARK INTER + INTRA:          -5.039
REMARK INTER:                  -4.912
REMARK INTRA:                  -0.127
REMARK UNBOUND:                -0.071
REMARK SMILES CCCCCC(=O)[O-]
REMARK SMILES IDX 4 1 5 2 6 3 7 4 8 5 3 6 2 7 1 8
REMARK H PARENT
REMARK Flexibility Score: inf
ROOT
ATOM      1  C   UNL     1      94.645 123.837 124.019  1.00  0.00     0.006 C 
ENDROOT
BRANCH   1   2
ATOM      2  C   UNL     1      96.037 123.354 123.575  1.00  0.00     0.053 C 
BRANCH   2   3
ATOM      3  C   UNL     1      96.962 123.116 124.730  1.00  0.00     0.041 C 
ATOM      4  O   UNL     1      97.512 121.993 124.884  1.00  0.00    -0.550 OA
ATOM      5  O   UNL     1      97.244 124.147 125.618  1.00  0.00    -0.550 OA
ENDBRANCH   2   3
ENDBRANCH   1   2
BRANCH   1   6
ATOM      6  C   UNL     1      93.509 122.847 123.702  1.00  0.00     0.000 C 
BRANCH   6   7
ATOM      7  C   UNL     1      93.814 121.948 122.497  1.00  0.00    -0.003 C 
ATOM      8  C   UNL     1      92.903 122.280 121.318  1.00  0.00     0.004 C 
ENDBRANCH   6   7
ENDBRANCH   1   6
TORSDOF 4
ENDMDL
MODEL 4
REMARK VINA RESULT:    -3.910      1.725      2.904
REMARK INTER + INTRA:          -4.896
REMARK INTER:                  -4.847
REMARK INTRA:                  -0.049
REMARK UNBOUND:                -0.071
REMARK SMILES CCCCCC(=O)[O-]
REMARK SMILES IDX 4 1 5 2 6 3 7 4 8 5 3 6 2 7 1 8
REMARK H PARENT
REMARK Flexibility Score: inf
ROOT
ATOM      1  C   UNL     1      94.034 122.044 122.675  1.00  0.00     0.006 C 
ENDROOT
BRANCH   1   2
ATOM      2  C   UNL     1      94.283 123.119 123.748  1.00  0.00     0.053 C 
BRANCH   2   3
ATOM      3  C   UNL     1      95.737 123.447 123.910  1.00  0.00     0.041 C 
ATOM      4  O   UNL     1      96.140 124.633 123.774  1.00  0.00    -0.550 OA
ATOM      5  O   UNL     1      96.642 122.447 124.244  1.00  0.00    -0.550 OA
ENDBRANCH   2   3
ENDBRANCH   1   2
BRANCH   1   6
ATOM      6  C   UNL     1      92.898 122.391 121.696  1.00  0.00     0.000 C 
BRANCH   6   7
ATOM      7  C   UNL     1      93.161 121.892 120.269  1.00  0.00    -0.003 C 
ATOM      8  C   UNL     1      92.597 122.862 119.234  1.00  0.00     0.004 C 
ENDBRANCH   6   7
ENDBRANCH   1   6
TORSDOF 4
ENDMDL
MODEL 5
REMARK VINA RESULT:    -3.829      4.238      5.771
REMARK INTER + INTRA:          -4.795
REMARK INTER:                  -4.726
REMARK INTRA:                  -0.069
REMARK UNBOUND:                -0.071
REMARK SMILES CCCCCC(=O)[O-]
REMARK SMILES IDX 4 1 5 2 6 3 7 4 8 5 3 6 2 7 1 8
REMARK H PARENT
REMARK Flexibility Score: inf
ROOT
ATOM      1  C   UNL     1      93.698 121.855 122.224  1.00  0.00     0.006 C 
ENDROOT
BRANCH   1   2
ATOM      2  C   UNL     1      92.795 122.472 121.141  1.00  0.00     0.053 C 
BRANCH   2   3
ATOM      3  C   UNL     1      93.222 122.104 119.753  1.00  0.00     0.041 C 
ATOM      4  O   UNL     1      92.569 122.514 118.757  1.00  0.00    -0.550 OA
ATOM      5  O   UNL     1      94.361 121.333 119.558  1.00  0.00    -0.550 OA
ENDBRANCH   2   3
ENDBRANCH   1   2
BRANCH   1   6
ATOM      6  C   UNL     1      94.140 122.851 123.312  1.00  0.00     0.000 C 
BRANCH   6   7
ATOM      7  C   UNL     1      95.664 122.995 123.411  1.00  0.00    -0.003 C 
ATOM      8  C   UNL     1      96.050 124.323 124.059  1.00  0.00     0.004 C 
ENDBRANCH   6   7
ENDBRANCH   1   6
TORSDOF 4
ENDMDL
MODEL 6
REMARK VINA RESULT:    -3.802      9.843     10.612
REMARK INTER + INTRA:          -4.762
REMARK INTER:                  -4.672
REMARK INTRA:                  -0.090
REMARK UNBOUND:                -0.071
REMARK SMILES CCCCCC(=O)[O-]
REMARK SMILES IDX 4 1 5 2 6 3 7 4 8 5 3 6 2 7 1 8
REMARK H PARENT
REMARK Flexibility Score: inf
ROOT
ATOM      1  C   UNL     1      87.540 123.774 130.877  1.00  0.00     0.006 C 
ENDROOT
BRANCH   1   2
ATOM      2  C   UNL     1      88.250 122.961 129.779  1.00  0.00     0.053 C 
BRANCH   2   3
ATOM      3  C   UNL     1      88.568 121.562 130.211  1.00  0.00     0.041 C 
ATOM      4  O   UNL     1      89.285 121.357 131.227  1.00  0.00    -0.550 OA
ATOM      5  O   UNL     1      88.047 120.482 129.509  1.00  0.00    -0.550 OA
ENDBRANCH   2   3
ENDBRANCH   1   2
BRANCH   1   6
ATOM      6  C   UNL     1      86.466 124.739 130.344  1.00  0.00     0.000 C 
BRANCH   6   7
ATOM      7  C   UNL     1      86.658 125.094 128.864  1.00  0.00    -0.003 C 
ATOM      8  C   UNL     1      85.612 126.104 128.400  1.00  0.00     0.004 C 
ENDBRANCH   6   7
ENDBRANCH   1   6
TORSDOF 4
ENDMDL
MODEL 7
REMARK VINA RESULT:    -3.552      3.802      4.973
REMARK INTER + INTRA:          -4.454
REMARK INTER:                  -4.404
REMARK INTRA:                  -0.051
REMARK UNBOUND:                -0.071
REMARK SMILES CCCCCC(=O)[O-]
REMARK SMILES IDX 4 1 5 2 6 3 7 4 8 5 3 6 2 7 1 8
REMARK H PARENT
REMARK Flexibility Score: inf
ROOT
ATOM      1  C   UNL     1      99.141 122.825 126.395  1.00  0.00     0.006 C 
ENDROOT
BRANCH   1   2
ATOM      2  C   UNL     1      97.988 123.784 126.050  1.00  0.00     0.053 C 
BRANCH   2   3
ATOM      3  C   UNL     1      98.345 125.223 126.276  1.00  0.00     0.041 C 
ATOM      4  O   UNL     1      98.286 126.049 125.328  1.00  0.00    -0.550 OA
ATOM      5  O   UNL     1      98.711 125.656 127.544  1.00  0.00    -0.550 OA
ENDBRANCH   2   3
ENDBRANCH   1   2
BRANCH   1   6
ATOM      6  C   UNL     1      98.856 121.354 126.044  1.00  0.00     0.000 C 
BRANCH   6   7
ATOM      7  C   UNL     1      99.868 120.381 126.665  1.00  0.00    -0.003 C 
ATOM      8  C   UNL     1     100.996 120.063 125.686  1.00  0.00     0.004 C 
ENDBRANCH   6   7
ENDBRANCH   1   6
TORSDOF 4
ENDMDL
MODEL 8
REMARK VINA RESULT:    -3.523     10.699     11.489
REMARK INTER + INTRA:          -4.418
REMARK INTER:                  -4.316
REMARK INTRA:                  -0.102
REMARK UNBOUND:                -0.071
REMARK SMILES CCCCCC(=O)[O-]
REMARK SMILES IDX 4 1 5 2 6 3 7 4 8 5 3 6 2 7 1 8
REMARK H PARENT
REMARK Flexibility Score: inf
ROOT
ATOM      1  C   UNL     1      86.275 124.893 130.544  1.00  0.00     0.006 C 
ENDROOT
BRANCH   1   2
ATOM      2  C   UNL     1      85.107 125.198 129.589  1.00  0.00     0.053 C 
BRANCH   2   3
ATOM      3  C   UNL     1      85.567 125.561 128.210  1.00  0.00     0.041 C 
ATOM      4  O   UNL     1      86.358 126.526 128.037  1.00  0.00    -0.550 OA
ATOM      5  O   UNL     1      85.146 124.813 127.118  1.00  0.00    -0.550 OA
ENDBRANCH   2   3
ENDBRANCH   1   2
BRANCH   1   6
ATOM      6  C   UNL     1      87.203 123.767 130.055  1.00  0.00     0.000 C 
BRANCH   6   7
ATOM      7  C   UNL     1      88.320 123.432 131.053  1.00  0.00    -0.003 C 
ATOM      8  C   UNL     1      88.537 121.923 131.149  1.00  0.00     0.004 C 
ENDBRANCH   6   7
ENDBRANCH   1   6
TORSDOF 4
ENDMDL
MODEL 9
REMARK VINA RESULT:    -3.508     11.037     11.593
REMARK INTER + INTRA:          -4.400
REMARK INTER:                  -4.313
REMARK INTRA:                  -0.087
REMARK UNBOUND:                -0.071
REMARK SMILES CCCCCC(=O)[O-]
REMARK SMILES IDX 4 1 5 2 6 3 7 4 8 5 3 6 2 7 1 8
REMARK H PARENT
REMARK Flexibility Score: inf
ROOT
ATOM      1  C   UNL     1      83.894 124.203 127.084  1.00  0.00     0.006 C 
ENDROOT
BRANCH   1   2
ATOM      2  C   UNL     1      85.316 124.314 127.661  1.00  0.00     0.053 C 
BRANCH   2   3
ATOM      3  C   UNL     1      85.522 125.568 128.456  1.00  0.00     0.041 C 
ATOM      4  O   UNL     1      86.182 126.526 127.972  1.00  0.00    -0.550 OA
ATOM      5  O   UNL     1      84.957 125.691 129.719  1.00  0.00    -0.550 OA
ENDBRANCH   2   3
ENDBRANCH   1   2
BRANCH   1   6
ATOM      6  C   UNL     1      83.841 124.216 125.546  1.00  0.00     0.000 C 
BRANCH   6   7
ATOM      7  C   UNL     1      84.685 123.105 124.906  1.00  0.00    -0.003 C 
ATOM      8  C   UNL     1      83.812 122.141 124.108  1.00  0.00     0.004 C 
ENDBRANCH   6   7
ENDBRANCH   1   6
TORSDOF 4
ENDMDL
