MODEL 1
REMARK VINA RESULT:    -5.669      0.000      0.000
REMARK INTER + INTRA:          -6.166
REMARK INTER:                  -6.166
REMARK INTRA:                   0.000
REMARK UNBOUND:                 0.000
REMARK SMILES Cc1cc(O)c2c(c1)C(=O)c1cc(O)cc(O)c1C2=O
REMARK SMILES IDX 1 1 2 2 8 3 7 4 6 5 4 6 3 7 19 8 20 9 18 10 11 11 9 12 10 13
REMARK SMILES IDX 12 14 13 15 15 16 16 17 5 18 17 20 14 22
REMARK H PARENT 5 19 17 21 14 23
REMARK Flexibility Score: inf
ROOT
ATOM      1  C   UNL     1       8.776  35.052   4.987  1.00  0.00     0.044 C 
ATOM      2  C   UNL     1      10.135  35.389   5.526  1.00  0.00    -0.047 A 
ATOM      3  C   UNL     1      11.129  34.406   5.597  1.00  0.00     0.016 A 
ATOM      4  C   UNL     1      12.412  34.719   6.073  1.00  0.00     0.038 A 
ATOM      5  C   UNL     1      12.708  36.038   6.485  1.00  0.00     0.076 A 
ATOM      6  C   UNL     1      11.723  37.047   6.332  1.00  0.00     0.127 A 
ATOM      7  C   UNL     1      10.446  36.707   5.874  1.00  0.00     0.050 A 
ATOM      8  C   UNL     1      14.026  36.297   7.120  1.00  0.00     0.201 C 
ATOM      9  O   UNL     1      14.138  37.210   7.981  1.00  0.00    -0.288 OA
ATOM     10  C   UNL     1      15.157  35.363   6.881  1.00  0.00     0.076 A 
ATOM     11  C   UNL     1      14.858  34.045   6.466  1.00  0.00     0.041 A 
ATOM     12  C   UNL     1      13.461  33.673   6.138  1.00  0.00     0.194 C 
ATOM     13  O   UNL     1      13.170  32.471   5.890  1.00  0.00    -0.289 OA
ATOM     14  C   UNL     1      15.888  33.095   6.363  1.00  0.00     0.059 A 
ATOM     15  C   UNL     1      17.209  33.446   6.652  1.00  0.00     0.120 A 
ATOM     16  C   UNL     1      17.513  34.755   7.022  1.00  0.00     0.093 A 
ATOM     17  C   UNL     1      16.509  35.725   7.114  1.00  0.00     0.131 A 
ENDROOT
BRANCH   6  18
ATOM     18  O   UNL     1      11.979  38.396   6.584  1.00  0.00    -0.507 OA
ATOM     19  H   UNL     1      12.819  38.871   6.282  1.00  0.00     0.293 HD
ENDBRANCH   6  18
BRANCH  17  20
ATOM     20  O   UNL     1      16.902  37.035   7.401  1.00  0.00    -0.507 OA
ATOM     21  H   UNL     1      17.120  37.362   8.333  1.00  0.00     0.293 HD
ENDBRANCH  17  20
BRANCH  15  22
ATOM     22  O   UNL     1      18.231  32.504   6.562  1.00  0.00    -0.508 OA
ATOM     23  H   UNL     1      19.178  32.771   6.320  1.00  0.00     0.293 HD
ENDBRANCH  15  22
TORSDOF 3
ENDMDL
MODEL 2
REMARK VINA RESULT:    -5.606      1.837      6.485
REMARK INTER + INTRA:          -6.097
REMARK INTER:                  -6.097
REMARK INTRA:                   0.000
REMARK UNBOUND:                 0.000
REMARK SMILES Cc1cc(O)c2c(c1)C(=O)c1cc(O)cc(O)c1C2=O
REMARK SMILES IDX 1 1 2 2 8 3 7 4 6 5 4 6 3 7 19 8 20 9 18 10 11 11 9 12 10 13
REMARK SMILES IDX 12 14 13 15 15 16 16 17 5 18 17 20 14 22
REMARK H PARENT 5 19 17 21 14 23
REMARK Flexibility Score: inf
ROOT
ATOM      1  C   UNL     1      16.618  37.379   7.000  1.00  0.00     0.044 C 
ATOM      2  C   UNL     1      15.426  36.487   6.815  1.00  0.00    -0.047 A 
ATOM      3  C   UNL     1      14.148  37.039   6.679  1.00  0.00     0.016 A 
ATOM      4  C   UNL     1      13.029  36.215   6.477  1.00  0.00     0.038 A 
ATOM      5  C   UNL     1      13.192  34.813   6.409  1.00  0.00     0.076 A 
ATOM      6  C   UNL     1      14.500  34.265   6.463  1.00  0.00     0.127 A 
ATOM      7  C   UNL     1      15.595  35.105   6.685  1.00  0.00     0.050 A 
ATOM      8  C   UNL     1      11.973  33.966   6.344  1.00  0.00     0.201 C 
ATOM      9  O   UNL     1      11.987  32.808   6.840  1.00  0.00    -0.288 OA
ATOM     10  C   UNL     1      10.693  34.551   5.867  1.00  0.00     0.076 A 
ATOM     11  C   UNL     1      10.534  35.954   5.933  1.00  0.00     0.041 A 
ATOM     12  C   UNL     1      11.679  36.809   6.328  1.00  0.00     0.194 C 
ATOM     13  O   UNL     1      11.510  38.045   6.510  1.00  0.00    -0.289 OA
ATOM     14  C   UNL     1       9.292  36.532   5.622  1.00  0.00     0.059 A 
ATOM     15  C   UNL     1       8.215  35.732   5.232  1.00  0.00     0.120 A 
ATOM     16  C   UNL     1       8.380  34.352   5.126  1.00  0.00     0.093 A 
ATOM     17  C   UNL     1       9.611  33.753   5.411  1.00  0.00     0.131 A 
ENDROOT
BRANCH   6  18
ATOM     18  O   UNL     1      14.758  32.907   6.265  1.00  0.00    -0.507 OA
ATOM     19  H   UNL     1      14.087  32.263   5.871  1.00  0.00     0.293 HD
ENDBRANCH   6  18
BRANCH  17  20
ATOM     20  O   UNL     1       9.725  32.378   5.194  1.00  0.00    -0.507 OA
ATOM     21  H   UNL     1       9.831  31.963   4.278  1.00  0.00     0.293 HD
ENDBRANCH  17  20
BRANCH  15  22
ATOM     22  O   UNL     1       6.978  36.300   4.934  1.00  0.00    -0.508 OA
ATOM     23  H   UNL     1       6.751  36.613   3.998  1.00  0.00     0.293 HD
ENDBRANCH  15  22
TORSDOF 3
ENDMDL
MODEL 3
REMARK VINA RESULT:    -5.514      5.915      8.523
REMARK INTER + INTRA:          -5.998
REMARK INTER:                  -5.998
REMARK INTRA:                   0.000
REMARK UNBOUND:                 0.000
REMARK SMILES Cc1cc(O)c2c(c1)C(=O)c1cc(O)cc(O)c1C2=O
REMARK SMILES IDX 1 1 2 2 8 3 7 4 6 5 4 6 3 7 19 8 20 9 18 10 11 11 9 12 10 13
REMARK SMILES IDX 12 14 13 15 15 16 16 17 5 18 17 20 14 22
REMARK H PARENT 5 19 17 21 14 23
REMARK Flexibility Score: inf
ROOT
ATOM      1  C   UNL     1      10.339  23.724   5.385  1.00  0.00     0.044 C 
ATOM      2  C   UNL     1      10.839  25.138   5.360  1.00  0.00    -0.047 A 
ATOM      3  C   UNL     1       9.938  26.203   5.258  1.00  0.00     0.016 A 
ATOM      4  C   UNL     1      10.394  27.531   5.263  1.00  0.00     0.038 A 
ATOM      5  C   UNL     1      11.777  27.799   5.373  1.00  0.00     0.076 A 
ATOM      6  C   UNL     1      12.678  26.719   5.562  1.00  0.00     0.127 A 
ATOM      7  C   UNL     1      12.202  25.405   5.533  1.00  0.00     0.050 A 
ATOM      8  C   UNL     1      12.234  29.205   5.225  1.00  0.00     0.201 C 
ATOM      9  O   UNL     1      13.377  29.446   4.752  1.00  0.00    -0.288 OA
ATOM     10  C   UNL     1      11.279  30.320   5.458  1.00  0.00     0.076 A 
ATOM     11  C   UNL     1       9.896  30.047   5.350  1.00  0.00     0.041 A 
ATOM     12  C   UNL     1       9.431  28.653   5.160  1.00  0.00     0.194 C 
ATOM     13  O   UNL     1       8.211  28.420   4.938  1.00  0.00    -0.289 OA
ATOM     14  C   UNL     1       8.969  31.101   5.426  1.00  0.00     0.059 A 
ATOM     15  C   UNL     1       9.402  32.414   5.623  1.00  0.00     0.120 A 
ATOM     16  C   UNL     1      10.762  32.680   5.771  1.00  0.00     0.093 A 
ATOM     17  C   UNL     1      11.705  31.648   5.719  1.00  0.00     0.131 A 
ENDROOT
BRANCH   6  18
ATOM     18  O   UNL     1      14.038  26.907   5.817  1.00  0.00    -0.507 OA
ATOM     19  H   UNL     1      14.399  27.643   6.408  1.00  0.00     0.293 HD
ENDBRANCH   6  18
BRANCH  17  20
ATOM     20  O   UNL     1      13.039  31.980   5.967  1.00  0.00    -0.507 OA
ATOM     21  H   UNL     1      13.430  32.069   6.895  1.00  0.00     0.293 HD
ENDBRANCH  17  20
BRANCH  15  22
ATOM     22  O   UNL     1       8.487  33.462   5.687  1.00  0.00    -0.508 OA
ATOM     23  H   UNL     1       7.743  33.559   5.005  1.00  0.00     0.293 HD
ENDBRANCH  15  22
TORSDOF 3
ENDMDL
MODEL 4
REMARK VINA RESULT:    -5.511      2.134      4.002
REMARK INTER + INTRA:          -5.994
REMARK INTER:                  -5.994
REMARK INTRA:                   0.000
REMARK UNBOUND:                 0.000
REMARK SMILES Cc1cc(O)c2c(c1)C(=O)c1cc(O)cc(O)c1C2=O
REMARK SMILES IDX 1 1 2 2 8 3 7 4 6 5 4 6 3 7 19 8 20 9 18 10 11 11 9 12 10 13
REMARK SMILES IDX 12 14 13 15 15 16 16 17 5 18 17 20 14 22
REMARK H PARENT 5 19 17 21 14 23
REMARK Flexibility Score: inf
ROOT
ATOM      1  C   UNL     1       9.102  41.001   5.673  1.00  0.00     0.044 C 
ATOM      2  C   UNL     1       9.698  39.629   5.782  1.00  0.00    -0.047 A 
ATOM      3  C   UNL     1      11.070  39.472   6.008  1.00  0.00     0.016 A 
ATOM      4  C   UNL     1      11.632  38.192   6.140  1.00  0.00     0.038 A 
ATOM      5  C   UNL     1      10.808  37.048   6.044  1.00  0.00     0.076 A 
ATOM      6  C   UNL     1       9.406  37.216   5.900  1.00  0.00     0.127 A 
ATOM      7  C   UNL     1       8.873  38.499   5.751  1.00  0.00     0.050 A 
ATOM      8  C   UNL     1      11.458  35.712   6.040  1.00  0.00     0.201 C 
ATOM      9  O   UNL     1      10.923  34.757   5.416  1.00  0.00    -0.288 OA
ATOM     10  C   UNL     1      12.822  35.553   6.608  1.00  0.00     0.076 A 
ATOM     11  C   UNL     1      13.643  36.700   6.705  1.00  0.00     0.041 A 
ATOM     12  C   UNL     1      13.086  38.036   6.385  1.00  0.00     0.194 C 
ATOM     13  O   UNL     1      13.844  39.043   6.348  1.00  0.00    -0.289 OA
ATOM     14  C   UNL     1      14.983  36.568   7.107  1.00  0.00     0.059 A 
ATOM     15  C   UNL     1      15.507  35.313   7.428  1.00  0.00     0.120 A 
ATOM     16  C   UNL     1      14.689  34.186   7.373  1.00  0.00     0.093 A 
ATOM     17  C   UNL     1      13.346  34.292   6.995  1.00  0.00     0.131 A 
ENDROOT
BRANCH   6  18
ATOM     18  O   UNL     1       8.511  36.145   5.937  1.00  0.00    -0.507 OA
ATOM     19  H   UNL     1       7.563  36.197   5.591  1.00  0.00     0.293 HD
ENDBRANCH   6  18
BRANCH  17  20
ATOM     20  O   UNL     1      12.567  33.134   7.052  1.00  0.00    -0.507 OA
ATOM     21  H   UNL     1      12.938  32.203   6.920  1.00  0.00     0.293 HD
ENDBRANCH  17  20
BRANCH  15  22
ATOM     22  O   UNL     1      16.838  35.177   7.815  1.00  0.00    -0.508 OA
ATOM     23  H   UNL     1      17.321  34.288   7.749  1.00  0.00     0.293 HD
ENDBRANCH  15  22
TORSDOF 3
ENDMDL
MODEL 5
REMARK VINA RESULT:    -5.456      1.761      5.633
REMARK INTER + INTRA:          -5.934
REMARK INTER:                  -5.934
REMARK INTRA:                   0.000
REMARK UNBOUND:                 0.000
REMARK SMILES Cc1cc(O)c2c(c1)C(=O)c1cc(O)cc(O)c1C2=O
REMARK SMILES IDX 1 1 2 2 8 3 7 4 6 5 4 6 3 7 19 8 20 9 18 10 11 11 9 12 10 13
REMARK SMILES IDX 12 14 13 15 15 16 16 17 5 18 17 20 14 22
REMARK H PARENT 5 19 17 21 14 23
REMARK Flexibility Score: inf
ROOT
ATOM      1  C   UNL     1      17.093  35.281   7.586  1.00  0.00     0.044 C 
ATOM      2  C   UNL     1      15.668  35.596   7.238  1.00  0.00    -0.047 A 
ATOM      3  C   UNL     1      14.833  34.602   6.716  1.00  0.00     0.016 A 
ATOM      4  C   UNL     1      13.490  34.880   6.415  1.00  0.00     0.038 A 
ATOM      5  C   UNL     1      12.972  36.175   6.640  1.00  0.00     0.076 A 
ATOM      6  C   UNL     1      13.800  37.155   7.247  1.00  0.00     0.127 A 
ATOM      7  C   UNL     1      15.139  36.860   7.520  1.00  0.00     0.050 A 
ATOM      8  C   UNL     1      11.594  36.472   6.172  1.00  0.00     0.201 C 
ATOM      9  O   UNL     1      11.291  37.642   5.816  1.00  0.00    -0.288 OA
ATOM     10  C   UNL     1      10.635  35.359   5.946  1.00  0.00     0.076 A 
ATOM     11  C   UNL     1      11.156  34.064   5.725  1.00  0.00     0.041 A 
ATOM     12  C   UNL     1      12.611  33.818   5.869  1.00  0.00     0.194 C 
ATOM     13  O   UNL     1      13.096  32.698   5.550  1.00  0.00    -0.289 OA
ATOM     14  C   UNL     1      10.291  33.014   5.372  1.00  0.00     0.059 A 
ATOM     15  C   UNL     1       8.917  33.236   5.255  1.00  0.00     0.120 A 
ATOM     16  C   UNL     1       8.395  34.502   5.513  1.00  0.00     0.093 A 
ATOM     17  C   UNL     1       9.232  35.560   5.884  1.00  0.00     0.131 A 
ENDROOT
BRANCH   6  18
ATOM     18  O   UNL     1      13.325  38.411   7.629  1.00  0.00    -0.507 OA
ATOM     19  H   UNL     1      13.761  38.981   8.341  1.00  0.00     0.293 HD
ENDBRANCH   6  18
BRANCH  17  20
ATOM     20  O   UNL     1       8.626  36.775   6.215  1.00  0.00    -0.507 OA
ATOM     21  H   UNL     1       7.625  36.914   6.232  1.00  0.00     0.293 HD
ENDBRANCH  17  20
BRANCH  15  22
ATOM     22  O   UNL     1       8.058  32.200   4.894  1.00  0.00    -0.508 OA
ATOM     23  H   UNL     1       7.621  31.607   5.590  1.00  0.00     0.293 HD
ENDBRANCH  15  22
TORSDOF 3
ENDMDL
MODEL 6
REMARK VINA RESULT:    -5.430      3.767      5.903
REMARK INTER + INTRA:          -5.907
REMARK INTER:                  -5.907
REMARK INTRA:                   0.000
REMARK UNBOUND:                 0.000
REMARK SMILES Cc1cc(O)c2c(c1)C(=O)c1cc(O)cc(O)c1C2=O
REMARK SMILES IDX 1 1 2 2 8 3 7 4 6 5 4 6 3 7 19 8 20 9 18 10 11 11 9 12 10 13
REMARK SMILES IDX 12 14 13 15 15 16 16 17 5 18 17 20 14 22
REMARK H PARENT 5 19 17 21 14 23
REMARK Flexibility Score: inf
ROOT
ATOM      1  C   UNL     1      10.820  37.965   6.041  1.00  0.00     0.044 C 
ATOM      2  C   UNL     1      10.332  36.558   5.859  1.00  0.00    -0.047 A 
ATOM      3  C   UNL     1      11.246  35.508   5.721  1.00  0.00     0.016 A 
ATOM      4  C   UNL     1      10.799  34.184   5.580  1.00  0.00     0.038 A 
ATOM      5  C   UNL     1       9.413  33.905   5.576  1.00  0.00     0.076 A 
ATOM      6  C   UNL     1       8.495  34.963   5.801  1.00  0.00     0.127 A 
ATOM      7  C   UNL     1       8.963  36.275   5.919  1.00  0.00     0.050 A 
ATOM      8  C   UNL     1       8.977  32.517   5.275  1.00  0.00     0.201 C 
ATOM      9  O   UNL     1       7.868  32.318   4.710  1.00  0.00    -0.288 OA
ATOM     10  C   UNL     1       9.922  31.387   5.469  1.00  0.00     0.076 A 
ATOM     11  C   UNL     1      11.307  31.670   5.475  1.00  0.00     0.041 A 
ATOM     12  C   UNL     1      11.774  33.076   5.440  1.00  0.00     0.194 C 
ATOM     13  O   UNL     1      13.004  33.329   5.319  1.00  0.00    -0.289 OA
ATOM     14  C   UNL     1      12.235  30.615   5.517  1.00  0.00     0.059 A 
ATOM     15  C   UNL     1      11.799  29.289   5.570  1.00  0.00     0.120 A 
ATOM     16  C   UNL     1      10.434  29.009   5.605  1.00  0.00     0.093 A 
ATOM     17  C   UNL     1       9.490  30.041   5.584  1.00  0.00     0.131 A 
ENDROOT
BRANCH   6  18
ATOM     18  O   UNL     1       7.123  34.752   5.950  1.00  0.00    -0.507 OA
ATOM     19  H   UNL     1       6.418  35.359   5.557  1.00  0.00     0.293 HD
ENDBRANCH   6  18
BRANCH  17  20
ATOM     20  O   UNL     1       8.145  29.687   5.715  1.00  0.00    -0.507 OA
ATOM     21  H   UNL     1       7.398  30.359   5.828  1.00  0.00     0.293 HD
ENDBRANCH  17  20
BRANCH  15  22
ATOM     22  O   UNL     1      12.716  28.240   5.599  1.00  0.00    -0.508 OA
ATOM     23  H   UNL     1      12.418  27.280   5.726  1.00  0.00     0.293 HD
ENDBRANCH  15  22
TORSDOF 3
ENDMDL
MODEL 7
REMARK VINA RESULT:    -5.421      1.459      2.061
REMARK INTER + INTRA:          -5.896
REMARK INTER:                  -5.896
REMARK INTRA:                   0.000
REMARK UNBOUND:                 0.000
REMARK SMILES Cc1cc(O)c2c(c1)C(=O)c1cc(O)cc(O)c1C2=O
REMARK SMILES IDX 1 1 2 2 8 3 7 4 6 5 4 6 3 7 19 8 20 9 18 10 11 11 9 12 10 13
REMARK SMILES IDX 12 14 13 15 15 16 16 17 5 18 17 20 14 22
REMARK H PARENT 5 19 17 21 14 23
REMARK Flexibility Score: inf
ROOT
ATOM      1  C   UNL     1       7.628  34.305   4.840  1.00  0.00     0.044 C 
ATOM      2  C   UNL     1       8.815  35.105   5.287  1.00  0.00    -0.047 A 
ATOM      3  C   UNL     1       9.962  34.460   5.762  1.00  0.00     0.016 A 
ATOM      4  C   UNL     1      11.089  35.199   6.156  1.00  0.00     0.038 A 
ATOM      5  C   UNL     1      11.069  36.610   6.072  1.00  0.00     0.076 A 
ATOM      6  C   UNL     1       9.936  37.253   5.511  1.00  0.00     0.127 A 
ATOM      7  C   UNL     1       8.819  36.497   5.145  1.00  0.00     0.050 A 
ATOM      8  C   UNL     1      12.220  37.363   6.636  1.00  0.00     0.201 C 
ATOM      9  O   UNL     1      12.041  38.518   7.107  1.00  0.00    -0.288 OA
ATOM     10  C   UNL     1      13.531  36.685   6.812  1.00  0.00     0.076 A 
ATOM     11  C   UNL     1      13.547  35.275   6.892  1.00  0.00     0.041 A 
ATOM     12  C   UNL     1      12.302  34.506   6.652  1.00  0.00     0.194 C 
ATOM     13  O   UNL     1      12.283  33.260   6.845  1.00  0.00    -0.289 OA
ATOM     14  C   UNL     1      14.745  34.606   7.195  1.00  0.00     0.059 A 
ATOM     15  C   UNL     1      15.925  35.325   7.403  1.00  0.00     0.120 A 
ATOM     16  C   UNL     1      15.921  36.714   7.284  1.00  0.00     0.093 A 
ATOM     17  C   UNL     1      14.746  37.402   6.964  1.00  0.00     0.131 A 
ENDROOT
BRANCH   6  18
ATOM     18  O   UNL     1       9.894  38.627   5.266  1.00  0.00    -0.507 OA
ATOM     19  H   UNL     1      10.505  39.294   5.716  1.00  0.00     0.293 HD
ENDBRANCH   6  18
BRANCH  17  20
ATOM     20  O   UNL     1      14.839  38.782   6.773  1.00  0.00    -0.507 OA
ATOM     21  H   UNL     1      14.096  39.430   6.997  1.00  0.00     0.293 HD
ENDBRANCH  17  20
BRANCH  15  22
ATOM     22  O   UNL     1      17.113  34.666   7.716  1.00  0.00    -0.508 OA
ATOM     23  H   UNL     1      17.116  33.709   8.048  1.00  0.00     0.293 HD
ENDBRANCH  15  22
TORSDOF 3
ENDMDL
MODEL 8
REMARK VINA RESULT:    -5.392      2.938      5.716
REMARK INTER + INTRA:          -5.865
REMARK INTER:                  -5.865
REMARK INTRA:                   0.000
REMARK UNBOUND:                 0.000
REMARK SMILES Cc1cc(O)c2c(c1)C(=O)c1cc(O)cc(O)c1C2=O
REMARK SMILES IDX 1 1 2 2 8 3 7 4 6 5 4 6 3 7 19 8 20 9 18 10 11 11 9 12 10 13
REMARK SMILES IDX 12 14 13 15 15 16 16 17 5 18 17 20 14 22
REMARK H PARENT 5 19 17 21 14 23
REMARK Flexibility Score: inf
ROOT
ATOM      1  C   UNL     1       9.226  30.871   5.511  1.00  0.00     0.044 C 
ATOM      2  C   UNL     1       9.969  32.162   5.690  1.00  0.00    -0.047 A 
ATOM      3  C   UNL     1       9.308  33.384   5.524  1.00  0.00     0.016 A 
ATOM      4  C   UNL     1       9.987  34.598   5.718  1.00  0.00     0.038 A 
ATOM      5  C   UNL     1      11.352  34.590   6.084  1.00  0.00     0.076 A 
ATOM      6  C   UNL     1      11.994  33.349   6.333  1.00  0.00     0.127 A 
ATOM      7  C   UNL     1      11.302  32.154   6.114  1.00  0.00     0.050 A 
ATOM      8  C   UNL     1      12.074  35.888   6.134  1.00  0.00     0.201 C 
ATOM      9  O   UNL     1      13.308  35.928   5.884  1.00  0.00    -0.288 OA
ATOM     10  C   UNL     1      11.309  37.152   6.292  1.00  0.00     0.076 A 
ATOM     11  C   UNL     1       9.944  37.156   5.928  1.00  0.00     0.041 A 
ATOM     12  C   UNL     1       9.277  35.888   5.546  1.00  0.00     0.194 C 
ATOM     13  O   UNL     1       8.097  35.905   5.101  1.00  0.00    -0.289 OA
ATOM     14  C   UNL     1       9.223  38.363   5.932  1.00  0.00     0.059 A 
ATOM     15  C   UNL     1       9.842  39.557   6.309  1.00  0.00     0.120 A 
ATOM     16  C   UNL     1      11.178  39.550   6.709  1.00  0.00     0.093 A 
ATOM     17  C   UNL     1      11.912  38.359   6.732  1.00  0.00     0.131 A 
ENDROOT
BRANCH   6  18
ATOM     18  O   UNL     1      13.295  33.260   6.831  1.00  0.00    -0.507 OA
ATOM     19  H   UNL     1      14.073  32.894   6.300  1.00  0.00     0.293 HD
ENDBRANCH   6  18
BRANCH  17  20
ATOM     20  O   UNL     1      13.216  38.416   7.230  1.00  0.00    -0.507 OA
ATOM     21  H   UNL     1      13.943  37.765   6.968  1.00  0.00     0.293 HD
ENDBRANCH  17  20
BRANCH  15  22
ATOM     22  O   UNL     1       9.134  40.757   6.303  1.00  0.00    -0.508 OA
ATOM     23  H   UNL     1       8.302  40.885   6.867  1.00  0.00     0.293 HD
ENDBRANCH  15  22
TORSDOF 3
ENDMDL
MODEL 9
REMARK VINA RESULT:    -5.299      9.201     12.508
REMARK INTER + INTRA:          -5.764
REMARK INTER:                  -5.764
REMARK INTRA:                   0.000
REMARK UNBOUND:                 0.000
REMARK SMILES Cc1cc(O)c2c(c1)C(=O)c1cc(O)cc(O)c1C2=O
REMARK SMILES IDX 1 1 2 2 8 3 7 4 6 5 4 6 3 7 19 8 20 9 18 10 11 11 9 12 10 13
REMARK SMILES IDX 12 14 13 15 15 16 16 17 5 18 17 20 14 22
REMARK H PARENT 5 19 17 21 14 23
REMARK Flexibility Score: inf
ROOT
ATOM      1  C   UNL     1      12.470  26.305   4.346  1.00  0.00     0.044 C 
ATOM      2  C   UNL     1      11.118  25.990   4.914  1.00  0.00    -0.047 A 
ATOM      3  C   UNL     1      10.187  27.012   5.128  1.00  0.00     0.016 A 
ATOM      4  C   UNL     1       8.909  26.723   5.633  1.00  0.00     0.038 A 
ATOM      5  C   UNL     1       8.555  25.388   5.929  1.00  0.00     0.076 A 
ATOM      6  C   UNL     1       9.472  24.347   5.631  1.00  0.00     0.127 A 
ATOM      7  C   UNL     1      10.746  24.661   5.148  1.00  0.00     0.050 A 
ATOM      8  C   UNL     1       7.253  25.138   6.599  1.00  0.00     0.201 C 
ATOM      9  O   UNL     1       7.125  24.151   7.372  1.00  0.00    -0.288 OA
ATOM     10  C   UNL     1       6.169  26.151   6.507  1.00  0.00     0.076 A 
ATOM     11  C   UNL     1       6.526  27.485   6.207  1.00  0.00     0.041 A 
ATOM     12  C   UNL     1       7.927  27.812   5.850  1.00  0.00     0.194 C 
ATOM     13  O   UNL     1       8.277  29.016   5.706  1.00  0.00    -0.289 OA
ATOM     14  C   UNL     1       5.550  28.495   6.246  1.00  0.00     0.059 A 
ATOM     15  C   UNL     1       4.224  28.189   6.563  1.00  0.00     0.120 A 
ATOM     16  C   UNL     1       3.861  26.867   6.819  1.00  0.00     0.093 A 
ATOM     17  C   UNL     1       4.809  25.840   6.768  1.00  0.00     0.131 A 
ENDROOT
BRANCH   6  18
ATOM     18  O   UNL     1       9.148  22.995   5.764  1.00  0.00    -0.507 OA
ATOM     19  H   UNL     1       8.200  22.650   5.807  1.00  0.00     0.293 HD
ENDBRANCH   6  18
BRANCH  17  20
ATOM     20  O   UNL     1       4.353  24.532   6.945  1.00  0.00    -0.507 OA
ATOM     21  H   UNL     1       3.846  24.016   6.239  1.00  0.00     0.293 HD
ENDBRANCH  17  20
BRANCH  15  22
ATOM     22  O   UNL     1       3.256  29.189   6.615  1.00  0.00    -0.508 OA
ATOM     23  H   UNL     1       2.267  28.970   6.610  1.00  0.00     0.293 HD
ENDBRANCH  15  22
TORSDOF 3
ENDMDL
