MODEL 1
REMARK VINA RESULT:    -3.466      0.000      0.000
REMARK INTER + INTRA:          -5.860
REMARK INTER:                  -5.289
REMARK INTRA:                  -0.571
REMARK UNBOUND:                -0.571
REMARK SMILES O=C([O-])CCCCCCCCC(=O)[O-]
REMARK SMILES IDX 7 1 6 2 5 3 4 4 2 5 1 6 3 7 8 8 9 9 10 10 11 11 12 12 13 13
REMARK SMILES IDX 14 14
REMARK H PARENT
REMARK Flexibility Score: inf
ROOT
ATOM      1  C   UNL     1      57.590  28.560  50.911  1.00  0.00     0.000 C 
ENDROOT
BRANCH   1   2
ATOM      2  C   UNL     1      56.242  29.290  50.819  1.00  0.00     0.000 C 
BRANCH   2   3
ATOM      3  C   UNL     1      55.053  28.324  50.695  1.00  0.00     0.006 C 
BRANCH   3   4
ATOM      4  C   UNL     1      55.490  26.883  50.402  1.00  0.00     0.053 C 
BRANCH   4   5
ATOM      5  C   UNL     1      54.300  25.979  50.343  1.00  0.00     0.041 C 
ATOM      6  O   UNL     1      53.782  25.685  49.234  1.00  0.00    -0.550 OA
ATOM      7  O   UNL     1      53.792  25.420  51.510  1.00  0.00    -0.550 OA
ENDBRANCH   4   5
ENDBRANCH   3   4
ENDBRANCH   2   3
ENDBRANCH   1   2
BRANCH   1   8
ATOM      8  C   UNL     1      58.561  29.062  49.834  1.00  0.00     0.000 C 
BRANCH   8   9
ATOM      9  C   UNL     1      59.662  28.027  49.560  1.00  0.00     0.000 C 
BRANCH   9  10
ATOM     10  C   UNL     1      59.297  26.614  50.045  1.00  0.00     0.006 C 
BRANCH  10  11
ATOM     11  C   UNL     1      60.404  25.928  50.865  1.00  0.00     0.053 C 
BRANCH  11  12
ATOM     12  C   UNL     1      60.232  24.442  50.941  1.00  0.00     0.041 C 
ATOM     13  O   UNL     1      59.521  23.929  51.845  1.00  0.00    -0.550 OA
ATOM     14  O   UNL     1      60.834  23.622  49.994  1.00  0.00    -0.550 OA
ENDBRANCH  11  12
ENDBRANCH  10  11
ENDBRANCH   9  10
ENDBRANCH   8   9
ENDBRANCH   1   8
TORSDOF 9
ENDMDL
MODEL 2
REMARK VINA RESULT:    -3.463      1.948      2.661
REMARK INTER + INTRA:          -5.856
REMARK INTER:                  -5.098
REMARK INTRA:                  -0.758
REMARK UNBOUND:                -0.571
REMARK SMILES O=C([O-])CCCCCCCCC(=O)[O-]
REMARK SMILES IDX 7 1 6 2 5 3 4 4 2 5 1 6 3 7 8 8 9 9 10 10 11 11 12 12 13 13
REMARK SMILES IDX 14 14
REMARK H PARENT
REMARK Flexibility Score: inf
ROOT
ATOM      1  C   UNL     1      56.623  30.063  52.650  1.00  0.00     0.000 C 
ENDROOT
BRANCH   1   2
ATOM      2  C   UNL     1      55.251  29.697  52.065  1.00  0.00     0.000 C 
BRANCH   2   3
ATOM      3  C   UNL     1      55.356  28.996  50.701  1.00  0.00     0.006 C 
BRANCH   3   4
ATOM      4  C   UNL     1      54.223  27.989  50.466  1.00  0.00     0.053 C 
BRANCH   4   5
ATOM      5  C   UNL     1      54.783  26.641  50.141  1.00  0.00     0.041 C 
ATOM      6  O   UNL     1      55.953  26.338  50.498  1.00  0.00    -0.550 OA
ATOM      7  O   UNL     1      53.998  25.699  49.489  1.00  0.00    -0.550 OA
ENDBRANCH   4   5
ENDBRANCH   3   4
ENDBRANCH   2   3
ENDBRANCH   1   2
BRANCH   1   8
ATOM      8  C   UNL     1      57.729  29.187  52.048  1.00  0.00     0.000 C 
BRANCH   8   9
ATOM      9  C   UNL     1      58.818  30.047  51.392  1.00  0.00     0.000 C 
BRANCH   9  10
ATOM     10  C   UNL     1      59.013  29.738  49.897  1.00  0.00     0.006 C 
BRANCH  10  11
ATOM     11  C   UNL     1      59.049  28.235  49.569  1.00  0.00     0.053 C 
BRANCH  11  12
ATOM     12  C   UNL     1      60.365  27.601  49.897  1.00  0.00     0.041 C 
ATOM     13  O   UNL     1      60.410  26.435  50.370  1.00  0.00    -0.550 OA
ATOM     14  O   UNL     1      61.549  28.287  49.651  1.00  0.00    -0.550 OA
ENDBRANCH  11  12
ENDBRANCH  10  11
ENDBRANCH   9  10
ENDBRANCH   8   9
ENDBRANCH   1   8
TORSDOF 9
ENDMDL
MODEL 3
REMARK VINA RESULT:    -3.438      1.647      5.602
REMARK INTER + INTRA:          -5.817
REMARK INTER:                  -5.111
REMARK INTRA:                  -0.707
REMARK UNBOUND:                -0.571
REMARK SMILES O=C([O-])CCCCCCCCC(=O)[O-]
REMARK SMILES IDX 7 1 6 2 5 3 4 4 2 5 1 6 3 7 8 8 9 9 10 10 11 11 12 12 13 13
REMARK SMILES IDX 14 14
REMARK H PARENT
REMARK Flexibility Score: inf
ROOT
ATOM      1  C   UNL     1      58.259  29.459  50.306  1.00  0.00     0.000 C 
ENDROOT
BRANCH   1   2
ATOM      2  C   UNL     1      59.213  28.556  49.509  1.00  0.00     0.000 C 
BRANCH   2   3
ATOM      3  C   UNL     1      59.040  27.067  49.846  1.00  0.00     0.006 C 
BRANCH   3   4
ATOM      4  C   UNL     1      60.338  26.419  50.342  1.00  0.00     0.053 C 
BRANCH   4   5
ATOM      5  C   UNL     1      60.777  27.050  51.626  1.00  0.00     0.041 C 
ATOM      6  O   UNL     1      61.894  27.627  51.698  1.00  0.00    -0.550 OA
ATOM      7  O   UNL     1      59.933  27.043  52.729  1.00  0.00    -0.550 OA
ENDBRANCH   4   5
ENDBRANCH   3   4
ENDBRANCH   2   3
ENDBRANCH   1   2
BRANCH   1   8
ATOM      8  C   UNL     1      57.151  28.633  50.973  1.00  0.00     0.000 C 
BRANCH   8   9
ATOM      9  C   UNL     1      55.775  29.278  50.754  1.00  0.00     0.000 C 
BRANCH   9  10
ATOM     10  C   UNL     1      54.633  28.249  50.672  1.00  0.00     0.006 C 
BRANCH  10  11
ATOM     11  C   UNL     1      55.101  26.820  50.346  1.00  0.00     0.053 C 
BRANCH  11  12
ATOM     12  C   UNL     1      53.965  25.852  50.224  1.00  0.00     0.041 C 
ATOM     13  O   UNL     1      53.399  25.671  49.113  1.00  0.00    -0.550 OA
ATOM     14  O   UNL     1      53.548  25.124  51.332  1.00  0.00    -0.550 OA
ENDBRANCH  11  12
ENDBRANCH  10  11
ENDBRANCH   9  10
ENDBRANCH   8   9
ENDBRANCH   1   8
TORSDOF 9
ENDMDL
MODEL 4
REMARK VINA RESULT:    -3.429      0.632      5.401
REMARK INTER + INTRA:          -5.804
REMARK INTER:                  -5.367
REMARK INTRA:                  -0.436
REMARK UNBOUND:                -0.571
REMARK SMILES O=C([O-])CCCCCCCCC(=O)[O-]
REMARK SMILES IDX 7 1 6 2 5 3 4 4 2 5 1 6 3 7 8 8 9 9 10 10 11 11 12 12 13 13
REMARK SMILES IDX 14 14
REMARK H PARENT
REMARK Flexibility Score: inf
ROOT
ATOM      1  C   UNL     1      58.455  29.257  49.992  1.00  0.00     0.000 C 
ENDROOT
BRANCH   1   2
ATOM      2  C   UNL     1      59.578  28.324  49.511  1.00  0.00     0.000 C 
BRANCH   2   3
ATOM      3  C   UNL     1      59.314  26.851  49.861  1.00  0.00     0.006 C 
BRANCH   3   4
ATOM      4  C   UNL     1      60.572  26.127  50.358  1.00  0.00     0.053 C 
BRANCH   4   5
ATOM      5  C   UNL     1      60.255  24.705  50.696  1.00  0.00     0.041 C 
ATOM      6  O   UNL     1      59.407  24.439  51.588  1.00  0.00    -0.550 OA
ATOM      7  O   UNL     1      60.860  23.671  49.991  1.00  0.00    -0.550 OA
ENDBRANCH   4   5
ENDBRANCH   3   4
ENDBRANCH   2   3
ENDBRANCH   1   2
BRANCH   1   8
ATOM      8  C   UNL     1      57.278  28.453  50.558  1.00  0.00     0.000 C 
BRANCH   8   9
ATOM      9  C   UNL     1      56.077  29.364  50.847  1.00  0.00     0.000 C 
BRANCH   9  10
ATOM     10  C   UNL     1      54.863  28.603  51.408  1.00  0.00     0.006 C 
BRANCH  10  11
ATOM     11  C   UNL     1      53.992  27.933  50.330  1.00  0.00     0.053 C 
BRANCH  11  12
ATOM     12  C   UNL     1      54.189  26.450  50.266  1.00  0.00     0.041 C 
ATOM     13  O   UNL     1      54.863  25.858  51.150  1.00  0.00    -0.550 OA
ATOM     14  O   UNL     1      53.601  25.713  49.245  1.00  0.00    -0.550 OA
ENDBRANCH  11  12
ENDBRANCH  10  11
ENDBRANCH   9  10
ENDBRANCH   8   9
ENDBRANCH   1   8
TORSDOF 9
ENDMDL
MODEL 5
REMARK VINA RESULT:    -3.350      3.030      3.836
REMARK INTER + INTRA:          -5.683
REMARK INTER:                  -4.819
REMARK INTRA:                  -0.864
REMARK UNBOUND:                -0.571
REMARK SMILES O=C([O-])CCCCCCCCC(=O)[O-]
REMARK SMILES IDX 7 1 6 2 5 3 4 4 2 5 1 6 3 7 8 8 9 9 10 10 11 11 12 12 13 13
REMARK SMILES IDX 14 14
REMARK H PARENT
REMARK Flexibility Score: inf
ROOT
ATOM      1  C   UNL     1      58.034  26.152  51.606  1.00  0.00     0.000 C 
ENDROOT
BRANCH   1   2
ATOM      2  C   UNL     1      56.518  26.370  51.723  1.00  0.00     0.000 C 
BRANCH   2   3
ATOM      3  C   UNL     1      55.917  27.036  50.475  1.00  0.00     0.006 C 
BRANCH   3   4
ATOM      4  C   UNL     1      55.425  28.463  50.746  1.00  0.00     0.053 C 
BRANCH   4   5
ATOM      5  C   UNL     1      53.980  28.594  50.378  1.00  0.00     0.041 C 
ATOM      6  O   UNL     1      53.426  29.726  50.381  1.00  0.00    -0.550 OA
ATOM      7  O   UNL     1      53.257  27.475  49.985  1.00  0.00    -0.550 OA
ENDBRANCH   4   5
ENDBRANCH   3   4
ENDBRANCH   2   3
ENDBRANCH   1   2
BRANCH   1   8
ATOM      8  C   UNL     1      58.502  26.315  50.154  1.00  0.00     0.000 C 
BRANCH   8   9
ATOM      9  C   UNL     1      59.650  27.329  50.055  1.00  0.00     0.000 C 
BRANCH   9  10
ATOM     10  C   UNL     1      59.237  28.643  49.369  1.00  0.00     0.006 C 
BRANCH  10  11
ATOM     11  C   UNL     1      58.896  29.780  50.348  1.00  0.00     0.053 C 
BRANCH  11  12
ATOM     12  C   UNL     1      60.073  30.215  51.165  1.00  0.00     0.041 C 
ATOM     13  O   UNL     1      60.076  30.053  52.414  1.00  0.00    -0.550 OA
ATOM     14  O   UNL     1      61.184  30.772  50.543  1.00  0.00    -0.550 OA
ENDBRANCH  11  12
ENDBRANCH  10  11
ENDBRANCH   9  10
ENDBRANCH   8   9
ENDBRANCH   1   8
TORSDOF 9
ENDMDL
MODEL 6
REMARK VINA RESULT:    -3.294      1.358      5.530
REMARK INTER + INTRA:          -5.599
REMARK INTER:                  -4.989
REMARK INTRA:                  -0.610
REMARK UNBOUND:                -0.571
REMARK SMILES O=C([O-])CCCCCCCCC(=O)[O-]
REMARK SMILES IDX 7 1 6 2 5 3 4 4 2 5 1 6 3 7 8 8 9 9 10 10 11 11 12 12 13 13
REMARK SMILES IDX 14 14
REMARK H PARENT
REMARK Flexibility Score: inf
ROOT
ATOM      1  C   UNL     1      60.557  28.154  50.246  1.00  0.00     0.000 C 
ENDROOT
BRANCH   1   2
ATOM      2  C   UNL     1      60.442  26.943  51.185  1.00  0.00     0.000 C 
BRANCH   2   3
ATOM      3  C   UNL     1      60.094  25.646  50.439  1.00  0.00     0.006 C 
BRANCH   3   4
ATOM      4  C   UNL     1      61.265  24.656  50.398  1.00  0.00     0.053 C 
BRANCH   4   5
ATOM      5  C   UNL     1      60.758  23.252  50.296  1.00  0.00     0.041 C 
ATOM      6  O   UNL     1      60.075  22.756  51.232  1.00  0.00    -0.550 OA
ATOM      7  O   UNL     1      60.996  22.507  49.148  1.00  0.00    -0.550 OA
ENDBRANCH   4   5
ENDBRANCH   3   4
ENDBRANCH   2   3
ENDBRANCH   1   2
BRANCH   1   8
ATOM      8  C   UNL     1      59.246  28.385  49.484  1.00  0.00     0.000 C 
BRANCH   8   9
ATOM      9  C   UNL     1      58.506  29.618  50.023  1.00  0.00     0.000 C 
BRANCH   9  10
ATOM     10  C   UNL     1      57.189  29.266  50.739  1.00  0.00     0.006 C 
BRANCH  10  11
ATOM     11  C   UNL     1      56.822  27.773  50.675  1.00  0.00     0.053 C 
BRANCH  11  12
ATOM     12  C   UNL     1      55.365  27.545  50.417  1.00  0.00     0.041 C 
ATOM     13  O   UNL     1      54.576  28.521  50.315  1.00  0.00    -0.550 OA
ATOM     14  O   UNL     1      54.880  26.252  50.257  1.00  0.00    -0.550 OA
ENDBRANCH  11  12
ENDBRANCH  10  11
ENDBRANCH   9  10
ENDBRANCH   8   9
ENDBRANCH   1   8
TORSDOF 9
ENDMDL
MODEL 7
REMARK VINA RESULT:    -3.265      1.647      1.958
REMARK INTER + INTRA:          -5.554
REMARK INTER:                  -4.876
REMARK INTRA:                  -0.678
REMARK UNBOUND:                -0.571
REMARK SMILES O=C([O-])CCCCCCCCC(=O)[O-]
REMARK SMILES IDX 7 1 6 2 5 3 4 4 2 5 1 6 3 7 8 8 9 9 10 10 11 11 12 12 13 13
REMARK SMILES IDX 14 14
REMARK H PARENT
REMARK Flexibility Score: inf
ROOT
ATOM      1  C   UNL     1      57.975  29.429  51.021  1.00  0.00     0.000 C 
ENDROOT
BRANCH   1   2
ATOM      2  C   UNL     1      56.486  29.228  50.700  1.00  0.00     0.000 C 
BRANCH   2   3
ATOM      3  C   UNL     1      56.033  27.771  50.882  1.00  0.00     0.006 C 
BRANCH   3   4
ATOM      4  C   UNL     1      54.609  27.527  50.367  1.00  0.00     0.053 C 
BRANCH   4   5
ATOM      5  C   UNL     1      53.649  28.471  51.019  1.00  0.00     0.041 C 
ATOM      6  O   UNL     1      53.446  28.410  52.261  1.00  0.00    -0.550 OA
ATOM      7  O   UNL     1      53.017  29.452  50.266  1.00  0.00    -0.550 OA
ENDBRANCH   4   5
ENDBRANCH   3   4
ENDBRANCH   2   3
ENDBRANCH   1   2
BRANCH   1   8
ATOM      8  C   UNL     1      58.804  29.541  49.735  1.00  0.00     0.000 C 
BRANCH   8   9
ATOM      9  C   UNL     1      59.567  28.238  49.456  1.00  0.00     0.000 C 
BRANCH   9  10
ATOM     10  C   UNL     1      59.715  27.347  50.702  1.00  0.00     0.006 C 
BRANCH  10  11
ATOM     11  C   UNL     1      59.233  25.900  50.498  1.00  0.00     0.053 C 
BRANCH  11  12
ATOM     12  C   UNL     1      60.321  24.892  50.706  1.00  0.00     0.041 C 
ATOM     13  O   UNL     1      60.037  23.700  50.995  1.00  0.00    -0.550 OA
ATOM     14  O   UNL     1      61.651  25.261  50.550  1.00  0.00    -0.550 OA
ENDBRANCH  11  12
ENDBRANCH  10  11
ENDBRANCH   9  10
ENDBRANCH   8   9
ENDBRANCH   1   8
TORSDOF 9
ENDMDL
MODEL 8
REMARK VINA RESULT:    -3.233      3.235      5.788
REMARK INTER + INTRA:          -5.506
REMARK INTER:                  -4.658
REMARK INTRA:                  -0.848
REMARK UNBOUND:                -0.571
REMARK SMILES O=C([O-])CCCCCCCCC(=O)[O-]
REMARK SMILES IDX 7 1 6 2 5 3 4 4 2 5 1 6 3 7 8 8 9 9 10 10 11 11 12 12 13 13
REMARK SMILES IDX 14 14
REMARK H PARENT
REMARK Flexibility Score: inf
ROOT
ATOM      1  C   UNL     1      56.054  26.242  51.692  1.00  0.00     0.000 C 
ENDROOT
BRANCH   1   2
ATOM      2  C   UNL     1      57.583  26.204  51.555  1.00  0.00     0.000 C 
BRANCH   2   3
ATOM      3  C   UNL     1      58.061  26.572  50.142  1.00  0.00     0.006 C 
BRANCH   3   4
ATOM      4  C   UNL     1      59.589  26.670  50.041  1.00  0.00     0.053 C 
BRANCH   4   5
ATOM      5  C   UNL     1      59.998  28.053  49.645  1.00  0.00     0.041 C 
ATOM      6  O   UNL     1      61.212  28.386  49.668  1.00  0.00    -0.550 OA
ATOM      7  O   UNL     1      59.044  28.961  49.202  1.00  0.00    -0.550 OA
ENDBRANCH   4   5
ENDBRANCH   3   4
ENDBRANCH   2   3
ENDBRANCH   1   2
BRANCH   1   8
ATOM      8  C   UNL     1      55.392  26.612  50.358  1.00  0.00     0.000 C 
BRANCH   8   9
ATOM      9  C   UNL     1      54.532  27.876  50.502  1.00  0.00     0.000 C 
BRANCH   9  10
ATOM     10  C   UNL     1      55.366  29.156  50.685  1.00  0.00     0.006 C 
BRANCH  10  11
ATOM     11  C   UNL     1      55.239  29.792  52.080  1.00  0.00     0.053 C 
BRANCH  11  12
ATOM     12  C   UNL     1      56.562  29.961  52.763  1.00  0.00     0.041 C 
ATOM     13  O   UNL     1      57.632  29.717  52.145  1.00  0.00    -0.550 OA
ATOM     14  O   UNL     1      56.615  30.418  54.073  1.00  0.00    -0.550 OA
ENDBRANCH  11  12
ENDBRANCH  10  11
ENDBRANCH   9  10
ENDBRANCH   8   9
ENDBRANCH   1   8
TORSDOF 9
ENDMDL
MODEL 9
REMARK VINA RESULT:    -3.161      2.152      5.976
REMARK INTER + INTRA:          -5.395
REMARK INTER:                  -4.689
REMARK INTRA:                  -0.706
REMARK UNBOUND:                -0.571
REMARK SMILES O=C([O-])CCCCCCCCC(=O)[O-]
REMARK SMILES IDX 7 1 6 2 5 3 4 4 2 5 1 6 3 7 8 8 9 9 10 10 11 11 12 12 13 13
REMARK SMILES IDX 14 14
REMARK H PARENT
REMARK Flexibility Score: inf
ROOT
ATOM      1  C   UNL     1      58.638  29.414  51.498  1.00  0.00     0.000 C 
ENDROOT
BRANCH   1   2
ATOM      2  C   UNL     1      58.690  29.556  49.969  1.00  0.00     0.000 C 
BRANCH   2   3
ATOM      3  C   UNL     1      59.572  28.487  49.305  1.00  0.00     0.006 C 
BRANCH   3   4
ATOM      4  C   UNL     1      60.303  27.606  50.326  1.00  0.00     0.053 C 
BRANCH   4   5
ATOM      5  C   UNL     1      59.710  26.233  50.351  1.00  0.00     0.041 C 
ATOM      6  O   UNL     1      60.458  25.220  50.362  1.00  0.00    -0.550 OA
ATOM      7  O   UNL     1      58.331  26.072  50.411  1.00  0.00    -0.550 OA
ENDBRANCH   4   5
ENDBRANCH   3   4
ENDBRANCH   2   3
ENDBRANCH   1   2
BRANCH   1   8
ATOM      8  C   UNL     1      57.199  29.183  51.979  1.00  0.00     0.000 C 
BRANCH   8   9
ATOM      9  C   UNL     1      56.210  29.241  50.806  1.00  0.00     0.000 C 
BRANCH   9  10
ATOM     10  C   UNL     1      55.300  28.003  50.721  1.00  0.00     0.006 C 
BRANCH  10  11
ATOM     11  C   UNL     1      53.835  28.326  50.377  1.00  0.00     0.053 C 
BRANCH  11  12
ATOM     12  C   UNL     1      53.241  29.359  51.285  1.00  0.00     0.041 C 
ATOM     13  O   UNL     1      52.887  30.478  50.829  1.00  0.00    -0.550 OA
ATOM     14  O   UNL     1      53.048  29.074  52.631  1.00  0.00    -0.550 OA
ENDBRANCH  11  12
ENDBRANCH  10  11
ENDBRANCH   9  10
ENDBRANCH   8   9
ENDBRANCH   1   8
TORSDOF 9
ENDMDL
