MODEL 1
REMARK VINA RESULT:    -6.287      0.000      0.000
REMARK INTER + INTRA:          -7.686
REMARK INTER:                  -7.389
REMARK INTRA:                  -0.297
REMARK UNBOUND:                -0.297
REMARK SMILES O=c1cc(-c2ccc(O)c(O)c2)oc2cc(O)cc(O)c12
REMARK SMILES IDX 4 1 3 2 2 3 1 4 21 5 19 6 18 7 16 8 15 9 14 10 13 11 5 12
REMARK SMILES IDX 6 13 7 14 8 15 12 16 10 17 9 18 11 20 20 22 17 24
REMARK H PARENT 9 19 11 21 20 23 17 25
REMARK Flexibility Score: inf
ROOT
ATOM      1  C   UNL     1      25.766 -17.468   9.951  1.00  0.00     0.138 A 
ATOM      2  C   UNL     1      26.313 -18.389   9.042  1.00  0.00     0.100 A 
ATOM      3  C   UNL     1      27.543 -18.114   8.442  1.00  0.00     0.197 A 
ATOM      4  O   UNL     1      28.026 -18.945   7.627  1.00  0.00    -0.289 OA
ATOM      5  C   UNL     1      28.217 -16.916   8.756  1.00  0.00     0.107 A 
ATOM      6  C   UNL     1      29.468 -16.562   8.196  1.00  0.00     0.134 A 
ATOM      7  C   UNL     1      30.070 -15.348   8.556  1.00  0.00     0.093 A 
ATOM      8  C   UNL     1      29.449 -14.484   9.462  1.00  0.00     0.123 A 
ATOM      9  C   UNL     1      28.213 -14.829  10.019  1.00  0.00     0.094 A 
ATOM     10  C   UNL     1      27.597 -16.035   9.674  1.00  0.00     0.146 A 
ATOM     11  O   UNL     1      26.423 -16.342  10.217  1.00  0.00    -0.456 OA
ENDROOT
BRANCH   1  12
ATOM     12  C   UNL     1      24.460 -17.707  10.616  1.00  0.00     0.021 A 
ATOM     13  C   UNL     1      24.029 -16.831  11.627  1.00  0.00     0.016 A 
ATOM     14  C   UNL     1      22.808 -17.037  12.274  1.00  0.00     0.051 A 
ATOM     15  C   UNL     1      22.001 -18.128  11.930  1.00  0.00     0.157 A 
ATOM     16  C   UNL     1      23.650 -18.811  10.285  1.00  0.00     0.062 A 
ATOM     17  C   UNL     1      22.428 -19.022  10.933  1.00  0.00     0.158 A 
BRANCH  15  18
ATOM     18  O   UNL     1      20.783 -18.331  12.578  1.00  0.00    -0.504 OA
ATOM     19  H   UNL     1      20.481 -17.735  13.339  1.00  0.00     0.293 HD
ENDBRANCH  15  18
BRANCH  17  20
ATOM     20  O   UNL     1      21.653 -20.125  10.576  1.00  0.00    -0.504 OA
ATOM     21  H   UNL     1      22.027 -20.893  10.033  1.00  0.00     0.293 HD
ENDBRANCH  17  20
ENDBRANCH   1  12
BRANCH   6  22
ATOM     22  O   UNL     1      30.111 -17.404   7.288  1.00  0.00    -0.507 OA
ATOM     23  H   UNL     1      30.128 -18.410   7.414  1.00  0.00     0.293 HD
ENDBRANCH   6  22
BRANCH   8  24
ATOM     24  O   UNL     1      30.070 -13.284   9.801  1.00  0.00    -0.508 OA
ATOM     25  H   UNL     1      30.135 -12.517   9.142  1.00  0.00     0.293 HD
ENDBRANCH   8  24
TORSDOF 5
ENDMDL
MODEL 2
REMARK VINA RESULT:    -5.953      1.742      2.869
REMARK INTER + INTRA:          -7.294
REMARK INTER:                  -6.978
REMARK INTRA:                  -0.316
REMARK UNBOUND:                -0.297
REMARK SMILES O=c1cc(-c2ccc(O)c(O)c2)oc2cc(O)cc(O)c12
REMARK SMILES IDX 4 1 3 2 2 3 1 4 21 5 19 6 18 7 16 8 15 9 14 10 13 11 5 12
REMARK SMILES IDX 6 13 7 14 8 15 12 16 10 17 9 18 11 20 20 22 17 24
REMARK H PARENT 9 19 11 21 20 23 17 25
REMARK Flexibility Score: inf
ROOT
ATOM      1  C   UNL     1      25.894 -16.882   9.484  1.00  0.00     0.138 A 
ATOM      2  C   UNL     1      26.854 -16.029  10.053  1.00  0.00     0.100 A 
ATOM      3  C   UNL     1      27.938 -15.603   9.283  1.00  0.00     0.197 A 
ATOM      4  O   UNL     1      28.794 -14.838   9.803  1.00  0.00    -0.289 OA
ATOM      5  C   UNL     1      28.054 -16.036   7.947  1.00  0.00     0.107 A 
ATOM      6  C   UNL     1      29.118 -15.649   7.098  1.00  0.00     0.134 A 
ATOM      7  C   UNL     1      29.164 -16.130   5.780  1.00  0.00     0.093 A 
ATOM      8  C   UNL     1      28.170 -16.985   5.298  1.00  0.00     0.123 A 
ATOM      9  C   UNL     1      27.116 -17.371   6.133  1.00  0.00     0.094 A 
ATOM     10  C   UNL     1      27.051 -16.902   7.448  1.00  0.00     0.146 A 
ATOM     11  O   UNL     1      26.039 -17.281   8.222  1.00  0.00    -0.456 OA
ENDROOT
BRANCH   1  12
ATOM     12  C   UNL     1      24.723 -17.369  10.256  1.00  0.00     0.021 A 
ATOM     13  C   UNL     1      24.403 -16.762  11.482  1.00  0.00     0.016 A 
ATOM     14  C   UNL     1      23.310 -17.205  12.231  1.00  0.00     0.051 A 
ATOM     15  C   UNL     1      22.525 -18.271  11.774  1.00  0.00     0.157 A 
ATOM     16  C   UNL     1      23.938 -18.450   9.808  1.00  0.00     0.062 A 
ATOM     17  C   UNL     1      22.845 -18.898  10.558  1.00  0.00     0.158 A 
BRANCH  15  18
ATOM     18  O   UNL     1      21.435 -18.711  12.523  1.00  0.00    -0.504 OA
ATOM     19  H   UNL     1      21.553 -19.118  13.443  1.00  0.00     0.293 HD
ENDBRANCH  15  18
BRANCH  17  20
ATOM     20  O   UNL     1      22.089 -19.969  10.081  1.00  0.00    -0.504 OA
ATOM     21  H   UNL     1      21.636 -20.628  10.703  1.00  0.00     0.293 HD
ENDBRANCH  17  20
ENDBRANCH   1  12
BRANCH   6  22
ATOM     22  O   UNL     1      30.125 -14.797   7.552  1.00  0.00    -0.507 OA
ATOM     23  H   UNL     1      31.026 -15.150   7.853  1.00  0.00     0.293 HD
ENDBRANCH   6  22
BRANCH   8  24
ATOM     24  O   UNL     1      28.242 -17.448   3.986  1.00  0.00    -0.508 OA
ATOM     25  H   UNL     1      29.056 -17.944   3.643  1.00  0.00     0.293 HD
ENDBRANCH   8  24
TORSDOF 5
ENDMDL
MODEL 3
REMARK VINA RESULT:    -5.857     14.275     15.672
REMARK INTER + INTRA:          -7.181
REMARK INTER:                  -6.872
REMARK INTRA:                  -0.309
REMARK UNBOUND:                -0.297
REMARK SMILES O=c1cc(-c2ccc(O)c(O)c2)oc2cc(O)cc(O)c12
REMARK SMILES IDX 4 1 3 2 2 3 1 4 21 5 19 6 18 7 16 8 15 9 14 10 13 11 5 12
REMARK SMILES IDX 6 13 7 14 8 15 12 16 10 17 9 18 11 20 20 22 17 24
REMARK H PARENT 9 19 11 21 20 23 17 25
REMARK Flexibility Score: inf
ROOT
ATOM      1  C   UNL     1      13.988 -14.440  17.366  1.00  0.00     0.138 A 
ATOM      2  C   UNL     1      13.647 -15.311  16.318  1.00  0.00     0.100 A 
ATOM      3  C   UNL     1      12.913 -14.828  15.233  1.00  0.00     0.197 A 
ATOM      4  O   UNL     1      12.611 -15.619  14.299  1.00  0.00    -0.289 OA
ATOM      5  C   UNL     1      12.523 -13.474  15.206  1.00  0.00     0.107 A 
ATOM      6  C   UNL     1      11.781 -12.904  14.144  1.00  0.00     0.134 A 
ATOM      7  C   UNL     1      11.427 -11.548  14.195  1.00  0.00     0.093 A 
ATOM      8  C   UNL     1      11.799 -10.753  15.283  1.00  0.00     0.123 A 
ATOM      9  C   UNL     1      12.533 -11.312  16.335  1.00  0.00     0.094 A 
ATOM     10  C   UNL     1      12.897 -12.661  16.303  1.00  0.00     0.146 A 
ATOM     11  O   UNL     1      13.595 -13.169  17.313  1.00  0.00    -0.456 OA
ENDROOT
BRANCH   1  12
ATOM     12  C   UNL     1      14.764 -14.898  18.545  1.00  0.00     0.021 A 
ATOM     13  C   UNL     1      15.614 -16.011  18.423  1.00  0.00     0.016 A 
ATOM     14  C   UNL     1      16.351 -16.467  19.518  1.00  0.00     0.051 A 
ATOM     15  C   UNL     1      16.243 -15.826  20.759  1.00  0.00     0.157 A 
ATOM     16  C   UNL     1      14.650 -14.266  19.799  1.00  0.00     0.062 A 
ATOM     17  C   UNL     1      15.385 -14.722  20.899  1.00  0.00     0.158 A 
BRANCH  15  18
ATOM     18  O   UNL     1      16.981 -16.282  21.850  1.00  0.00    -0.504 OA
ATOM     19  H   UNL     1      16.843 -17.210  22.233  1.00  0.00     0.293 HD
ENDBRANCH  15  18
BRANCH  17  20
ATOM     20  O   UNL     1      15.247 -14.069  22.124  1.00  0.00    -0.504 OA
ATOM     21  H   UNL     1      15.366 -14.551  23.007  1.00  0.00     0.293 HD
ENDBRANCH  17  20
ENDBRANCH   1  12
BRANCH   6  22
ATOM     22  O   UNL     1      11.394 -13.672  13.045  1.00  0.00    -0.507 OA
ATOM     23  H   UNL     1      12.064 -13.982  12.351  1.00  0.00     0.293 HD
ENDBRANCH   6  22
BRANCH   8  24
ATOM     24  O   UNL     1      11.433  -9.410  15.308  1.00  0.00    -0.508 OA
ATOM     25  H   UNL     1      11.845  -8.761  15.969  1.00  0.00     0.293 HD
ENDBRANCH   8  24
TORSDOF 5
ENDMDL
MODEL 4
REMARK VINA RESULT:    -5.686     13.270     15.500
REMARK INTER + INTRA:          -6.979
REMARK INTER:                  -6.715
REMARK INTRA:                  -0.264
REMARK UNBOUND:                -0.297
REMARK SMILES O=c1cc(-c2ccc(O)c(O)c2)oc2cc(O)cc(O)c12
REMARK SMILES IDX 4 1 3 2 2 3 1 4 21 5 19 6 18 7 16 8 15 9 14 10 13 11 5 12
REMARK SMILES IDX 6 13 7 14 8 15 12 16 10 17 9 18 11 20 20 22 17 24
REMARK H PARENT 9 19 11 21 20 23 17 25
REMARK Flexibility Score: inf
ROOT
ATOM      1  C   UNL     1      13.687 -14.522  16.685  1.00  0.00     0.138 A 
ATOM      2  C   UNL     1      15.011 -14.954  16.497  1.00  0.00     0.100 A 
ATOM      3  C   UNL     1      15.792 -15.279  17.608  1.00  0.00     0.197 A 
ATOM      4  O   UNL     1      16.978 -15.664  17.429  1.00  0.00    -0.289 OA
ATOM      5  C   UNL     1      15.242 -15.167  18.901  1.00  0.00     0.107 A 
ATOM      6  C   UNL     1      15.963 -15.478  20.078  1.00  0.00     0.134 A 
ATOM      7  C   UNL     1      15.344 -15.335  21.329  1.00  0.00     0.093 A 
ATOM      8  C   UNL     1      14.024 -14.888  21.425  1.00  0.00     0.123 A 
ATOM      9  C   UNL     1      13.307 -14.579  20.265  1.00  0.00     0.094 A 
ATOM     10  C   UNL     1      13.904 -14.717  19.009  1.00  0.00     0.146 A 
ATOM     11  O   UNL     1      13.202 -14.419  17.920  1.00  0.00    -0.456 OA
ENDROOT
BRANCH   1  12
ATOM     12  C   UNL     1      12.812 -14.162  15.542  1.00  0.00     0.021 A 
ATOM     13  C   UNL     1      12.566 -12.807  15.260  1.00  0.00     0.016 A 
ATOM     14  C   UNL     1      11.741 -12.441  14.194  1.00  0.00     0.051 A 
ATOM     15  C   UNL     1      11.137 -13.422  13.398  1.00  0.00     0.157 A 
ATOM     16  C   UNL     1      12.190 -15.144  14.745  1.00  0.00     0.062 A 
ATOM     17  C   UNL     1      11.361 -14.780  13.679  1.00  0.00     0.158 A 
BRANCH  15  18
ATOM     18  O   UNL     1      10.314 -13.053  12.334  1.00  0.00    -0.504 OA
ATOM     19  H   UNL     1      10.003 -13.727  11.645  1.00  0.00     0.293 HD
ENDBRANCH  15  18
BRANCH  17  20
ATOM     20  O   UNL     1      10.765 -15.781  12.912  1.00  0.00    -0.504 OA
ATOM     21  H   UNL     1      10.192 -15.570  12.103  1.00  0.00     0.293 HD
ENDBRANCH  17  20
ENDBRANCH   1  12
BRANCH   6  22
ATOM     22  O   UNL     1      17.283 -15.926  20.014  1.00  0.00    -0.507 OA
ATOM     23  H   UNL     1      17.838 -15.827  19.171  1.00  0.00     0.293 HD
ENDBRANCH   6  22
BRANCH   8  24
ATOM     24  O   UNL     1      13.435 -14.755  22.680  1.00  0.00    -0.508 OA
ATOM     25  H   UNL     1      12.492 -14.398  22.787  1.00  0.00     0.293 HD
ENDBRANCH   8  24
TORSDOF 5
ENDMDL
MODEL 5
REMARK VINA RESULT:    -5.564     14.566     16.098
REMARK INTER + INTRA:          -6.836
REMARK INTER:                  -6.572
REMARK INTRA:                  -0.265
REMARK UNBOUND:                -0.297
REMARK SMILES O=c1cc(-c2ccc(O)c(O)c2)oc2cc(O)cc(O)c12
REMARK SMILES IDX 4 1 3 2 2 3 1 4 21 5 19 6 18 7 16 8 15 9 14 10 13 11 5 12
REMARK SMILES IDX 6 13 7 14 8 15 12 16 10 17 9 18 11 20 20 22 17 24
REMARK H PARENT 9 19 11 21 20 23 17 25
REMARK Flexibility Score: inf
ROOT
ATOM      1  C   UNL     1      13.954 -13.686  17.985  1.00  0.00     0.138 A 
ATOM      2  C   UNL     1      13.966 -12.281  17.986  1.00  0.00     0.100 A 
ATOM      3  C   UNL     1      13.305 -11.588  16.971  1.00  0.00     0.197 A 
ATOM      4  O   UNL     1      13.323 -10.327  16.980  1.00  0.00    -0.289 OA
ATOM      5  C   UNL     1      12.636 -12.306  15.959  1.00  0.00     0.107 A 
ATOM      6  C   UNL     1      11.940 -11.681  14.897  1.00  0.00     0.134 A 
ATOM      7  C   UNL     1      11.305 -12.469  13.926  1.00  0.00     0.093 A 
ATOM      8  C   UNL     1      11.351 -13.864  13.996  1.00  0.00     0.123 A 
ATOM      9  C   UNL     1      12.038 -14.487  15.044  1.00  0.00     0.094 A 
ATOM     10  C   UNL     1      12.677 -13.720  16.022  1.00  0.00     0.146 A 
ATOM     11  O   UNL     1      13.321 -14.334  17.009  1.00  0.00    -0.456 OA
ENDROOT
BRANCH   1  12
ATOM     12  C   UNL     1      14.642 -14.476  19.037  1.00  0.00     0.021 A 
ATOM     13  C   UNL     1      15.979 -14.863  18.847  1.00  0.00     0.016 A 
ATOM     14  C   UNL     1      16.648 -15.612  19.818  1.00  0.00     0.051 A 
ATOM     15  C   UNL     1      15.988 -15.998  20.992  1.00  0.00     0.157 A 
ATOM     16  C   UNL     1      13.979 -14.879  20.213  1.00  0.00     0.062 A 
ATOM     17  C   UNL     1      14.645 -15.632  21.187  1.00  0.00     0.158 A 
BRANCH  15  18
ATOM     18  O   UNL     1      16.657 -16.745  21.960  1.00  0.00    -0.504 OA
ATOM     19  H   UNL     1      17.294 -16.312  22.618  1.00  0.00     0.293 HD
ENDBRANCH  15  18
BRANCH  17  20
ATOM     20  O   UNL     1      13.957 -16.010  22.339  1.00  0.00    -0.504 OA
ATOM     21  H   UNL     1      14.362 -15.918  23.263  1.00  0.00     0.293 HD
ENDBRANCH  17  20
ENDBRANCH   1  12
BRANCH   6  22
ATOM     22  O   UNL     1      11.877 -10.291  14.801  1.00  0.00    -0.507 OA
ATOM     23  H   UNL     1      10.991  -9.798  14.795  1.00  0.00     0.293 HD
ENDBRANCH   6  22
BRANCH   8  24
ATOM     24  O   UNL     1      10.712 -14.621  13.018  1.00  0.00    -0.508 OA
ATOM     25  H   UNL     1       9.788 -15.010  13.169  1.00  0.00     0.293 HD
ENDBRANCH   8  24
TORSDOF 5
ENDMDL
MODEL 6
REMARK VINA RESULT:    -5.454     13.432     15.620
REMARK INTER + INTRA:          -6.707
REMARK INTER:                  -6.408
REMARK INTRA:                  -0.300
REMARK UNBOUND:                -0.297
REMARK SMILES O=c1cc(-c2ccc(O)c(O)c2)oc2cc(O)cc(O)c12
REMARK SMILES IDX 4 1 3 2 2 3 1 4 21 5 19 6 18 7 16 8 15 9 14 10 13 11 5 12
REMARK SMILES IDX 6 13 7 14 8 15 12 16 10 17 9 18 11 20 20 22 17 24
REMARK H PARENT 9 19 11 21 20 23 17 25
REMARK Flexibility Score: inf
ROOT
ATOM      1  C   UNL     1      13.231 -13.748  16.939  1.00  0.00     0.138 A 
ATOM      2  C   UNL     1      13.225 -13.106  18.188  1.00  0.00     0.100 A 
ATOM      3  C   UNL     1      13.989 -13.628  19.234  1.00  0.00     0.197 A 
ATOM      4  O   UNL     1      13.976 -13.045  20.351  1.00  0.00    -0.289 OA
ATOM      5  C   UNL     1      14.753 -14.793  19.021  1.00  0.00     0.107 A 
ATOM      6  C   UNL     1      15.556 -15.385  20.025  1.00  0.00     0.134 A 
ATOM      7  C   UNL     1      16.283 -16.549  19.734  1.00  0.00     0.093 A 
ATOM      8  C   UNL     1      16.224 -17.130  18.464  1.00  0.00     0.123 A 
ATOM      9  C   UNL     1      15.432 -16.548  17.469  1.00  0.00     0.094 A 
ATOM     10  C   UNL     1      14.701 -15.388  17.737  1.00  0.00     0.146 A 
ATOM     11  O   UNL     1      13.957 -14.852  16.775  1.00  0.00    -0.456 OA
ENDROOT
BRANCH   1  12
ATOM     12  C   UNL     1      12.437 -13.240  15.793  1.00  0.00     0.021 A 
ATOM     13  C   UNL     1      12.312 -11.853  15.599  1.00  0.00     0.016 A 
ATOM     14  C   UNL     1      11.565 -11.348  14.532  1.00  0.00     0.051 A 
ATOM     15  C   UNL     1      10.920 -12.220  13.646  1.00  0.00     0.157 A 
ATOM     16  C   UNL     1      11.774 -14.111  14.905  1.00  0.00     0.062 A 
ATOM     17  C   UNL     1      11.023 -13.608  13.838  1.00  0.00     0.158 A 
BRANCH  15  18
ATOM     18  O   UNL     1      10.175 -11.713  12.582  1.00  0.00    -0.504 OA
ATOM     19  H   UNL     1      10.603 -11.500  11.689  1.00  0.00     0.293 HD
ENDBRANCH  15  18
BRANCH  17  20
ATOM     20  O   UNL     1      10.383 -14.502  12.979  1.00  0.00    -0.504 OA
ATOM     21  H   UNL     1       9.399 -14.417  12.749  1.00  0.00     0.293 HD
ENDBRANCH  17  20
ENDBRANCH   1  12
BRANCH   6  22
ATOM     22  O   UNL     1      15.635 -14.829  21.302  1.00  0.00    -0.507 OA
ATOM     23  H   UNL     1      14.957 -15.052  22.022  1.00  0.00     0.293 HD
ENDBRANCH   6  22
BRANCH   8  24
ATOM     24  O   UNL     1      16.956 -18.286  18.204  1.00  0.00    -0.508 OA
ATOM     25  H   UNL     1      17.192 -18.561  17.257  1.00  0.00     0.293 HD
ENDBRANCH   8  24
TORSDOF 5
ENDMDL
MODEL 7
REMARK VINA RESULT:    -5.422      1.801      6.979
REMARK INTER + INTRA:          -6.669
REMARK INTER:                  -6.353
REMARK INTRA:                  -0.316
REMARK UNBOUND:                -0.297
REMARK SMILES O=c1cc(-c2ccc(O)c(O)c2)oc2cc(O)cc(O)c12
REMARK SMILES IDX 4 1 3 2 2 3 1 4 21 5 19 6 18 7 16 8 15 9 14 10 13 11 5 12
REMARK SMILES IDX 6 13 7 14 8 15 12 16 10 17 9 18 11 20 20 22 17 24
REMARK H PARENT 9 19 11 21 20 23 17 25
REMARK Flexibility Score: inf
ROOT
ATOM      1  C   UNL     1      25.809 -17.554   8.302  1.00  0.00     0.138 A 
ATOM      2  C   UNL     1      25.060 -18.645   7.833  1.00  0.00     0.100 A 
ATOM      3  C   UNL     1      24.012 -19.145   8.608  1.00  0.00     0.197 A 
ATOM      4  O   UNL     1      23.347 -20.125   8.179  1.00  0.00    -0.289 OA
ATOM      5  C   UNL     1      23.722 -18.547   9.852  1.00  0.00     0.107 A 
ATOM      6  C   UNL     1      22.677 -18.989  10.698  1.00  0.00     0.134 A 
ATOM      7  C   UNL     1      22.457 -18.344  11.924  1.00  0.00     0.093 A 
ATOM      8  C   UNL     1      23.259 -17.270  12.319  1.00  0.00     0.123 A 
ATOM      9  C   UNL     1      24.293 -16.829  11.487  1.00  0.00     0.094 A 
ATOM     10  C   UNL     1      24.528 -17.457  10.260  1.00  0.00     0.146 A 
ATOM     11  O   UNL     1      25.515 -17.019   9.485  1.00  0.00    -0.456 OA
ENDROOT
BRANCH   1  12
ATOM     12  C   UNL     1      26.935 -16.983   7.522  1.00  0.00     0.021 A 
ATOM     13  C   UNL     1      27.104 -17.357   6.178  1.00  0.00     0.016 A 
ATOM     14  C   UNL     1      28.160 -16.839   5.423  1.00  0.00     0.051 A 
ATOM     15  C   UNL     1      29.071 -15.947   6.000  1.00  0.00     0.157 A 
ATOM     16  C   UNL     1      27.864 -16.095   8.101  1.00  0.00     0.062 A 
ATOM     17  C   UNL     1      28.923 -15.577   7.348  1.00  0.00     0.158 A 
BRANCH  15  18
ATOM     18  O   UNL     1      30.123 -15.432   5.244  1.00  0.00    -0.504 OA
ATOM     19  H   UNL     1      29.966 -14.753   4.509  1.00  0.00     0.293 HD
ENDBRANCH  15  18
BRANCH  17  20
ATOM     20  O   UNL     1      29.821 -14.700   7.956  1.00  0.00    -0.504 OA
ATOM     21  H   UNL     1      30.047 -14.758   8.941  1.00  0.00     0.293 HD
ENDBRANCH  17  20
ENDBRANCH   1  12
BRANCH   6  22
ATOM     22  O   UNL     1      21.861 -20.060  10.331  1.00  0.00    -0.507 OA
ATOM     23  H   UNL     1      20.876 -19.933  10.127  1.00  0.00     0.293 HD
ENDBRANCH   6  22
BRANCH   8  24
ATOM     24  O   UNL     1      23.018 -16.648  13.542  1.00  0.00    -0.508 OA
ATOM     25  H   UNL     1      23.266 -17.092  14.419  1.00  0.00     0.293 HD
ENDBRANCH   8  24
TORSDOF 5
ENDMDL
MODEL 8
REMARK VINA RESULT:    -5.344     15.451     16.685
REMARK INTER + INTRA:          -6.578
REMARK INTER:                  -6.274
REMARK INTRA:                  -0.305
REMARK UNBOUND:                -0.297
REMARK SMILES O=c1cc(-c2ccc(O)c(O)c2)oc2cc(O)cc(O)c12
REMARK SMILES IDX 4 1 3 2 2 3 1 4 21 5 19 6 18 7 16 8 15 9 14 10 13 11 5 12
REMARK SMILES IDX 6 13 7 14 8 15 12 16 10 17 9 18 11 20 20 22 17 24
REMARK H PARENT 9 19 11 21 20 23 17 25
REMARK Flexibility Score: inf
ROOT
ATOM      1  C   UNL     1      13.170 -12.767  17.614  1.00  0.00     0.138 A 
ATOM      2  C   UNL     1      13.808 -11.607  18.083  1.00  0.00     0.100 A 
ATOM      3  C   UNL     1      14.365 -11.598  19.362  1.00  0.00     0.197 A 
ATOM      4  O   UNL     1      14.935 -10.553  19.774  1.00  0.00    -0.289 OA
ATOM      5  C   UNL     1      14.278 -12.753  20.166  1.00  0.00     0.107 A 
ATOM      6  C   UNL     1      14.817 -12.829  21.473  1.00  0.00     0.134 A 
ATOM      7  C   UNL     1      14.682 -14.014  22.211  1.00  0.00     0.093 A 
ATOM      8  C   UNL     1      14.021 -15.121  21.671  1.00  0.00     0.123 A 
ATOM      9  C   UNL     1      13.486 -15.050  20.380  1.00  0.00     0.094 A 
ATOM     10  C   UNL     1      13.611 -13.879  19.627  1.00  0.00     0.146 A 
ATOM     11  O   UNL     1      13.096 -13.837  18.403  1.00  0.00    -0.456 OA
ENDROOT
BRANCH   1  12
ATOM     12  C   UNL     1      12.558 -12.833  16.263  1.00  0.00     0.021 A 
ATOM     13  C   UNL     1      11.999 -11.673  15.700  1.00  0.00     0.016 A 
ATOM     14  C   UNL     1      11.411 -11.709  14.433  1.00  0.00     0.051 A 
ATOM     15  C   UNL     1      11.360 -12.908  13.712  1.00  0.00     0.157 A 
ATOM     16  C   UNL     1      12.491 -14.040  15.537  1.00  0.00     0.062 A 
ATOM     17  C   UNL     1      11.900 -14.079  14.270  1.00  0.00     0.158 A 
BRANCH  15  18
ATOM     18  O   UNL     1      10.773 -12.941  12.447  1.00  0.00    -0.504 OA
ATOM     19  H   UNL     1      11.331 -12.907  11.602  1.00  0.00     0.293 HD
ENDBRANCH  15  18
BRANCH  17  20
ATOM     20  O   UNL     1      11.855 -15.292  13.581  1.00  0.00    -0.504 OA
ATOM     21  H   UNL     1      10.987 -15.678  13.228  1.00  0.00     0.293 HD
ENDBRANCH  17  20
ENDBRANCH   1  12
BRANCH   6  22
ATOM     22  O   UNL     1      15.482 -11.741  22.039  1.00  0.00    -0.507 OA
ATOM     23  H   UNL     1      15.246 -10.786  21.792  1.00  0.00     0.293 HD
ENDBRANCH   6  22
BRANCH   8  24
ATOM     24  O   UNL     1      13.901 -16.284  22.426  1.00  0.00    -0.508 OA
ATOM     25  H   UNL     1      14.493 -17.089  22.256  1.00  0.00     0.293 HD
ENDBRANCH   8  24
TORSDOF 5
ENDMDL
MODEL 9
REMARK VINA RESULT:    -5.342     13.272     16.230
REMARK INTER + INTRA:          -6.576
REMARK INTER:                  -6.260
REMARK INTRA:                  -0.316
REMARK UNBOUND:                -0.297
REMARK SMILES O=c1cc(-c2ccc(O)c(O)c2)oc2cc(O)cc(O)c12
REMARK SMILES IDX 4 1 3 2 2 3 1 4 21 5 19 6 18 7 16 8 15 9 14 10 13 11 5 12
REMARK SMILES IDX 6 13 7 14 8 15 12 16 10 17 9 18 11 20 20 22 17 24
REMARK H PARENT 9 19 11 21 20 23 17 25
REMARK Flexibility Score: inf
ROOT
ATOM      1  C   UNL     1      14.577 -11.815  19.075  1.00  0.00     0.138 A 
ATOM      2  C   UNL     1      14.676 -12.033  20.459  1.00  0.00     0.100 A 
ATOM      3  C   UNL     1      15.118 -13.270  20.930  1.00  0.00     0.197 A 
ATOM      4  O   UNL     1      15.202 -13.456  22.173  1.00  0.00    -0.289 OA
ATOM      5  C   UNL     1      15.455 -14.284  20.010  1.00  0.00     0.107 A 
ATOM      6  C   UNL     1      15.913 -15.564  20.403  1.00  0.00     0.134 A 
ATOM      7  C   UNL     1      16.223 -16.521  19.425  1.00  0.00     0.093 A 
ATOM      8  C   UNL     1      16.085 -16.223  18.067  1.00  0.00     0.123 A 
ATOM      9  C   UNL     1      15.633 -14.959  17.673  1.00  0.00     0.094 A 
ATOM     10  C   UNL     1      15.320 -13.991  18.632  1.00  0.00     0.146 A 
ATOM     11  O   UNL     1      14.894 -12.797  18.233  1.00  0.00    -0.456 OA
ENDROOT
BRANCH   1  12
ATOM     12  C   UNL     1      14.111 -10.521  18.517  1.00  0.00     0.021 A 
ATOM     13  C   UNL     1      14.012  -9.400  19.359  1.00  0.00     0.016 A 
ATOM     14  C   UNL     1      13.571  -8.172  18.861  1.00  0.00     0.051 A 
ATOM     15  C   UNL     1      13.209  -8.045  17.514  1.00  0.00     0.157 A 
ATOM     16  C   UNL     1      13.733 -10.389  17.165  1.00  0.00     0.062 A 
ATOM     17  C   UNL     1      13.287  -9.161  16.664  1.00  0.00     0.158 A 
BRANCH  15  18
ATOM     18  O   UNL     1      12.769  -6.817  17.020  1.00  0.00    -0.504 OA
ATOM     19  H   UNL     1      13.182  -6.399  16.195  1.00  0.00     0.293 HD
ENDBRANCH  15  18
BRANCH  17  20
ATOM     20  O   UNL     1      12.924  -9.069  15.321  1.00  0.00    -0.504 OA
ATOM     21  H   UNL     1      12.069  -9.480  14.966  1.00  0.00     0.293 HD
ENDBRANCH  17  20
ENDBRANCH   1  12
BRANCH   6  22
ATOM     22  O   UNL     1      16.060 -15.891  21.752  1.00  0.00    -0.507 OA
ATOM     23  H   UNL     1      15.343 -15.672  22.434  1.00  0.00     0.293 HD
ENDBRANCH   6  22
BRANCH   8  24
ATOM     24  O   UNL     1      16.400 -17.191  17.117  1.00  0.00    -0.508 OA
ATOM     25  H   UNL     1      16.686 -16.939  16.178  1.00  0.00     0.293 HD
ENDBRANCH   8  24
TORSDOF 5
ENDMDL
