MODEL 1
REMARK VINA RESULT:    -0.274      0.000      0.000
REMARK INTER + INTRA:           1.245
REMARK INTER:                  -0.338
REMARK INTRA:                   1.583
REMARK UNBOUND:                 1.583
REMARK SMILES C=C1CC[C@H]2[C@@H]([C@H]3[C@H](C)CC[C@H]13)C2(C)C
REMARK SMILES IDX 3 1 2 2 1 3 12 4 9 5 8 6 10 7 7 8 11 9 4 11 5 12 6 13 13 14
REMARK SMILES IDX 14 16 15 17
REMARK H PARENT
REMARK Flexibility Score: 80.00
ROOT
ATOM      1  C   UNL     1       5.884   4.875  13.214  1.00  0.00     0.031 C 
ENDROOT
BRANCH   1   2
ATOM      2  C   UNL     1       4.705   5.646  12.640  1.00  0.00    -0.074 C 
ATOM      3  C   UNL     1       3.477   5.099  12.760  1.00  0.00     0.008 C 
BRANCH   2   4
ATOM      4  C   UNL     1       4.965   6.880  11.764  1.00  0.00     0.018 C 
ATOM      5  C   UNL     1       5.233  10.460  12.701  1.00  0.00     0.008 C 
ATOM      6  C   UNL     1       5.447   9.285  11.738  1.00  0.00    -0.010 C 
ATOM      7  C   UNL     1       4.201   9.008  10.885  1.00  0.00     0.004 C 
ATOM      8  C   UNL     1       5.765   7.972  12.489  1.00  0.00     0.003 CG0
ATOM      9  C   UNL     1       3.718   7.624  11.279  1.00  0.00     0.008 C 
ATOM     10  G   UNL     1       7.285   7.679  12.449  1.00  0.00     0.000 G0
ENDBRANCH   2   4
ENDBRANCH   1   2
BRANCH   1  11
ATOM     11  C   UNL     1       6.774   5.732  14.124  1.00  0.00     0.009 C 
BRANCH  11  12
ATOM     12  C   UNL     1       7.809   6.513  13.294  1.00  0.00    -0.001 C 
ATOM     13  C   UNL     1       7.287   7.680  12.444  1.00  0.00     0.002 CG0
ATOM     14  C   UNL     1       8.196   7.958  13.656  1.00  0.00    -0.029 C 
ATOM     15  G   UNL     1       5.768   7.978  12.491  1.00  0.00     0.000 G0
ATOM     16  C   UNL     1       9.643   8.323  13.303  1.00  0.00     0.011 C 
ATOM     17  C   UNL     1       7.670   8.569  14.969  1.00  0.00     0.011 C 
ENDBRANCH  11  12
ENDBRANCH   1  11
TORSDOF 0
ENDMDL
MODEL 2
REMARK VINA RESULT:     1.065      4.084      6.135
REMARK INTER + INTRA:           2.898
REMARK INTER:                   1.353
REMARK INTRA:                   1.545
REMARK UNBOUND:                 1.583
REMARK SMILES C=C1CC[C@H]2[C@@H]([C@H]3[C@H](C)CC[C@H]13)C2(C)C
REMARK SMILES IDX 3 1 2 2 1 3 12 4 9 5 8 6 10 7 7 8 11 9 4 11 5 12 6 13 13 14
REMARK SMILES IDX 14 16 15 17
REMARK H PARENT
REMARK Flexibility Score: 80.00
ROOT
ATOM      1  C   UNL     1       4.925  10.641  11.300  1.00  0.00     0.031 C 
ENDROOT
BRANCH   1   2
ATOM      2  C   UNL     1       3.609   9.880  11.239  1.00  0.00    -0.074 C 
ATOM      3  C   UNL     1       3.661   8.532  11.240  1.00  0.00     0.008 C 
BRANCH   2   4
ATOM      4  C   UNL     1       2.308  10.646  10.955  1.00  0.00     0.018 C 
ATOM      5  C   UNL     1      -0.123  12.174  13.304  1.00  0.00     0.008 C 
ATOM      6  C   UNL     1       0.499  11.997  11.913  1.00  0.00    -0.010 C 
ATOM      7  C   UNL     1      -0.104  10.801  11.163  1.00  0.00     0.004 C 
ATOM      8  C   UNL     1       2.022  11.745  11.989  1.00  0.00     0.003 CG0
ATOM      9  C   UNL     1       1.028   9.807  10.974  1.00  0.00     0.008 C 
ATOM     10  G   UNL     1       2.803  13.043  11.663  1.00  0.00     0.000 G0
ENDBRANCH   2   4
ENDBRANCH   1   2
BRANCH   1  11
ATOM     11  C   UNL     1       4.942  11.722  12.388  1.00  0.00     0.009 C 
BRANCH  11  12
ATOM     12  C   UNL     1       4.328  13.033  11.862  1.00  0.00    -0.001 C 
ATOM     13  C   UNL     1       2.807  13.057  11.649  1.00  0.00     0.002 CG0
ATOM     14  C   UNL     1       3.443  13.916  12.759  1.00  0.00    -0.029 C 
ATOM     15  G   UNL     1       2.017  11.768  11.982  1.00  0.00     0.000 G0
ATOM     16  C   UNL     1       3.531  15.414  12.441  1.00  0.00     0.011 C 
ATOM     17  C   UNL     1       3.313  13.573  14.256  1.00  0.00     0.011 C 
ENDBRANCH  11  12
ENDBRANCH   1  11
TORSDOF 0
ENDMDL
MODEL 3
REMARK VINA RESULT:     2.519      4.151      7.052
REMARK INTER + INTRA:           4.692
REMARK INTER:                   3.085
REMARK INTRA:                   1.607
REMARK UNBOUND:                 1.583
REMARK SMILES C=C1CC[C@H]2[C@@H]([C@H]3[C@H](C)CC[C@H]13)C2(C)C
REMARK SMILES IDX 3 1 2 2 1 3 12 4 9 5 8 6 10 7 7 8 11 9 4 11 5 12 6 13 13 14
REMARK SMILES IDX 14 16 15 17
REMARK H PARENT
REMARK Flexibility Score: 80.00
ROOT
ATOM      1  C   UNL     1       4.303  13.537  11.144  1.00  0.00     0.031 C 
ENDROOT
BRANCH   1   2
ATOM      2  C   UNL     1       3.926  14.345  12.377  1.00  0.00    -0.074 C 
ATOM      3  C   UNL     1       3.861  15.687  12.254  1.00  0.00     0.008 C 
BRANCH   2   4
ATOM      4  C   UNL     1       3.854  13.647  13.743  1.00  0.00     0.018 C 
ATOM      5  C   UNL     1       0.990  12.011  15.441  1.00  0.00     0.008 C 
ATOM      6  C   UNL     1       2.488  12.281  15.255  1.00  0.00    -0.010 C 
ATOM      7  C   UNL     1       2.938  13.552  15.987  1.00  0.00     0.004 C 
ATOM      8  C   UNL     1       2.859  12.477  13.767  1.00  0.00     0.003 CG0
ATOM      9  C   UNL     1       3.392  14.522  14.911  1.00  0.00     0.008 C 
ATOM     10  G   UNL     1       3.493  11.186  13.192  1.00  0.00     0.000 G0
ENDBRANCH   2   4
ENDBRANCH   1   2
BRANCH   1  11
ATOM     11  C   UNL     1       3.342  12.371  10.875  1.00  0.00     0.009 C 
BRANCH  11  12
ATOM     12  C   UNL     1       3.750  11.131  11.692  1.00  0.00    -0.001 C 
ATOM     13  C   UNL     1       3.497  11.178  13.206  1.00  0.00     0.002 CG0
ATOM     14  C   UNL     1       2.692  10.207  12.321  1.00  0.00    -0.029 C 
ATOM     15  G   UNL     1       2.853  12.461  13.787  1.00  0.00     0.000 G0
ATOM     16  C   UNL     1       3.125   8.739  12.418  1.00  0.00     0.011 C 
ATOM     17  C   UNL     1       1.205  10.428  11.981  1.00  0.00     0.011 C 
ENDBRANCH  11  12
ENDBRANCH   1  11
TORSDOF 0
ENDMDL
