MODEL 1
REMARK VINA RESULT:    -6.456      0.000      0.000
REMARK INTER + INTRA:          -8.440
REMARK INTER:                  -7.966
REMARK INTRA:                  -0.474
REMARK UNBOUND:                -0.474
REMARK SMILES CC(C)=CCC[C@@H](C)c1ccc(C)cc1
REMARK SMILES IDX 6 1 7 2 8 3 9 4 13 5 12 6 11 7 14 8 10 9 15 10 5 11 4 12
REMARK SMILES IDX 2 13 1 14 3 15
REMARK H PARENT
REMARK Flexibility Score: inf
ROOT
ATOM      1  C   UNL     1      93.115  99.703  98.751  1.00  0.00     0.012 C 
ENDROOT
BRANCH   1   2
ATOM      2  C   UNL     1      93.824  98.341  98.921  1.00  0.00     0.016 C 
ATOM      3  C   UNL     1      92.882  97.312  99.559  1.00  0.00     0.013 C 
BRANCH   2   4
ATOM      4  C   UNL     1      94.373  97.816  97.605  1.00  0.00    -0.045 A 
ATOM      5  C   UNL     1      95.923  96.281  93.877  1.00  0.00     0.044 C 
ATOM      6  C   UNL     1      95.409  96.802  95.187  1.00  0.00    -0.051 A 
ATOM      7  C   UNL     1      94.527  96.032  95.956  1.00  0.00     0.004 A 
ATOM      8  C   UNL     1      95.753  98.091  95.617  1.00  0.00     0.004 A 
ATOM      9  C   UNL     1      94.019  96.532  97.159  1.00  0.00     0.004 A 
ATOM     10  C   UNL     1      95.246  98.593  96.820  1.00  0.00     0.004 A 
ENDBRANCH   2   4
ENDBRANCH   1   2
BRANCH   1  11
ATOM     11  C   UNL     1      92.944 100.436 100.090  1.00  0.00     0.028 C 
BRANCH  11  12
ATOM     12  C   UNL     1      93.649 101.768 100.064  1.00  0.00    -0.028 C 
ATOM     13  C   UNL     1      94.050 102.442 101.167  1.00  0.00    -0.080 C 
ATOM     14  C   UNL     1      93.886 101.874 102.555  1.00  0.00     0.039 C 
ATOM     15  C   UNL     1      94.720 103.783 101.024  1.00  0.00     0.039 C 
ENDBRANCH  11  12
ENDBRANCH   1  11
TORSDOF 4
ENDMDL
MODEL 2
REMARK VINA RESULT:    -6.215      1.275      6.832
REMARK INTER + INTRA:          -8.142
REMARK INTER:                  -7.639
REMARK INTRA:                  -0.503
REMARK UNBOUND:                -0.474
REMARK SMILES CC(C)=CCC[C@@H](C)c1ccc(C)cc1
REMARK SMILES IDX 6 1 7 2 8 3 9 4 13 5 12 6 11 7 14 8 10 9 15 10 5 11 4 12
REMARK SMILES IDX 2 13 1 14 3 15
REMARK H PARENT
REMARK Flexibility Score: inf
ROOT
ATOM      1  C   UNL     1      95.078  98.750  97.113  1.00  0.00     0.012 C 
ENDROOT
BRANCH   1   2
ATOM      2  C   UNL     1      93.667  98.895  97.724  1.00  0.00     0.016 C 
ATOM      3  C   UNL     1      93.078  97.520  98.066  1.00  0.00     0.013 C 
BRANCH   2   4
ATOM      4  C   UNL     1      93.665  99.795  98.947  1.00  0.00    -0.045 A 
ATOM      5  C   UNL     1      93.637 102.389 102.401  1.00  0.00     0.044 C 
ATOM      6  C   UNL     1      93.671 101.505 101.190  1.00  0.00    -0.051 A 
ATOM      7  C   UNL     1      92.875 101.803 100.076  1.00  0.00     0.004 A 
ATOM      8  C   UNL     1      94.445 100.336 101.190  1.00  0.00     0.004 A 
ATOM      9  C   UNL     1      92.877 100.960  98.960  1.00  0.00     0.004 A 
ATOM     10  C   UNL     1      94.449  99.491 100.076  1.00  0.00     0.004 A 
ENDBRANCH   2   4
ENDBRANCH   1   2
BRANCH   1  11
ATOM     11  C   UNL     1      95.037  98.639  95.581  1.00  0.00     0.028 C 
BRANCH  11  12
ATOM     12  C   UNL     1      96.318  98.045  95.054  1.00  0.00    -0.028 C 
ATOM     13  C   UNL     1      96.397  96.870  94.388  1.00  0.00    -0.080 C 
ATOM     14  C   UNL     1      95.171  96.061  94.043  1.00  0.00     0.039 C 
ATOM     15  C   UNL     1      97.737  96.356  93.932  1.00  0.00     0.039 C 
ENDBRANCH  11  12
ENDBRANCH   1  11
TORSDOF 4
ENDMDL
MODEL 3
REMARK VINA RESULT:    -5.350      1.143      1.720
REMARK INTER + INTRA:          -7.076
REMARK INTER:                  -6.583
REMARK INTRA:                  -0.493
REMARK UNBOUND:                -0.474
REMARK SMILES CC(C)=CCC[C@@H](C)c1ccc(C)cc1
REMARK SMILES IDX 6 1 7 2 8 3 9 4 13 5 12 6 11 7 14 8 10 9 15 10 5 11 4 12
REMARK SMILES IDX 2 13 1 14 3 15
REMARK H PARENT
REMARK Flexibility Score: inf
ROOT
ATOM      1  C   UNL     1      94.368  98.999  98.971  1.00  0.00     0.012 C 
ENDROOT
BRANCH   1   2
ATOM      2  C   UNL     1      93.706  98.511  97.664  1.00  0.00     0.016 C 
ATOM      3  C   UNL     1      92.875  99.630  97.022  1.00  0.00     0.013 C 
BRANCH   2   4
ATOM      4  C   UNL     1      94.725  97.969  96.676  1.00  0.00    -0.045 A 
ATOM      5  C   UNL     1      97.619  96.390  93.885  1.00  0.00     0.044 C 
ATOM      6  C   UNL     1      96.635  96.939  94.876  1.00  0.00    -0.051 A 
ATOM      7  C   UNL     1      95.845  96.071  95.642  1.00  0.00     0.004 A 
ATOM      8  C   UNL     1      96.451  98.323  94.994  1.00  0.00     0.004 A 
ATOM      9  C   UNL     1      94.903  96.582  96.540  1.00  0.00     0.004 A 
ATOM     10  C   UNL     1      95.509  98.836  95.891  1.00  0.00     0.004 A 
ENDBRANCH   2   4
ENDBRANCH   1   2
BRANCH   1  11
ATOM     11  C   UNL     1      93.929 100.423  99.344  1.00  0.00     0.028 C 
BRANCH  11  12
ATOM     12  C   UNL     1      93.661 100.529 100.824  1.00  0.00    -0.028 C 
ATOM     13  C   UNL     1      93.874 101.644 101.560  1.00  0.00    -0.080 C 
ATOM     14  C   UNL     1      94.344 102.936 100.939  1.00  0.00     0.039 C 
ATOM     15  C   UNL     1      93.600 101.627 103.042  1.00  0.00     0.039 C 
ENDBRANCH  11  12
ENDBRANCH   1  11
TORSDOF 4
ENDMDL
MODEL 4
REMARK VINA RESULT:    -5.343      1.270      2.404
REMARK INTER + INTRA:          -7.066
REMARK INTER:                  -6.514
REMARK INTRA:                  -0.552
REMARK UNBOUND:                -0.474
REMARK SMILES CC(C)=CCC[C@@H](C)c1ccc(C)cc1
REMARK SMILES IDX 6 1 7 2 8 3 9 4 13 5 12 6 11 7 14 8 10 9 15 10 5 11 4 12
REMARK SMILES IDX 2 13 1 14 3 15
REMARK H PARENT
REMARK Flexibility Score: inf
ROOT
ATOM      1  C   UNL     1      94.291  99.223  99.282  1.00  0.00     0.012 C 
ENDROOT
BRANCH   1   2
ATOM      2  C   UNL     1      94.740  99.441  97.821  1.00  0.00     0.016 C 
ATOM      3  C   UNL     1      96.267  99.578  97.734  1.00  0.00     0.013 C 
BRANCH   2   4
ATOM      4  C   UNL     1      94.253  98.333  96.903  1.00  0.00    -0.045 A 
ATOM      5  C   UNL     1      92.881  95.208  94.255  1.00  0.00     0.044 C 
ATOM      6  C   UNL     1      93.334  96.311  95.166  1.00  0.00    -0.051 A 
ATOM      7  C   UNL     1      94.248  97.271  94.712  1.00  0.00     0.004 A 
ATOM      8  C   UNL     1      92.899  96.350  96.498  1.00  0.00     0.004 A 
ATOM      9  C   UNL     1      94.699  98.278  95.571  1.00  0.00     0.004 A 
ATOM     10  C   UNL     1      93.347  97.356  97.358  1.00  0.00     0.004 A 
ENDBRANCH   2   4
ENDBRANCH   1   2
BRANCH   1  11
ATOM     11  C   UNL     1      93.067 100.077  99.644  1.00  0.00     0.028 C 
BRANCH  11  12
ATOM     12  C   UNL     1      93.048 100.385 101.120  1.00  0.00    -0.028 C 
ATOM     13  C   UNL     1      93.496 101.541 101.664  1.00  0.00    -0.080 C 
ATOM     14  C   UNL     1      94.001 102.682 100.816  1.00  0.00     0.039 C 
ATOM     15  C   UNL     1      93.458 101.730 103.158  1.00  0.00     0.039 C 
ENDBRANCH  11  12
ENDBRANCH   1  11
TORSDOF 4
ENDMDL
MODEL 5
REMARK VINA RESULT:    -5.070      1.065      6.095
REMARK INTER + INTRA:          -6.730
REMARK INTER:                  -6.862
REMARK INTRA:                   0.132
REMARK UNBOUND:                -0.474
REMARK SMILES CC(C)=CCC[C@@H](C)c1ccc(C)cc1
REMARK SMILES IDX 6 1 7 2 8 3 9 4 13 5 12 6 11 7 14 8 10 9 15 10 5 11 4 12
REMARK SMILES IDX 2 13 1 14 3 15
REMARK H PARENT
REMARK Flexibility Score: inf
ROOT
ATOM      1  C   UNL     1      93.459  97.310  96.805  1.00  0.00     0.012 C 
ENDROOT
BRANCH   1   2
ATOM      2  C   UNL     1      92.880  97.380  98.235  1.00  0.00     0.016 C 
ATOM      3  C   UNL     1      93.409  96.223  99.094  1.00  0.00     0.013 C 
BRANCH   2   4
ATOM      4  C   UNL     1      93.168  98.714  98.902  1.00  0.00    -0.045 A 
ATOM      5  C   UNL     1      93.959 102.494 100.836  1.00  0.00     0.044 C 
ATOM      6  C   UNL     1      93.656 101.191 100.157  1.00  0.00    -0.051 A 
ATOM      7  C   UNL     1      93.124 100.121 100.889  1.00  0.00     0.004 A 
ATOM      8  C   UNL     1      93.966 101.013  98.802  1.00  0.00     0.004 A 
ATOM      9  C   UNL     1      92.875  98.895 100.265  1.00  0.00     0.004 A 
ATOM     10  C   UNL     1      93.718  99.787  98.176  1.00  0.00     0.004 A 
ENDBRANCH   2   4
ENDBRANCH   1   2
BRANCH   1  11
ATOM     11  C   UNL     1      93.973  95.905  96.457  1.00  0.00     0.028 C 
BRANCH  11  12
ATOM     12  C   UNL     1      95.063  95.977  95.419  1.00  0.00    -0.028 C 
ATOM     13  C   UNL     1      95.991  96.960  95.354  1.00  0.00    -0.080 C 
ATOM     14  C   UNL     1      96.063  98.062  96.381  1.00  0.00     0.039 C 
ATOM     15  C   UNL     1      97.019  96.948  94.252  1.00  0.00     0.039 C 
ENDBRANCH  11  12
ENDBRANCH   1  11
TORSDOF 4
ENDMDL
MODEL 6
REMARK VINA RESULT:    -4.407      1.349      6.800
REMARK INTER + INTRA:          -5.912
REMARK INTER:                  -5.408
REMARK INTRA:                  -0.504
REMARK UNBOUND:                -0.474
REMARK SMILES CC(C)=CCC[C@@H](C)c1ccc(C)cc1
REMARK SMILES IDX 6 1 7 2 8 3 9 4 13 5 12 6 11 7 14 8 10 9 15 10 5 11 4 12
REMARK SMILES IDX 2 13 1 14 3 15
REMARK H PARENT
REMARK Flexibility Score: inf
ROOT
ATOM      1  C   UNL     1      94.969  99.027  97.046  1.00  0.00     0.012 C 
ENDROOT
BRANCH   1   2
ATOM      2  C   UNL     1      93.565  99.133  97.679  1.00  0.00     0.016 C 
ATOM      3  C   UNL     1      92.963  97.740  97.908  1.00  0.00     0.013 C 
BRANCH   2   4
ATOM      4  C   UNL     1      93.581  99.926  98.975  1.00  0.00    -0.045 A 
ATOM      5  C   UNL     1      93.644 102.142 102.682  1.00  0.00     0.044 C 
ATOM      6  C   UNL     1      93.597 101.357 101.405  1.00  0.00    -0.051 A 
ATOM      7  C   UNL     1      94.315 100.160 101.285  1.00  0.00     0.004 A 
ATOM      8  C   UNL     1      92.890 101.850 100.299  1.00  0.00     0.004 A 
ATOM      9  C   UNL     1      94.302  99.446 100.082  1.00  0.00     0.004 A 
ATOM     10  C   UNL     1      92.875 101.138  99.096  1.00  0.00     0.004 A 
ENDBRANCH   2   4
ENDBRANCH   1   2
BRANCH   1  11
ATOM     11  C   UNL     1      94.906  98.654  95.557  1.00  0.00     0.028 C 
BRANCH  11  12
ATOM     12  C   UNL     1      96.220  98.079  95.095  1.00  0.00    -0.028 C 
ATOM     13  C   UNL     1      96.359  96.865  94.514  1.00  0.00    -0.080 C 
ATOM     14  C   UNL     1      95.173  95.985  94.204  1.00  0.00     0.039 C 
ATOM     15  C   UNL     1      97.728  96.376  94.117  1.00  0.00     0.039 C 
ENDBRANCH  11  12
ENDBRANCH   1  11
TORSDOF 4
ENDMDL
MODEL 7
REMARK VINA RESULT:    -3.871     21.526     23.859
REMARK INTER + INTRA:          -5.251
REMARK INTER:                  -4.022
REMARK INTRA:                  -1.228
REMARK UNBOUND:                -0.474
REMARK SMILES CC(C)=CCC[C@@H](C)c1ccc(C)cc1
REMARK SMILES IDX 6 1 7 2 8 3 9 4 13 5 12 6 11 7 14 8 10 9 15 10 5 11 4 12
REMARK SMILES IDX 2 13 1 14 3 15
REMARK H PARENT
REMARK Flexibility Score: inf
ROOT
ATOM      1  C   UNL     1     111.974 110.159 108.125  1.00  0.00     0.012 C 
ENDROOT
BRANCH   1   2
ATOM      2  C   UNL     1     110.856 109.105 108.271  1.00  0.00     0.016 C 
ATOM      3  C   UNL     1     111.259 107.787 107.595  1.00  0.00     0.013 C 
BRANCH   2   4
ATOM      4  C   UNL     1     110.482 108.866 109.723  1.00  0.00    -0.045 A 
ATOM      5  C   UNL     1     109.407 108.230 113.858  1.00  0.00     0.044 C 
ATOM      6  C   UNL     1     109.806 108.465 112.431  1.00  0.00    -0.051 A 
ATOM      7  C   UNL     1     109.395 109.626 111.765  1.00  0.00     0.004 A 
ATOM      8  C   UNL     1     110.536 107.492 111.734  1.00  0.00     0.004 A 
ATOM      9  C   UNL     1     109.735 109.829 110.424  1.00  0.00     0.004 A 
ATOM     10  C   UNL     1     110.878 107.692 110.393  1.00  0.00     0.004 A 
ENDBRANCH   2   4
ENDBRANCH   1   2
BRANCH   1  11
ATOM     11  C   UNL     1     113.079 109.980 109.177  1.00  0.00     0.028 C 
BRANCH  11  12
ATOM     12  C   UNL     1     113.120 111.159 110.115  1.00  0.00    -0.028 C 
ATOM     13  C   UNL     1     113.108 111.062 111.465  1.00  0.00    -0.080 C 
ATOM     14  C   UNL     1     113.124 109.728 112.171  1.00  0.00     0.039 C 
ATOM     15  C   UNL     1     113.122 112.310 112.307  1.00  0.00     0.039 C 
ENDBRANCH  11  12
ENDBRANCH   1  11
TORSDOF 4
ENDMDL
