MODEL 1
REMARK VINA RESULT:    -4.584      0.000      0.000
REMARK INTER + INTRA:         -10.399
REMARK INTER:                  -8.336
REMARK INTRA:                  -2.063
REMARK UNBOUND:                -2.063
REMARK SMILES CCCCCCCCCCCCCC[C@@H](C)C(=O)[O-]
REMARK SMILES IDX 9 1 10 2 11 3 12 4 13 5 14 6 15 7 16 8 17 9 18 10 19 11 8 12
REMARK SMILES IDX 7 13 6 14 5 15 4 16 3 17 2 18 1 19
REMARK H PARENT
REMARK Flexibility Score: inf
ROOT
ATOM      1  C   UNL     1     -11.202   3.772   7.880  1.00  0.00     0.000 C 
ENDROOT
BRANCH   1   2
ATOM      2  C   UNL     1     -10.830   5.245   7.629  1.00  0.00     0.000 C 
BRANCH   2   3
ATOM      3  C   UNL     1      -9.793   5.477   6.516  1.00  0.00     0.000 C 
BRANCH   3   4
ATOM      4  C   UNL     1     -10.330   6.348   5.367  1.00  0.00     0.000 C 
BRANCH   4   5
ATOM      5  C   UNL     1      -9.296   7.370   4.868  1.00  0.00     0.001 C 
BRANCH   5   6
ATOM      6  C   UNL     1      -8.832   8.329   5.979  1.00  0.00     0.009 C 
BRANCH   6   7
ATOM      7  C   UNL     1      -8.326   9.679   5.426  1.00  0.00     0.032 C 
ATOM      8  C   UNL     1      -9.456  10.709   5.281  1.00  0.00     0.014 C 
BRANCH   7   9
ATOM      9  C   UNL     1      -7.248  10.228   6.319  1.00  0.00     0.044 C 
ATOM     10  O   UNL     1      -6.041  10.198   5.960  1.00  0.00    -0.550 OA
ATOM     11  O   UNL     1      -7.581  10.775   7.552  1.00  0.00    -0.550 OA
ENDBRANCH   7   9
ENDBRANCH   6   7
ENDBRANCH   5   6
ENDBRANCH   4   5
ENDBRANCH   3   4
ENDBRANCH   2   3
ENDBRANCH   1   2
BRANCH   1  12
ATOM     12  C   UNL     1     -11.376   2.968   6.579  1.00  0.00     0.000 C 
BRANCH  12  13
ATOM     13  C   UNL     1     -12.776   3.125   5.961  1.00  0.00    -0.000 C 
BRANCH  13  14
ATOM     14  C   UNL     1     -12.801   3.691   4.527  1.00  0.00    -0.000 C 
BRANCH  14  15
ATOM     15  C   UNL     1     -13.692   4.934   4.327  1.00  0.00    -0.000 C 
BRANCH  15  16
ATOM     16  C   UNL     1     -13.970   5.744   5.605  1.00  0.00    -0.000 C 
BRANCH  16  17
ATOM     17  C   UNL     1     -14.222   7.233   5.324  1.00  0.00    -0.000 C 
BRANCH  17  18
ATOM     18  C   UNL     1     -13.335   8.116   6.210  1.00  0.00    -0.003 C 
ATOM     19  C   UNL     1     -12.727   9.265   5.410  1.00  0.00     0.004 C 
ENDBRANCH  17  18
ENDBRANCH  16  17
ENDBRANCH  15  16
ENDBRANCH  14  15
ENDBRANCH  13  14
ENDBRANCH  12  13
ENDBRANCH   1  12
TORSDOF 14
ENDMDL
MODEL 2
REMARK VINA RESULT:    -4.345      3.263      6.720
REMARK INTER + INTRA:          -9.963
REMARK INTER:                  -8.146
REMARK INTRA:                  -1.817
REMARK UNBOUND:                -2.063
REMARK SMILES CCCCCCCCCCCCCC[C@@H](C)C(=O)[O-]
REMARK SMILES IDX 9 1 10 2 11 3 12 4 13 5 14 6 15 7 16 8 17 9 18 10 19 11 8 12
REMARK SMILES IDX 7 13 6 14 5 15 4 16 3 17 2 18 1 19
REMARK H PARENT
REMARK Flexibility Score: inf
ROOT
ATOM      1  C   UNL     1      -7.585   9.380   5.354  1.00  0.00     0.000 C 
ENDROOT
BRANCH   1   2
ATOM      2  C   UNL     1      -8.608   8.413   5.978  1.00  0.00     0.000 C 
BRANCH   2   3
ATOM      3  C   UNL     1      -9.474   7.638   4.969  1.00  0.00     0.000 C 
BRANCH   3   4
ATOM      4  C   UNL     1     -10.495   6.707   5.647  1.00  0.00     0.000 C 
BRANCH   4   5
ATOM      5  C   UNL     1      -9.825   5.531   6.376  1.00  0.00     0.001 C 
BRANCH   5   6
ATOM      6  C   UNL     1     -10.713   4.946   7.489  1.00  0.00     0.009 C 
BRANCH   6   7
ATOM      7  C   UNL     1     -11.186   3.509   7.179  1.00  0.00     0.032 C 
ATOM      8  C   UNL     1     -11.868   2.848   8.386  1.00  0.00     0.014 C 
BRANCH   7   9
ATOM      9  C   UNL     1     -12.127   3.521   6.007  1.00  0.00     0.044 C 
ATOM     10  O   UNL     1     -11.853   2.877   4.958  1.00  0.00    -0.550 OA
ATOM     11  O   UNL     1     -13.311   4.244   6.073  1.00  0.00    -0.550 OA
ENDBRANCH   7   9
ENDBRANCH   6   7
ENDBRANCH   5   6
ENDBRANCH   4   5
ENDBRANCH   3   4
ENDBRANCH   2   3
ENDBRANCH   1   2
BRANCH   1  12
ATOM     12  C   UNL     1      -7.030  10.400   6.363  1.00  0.00     0.000 C 
BRANCH  12  13
ATOM     13  C   UNL     1      -8.057  10.796   7.439  1.00  0.00    -0.000 C 
BRANCH  13  14
ATOM     14  C   UNL     1      -8.881  12.061   7.126  1.00  0.00    -0.000 C 
BRANCH  14  15
ATOM     15  C   UNL     1     -10.381  11.971   7.472  1.00  0.00    -0.000 C 
BRANCH  15  16
ATOM     16  C   UNL     1     -11.208  11.070   6.538  1.00  0.00    -0.000 C 
BRANCH  16  17
ATOM     17  C   UNL     1     -10.840  11.249   5.057  1.00  0.00    -0.000 C 
BRANCH  17  18
ATOM     18  C   UNL     1     -11.855  10.541   4.151  1.00  0.00    -0.003 C 
ATOM     19  C   UNL     1     -12.773   9.628   4.959  1.00  0.00     0.004 C 
ENDBRANCH  17  18
ENDBRANCH  16  17
ENDBRANCH  15  16
ENDBRANCH  14  15
ENDBRANCH  13  14
ENDBRANCH  12  13
ENDBRANCH   1  12
TORSDOF 14
ENDMDL
MODEL 3
REMARK VINA RESULT:    -4.281      3.324      6.692
REMARK INTER + INTRA:          -9.848
REMARK INTER:                  -7.996
REMARK INTRA:                  -1.852
REMARK UNBOUND:                -2.063
REMARK SMILES CCCCCCCCCCCCCC[C@@H](C)C(=O)[O-]
REMARK SMILES IDX 9 1 10 2 11 3 12 4 13 5 14 6 15 7 16 8 17 9 18 10 19 11 8 12
REMARK SMILES IDX 7 13 6 14 5 15 4 16 3 17 2 18 1 19
REMARK H PARENT
REMARK Flexibility Score: inf
ROOT
ATOM      1  C   UNL     1     -10.638   7.373   5.301  1.00  0.00     0.000 C 
ENDROOT
BRANCH   1   2
ATOM      2  C   UNL     1      -9.730   6.158   5.035  1.00  0.00     0.000 C 
BRANCH   2   3
ATOM      3  C   UNL     1      -9.727   5.090   6.143  1.00  0.00     0.000 C 
BRANCH   3   4
ATOM      4  C   UNL     1     -10.462   5.544   7.416  1.00  0.00     0.000 C 
BRANCH   4   5
ATOM      5  C   UNL     1     -11.687   4.670   7.732  1.00  0.00     0.001 C 
BRANCH   5   6
ATOM      6  C   UNL     1     -11.937   3.594   6.661  1.00  0.00     0.009 C 
BRANCH   6   7
ATOM      7  C   UNL     1     -13.135   3.931   5.748  1.00  0.00     0.032 C 
ATOM      8  C   UNL     1     -13.674   5.348   5.994  1.00  0.00     0.014 C 
BRANCH   7   9
ATOM      9  C   UNL     1     -12.739   3.782   4.305  1.00  0.00     0.044 C 
ATOM     10  O   UNL     1     -13.475   4.236   3.388  1.00  0.00    -0.550 OA
ATOM     11  O   UNL     1     -11.554   3.138   3.973  1.00  0.00    -0.550 OA
ENDBRANCH   7   9
ENDBRANCH   6   7
ENDBRANCH   5   6
ENDBRANCH   4   5
ENDBRANCH   3   4
ENDBRANCH   2   3
ENDBRANCH   1   2
BRANCH   1  12
ATOM     12  C   UNL     1      -9.873   8.708   5.281  1.00  0.00     0.000 C 
BRANCH  12  13
ATOM     13  C   UNL     1      -8.477   8.607   5.923  1.00  0.00    -0.000 C 
BRANCH  13  14
ATOM     14  C   UNL     1      -7.428   9.593   5.372  1.00  0.00    -0.000 C 
BRANCH  14  15
ATOM     15  C   UNL     1      -7.177  10.841   6.242  1.00  0.00    -0.000 C 
BRANCH  15  16
ATOM     16  C   UNL     1      -7.774  10.774   7.659  1.00  0.00    -0.000 C 
BRANCH  16  17
ATOM     17  C   UNL     1      -8.698  11.960   7.973  1.00  0.00    -0.000 C 
BRANCH  17  18
ATOM     18  C   UNL     1      -9.745  12.148   6.869  1.00  0.00    -0.003 C 
ATOM     19  C   UNL     1     -11.106  11.608   7.301  1.00  0.00     0.004 C 
ENDBRANCH  17  18
ENDBRANCH  16  17
ENDBRANCH  15  16
ENDBRANCH  14  15
ENDBRANCH  13  14
ENDBRANCH  12  13
ENDBRANCH   1  12
TORSDOF 14
ENDMDL
MODEL 4
REMARK VINA RESULT:    -4.263      0.950      3.549
REMARK INTER + INTRA:          -9.815
REMARK INTER:                  -7.961
REMARK INTRA:                  -1.854
REMARK UNBOUND:                -2.063
REMARK SMILES CCCCCCCCCCCCCC[C@@H](C)C(=O)[O-]
REMARK SMILES IDX 9 1 10 2 11 3 12 4 13 5 14 6 15 7 16 8 17 9 18 10 19 11 8 12
REMARK SMILES IDX 7 13 6 14 5 15 4 16 3 17 2 18 1 19
REMARK H PARENT
REMARK Flexibility Score: inf
ROOT
ATOM      1  C   UNL     1     -14.002   5.902   5.433  1.00  0.00     0.000 C 
ENDROOT
BRANCH   1   2
ATOM      2  C   UNL     1     -14.896   7.049   4.926  1.00  0.00     0.000 C 
BRANCH   2   3
ATOM      3  C   UNL     1     -14.368   8.465   5.215  1.00  0.00     0.000 C 
BRANCH   3   4
ATOM      4  C   UNL     1     -12.931   8.469   5.764  1.00  0.00     0.000 C 
BRANCH   4   5
ATOM      5  C   UNL     1     -12.154   9.736   5.373  1.00  0.00     0.001 C 
BRANCH   5   6
ATOM      6  C   UNL     1     -10.642   9.481   5.236  1.00  0.00     0.009 C 
BRANCH   6   7
ATOM      7  C   UNL     1      -9.792  10.678   5.713  1.00  0.00     0.032 C 
ATOM      8  C   UNL     1     -10.376  11.343   6.968  1.00  0.00     0.014 C 
BRANCH   7   9
ATOM      9  C   UNL     1      -8.382  10.232   5.984  1.00  0.00     0.044 C 
ATOM     10  O   UNL     1      -7.992  10.018   7.164  1.00  0.00    -0.550 OA
ATOM     11  O   UNL     1      -7.496  10.051   4.929  1.00  0.00    -0.550 OA
ENDBRANCH   7   9
ENDBRANCH   6   7
ENDBRANCH   5   6
ENDBRANCH   4   5
ENDBRANCH   3   4
ENDBRANCH   2   3
ENDBRANCH   1   2
BRANCH   1  12
ATOM     12  C   UNL     1     -13.686   4.863   4.343  1.00  0.00     0.000 C 
BRANCH  12  13
ATOM     13  C   UNL     1     -13.012   3.596   4.901  1.00  0.00    -0.000 C 
BRANCH  13  14
ATOM     14  C   UNL     1     -13.090   3.431   6.432  1.00  0.00    -0.000 C 
BRANCH  14  15
ATOM     15  C   UNL     1     -11.775   3.007   7.116  1.00  0.00    -0.000 C 
BRANCH  15  16
ATOM     16  C   UNL     1     -11.170   4.056   8.065  1.00  0.00    -0.000 C 
BRANCH  16  17
ATOM     17  C   UNL     1     -10.864   5.388   7.365  1.00  0.00    -0.000 C 
BRANCH  17  18
ATOM     18  C   UNL     1      -9.713   5.229   6.363  1.00  0.00    -0.003 C 
ATOM     19  C   UNL     1     -10.072   5.837   5.010  1.00  0.00     0.004 C 
ENDBRANCH  17  18
ENDBRANCH  16  17
ENDBRANCH  15  16
ENDBRANCH  14  15
ENDBRANCH  13  14
ENDBRANCH  12  13
ENDBRANCH   1  12
TORSDOF 14
ENDMDL
MODEL 5
REMARK VINA RESULT:    -4.255      1.889      2.764
REMARK INTER + INTRA:          -9.800
REMARK INTER:                  -7.781
REMARK INTRA:                  -2.019
REMARK UNBOUND:                -2.063
REMARK SMILES CCCCCCCCCCCCCC[C@@H](C)C(=O)[O-]
REMARK SMILES IDX 9 1 10 2 11 3 12 4 13 5 14 6 15 7 16 8 17 9 18 10 19 11 8 12
REMARK SMILES IDX 7 13 6 14 5 15 4 16 3 17 2 18 1 19
REMARK H PARENT
REMARK Flexibility Score: inf
ROOT
ATOM      1  C   UNL     1     -10.013   5.587   6.921  1.00  0.00     0.000 C 
ENDROOT
BRANCH   1   2
ATOM      2  C   UNL     1     -10.051   5.605   5.382  1.00  0.00     0.000 C 
BRANCH   2   3
ATOM      3  C   UNL     1      -9.353   6.809   4.725  1.00  0.00     0.000 C 
BRANCH   3   4
ATOM      4  C   UNL     1      -9.311   8.048   5.636  1.00  0.00     0.000 C 
BRANCH   4   5
ATOM      5  C   UNL     1      -8.257   9.073   5.188  1.00  0.00     0.001 C 
BRANCH   5   6
ATOM      6  C   UNL     1      -8.720  10.526   5.399  1.00  0.00     0.009 C 
BRANCH   6   7
ATOM      7  C   UNL     1     -10.204  10.622   5.815  1.00  0.00     0.032 C 
ATOM      8  C   UNL     1     -10.397  11.458   7.089  1.00  0.00     0.014 C 
BRANCH   7   9
ATOM      9  C   UNL     1     -11.015  11.208   4.694  1.00  0.00     0.044 C 
ATOM     10  O   UNL     1     -11.022  12.452   4.489  1.00  0.00    -0.550 OA
ATOM     11  O   UNL     1     -11.767  10.377   3.872  1.00  0.00    -0.550 OA
ENDBRANCH   7   9
ENDBRANCH   6   7
ENDBRANCH   5   6
ENDBRANCH   4   5
ENDBRANCH   3   4
ENDBRANCH   2   3
ENDBRANCH   1   2
BRANCH   1  12
ATOM     12  C   UNL     1     -11.166   4.777   7.539  1.00  0.00     0.000 C 
BRANCH  12  13
ATOM     13  C   UNL     1     -11.361   3.405   6.868  1.00  0.00    -0.000 C 
BRANCH  13  14
ATOM     14  C   UNL     1     -12.732   3.193   6.195  1.00  0.00    -0.000 C 
BRANCH  14  15
ATOM     15  C   UNL     1     -12.772   3.482   4.681  1.00  0.00    -0.000 C 
BRANCH  15  16
ATOM     16  C   UNL     1     -13.520   4.768   4.286  1.00  0.00    -0.000 C 
BRANCH  16  17
ATOM     17  C   UNL     1     -14.144   5.489   5.490  1.00  0.00    -0.000 C 
BRANCH  17  18
ATOM     18  C   UNL     1     -14.195   7.003   5.256  1.00  0.00    -0.003 C 
ATOM     19  C   UNL     1     -13.023   7.707   5.933  1.00  0.00     0.004 C 
ENDBRANCH  17  18
ENDBRANCH  16  17
ENDBRANCH  15  16
ENDBRANCH  14  15
ENDBRANCH  13  14
ENDBRANCH  12  13
ENDBRANCH   1  12
TORSDOF 14
ENDMDL
MODEL 6
REMARK VINA RESULT:    -4.163      2.453      4.545
REMARK INTER + INTRA:          -9.633
REMARK INTER:                  -7.752
REMARK INTRA:                  -1.881
REMARK UNBOUND:                -2.063
REMARK SMILES CCCCCCCCCCCCCC[C@@H](C)C(=O)[O-]
REMARK SMILES IDX 9 1 10 2 11 3 12 4 13 5 14 6 15 7 16 8 17 9 18 10 19 11 8 12
REMARK SMILES IDX 7 13 6 14 5 15 4 16 3 17 2 18 1 19
REMARK H PARENT
REMARK Flexibility Score: inf
ROOT
ATOM      1  C   UNL     1      -9.419   7.421   4.954  1.00  0.00     0.000 C 
ENDROOT
BRANCH   1   2
ATOM      2  C   UNL     1      -8.518   7.896   6.109  1.00  0.00     0.000 C 
BRANCH   2   3
ATOM      3  C   UNL     1      -8.128   9.384   6.065  1.00  0.00     0.000 C 
BRANCH   3   4
ATOM      4  C   UNL     1      -9.020  10.210   5.122  1.00  0.00     0.000 C 
BRANCH   4   5
ATOM      5  C   UNL     1      -9.716  11.377   5.842  1.00  0.00     0.001 C 
BRANCH   5   6
ATOM      6  C   UNL     1     -11.250  11.303   5.738  1.00  0.00     0.009 C 
BRANCH   6   7
ATOM      7  C   UNL     1     -11.728  10.190   4.781  1.00  0.00     0.032 C 
ATOM      8  C   UNL     1     -12.675   9.196   5.471  1.00  0.00     0.014 C 
BRANCH   7   9
ATOM      9  C   UNL     1     -12.411  10.797   3.587  1.00  0.00     0.044 C 
ATOM     10  O   UNL     1     -11.958  11.846   3.055  1.00  0.00    -0.550 OA
ATOM     11  O   UNL     1     -13.550  10.201   3.061  1.00  0.00    -0.550 OA
ENDBRANCH   7   9
ENDBRANCH   6   7
ENDBRANCH   5   6
ENDBRANCH   4   5
ENDBRANCH   3   4
ENDBRANCH   2   3
ENDBRANCH   1   2
BRANCH   1  12
ATOM     12  C   UNL     1     -10.167   6.116   5.276  1.00  0.00     0.000 C 
BRANCH  12  13
ATOM     13  C   UNL     1      -9.782   5.527   6.644  1.00  0.00    -0.000 C 
BRANCH  13  14
ATOM     14  C   UNL     1     -10.944   4.897   7.438  1.00  0.00    -0.000 C 
BRANCH  14  15
ATOM     15  C   UNL     1     -11.165   3.390   7.197  1.00  0.00    -0.000 C 
BRANCH  15  16
ATOM     16  C   UNL     1     -12.295   3.051   6.210  1.00  0.00    -0.000 C 
BRANCH  16  17
ATOM     17  C   UNL     1     -13.450   4.062   6.255  1.00  0.00    -0.000 C 
BRANCH  17  18
ATOM     18  C   UNL     1     -13.594   4.791   4.913  1.00  0.00    -0.003 C 
ATOM     19  C   UNL     1     -13.009   3.965   3.771  1.00  0.00     0.004 C 
ENDBRANCH  17  18
ENDBRANCH  16  17
ENDBRANCH  15  16
ENDBRANCH  14  15
ENDBRANCH  13  14
ENDBRANCH  12  13
ENDBRANCH   1  12
TORSDOF 14
ENDMDL
MODEL 7
REMARK VINA RESULT:    -4.144      3.338      6.934
REMARK INTER + INTRA:          -9.598
REMARK INTER:                  -7.783
REMARK INTRA:                  -1.815
REMARK UNBOUND:                -2.063
REMARK SMILES CCCCCCCCCCCCCC[C@@H](C)C(=O)[O-]
REMARK SMILES IDX 9 1 10 2 11 3 12 4 13 5 14 6 15 7 16 8 17 9 18 10 19 11 8 12
REMARK SMILES IDX 7 13 6 14 5 15 4 16 3 17 2 18 1 19
REMARK H PARENT
REMARK Flexibility Score: inf
ROOT
ATOM      1  C   UNL     1      -7.023   9.901   5.615  1.00  0.00     0.000 C 
ENDROOT
BRANCH   1   2
ATOM      2  C   UNL     1      -8.078   8.840   5.976  1.00  0.00     0.000 C 
BRANCH   2   3
ATOM      3  C   UNL     1      -9.154   8.596   4.902  1.00  0.00     0.000 C 
BRANCH   3   4
ATOM      4  C   UNL     1     -10.272   7.653   5.378  1.00  0.00     0.000 C 
BRANCH   4   5
ATOM      5  C   UNL     1      -9.733   6.295   5.859  1.00  0.00     0.001 C 
BRANCH   5   6
ATOM      6  C   UNL     1     -10.033   5.157   4.867  1.00  0.00     0.009 C 
BRANCH   6   7
ATOM      7  C   UNL     1     -11.073   4.154   5.410  1.00  0.00     0.032 C 
ATOM      8  C   UNL     1     -11.108   4.126   6.946  1.00  0.00     0.014 C 
BRANCH   7   9
ATOM      9  C   UNL     1     -12.439   4.491   4.877  1.00  0.00     0.044 C 
ATOM     10  O   UNL     1     -13.135   5.389   5.421  1.00  0.00    -0.550 OA
ATOM     11  O   UNL     1     -12.942   3.809   3.777  1.00  0.00    -0.550 OA
ENDBRANCH   7   9
ENDBRANCH   6   7
ENDBRANCH   5   6
ENDBRANCH   4   5
ENDBRANCH   3   4
ENDBRANCH   2   3
ENDBRANCH   1   2
BRANCH   1  12
ATOM     12  C   UNL     1      -6.741  10.882   6.766  1.00  0.00     0.000 C 
BRANCH  12  13
ATOM     13  C   UNL     1      -7.844  10.878   7.840  1.00  0.00    -0.000 C 
BRANCH  13  14
ATOM     14  C   UNL     1      -8.390  12.267   8.225  1.00  0.00    -0.000 C 
BRANCH  14  15
ATOM     15  C   UNL     1      -9.619  12.736   7.420  1.00  0.00    -0.000 C 
BRANCH  15  16
ATOM     16  C   UNL     1     -10.778  11.726   7.359  1.00  0.00    -0.000 C 
BRANCH  16  17
ATOM     17  C   UNL     1     -11.204  11.393   5.922  1.00  0.00    -0.000 C 
BRANCH  17  18
ATOM     18  C   UNL     1     -10.254  12.037   4.905  1.00  0.00    -0.003 C 
ATOM     19  C   UNL     1     -11.018  12.899   3.904  1.00  0.00     0.004 C 
ENDBRANCH  17  18
ENDBRANCH  16  17
ENDBRANCH  15  16
ENDBRANCH  14  15
ENDBRANCH  13  14
ENDBRANCH  12  13
ENDBRANCH   1  12
TORSDOF 14
ENDMDL
MODEL 8
REMARK VINA RESULT:    -4.139      3.399      6.569
REMARK INTER + INTRA:          -9.589
REMARK INTER:                  -8.053
REMARK INTRA:                  -1.536
REMARK UNBOUND:                -2.063
REMARK SMILES CCCCCCCCCCCCCC[C@@H](C)C(=O)[O-]
REMARK SMILES IDX 9 1 10 2 11 3 12 4 13 5 14 6 15 7 16 8 17 9 18 10 19 11 8 12
REMARK SMILES IDX 7 13 6 14 5 15 4 16 3 17 2 18 1 19
REMARK H PARENT
REMARK Flexibility Score: inf
ROOT
ATOM      1  C   UNL     1      -7.160  10.443   6.366  1.00  0.00     0.000 C 
ENDROOT
BRANCH   1   2
ATOM      2  C   UNL     1      -7.843   9.536   5.325  1.00  0.00     0.000 C 
BRANCH   2   3
ATOM      3  C   UNL     1      -8.632   8.350   5.909  1.00  0.00     0.000 C 
BRANCH   3   4
ATOM      4  C   UNL     1      -9.797   7.905   5.009  1.00  0.00     0.000 C 
BRANCH   4   5
ATOM      5  C   UNL     1     -10.642   6.790   5.647  1.00  0.00     0.001 C 
BRANCH   5   6
ATOM      6  C   UNL     1      -9.838   5.497   5.872  1.00  0.00     0.009 C 
BRANCH   6   7
ATOM      7  C   UNL     1     -10.651   4.413   6.611  1.00  0.00     0.032 C 
ATOM      8  C   UNL     1     -11.149   4.892   7.983  1.00  0.00     0.014 C 
BRANCH   7   9
ATOM      9  C   UNL     1     -11.820   3.983   5.768  1.00  0.00     0.044 C 
ATOM     10  O   UNL     1     -12.975   3.901   6.267  1.00  0.00    -0.550 OA
ATOM     11  O   UNL     1     -11.632   3.672   4.427  1.00  0.00    -0.550 OA
ENDBRANCH   7   9
ENDBRANCH   6   7
ENDBRANCH   5   6
ENDBRANCH   4   5
ENDBRANCH   3   4
ENDBRANCH   2   3
ENDBRANCH   1   2
BRANCH   1  12
ATOM     12  C   UNL     1      -8.137  10.981   7.425  1.00  0.00     0.000 C 
BRANCH  12  13
ATOM     13  C   UNL     1      -9.213  11.907   6.831  1.00  0.00    -0.000 C 
BRANCH  13  14
ATOM     14  C   UNL     1     -10.669  11.497   7.127  1.00  0.00    -0.000 C 
BRANCH  14  15
ATOM     15  C   UNL     1     -11.664  11.722   5.971  1.00  0.00    -0.000 C 
BRANCH  15  16
ATOM     16  C   UNL     1     -11.099  11.446   4.567  1.00  0.00    -0.000 C 
BRANCH  16  17
ATOM     17  C   UNL     1     -12.052  10.619   3.691  1.00  0.00    -0.000 C 
BRANCH  17  18
ATOM     18  C   UNL     1     -12.550  11.441   2.496  1.00  0.00    -0.003 C 
ATOM     19  C   UNL     1     -12.647  10.581   1.238  1.00  0.00     0.004 C 
ENDBRANCH  17  18
ENDBRANCH  16  17
ENDBRANCH  15  16
ENDBRANCH  14  15
ENDBRANCH  13  14
ENDBRANCH  12  13
ENDBRANCH   1  12
TORSDOF 14
ENDMDL
MODEL 9
REMARK VINA RESULT:    -4.080      2.783      5.451
REMARK INTER + INTRA:          -9.481
REMARK INTER:                  -7.613
REMARK INTRA:                  -1.869
REMARK UNBOUND:                -2.063
REMARK SMILES CCCCCCCCCCCCCC[C@@H](C)C(=O)[O-]
REMARK SMILES IDX 9 1 10 2 11 3 12 4 13 5 14 6 15 7 16 8 17 9 18 10 19 11 8 12
REMARK SMILES IDX 7 13 6 14 5 15 4 16 3 17 2 18 1 19
REMARK H PARENT
REMARK Flexibility Score: inf
ROOT
ATOM      1  C   UNL     1      -7.598   9.515   5.472  1.00  0.00     0.000 C 
ENDROOT
BRANCH   1   2
ATOM      2  C   UNL     1      -7.455  10.744   6.389  1.00  0.00     0.000 C 
BRANCH   2   3
ATOM      3  C   UNL     1      -8.718  11.115   7.186  1.00  0.00     0.000 C 
BRANCH   3   4
ATOM      4  C   UNL     1      -9.380  12.412   6.690  1.00  0.00     0.000 C 
BRANCH   4   5
ATOM      5  C   UNL     1     -10.723  12.157   5.987  1.00  0.00     0.001 C 
BRANCH   5   6
ATOM      6  C   UNL     1     -10.547  11.694   4.530  1.00  0.00     0.009 C 
BRANCH   6   7
ATOM      7  C   UNL     1     -11.549  10.590   4.131  1.00  0.00     0.032 C 
ATOM      8  C   UNL     1     -12.288  10.009   5.346  1.00  0.00     0.014 C 
BRANCH   7   9
ATOM      9  C   UNL     1     -12.544  11.132   3.142  1.00  0.00     0.044 C 
ATOM     10  O   UNL     1     -12.722  10.560   2.034  1.00  0.00    -0.550 OA
ATOM     11  O   UNL     1     -13.276  12.273   3.448  1.00  0.00    -0.550 OA
ENDBRANCH   7   9
ENDBRANCH   6   7
ENDBRANCH   5   6
ENDBRANCH   4   5
ENDBRANCH   3   4
ENDBRANCH   2   3
ENDBRANCH   1   2
BRANCH   1  12
ATOM     12  C   UNL     1      -8.610   8.486   6.003  1.00  0.00     0.000 C 
BRANCH  12  13
ATOM     13  C   UNL     1      -9.335   7.723   4.879  1.00  0.00    -0.000 C 
BRANCH  13  14
ATOM     14  C   UNL     1     -10.315   6.632   5.352  1.00  0.00    -0.000 C 
BRANCH  14  15
ATOM     15  C   UNL     1      -9.730   5.610   6.348  1.00  0.00    -0.000 C 
BRANCH  15  16
ATOM     16  C   UNL     1     -10.700   4.495   6.778  1.00  0.00    -0.000 C 
BRANCH  16  17
ATOM     17  C   UNL     1     -12.166   4.952   6.788  1.00  0.00    -0.000 C 
BRANCH  17  18
ATOM     18  C   UNL     1     -13.059   3.947   6.050  1.00  0.00    -0.003 C 
ATOM     19  C   UNL     1     -12.599   3.757   4.607  1.00  0.00     0.004 C 
ENDBRANCH  17  18
ENDBRANCH  16  17
ENDBRANCH  15  16
ENDBRANCH  14  15
ENDBRANCH  13  14
ENDBRANCH  12  13
ENDBRANCH   1  12
TORSDOF 14
ENDMDL
