MODEL 1
REMARK VINA RESULT:    -4.621      0.000      0.000
REMARK INTER + INTRA:          -5.176
REMARK INTER:                  -5.026
REMARK INTRA:                  -0.150
REMARK UNBOUND:                -0.150
REMARK SMILES CC1=CC[C@@H](C(C)(C)O)CC1
REMARK SMILES IDX 6 1 7 2 8 3 5 4 1 5 2 6 3 7 11 8 4 9 10 10 9 11
REMARK H PARENT 9 12
REMARK Flexibility Score: inf
ROOT
ATOM      1  C   UNL     1     135.367 138.658 143.816  1.00  0.00     0.062 C 
ATOM      2  C   UNL     1     134.768 137.868 145.007  1.00  0.00     0.042 C 
ATOM      3  C   UNL     1     136.895 138.438 143.846  1.00  0.00     0.042 C 
ENDROOT
BRANCH   1   4
ATOM      4  C   UNL     1     134.774 138.167 142.442  1.00  0.00     0.024 C 
ATOM      5  C   UNL     1     132.116 136.891 139.163  1.00  0.00     0.039 C 
ATOM      6  C   UNL     1     132.917 137.321 140.361  1.00  0.00    -0.077 C 
ATOM      7  C   UNL     1     132.996 138.633 140.661  1.00  0.00    -0.028 C 
ATOM      8  C   UNL     1     133.715 136.288 141.121  1.00  0.00     0.031 C 
ATOM      9  C   UNL     1     133.737 139.164 141.864  1.00  0.00     0.034 C 
ATOM     10  C   UNL     1     134.124 136.766 142.518  1.00  0.00     0.011 C 
ENDBRANCH   1   4
BRANCH   1  11
ATOM     11  O   UNL     1     135.139 140.038 143.994  1.00  0.00    -0.390 OA
ATOM     12  H   UNL     1     135.251 140.490 143.118  1.00  0.00     0.211 HD
ENDBRANCH   1  11
TORSDOF 2
ENDMDL
MODEL 2
REMARK VINA RESULT:    -4.512      1.718      2.209
REMARK INTER + INTRA:          -5.058
REMARK INTER:                  -4.875
REMARK INTRA:                  -0.183
REMARK UNBOUND:                -0.150
REMARK SMILES CC1=CC[C@@H](C(C)(C)O)CC1
REMARK SMILES IDX 6 1 7 2 8 3 5 4 1 5 2 6 3 7 11 8 4 9 10 10 9 11
REMARK H PARENT 9 12
REMARK Flexibility Score: inf
ROOT
ATOM      1  C   UNL     1     137.480 137.895 143.994  1.00  0.00     0.062 C 
ATOM      2  C   UNL     1     137.007 138.485 145.346  1.00  0.00     0.042 C 
ATOM      3  C   UNL     1     137.745 136.391 144.222  1.00  0.00     0.042 C 
ENDROOT
BRANCH   1   4
ATOM      4  C   UNL     1     136.395 138.090 142.869  1.00  0.00     0.024 C 
ATOM      5  C   UNL     1     132.679 138.129 140.495  1.00  0.00     0.039 C 
ATOM      6  C   UNL     1     133.883 138.038 141.393  1.00  0.00    -0.077 C 
ATOM      7  C   UNL     1     134.027 138.934 142.389  1.00  0.00    -0.028 C 
ATOM      8  C   UNL     1     134.961 137.029 141.076  1.00  0.00     0.031 C 
ATOM      9  C   UNL     1     135.174 138.905 143.369  1.00  0.00     0.034 C 
ATOM     10  C   UNL     1     135.888 136.761 142.265  1.00  0.00     0.011 C 
ENDBRANCH   1   4
BRANCH   1  11
ATOM     11  O   UNL     1     138.704 138.484 143.615  1.00  0.00    -0.390 OA
ATOM     12  H   UNL     1     138.585 139.469 143.594  1.00  0.00     0.211 HD
ENDBRANCH   1  11
TORSDOF 2
ENDMDL
MODEL 3
REMARK VINA RESULT:    -4.475      1.592      2.638
REMARK INTER + INTRA:          -5.017
REMARK INTER:                  -4.867
REMARK INTRA:                  -0.150
REMARK UNBOUND:                -0.150
REMARK SMILES CC1=CC[C@@H](C(C)(C)O)CC1
REMARK SMILES IDX 6 1 7 2 8 3 5 4 1 5 2 6 3 7 11 8 4 9 10 10 9 11
REMARK H PARENT 9 12
REMARK Flexibility Score: inf
ROOT
ATOM      1  C   UNL     1     136.951 137.635 145.009  1.00  0.00     0.062 C 
ATOM      2  C   UNL     1     136.586 136.799 146.261  1.00  0.00     0.042 C 
ATOM      3  C   UNL     1     138.082 136.884 144.273  1.00  0.00     0.042 C 
ENDROOT
BRANCH   1   4
ATOM      4  C   UNL     1     135.711 137.819 144.056  1.00  0.00     0.024 C 
ATOM      5  C   UNL     1     133.051 138.663 140.641  1.00  0.00     0.039 C 
ATOM      6  C   UNL     1     134.057 138.430 141.735  1.00  0.00    -0.077 C 
ATOM      7  C   UNL     1     134.783 137.295 141.729  1.00  0.00    -0.028 C 
ATOM      8  C   UNL     1     134.136 139.412 142.881  1.00  0.00     0.031 C 
ATOM      9  C   UNL     1     135.845 136.985 142.755  1.00  0.00     0.034 C 
ATOM     10  C   UNL     1     135.442 139.292 143.673  1.00  0.00     0.011 C 
ENDBRANCH   1   4
BRANCH   1  11
ATOM     11  O   UNL     1     137.466 138.887 145.403  1.00  0.00    -0.390 OA
ATOM     12  H   UNL     1     136.712 139.526 145.485  1.00  0.00     0.211 HD
ENDBRANCH   1  11
TORSDOF 2
ENDMDL
MODEL 4
REMARK VINA RESULT:    -4.440      1.838      4.449
REMARK INTER + INTRA:          -4.979
REMARK INTER:                  -4.798
REMARK INTRA:                  -0.180
REMARK UNBOUND:                -0.150
REMARK SMILES CC1=CC[C@@H](C(C)(C)O)CC1
REMARK SMILES IDX 6 1 7 2 8 3 5 4 1 5 2 6 3 7 11 8 4 9 10 10 9 11
REMARK H PARENT 9 12
REMARK Flexibility Score: inf
ROOT
ATOM      1  C   UNL     1     133.078 137.631 141.043  1.00  0.00     0.062 C 
ATOM      2  C   UNL     1     133.301 138.865 140.133  1.00  0.00     0.042 C 
ATOM      3  C   UNL     1     133.486 136.384 140.229  1.00  0.00     0.042 C 
ENDROOT
BRANCH   1   4
ATOM      4  C   UNL     1     133.937 137.724 142.360  1.00  0.00     0.024 C 
ATOM      5  C   UNL     1     137.066 138.551 145.356  1.00  0.00     0.039 C 
ATOM      6  C   UNL     1     136.083 138.314 144.242  1.00  0.00    -0.077 C 
ATOM      7  C   UNL     1     135.256 139.312 143.873  1.00  0.00    -0.028 C 
ATOM      8  C   UNL     1     135.960 136.928 143.653  1.00  0.00     0.031 C 
ATOM      9  C   UNL     1     134.265 139.191 142.742  1.00  0.00     0.034 C 
ATOM     10  C   UNL     1     135.258 136.924 142.292  1.00  0.00     0.011 C 
ENDBRANCH   1   4
BRANCH   1  11
ATOM     11  O   UNL     1     131.708 137.502 141.349  1.00  0.00    -0.390 OA
ATOM     12  H   UNL     1     131.397 138.350 141.760  1.00  0.00     0.211 HD
ENDBRANCH   1  11
TORSDOF 2
ENDMDL
MODEL 5
REMARK VINA RESULT:    -4.354     14.568     15.568
REMARK INTER + INTRA:          -4.886
REMARK INTER:                  -4.732
REMARK INTRA:                  -0.154
REMARK UNBOUND:                -0.150
REMARK SMILES CC1=CC[C@@H](C(C)(C)O)CC1
REMARK SMILES IDX 6 1 7 2 8 3 5 4 1 5 2 6 3 7 11 8 4 9 10 10 9 11
REMARK H PARENT 9 12
REMARK Flexibility Score: inf
ROOT
ATOM      1  C   UNL     1     148.888 142.967 140.421  1.00  0.00     0.062 C 
ATOM      2  C   UNL     1     147.464 142.997 141.032  1.00  0.00     0.042 C 
ATOM      3  C   UNL     1     149.817 143.725 141.393  1.00  0.00     0.042 C 
ENDROOT
BRANCH   1   4
ATOM      4  C   UNL     1     149.398 141.491 140.221  1.00  0.00     0.024 C 
ATOM      5  C   UNL     1     149.701 137.138 139.583  1.00  0.00     0.039 C 
ATOM      6  C   UNL     1     149.466 138.606 139.814  1.00  0.00    -0.077 C 
ATOM      7  C   UNL     1     149.190 139.399 138.760  1.00  0.00    -0.028 C 
ATOM      8  C   UNL     1     149.673 139.174 141.198  1.00  0.00     0.031 C 
ATOM      9  C   UNL     1     148.898 140.874 138.889  1.00  0.00     0.034 C 
ATOM     10  C   UNL     1     149.012 140.544 141.380  1.00  0.00     0.011 C 
ENDBRANCH   1   4
BRANCH   1  11
ATOM     11  O   UNL     1     148.899 143.669 139.197  1.00  0.00    -0.390 OA
ATOM     12  H   UNL     1     149.568 144.398 139.260  1.00  0.00     0.211 HD
ENDBRANCH   1  11
TORSDOF 2
ENDMDL
MODEL 6
REMARK VINA RESULT:    -4.350     20.059     20.961
REMARK INTER + INTRA:          -4.881
REMARK INTER:                  -4.757
REMARK INTRA:                  -0.125
REMARK UNBOUND:                -0.150
REMARK SMILES CC1=CC[C@@H](C(C)(C)O)CC1
REMARK SMILES IDX 6 1 7 2 8 3 5 4 1 5 2 6 3 7 11 8 4 9 10 10 9 11
REMARK H PARENT 9 12
REMARK Flexibility Score: inf
ROOT
ATOM      1  C   UNL     1     148.725 147.975 131.219  1.00  0.00     0.062 C 
ATOM      2  C   UNL     1     147.669 148.825 130.468  1.00  0.00     0.042 C 
ATOM      3  C   UNL     1     148.312 147.946 132.706  1.00  0.00     0.042 C 
ENDROOT
BRANCH   1   4
ATOM      4  C   UNL     1     148.797 146.510 130.647  1.00  0.00     0.024 C 
ATOM      5  C   UNL     1     150.124 142.652 128.972  1.00  0.00     0.039 C 
ATOM      6  C   UNL     1     149.795 144.013 129.520  1.00  0.00    -0.077 C 
ATOM      7  C   UNL     1     150.019 144.267 130.825  1.00  0.00    -0.028 C 
ATOM      8  C   UNL     1     149.103 145.017 128.627  1.00  0.00     0.031 C 
ATOM      9  C   UNL     1     149.762 145.611 131.462  1.00  0.00     0.034 C 
ATOM     10  C   UNL     1     149.207 146.450 129.157  1.00  0.00     0.011 C 
ENDBRANCH   1   4
BRANCH   1  11
ATOM     11  O   UNL     1     149.986 148.602 131.145  1.00  0.00    -0.390 OA
ATOM     12  H   UNL     1     150.542 148.113 130.485  1.00  0.00     0.211 HD
ENDBRANCH   1  11
TORSDOF 2
ENDMDL
MODEL 7
REMARK VINA RESULT:    -4.276     13.412     14.606
REMARK INTER + INTRA:          -4.801
REMARK INTER:                  -4.619
REMARK INTRA:                  -0.182
REMARK UNBOUND:                -0.150
REMARK SMILES CC1=CC[C@@H](C(C)(C)O)CC1
REMARK SMILES IDX 6 1 7 2 8 3 5 4 1 5 2 6 3 7 11 8 4 9 10 10 9 11
REMARK H PARENT 9 12
REMARK Flexibility Score: inf
ROOT
ATOM      1  C   UNL     1     148.260 142.872 140.937  1.00  0.00     0.062 C 
ATOM      2  C   UNL     1     149.535 143.275 141.719  1.00  0.00     0.042 C 
ATOM      3  C   UNL     1     148.533 143.156 139.444  1.00  0.00     0.042 C 
ENDROOT
BRANCH   1   4
ATOM      4  C   UNL     1     147.912 141.351 141.145  1.00  0.00     0.024 C 
ATOM      5  C   UNL     1     147.954 136.942 141.213  1.00  0.00     0.039 C 
ATOM      6  C   UNL     1     148.047 138.440 141.112  1.00  0.00    -0.077 C 
ATOM      7  C   UNL     1     148.810 139.111 141.997  1.00  0.00    -0.028 C 
ATOM      8  C   UNL     1     147.185 139.163 140.104  1.00  0.00     0.031 C 
ATOM      9  C   UNL     1     149.004 140.607 141.956  1.00  0.00     0.034 C 
ATOM     10  C   UNL     1     147.673 140.587 139.822  1.00  0.00     0.011 C 
ENDBRANCH   1   4
BRANCH   1  11
ATOM     11  O   UNL     1     147.180 143.690 141.329  1.00  0.00    -0.390 OA
ATOM     12  H   UNL     1     146.927 144.265 140.561  1.00  0.00     0.211 HD
ENDBRANCH   1  11
TORSDOF 2
ENDMDL
MODEL 8
REMARK VINA RESULT:    -4.262     13.711     14.924
REMARK INTER + INTRA:          -4.785
REMARK INTER:                  -4.615
REMARK INTRA:                  -0.170
REMARK UNBOUND:                -0.150
REMARK SMILES CC1=CC[C@@H](C(C)(C)O)CC1
REMARK SMILES IDX 6 1 7 2 8 3 5 4 1 5 2 6 3 7 11 8 4 9 10 10 9 11
REMARK H PARENT 9 12
REMARK Flexibility Score: inf
ROOT
ATOM      1  C   UNL     1     148.611 142.549 141.154  1.00  0.00     0.062 C 
ATOM      2  C   UNL     1     148.991 141.870 142.494  1.00  0.00     0.042 C 
ATOM      3  C   UNL     1     149.754 143.523 140.796  1.00  0.00     0.042 C 
ENDROOT
BRANCH   1   4
ATOM      4  C   UNL     1     148.419 141.490 140.004  1.00  0.00     0.024 C 
ATOM      5  C   UNL     1     148.284 137.804 137.588  1.00  0.00     0.039 C 
ATOM      6  C   UNL     1     148.396 138.992 138.504  1.00  0.00    -0.077 C 
ATOM      7  C   UNL     1     147.444 139.193 139.436  1.00  0.00    -0.028 C 
ATOM      8  C   UNL     1     149.500 139.996 138.273  1.00  0.00     0.031 C 
ATOM      9  C   UNL     1     147.485 140.328 140.430  1.00  0.00     0.034 C 
ATOM     10  C   UNL     1     149.748 140.893 139.490  1.00  0.00     0.011 C 
ENDBRANCH   1   4
BRANCH   1  11
ATOM     11  O   UNL     1     147.442 143.320 141.322  1.00  0.00    -0.390 OA
ATOM     12  H   UNL     1     147.488 143.772 142.204  1.00  0.00     0.211 HD
ENDBRANCH   1  11
TORSDOF 2
ENDMDL
MODEL 9
REMARK VINA RESULT:    -4.221     11.946     14.354
REMARK INTER + INTRA:          -4.741
REMARK INTER:                  -4.558
REMARK INTRA:                  -0.183
REMARK UNBOUND:                -0.150
REMARK SMILES CC1=CC[C@@H](C(C)(C)O)CC1
REMARK SMILES IDX 6 1 7 2 8 3 5 4 1 5 2 6 3 7 11 8 4 9 10 10 9 11
REMARK H PARENT 9 12
REMARK Flexibility Score: inf
ROOT
ATOM      1  C   UNL     1     146.788 138.692 141.940  1.00  0.00     0.062 C 
ATOM      2  C   UNL     1     145.694 139.219 142.902  1.00  0.00     0.042 C 
ATOM      3  C   UNL     1     146.082 138.273 140.633  1.00  0.00     0.042 C 
ENDROOT
BRANCH   1   4
ATOM      4  C   UNL     1     147.874 139.793 141.642  1.00  0.00     0.024 C 
ATOM      5  C   UNL     1     149.990 143.489 140.497  1.00  0.00     0.039 C 
ATOM      6  C   UNL     1     149.158 142.282 140.835  1.00  0.00    -0.077 C 
ATOM      7  C   UNL     1     148.503 142.246 142.013  1.00  0.00    -0.028 C 
ATOM      8  C   UNL     1     149.181 141.090 139.908  1.00  0.00     0.031 C 
ATOM      9  C   UNL     1     147.610 141.103 142.428  1.00  0.00     0.034 C 
ATOM     10  C   UNL     1     148.005 140.136 140.140  1.00  0.00     0.011 C 
ENDBRANCH   1   4
BRANCH   1  11
ATOM     11  O   UNL     1     147.386 137.536 142.483  1.00  0.00    -0.390 OA
ATOM     12  H   UNL     1     146.670 136.947 142.834  1.00  0.00     0.211 HD
ENDBRANCH   1  11
TORSDOF 2
ENDMDL
