MODEL 1
REMARK VINA RESULT:    -8.242      0.000      0.000
REMARK INTER + INTRA:         -12.674
REMARK INTER:                 -11.614
REMARK INTRA:                  -1.060
REMARK UNBOUND:                -1.060
REMARK SMILES COc1c(O[C@H]2O[C@@H](C(=O)[O-])[C@H](O)[C@H](O)[C@H]2O)cc(O)c2c(=O)cc(-c3ccccc3)oc12
REMARK SMILES IDX 5 1 6 2 8 3 12 4 7 5 14 6 16 7 9 8 10 9 11 10 13 11 15 13
REMARK SMILES IDX 17 15 4 17 3 18 18 19 33 20 19 21 21 22 32 23 22 24 25 25
REMARK SMILES IDX 24 26 23 27 2 28 1 29 20 30 26 32 27 33 31 34 28 35 30 36
REMARK SMILES IDX 29 37
REMARK H PARENT 13 12 15 14 17 16 20 31
REMARK Flexibility Score: inf
ROOT
ATOM      1  O   UNL     1      14.900  13.886  13.627  1.00  0.00    -0.458 OA
ENDROOT
BRANCH   1   2
ATOM      2  C   UNL     1      15.940  12.911  13.553  1.00  0.00     0.339 C 
ATOM      3  C   UNL     1      18.211  12.561  13.926  1.00  0.00     0.199 C 
ATOM      4  C   UNL     1      18.000  11.269  14.747  1.00  0.00     0.180 C 
ATOM      5  O   UNL     1      17.125  13.451  14.112  1.00  0.00    -0.328 OA
ATOM      6  C   UNL     1      16.637  10.613  14.411  1.00  0.00     0.181 C 
ATOM      7  C   UNL     1      15.498  11.655  14.335  1.00  0.00     0.214 C 
BRANCH   3   8
ATOM      8  C   UNL     1      19.467  13.249  14.373  1.00  0.00     0.073 C 
ATOM      9  O   UNL     1      19.435  14.453  14.740  1.00  0.00    -0.547 OA
ATOM     10  O   UNL     1      20.682  12.577  14.334  1.00  0.00    -0.547 OA
ENDBRANCH   3   8
BRANCH   4  11
ATOM     11  O   UNL     1      19.047  10.369  14.494  1.00  0.00    -0.387 OA
ATOM     12  H   UNL     1      18.796   9.859  13.679  1.00  0.00     0.211 HD
ENDBRANCH   4  11
BRANCH   6  13
ATOM     13  O   UNL     1      16.704   9.855  13.226  1.00  0.00    -0.387 OA
ATOM     14  H   UNL     1      17.581   9.395  13.202  1.00  0.00     0.211 HD
ENDBRANCH   6  13
BRANCH   7  15
ATOM     15  O   UNL     1      15.044  11.997  15.624  1.00  0.00    -0.384 OA
ATOM     16  H   UNL     1      14.066  11.842  15.655  1.00  0.00     0.211 HD
ENDBRANCH   7  15
ENDBRANCH   1   2
BRANCH   1  17
ATOM     17  C   UNL     1      13.708  13.852  12.885  1.00  0.00     0.172 A 
ATOM     18  C   UNL     1      13.681  14.505  11.651  1.00  0.00     0.205 A 
ATOM     19  C   UNL     1      12.556  13.193  13.342  1.00  0.00     0.097 A 
ATOM     20  C   UNL     1      12.510  14.509  10.874  1.00  0.00     0.188 A 
ATOM     21  C   UNL     1      11.376  13.186  12.591  1.00  0.00     0.134 A 
ATOM     22  C   UNL     1      11.350  13.819  11.314  1.00  0.00     0.111 A 
ATOM     23  O   UNL     1      12.502  15.180   9.725  1.00  0.00    -0.452 OA
ATOM     24  C   UNL     1      10.246  13.794  10.430  1.00  0.00     0.197 A 
ATOM     25  C   UNL     1      11.452  15.234   8.912  1.00  0.00     0.138 A 
ATOM     26  C   UNL     1      10.295  14.516   9.239  1.00  0.00     0.100 A 
ATOM     27  O   UNL     1       9.217  13.109  10.667  1.00  0.00    -0.289 OA
BRANCH  18  28
ATOM     28  O   UNL     1      14.834  15.160  11.209  1.00  0.00    -0.490 OA
ATOM     29  C   UNL     1      15.734  14.559  10.287  1.00  0.00     0.278 C 
ENDBRANCH  18  28
BRANCH  21  30
ATOM     30  O   UNL     1      10.268  12.571  13.179  1.00  0.00    -0.507 OA
ATOM     31  H   UNL     1       9.698  12.980  13.904  1.00  0.00     0.293 HD
ENDBRANCH  21  30
BRANCH  25  32
ATOM     32  C   UNL     1      11.545  16.043   7.670  1.00  0.00     0.017 A 
ATOM     33  C   UNL     1      10.742  17.190   7.523  1.00  0.00     0.012 A 
ATOM     34  C   UNL     1      12.394  15.671   6.608  1.00  0.00     0.012 A 
ATOM     35  C   UNL     1      10.803  17.956   6.355  1.00  0.00     0.001 A 
ATOM     36  C   UNL     1      12.451  16.440   5.441  1.00  0.00     0.001 A 
ATOM     37  C   UNL     1      11.658  17.583   5.316  1.00  0.00     0.000 A 
ENDBRANCH  25  32
ENDBRANCH   1  17
TORSDOF 9
ENDMDL
MODEL 2
REMARK VINA RESULT:    -8.010      4.015     10.819
REMARK INTER + INTRA:         -12.348
REMARK INTER:                 -11.287
REMARK INTRA:                  -1.061
REMARK UNBOUND:                -1.060
REMARK SMILES COc1c(O[C@H]2O[C@@H](C(=O)[O-])[C@H](O)[C@H](O)[C@H]2O)cc(O)c2c(=O)cc(-c3ccccc3)oc12
REMARK SMILES IDX 5 1 6 2 8 3 12 4 7 5 14 6 16 7 9 8 10 9 11 10 13 11 15 13
REMARK SMILES IDX 17 15 4 17 3 18 18 19 33 20 19 21 21 22 32 23 22 24 25 25
REMARK SMILES IDX 24 26 23 27 2 28 1 29 20 30 26 32 27 33 31 34 28 35 30 36
REMARK SMILES IDX 29 37
REMARK H PARENT 13 12 15 14 17 16 20 31
REMARK Flexibility Score: inf
ROOT
ATOM      1  O   UNL     1      15.489  11.301  14.296  1.00  0.00    -0.458 OA
ENDROOT
BRANCH   1   2
ATOM      2  C   UNL     1      14.857  11.847  13.139  1.00  0.00     0.339 C 
ATOM      3  C   UNL     1      12.912  12.871  12.373  1.00  0.00     0.199 C 
ATOM      4  C   UNL     1      13.655  14.027  11.666  1.00  0.00     0.180 C 
ATOM      5  O   UNL     1      13.630  12.445  13.517  1.00  0.00    -0.328 OA
ATOM      6  C   UNL     1      15.114  13.628  11.331  1.00  0.00     0.181 C 
ATOM      7  C   UNL     1      15.798  12.898  12.510  1.00  0.00     0.214 C 
BRANCH   3   8
ATOM      8  C   UNL     1      11.553  13.332  12.811  1.00  0.00     0.073 C 
ATOM      9  O   UNL     1      11.397  13.855  13.945  1.00  0.00    -0.547 OA
ATOM     10  O   UNL     1      10.451  13.134  11.989  1.00  0.00    -0.547 OA
ENDBRANCH   3   8
BRANCH   4  11
ATOM     11  O   UNL     1      12.970  14.387  10.495  1.00  0.00    -0.387 OA
ATOM     12  H   UNL     1      12.764  15.356  10.570  1.00  0.00     0.211 HD
ENDBRANCH   4  11
BRANCH   6  13
ATOM     13  O   UNL     1      15.185  12.858  10.155  1.00  0.00    -0.387 OA
ATOM     14  H   UNL     1      15.426  11.930  10.407  1.00  0.00     0.211 HD
ENDBRANCH   6  13
BRANCH   7  15
ATOM     15  O   UNL     1      16.245  13.818  13.478  1.00  0.00    -0.384 OA
ATOM     16  H   UNL     1      15.626  14.593  13.474  1.00  0.00     0.211 HD
ENDBRANCH   7  15
ENDBRANCH   1   2
BRANCH   1  17
ATOM     17  C   UNL     1      16.052  10.016  14.378  1.00  0.00     0.172 A 
ATOM     18  C   UNL     1      16.431   9.542  15.636  1.00  0.00     0.205 A 
ATOM     19  C   UNL     1      16.243   9.205  13.249  1.00  0.00     0.097 A 
ATOM     20  C   UNL     1      17.006   8.268  15.772  1.00  0.00     0.188 A 
ATOM     21  C   UNL     1      16.818   7.935  13.356  1.00  0.00     0.134 A 
ATOM     22  C   UNL     1      17.176   7.429  14.640  1.00  0.00     0.111 A 
ATOM     23  O   UNL     1      17.401   7.865  16.977  1.00  0.00    -0.452 OA
ATOM     24  C   UNL     1      17.675   6.126  14.877  1.00  0.00     0.197 A 
ATOM     25  C   UNL     1      17.942   6.674  17.214  1.00  0.00     0.138 A 
ATOM     26  C   UNL     1      18.073   5.759  16.161  1.00  0.00     0.100 A 
ATOM     27  O   UNL     1      17.746   5.263  13.963  1.00  0.00    -0.289 OA
BRANCH  18  28
ATOM     28  O   UNL     1      16.237  10.362  16.752  1.00  0.00    -0.490 OA
ATOM     29  C   UNL     1      17.243  11.255  17.212  1.00  0.00     0.278 C 
ENDBRANCH  18  28
BRANCH  21  30
ATOM     30  O   UNL     1      17.038   7.248  12.158  1.00  0.00    -0.507 OA
ATOM     31  H   UNL     1      16.441   7.301  11.346  1.00  0.00     0.293 HD
ENDBRANCH  21  30
BRANCH  25  32
ATOM     32  C   UNL     1      18.377   6.343  18.595  1.00  0.00     0.017 A 
ATOM     33  C   UNL     1      17.955   7.148  19.670  1.00  0.00     0.012 A 
ATOM     34  C   UNL     1      19.239   5.259  18.858  1.00  0.00     0.012 A 
ATOM     35  C   UNL     1      18.365   6.863  20.975  1.00  0.00     0.001 A 
ATOM     36  C   UNL     1      19.648   4.979  20.166  1.00  0.00     0.001 A 
ATOM     37  C   UNL     1      19.209   5.778  21.224  1.00  0.00     0.000 A 
ENDBRANCH  25  32
ENDBRANCH   1  17
TORSDOF 9
ENDMDL
MODEL 3
REMARK VINA RESULT:    -7.909      4.641      7.509
REMARK INTER + INTRA:         -12.206
REMARK INTER:                 -11.291
REMARK INTRA:                  -0.915
REMARK UNBOUND:                -1.060
REMARK SMILES COc1c(O[C@H]2O[C@@H](C(=O)[O-])[C@H](O)[C@H](O)[C@H]2O)cc(O)c2c(=O)cc(-c3ccccc3)oc12
REMARK SMILES IDX 5 1 6 2 8 3 12 4 7 5 14 6 16 7 9 8 10 9 11 10 13 11 15 13
REMARK SMILES IDX 17 15 4 17 3 18 18 19 33 20 19 21 21 22 32 23 22 24 25 25
REMARK SMILES IDX 24 26 23 27 2 28 1 29 20 30 26 32 27 33 31 34 28 35 30 36
REMARK SMILES IDX 29 37
REMARK H PARENT 13 12 15 14 17 16 20 31
REMARK Flexibility Score: inf
ROOT
ATOM      1  O   UNL     1      18.134   8.402  15.993  1.00  0.00    -0.458 OA
ENDROOT
BRANCH   1   2
ATOM      2  C   UNL     1      17.769   7.213  16.693  1.00  0.00     0.339 C 
ATOM      3  C   UNL     1      17.388   4.931  16.440  1.00  0.00     0.199 C 
ATOM      4  C   UNL     1      18.295   4.526  17.623  1.00  0.00     0.180 C 
ATOM      5  O   UNL     1      17.878   6.105  15.817  1.00  0.00    -0.328 OA
ATOM      6  C   UNL     1      18.461   5.697  18.624  1.00  0.00     0.181 C 
ATOM      7  C   UNL     1      18.714   7.041  17.902  1.00  0.00     0.214 C 
BRANCH   3   8
ATOM      8  C   UNL     1      17.361   3.831  15.420  1.00  0.00     0.073 C 
ATOM      9  O   UNL     1      18.143   3.862  14.433  1.00  0.00    -0.547 OA
ATOM     10  O   UNL     1      16.435   2.801  15.529  1.00  0.00    -0.547 OA
ENDBRANCH   3   8
BRANCH   4  11
ATOM     11  O   UNL     1      17.755   3.405  18.274  1.00  0.00    -0.387 OA
ATOM     12  H   UNL     1      17.266   2.883  17.586  1.00  0.00     0.211 HD
ENDBRANCH   4  11
BRANCH   6  13
ATOM     13  O   UNL     1      17.359   5.795  19.495  1.00  0.00    -0.387 OA
ATOM     14  H   UNL     1      16.565   5.422  19.034  1.00  0.00     0.211 HD
ENDBRANCH   6  13
BRANCH   7  15
ATOM     15  O   UNL     1      20.062   7.152  17.509  1.00  0.00    -0.384 OA
ATOM     16  H   UNL     1      20.627   6.843  18.262  1.00  0.00     0.211 HD
ENDBRANCH   7  15
ENDBRANCH   1   2
BRANCH   1  17
ATOM     17  C   UNL     1      17.379   9.003  14.972  1.00  0.00     0.172 A 
ATOM     18  C   UNL     1      17.030  10.348  15.114  1.00  0.00     0.205 A 
ATOM     19  C   UNL     1      16.968   8.301  13.828  1.00  0.00     0.097 A 
ATOM     20  C   UNL     1      16.267  10.993  14.126  1.00  0.00     0.188 A 
ATOM     21  C   UNL     1      16.205   8.918  12.832  1.00  0.00     0.134 A 
ATOM     22  C   UNL     1      15.874  10.299  12.952  1.00  0.00     0.111 A 
ATOM     23  O   UNL     1      15.911  12.260  14.313  1.00  0.00    -0.452 OA
ATOM     24  C   UNL     1      15.190  11.047  11.965  1.00  0.00     0.197 A 
ATOM     25  C   UNL     1      15.203  12.963  13.435  1.00  0.00     0.138 A 
ATOM     26  C   UNL     1      14.842  12.373  12.217  1.00  0.00     0.100 A 
ATOM     27  O   UNL     1      14.906  10.562  10.838  1.00  0.00    -0.289 OA
BRANCH  18  28
ATOM     28  O   UNL     1      17.443  11.034  16.259  1.00  0.00    -0.490 OA
ATOM     29  C   UNL     1      16.618  11.138  17.413  1.00  0.00     0.278 C 
ENDBRANCH  18  28
BRANCH  21  30
ATOM     30  O   UNL     1      15.782   8.102  11.779  1.00  0.00    -0.507 OA
ATOM     31  H   UNL     1      15.580   8.426  10.844  1.00  0.00     0.293 HD
ENDBRANCH  21  30
BRANCH  25  32
ATOM     32  C   UNL     1      14.832  14.363  13.764  1.00  0.00     0.017 A 
ATOM     33  C   UNL     1      13.486  14.686  14.018  1.00  0.00     0.012 A 
ATOM     34  C   UNL     1      15.793  15.394  13.794  1.00  0.00     0.012 A 
ATOM     35  C   UNL     1      13.113  16.000  14.315  1.00  0.00     0.001 A 
ATOM     36  C   UNL     1      15.415  16.708  14.091  1.00  0.00     0.001 A 
ATOM     37  C   UNL     1      14.077  17.010  14.354  1.00  0.00     0.000 A 
ENDBRANCH  25  32
ENDBRANCH   1  17
TORSDOF 9
ENDMDL
MODEL 4
REMARK VINA RESULT:    -7.875      6.195     10.961
REMARK INTER + INTRA:         -12.158
REMARK INTER:                 -10.802
REMARK INTRA:                  -1.356
REMARK UNBOUND:                -1.060
REMARK SMILES COc1c(O[C@H]2O[C@@H](C(=O)[O-])[C@H](O)[C@H](O)[C@H]2O)cc(O)c2c(=O)cc(-c3ccccc3)oc12
REMARK SMILES IDX 5 1 6 2 8 3 12 4 7 5 14 6 16 7 9 8 10 9 11 10 13 11 15 13
REMARK SMILES IDX 17 15 4 17 3 18 18 19 33 20 19 21 21 22 32 23 22 24 25 25
REMARK SMILES IDX 24 26 23 27 2 28 1 29 20 30 26 32 27 33 31 34 28 35 30 36
REMARK SMILES IDX 29 37
REMARK H PARENT 13 12 15 14 17 16 20 31
REMARK Flexibility Score: inf
ROOT
ATOM      1  O   UNL     1      18.380   8.269  14.916  1.00  0.00    -0.458 OA
ENDROOT
BRANCH   1   2
ATOM      2  C   UNL     1      17.927   9.598  15.174  1.00  0.00     0.339 C 
ATOM      3  C   UNL     1      18.525  11.842  15.032  1.00  0.00     0.199 C 
ATOM      4  C   UNL     1      17.217  12.270  14.329  1.00  0.00     0.180 C 
ATOM      5  O   UNL     1      18.876  10.520  14.667  1.00  0.00    -0.328 OA
ATOM      6  C   UNL     1      16.077  11.261  14.612  1.00  0.00     0.181 C 
ATOM      7  C   UNL     1      16.559   9.797  14.486  1.00  0.00     0.214 C 
BRANCH   3   8
ATOM      8  C   UNL     1      19.643  12.757  14.627  1.00  0.00     0.073 C 
ATOM      9  O   UNL     1      20.747  12.281  14.253  1.00  0.00    -0.547 OA
ATOM     10  O   UNL     1      19.484  14.134  14.713  1.00  0.00    -0.547 OA
ENDBRANCH   3   8
BRANCH   4  11
ATOM     11  O   UNL     1      16.845  13.555  14.758  1.00  0.00    -0.387 OA
ATOM     12  H   UNL     1      16.546  14.050  13.951  1.00  0.00     0.211 HD
ENDBRANCH   4  11
BRANCH   6  13
ATOM     13  O   UNL     1      15.482  11.487  15.867  1.00  0.00    -0.387 OA
ATOM     14  H   UNL     1      16.187  11.794  16.493  1.00  0.00     0.211 HD
ENDBRANCH   6  13
BRANCH   7  15
ATOM     15  O   UNL     1      16.610   9.399  13.136  1.00  0.00    -0.384 OA
ATOM     16  H   UNL     1      15.738   9.619  12.719  1.00  0.00     0.211 HD
ENDBRANCH   7  15
ENDBRANCH   1   2
BRANCH   1  17
ATOM     17  C   UNL     1      17.918   7.116  15.573  1.00  0.00     0.172 A 
ATOM     18  C   UNL     1      17.357   6.097  14.800  1.00  0.00     0.205 A 
ATOM     19  C   UNL     1      18.001   6.960  16.965  1.00  0.00     0.097 A 
ATOM     20  C   UNL     1      16.871   4.928  15.408  1.00  0.00     0.188 A 
ATOM     21  C   UNL     1      17.520   5.808  17.597  1.00  0.00     0.134 A 
ATOM     22  C   UNL     1      16.979   4.748  16.812  1.00  0.00     0.111 A 
ATOM     23  O   UNL     1      16.299   3.997  14.650  1.00  0.00    -0.452 OA
ATOM     24  C   UNL     1      16.552   3.504  17.334  1.00  0.00     0.197 A 
ATOM     25  C   UNL     1      15.822   2.851  15.126  1.00  0.00     0.138 A 
ATOM     26  C   UNL     1      15.959   2.566  16.490  1.00  0.00     0.100 A 
ATOM     27  O   UNL     1      16.718   3.195  18.542  1.00  0.00    -0.289 OA
BRANCH  18  28
ATOM     28  O   UNL     1      17.278   6.267  13.415  1.00  0.00    -0.490 OA
ATOM     29  C   UNL     1      18.192   5.636  12.526  1.00  0.00     0.278 C 
ENDBRANCH  18  28
BRANCH  21  30
ATOM     30  O   UNL     1      17.578   5.794  18.993  1.00  0.00    -0.507 OA
ATOM     31  H   UNL     1      18.223   6.337  19.549  1.00  0.00     0.293 HD
ENDBRANCH  21  30
BRANCH  25  32
ATOM     32  C   UNL     1      15.172   1.898  14.190  1.00  0.00     0.017 A 
ATOM     33  C   UNL     1      14.971   0.562  14.584  1.00  0.00     0.012 A 
ATOM     34  C   UNL     1      14.781   2.288  12.893  1.00  0.00     0.012 A 
ATOM     35  C   UNL     1      14.376  -0.355  13.713  1.00  0.00     0.001 A 
ATOM     36  C   UNL     1      14.187   1.366  12.024  1.00  0.00     0.001 A 
ATOM     37  C   UNL     1      13.982   0.047  12.435  1.00  0.00     0.000 A 
ENDBRANCH  25  32
ENDBRANCH   1  17
TORSDOF 9
ENDMDL
MODEL 5
REMARK VINA RESULT:    -7.840      1.828      3.564
REMARK INTER + INTRA:         -12.109
REMARK INTER:                 -10.907
REMARK INTRA:                  -1.202
REMARK UNBOUND:                -1.060
REMARK SMILES COc1c(O[C@H]2O[C@@H](C(=O)[O-])[C@H](O)[C@H](O)[C@H]2O)cc(O)c2c(=O)cc(-c3ccccc3)oc12
REMARK SMILES IDX 5 1 6 2 8 3 12 4 7 5 14 6 16 7 9 8 10 9 11 10 13 11 15 13
REMARK SMILES IDX 17 15 4 17 3 18 18 19 33 20 19 21 21 22 32 23 22 24 25 25
REMARK SMILES IDX 24 26 23 27 2 28 1 29 20 30 26 32 27 33 31 34 28 35 30 36
REMARK SMILES IDX 29 37
REMARK H PARENT 13 12 15 14 17 16 20 31
REMARK Flexibility Score: inf
ROOT
ATOM      1  O   UNL     1      15.203  14.487  12.376  1.00  0.00    -0.458 OA
ENDROOT
BRANCH   1   2
ATOM      2  C   UNL     1      16.070  13.387  12.651  1.00  0.00     0.339 C 
ATOM      3  C   UNL     1      18.104  12.800  13.617  1.00  0.00     0.199 C 
ATOM      4  C   UNL     1      17.509  11.651  14.462  1.00  0.00     0.180 C 
ATOM      5  O   UNL     1      17.154  13.836  13.445  1.00  0.00    -0.328 OA
ATOM      6  C   UNL     1      16.183  11.137  13.847  1.00  0.00     0.181 C 
ATOM      7  C   UNL     1      15.267  12.299  13.397  1.00  0.00     0.214 C 
BRANCH   3   8
ATOM      8  C   UNL     1      19.306  13.371  14.310  1.00  0.00     0.073 C 
ATOM      9  O   UNL     1      19.263  14.528  14.804  1.00  0.00    -0.547 OA
ATOM     10  O   UNL     1      20.491  12.648  14.362  1.00  0.00    -0.547 OA
ENDBRANCH   3   8
BRANCH   4  11
ATOM     11  O   UNL     1      18.437  10.602  14.560  1.00  0.00    -0.387 OA
ATOM     12  H   UNL     1      18.190  10.076  15.365  1.00  0.00     0.211 HD
ENDBRANCH   4  11
BRANCH   6  13
ATOM     13  O   UNL     1      16.417  10.242  12.785  1.00  0.00    -0.387 OA
ATOM     14  H   UNL     1      16.983   9.502  13.123  1.00  0.00     0.211 HD
ENDBRANCH   6  13
BRANCH   7  15
ATOM     15  O   UNL     1      14.575  12.845  14.495  1.00  0.00    -0.384 OA
ATOM     16  H   UNL     1      15.115  13.594  14.856  1.00  0.00     0.211 HD
ENDBRANCH   7  15
ENDBRANCH   1   2
BRANCH   1  17
ATOM     17  C   UNL     1      14.642  14.779  11.122  1.00  0.00     0.172 A 
ATOM     18  C   UNL     1      13.252  14.727  10.993  1.00  0.00     0.205 A 
ATOM     19  C   UNL     1      15.425  15.117  10.008  1.00  0.00     0.097 A 
ATOM     20  C   UNL     1      12.641  15.002   9.758  1.00  0.00     0.188 A 
ATOM     21  C   UNL     1      14.843  15.390   8.766  1.00  0.00     0.134 A 
ATOM     22  C   UNL     1      13.424  15.374   8.634  1.00  0.00     0.111 A 
ATOM     23  O   UNL     1      11.319  14.896   9.656  1.00  0.00    -0.452 OA
ATOM     24  C   UNL     1      12.726  15.725   7.455  1.00  0.00     0.197 A 
ATOM     25  C   UNL     1      10.645  15.148   8.538  1.00  0.00     0.138 A 
ATOM     26  C   UNL     1      11.338  15.594   7.406  1.00  0.00     0.100 A 
ATOM     27  O   UNL     1      13.315  16.187   6.443  1.00  0.00    -0.289 OA
BRANCH  18  28
ATOM     28  O   UNL     1      12.484  14.386  12.110  1.00  0.00    -0.490 OA
ATOM     29  C   UNL     1      11.853  13.118  12.230  1.00  0.00     0.278 C 
ENDBRANCH  18  28
BRANCH  21  30
ATOM     30  O   UNL     1      15.723  15.633   7.707  1.00  0.00    -0.507 OA
ATOM     31  H   UNL     1      15.443  15.797   6.751  1.00  0.00     0.293 HD
ENDBRANCH  21  30
BRANCH  25  32
ATOM     32  C   UNL     1       9.172  14.964   8.530  1.00  0.00     0.017 A 
ATOM     33  C   UNL     1       8.502  14.758   7.309  1.00  0.00     0.012 A 
ATOM     34  C   UNL     1       8.413  15.028   9.716  1.00  0.00     0.012 A 
ATOM     35  C   UNL     1       7.114  14.599   7.277  1.00  0.00     0.001 A 
ATOM     36  C   UNL     1       7.023  14.870   9.678  1.00  0.00     0.001 A 
ATOM     37  C   UNL     1       6.375  14.652   8.461  1.00  0.00     0.000 A 
ENDBRANCH  25  32
ENDBRANCH   1  17
TORSDOF 9
ENDMDL
MODEL 6
REMARK VINA RESULT:    -7.773      4.508      7.155
REMARK INTER + INTRA:         -12.013
REMARK INTER:                 -10.566
REMARK INTRA:                  -1.448
REMARK UNBOUND:                -1.060
REMARK SMILES COc1c(O[C@H]2O[C@@H](C(=O)[O-])[C@H](O)[C@H](O)[C@H]2O)cc(O)c2c(=O)cc(-c3ccccc3)oc12
REMARK SMILES IDX 5 1 6 2 8 3 12 4 7 5 14 6 16 7 9 8 10 9 11 10 13 11 15 13
REMARK SMILES IDX 17 15 4 17 3 18 18 19 33 20 19 21 21 22 32 23 22 24 25 25
REMARK SMILES IDX 24 26 23 27 2 28 1 29 20 30 26 32 27 33 31 34 28 35 30 36
REMARK SMILES IDX 29 37
REMARK H PARENT 13 12 15 14 17 16 20 31
REMARK Flexibility Score: inf
ROOT
ATOM      1  O   UNL     1      18.183   8.699  15.846  1.00  0.00    -0.458 OA
ENDROOT
BRANCH   1   2
ATOM      2  C   UNL     1      17.728   7.687  16.745  1.00  0.00     0.339 C 
ATOM      3  C   UNL     1      18.402   5.824  17.965  1.00  0.00     0.199 C 
ATOM      4  C   UNL     1      17.775   6.314  19.289  1.00  0.00     0.180 C 
ATOM      5  O   UNL     1      18.837   6.922  17.184  1.00  0.00    -0.328 OA
ATOM      6  C   UNL     1      16.638   7.332  19.024  1.00  0.00     0.181 C 
ATOM      7  C   UNL     1      17.032   8.367  17.944  1.00  0.00     0.214 C 
BRANCH   3   8
ATOM      8  C   UNL     1      19.588   4.951  18.255  1.00  0.00     0.073 C 
ATOM      9  O   UNL     1      20.709   5.215  17.746  1.00  0.00    -0.547 OA
ATOM     10  O   UNL     1      19.443   3.817  19.044  1.00  0.00    -0.547 OA
ENDBRANCH   3   8
BRANCH   4  11
ATOM     11  O   UNL     1      17.283   5.218  20.017  1.00  0.00    -0.387 OA
ATOM     12  H   UNL     1      18.038   4.580  20.118  1.00  0.00     0.211 HD
ENDBRANCH   4  11
BRANCH   6  13
ATOM     13  O   UNL     1      15.433   6.689  18.685  1.00  0.00    -0.387 OA
ATOM     14  H   UNL     1      15.326   6.729  17.701  1.00  0.00     0.211 HD
ENDBRANCH   6  13
BRANCH   7  15
ATOM     15  O   UNL     1      17.845   9.379  18.492  1.00  0.00    -0.384 OA
ATOM     16  H   UNL     1      17.425   9.685  19.336  1.00  0.00     0.211 HD
ENDBRANCH   7  15
ENDBRANCH   1   2
BRANCH   1  17
ATOM     17  C   UNL     1      17.392   9.325  14.868  1.00  0.00     0.172 A 
ATOM     18  C   UNL     1      17.100  10.682  15.026  1.00  0.00     0.205 A 
ATOM     19  C   UNL     1      16.892   8.637  13.752  1.00  0.00     0.097 A 
ATOM     20  C   UNL     1      16.306  11.353  14.081  1.00  0.00     0.188 A 
ATOM     21  C   UNL     1      16.095   9.280  12.799  1.00  0.00     0.134 A 
ATOM     22  C   UNL     1      15.821  10.673  12.933  1.00  0.00     0.111 A 
ATOM     23  O   UNL     1      16.006  12.633  14.285  1.00  0.00    -0.452 OA
ATOM     24  C   UNL     1      15.109  11.444  11.985  1.00  0.00     0.197 A 
ATOM     25  C   UNL     1      15.275  13.360  13.446  1.00  0.00     0.138 A 
ATOM     26  C   UNL     1      14.824  12.782  12.253  1.00  0.00     0.100 A 
ATOM     27  O   UNL     1      14.745  10.969  10.877  1.00  0.00    -0.289 OA
BRANCH  18  28
ATOM     28  O   UNL     1      17.602  11.354  16.144  1.00  0.00    -0.490 OA
ATOM     29  C   UNL     1      18.861  12.014  16.122  1.00  0.00     0.278 C 
ENDBRANCH  18  28
BRANCH  21  30
ATOM     30  O   UNL     1      15.584   8.480  11.774  1.00  0.00    -0.507 OA
ATOM     31  H   UNL     1      15.124   7.592  11.910  1.00  0.00     0.293 HD
ENDBRANCH  21  30
BRANCH  25  32
ATOM     32  C   UNL     1      14.973  14.772  13.793  1.00  0.00     0.017 A 
ATOM     33  C   UNL     1      16.028  15.690  13.955  1.00  0.00     0.012 A 
ATOM     34  C   UNL     1      13.651  15.215  14.002  1.00  0.00     0.012 A 
ATOM     35  C   UNL     1      15.767  17.020  14.296  1.00  0.00     0.001 A 
ATOM     36  C   UNL     1      13.395  16.547  14.344  1.00  0.00     0.001 A 
ATOM     37  C   UNL     1      14.452  17.449  14.488  1.00  0.00     0.000 A 
ENDBRANCH  25  32
ENDBRANCH   1  17
TORSDOF 9
ENDMDL
MODEL 7
REMARK VINA RESULT:    -7.734      3.377      5.985
REMARK INTER + INTRA:         -11.959
REMARK INTER:                 -10.748
REMARK INTRA:                  -1.211
REMARK UNBOUND:                -1.060
REMARK SMILES COc1c(O[C@H]2O[C@@H](C(=O)[O-])[C@H](O)[C@H](O)[C@H]2O)cc(O)c2c(=O)cc(-c3ccccc3)oc12
REMARK SMILES IDX 5 1 6 2 8 3 12 4 7 5 14 6 16 7 9 8 10 9 11 10 13 11 15 13
REMARK SMILES IDX 17 15 4 17 3 18 18 19 33 20 19 21 21 22 32 23 22 24 25 25
REMARK SMILES IDX 24 26 23 27 2 28 1 29 20 30 26 32 27 33 31 34 28 35 30 36
REMARK SMILES IDX 29 37
REMARK H PARENT 13 12 15 14 17 16 20 31
REMARK Flexibility Score: inf
ROOT
ATOM      1  O   UNL     1      15.671   8.771  13.869  1.00  0.00    -0.458 OA
ENDROOT
BRANCH   1   2
ATOM      2  C   UNL     1      16.634   7.726  13.992  1.00  0.00     0.339 C 
ATOM      3  C   UNL     1      17.642   6.275  15.508  1.00  0.00     0.199 C 
ATOM      4  C   UNL     1      17.402   5.015  14.646  1.00  0.00     0.180 C 
ATOM      5  O   UNL     1      16.601   7.216  15.314  1.00  0.00    -0.328 OA
ATOM      6  C   UNL     1      17.218   5.389  13.153  1.00  0.00     0.181 C 
ATOM      7  C   UNL     1      16.292   6.615  12.976  1.00  0.00     0.214 C 
BRANCH   3   8
ATOM      8  C   UNL     1      17.674   5.899  16.960  1.00  0.00     0.073 C 
ATOM      9  O   UNL     1      18.121   6.708  17.815  1.00  0.00    -0.547 OA
ATOM     10  O   UNL     1      17.262   4.635  17.363  1.00  0.00    -0.547 OA
ENDBRANCH   3   8
BRANCH   4  11
ATOM     11  O   UNL     1      18.478   4.125  14.793  1.00  0.00    -0.387 OA
ATOM     12  H   UNL     1      18.302   3.597  15.616  1.00  0.00     0.211 HD
ENDBRANCH   4  11
BRANCH   6  13
ATOM     13  O   UNL     1      18.455   5.597  12.514  1.00  0.00    -0.387 OA
ATOM     14  H   UNL     1      18.375   6.400  11.938  1.00  0.00     0.211 HD
ENDBRANCH   6  13
BRANCH   7  15
ATOM     15  O   UNL     1      14.939   6.239  13.075  1.00  0.00    -0.384 OA
ATOM     16  H   UNL     1      14.386   7.054  12.962  1.00  0.00     0.211 HD
ENDBRANCH   7  15
ENDBRANCH   1   2
BRANCH   1  17
ATOM     17  C   UNL     1      15.968  10.144  13.838  1.00  0.00     0.172 A 
ATOM     18  C   UNL     1      15.644  10.862  12.684  1.00  0.00     0.205 A 
ATOM     19  C   UNL     1      16.573  10.807  14.916  1.00  0.00     0.097 A 
ATOM     20  C   UNL     1      15.929  12.235  12.598  1.00  0.00     0.188 A 
ATOM     21  C   UNL     1      16.872  12.172  14.854  1.00  0.00     0.134 A 
ATOM     22  C   UNL     1      16.513  12.920  13.696  1.00  0.00     0.111 A 
ATOM     23  O   UNL     1      15.652  12.881  11.468  1.00  0.00    -0.452 OA
ATOM     24  C   UNL     1      16.681  14.319  13.562  1.00  0.00     0.197 A 
ATOM     25  C   UNL     1      15.870  14.180  11.291  1.00  0.00     0.138 A 
ATOM     26  C   UNL     1      16.373  14.942  12.353  1.00  0.00     0.100 A 
ATOM     27  O   UNL     1      17.073  15.038  14.518  1.00  0.00    -0.289 OA
BRANCH  18  28
ATOM     28  O   UNL     1      15.044  10.189  11.616  1.00  0.00    -0.490 OA
ATOM     29  C   UNL     1      15.811   9.543  10.608  1.00  0.00     0.278 C 
ENDBRANCH  18  28
BRANCH  21  30
ATOM     30  O   UNL     1      17.549  12.710  15.952  1.00  0.00    -0.507 OA
ATOM     31  H   UNL     1      18.550  12.688  16.080  1.00  0.00     0.293 HD
ENDBRANCH  21  30
BRANCH  25  32
ATOM     32  C   UNL     1      15.554  14.789   9.974  1.00  0.00     0.017 A 
ATOM     33  C   UNL     1      16.595  15.290   9.170  1.00  0.00     0.012 A 
ATOM     34  C   UNL     1      14.226  14.915   9.518  1.00  0.00     0.012 A 
ATOM     35  C   UNL     1      16.318  15.881   7.934  1.00  0.00     0.001 A 
ATOM     36  C   UNL     1      13.954  15.509   8.281  1.00  0.00     0.001 A 
ATOM     37  C   UNL     1      14.999  15.989   7.489  1.00  0.00     0.000 A 
ENDBRANCH  25  32
ENDBRANCH   1  17
TORSDOF 9
ENDMDL
MODEL 8
REMARK VINA RESULT:    -7.566      8.362     12.897
REMARK INTER + INTRA:         -11.722
REMARK INTER:                 -10.369
REMARK INTRA:                  -1.353
REMARK UNBOUND:                -1.060
REMARK SMILES COc1c(O[C@H]2O[C@@H](C(=O)[O-])[C@H](O)[C@H](O)[C@H]2O)cc(O)c2c(=O)cc(-c3ccccc3)oc12
REMARK SMILES IDX 5 1 6 2 8 3 12 4 7 5 14 6 16 7 9 8 10 9 11 10 13 11 15 13
REMARK SMILES IDX 17 15 4 17 3 18 18 19 33 20 19 21 21 22 32 23 22 24 25 25
REMARK SMILES IDX 24 26 23 27 2 28 1 29 20 30 26 32 27 33 31 34 28 35 30 36
REMARK SMILES IDX 29 37
REMARK H PARENT 13 12 15 14 17 16 20 31
REMARK Flexibility Score: inf
ROOT
ATOM      1  O   UNL     1      18.416   7.016  17.684  1.00  0.00    -0.458 OA
ENDROOT
BRANCH   1   2
ATOM      2  C   UNL     1      18.513   7.150  16.267  1.00  0.00     0.339 C 
ATOM      3  C   UNL     1      17.610   6.423  14.249  1.00  0.00     0.199 C 
ATOM      4  C   UNL     1      17.424   7.847  13.680  1.00  0.00     0.180 C 
ATOM      5  O   UNL     1      17.459   6.426  15.657  1.00  0.00    -0.328 OA
ATOM      6  C   UNL     1      18.380   8.851  14.371  1.00  0.00     0.181 C 
ATOM      7  C   UNL     1      18.420   8.648  15.904  1.00  0.00     0.214 C 
BRANCH   3   8
ATOM      8  C   UNL     1      16.578   5.503  13.665  1.00  0.00     0.073 C 
ATOM      9  O   UNL     1      15.468   5.957  13.283  1.00  0.00    -0.547 OA
ATOM     10  O   UNL     1      16.821   4.137  13.594  1.00  0.00    -0.547 OA
ENDBRANCH   3   8
BRANCH   4  11
ATOM     11  O   UNL     1      17.649   7.839  12.294  1.00  0.00    -0.387 OA
ATOM     12  H   UNL     1      17.650   8.787  11.999  1.00  0.00     0.211 HD
ENDBRANCH   4  11
BRANCH   6  13
ATOM     13  O   UNL     1      19.676   8.796  13.823  1.00  0.00    -0.387 OA
ATOM     14  H   UNL     1      19.934   9.712  13.546  1.00  0.00     0.211 HD
ENDBRANCH   6  13
BRANCH   7  15
ATOM     15  O   UNL     1      17.304   9.248  16.518  1.00  0.00    -0.384 OA
ATOM     16  H   UNL     1      17.196   8.845  17.418  1.00  0.00     0.211 HD
ENDBRANCH   7  15
ENDBRANCH   1   2
BRANCH   1  17
ATOM     17  C   UNL     1      17.873   5.908  18.356  1.00  0.00     0.172 A 
ATOM     18  C   UNL     1      16.538   5.974  18.764  1.00  0.00     0.205 A 
ATOM     19  C   UNL     1      18.620   4.752  18.627  1.00  0.00     0.097 A 
ATOM     20  C   UNL     1      15.949   4.897  19.447  1.00  0.00     0.188 A 
ATOM     21  C   UNL     1      18.060   3.668  19.310  1.00  0.00     0.134 A 
ATOM     22  C   UNL     1      16.689   3.712  19.699  1.00  0.00     0.111 A 
ATOM     23  O   UNL     1      14.692   5.010  19.865  1.00  0.00    -0.452 OA
ATOM     24  C   UNL     1      15.995   2.641  20.308  1.00  0.00     0.197 A 
ATOM     25  C   UNL     1      14.040   4.045  20.506  1.00  0.00     0.138 A 
ATOM     26  C   UNL     1      14.676   2.817  20.725  1.00  0.00     0.100 A 
ATOM     27  O   UNL     1      16.520   1.507  20.462  1.00  0.00    -0.289 OA
BRANCH  18  28
ATOM     28  O   UNL     1      15.806   7.133  18.490  1.00  0.00    -0.490 OA
ATOM     29  C   UNL     1      14.783   7.160  17.502  1.00  0.00     0.278 C 
ENDBRANCH  18  28
BRANCH  21  30
ATOM     30  O   UNL     1      18.919   2.604  19.599  1.00  0.00    -0.507 OA
ATOM     31  H   UNL     1      19.913   2.689  19.749  1.00  0.00     0.293 HD
ENDBRANCH  21  30
BRANCH  25  32
ATOM     32  C   UNL     1      12.647   4.294  20.957  1.00  0.00     0.017 A 
ATOM     33  C   UNL     1      11.947   3.287  21.647  1.00  0.00     0.012 A 
ATOM     34  C   UNL     1      11.986   5.508  20.677  1.00  0.00     0.012 A 
ATOM     35  C   UNL     1      10.630   3.495  22.066  1.00  0.00     0.001 A 
ATOM     36  C   UNL     1      10.667   5.711  21.097  1.00  0.00     0.001 A 
ATOM     37  C   UNL     1       9.991   4.706  21.793  1.00  0.00     0.000 A 
ENDBRANCH  25  32
ENDBRANCH   1  17
TORSDOF 9
ENDMDL
MODEL 9
REMARK VINA RESULT:    -7.553      7.067     11.298
REMARK INTER + INTRA:         -11.704
REMARK INTER:                 -10.540
REMARK INTRA:                  -1.164
REMARK UNBOUND:                -1.060
REMARK SMILES COc1c(O[C@H]2O[C@@H](C(=O)[O-])[C@H](O)[C@H](O)[C@H]2O)cc(O)c2c(=O)cc(-c3ccccc3)oc12
REMARK SMILES IDX 5 1 6 2 8 3 12 4 7 5 14 6 16 7 9 8 10 9 11 10 13 11 15 13
REMARK SMILES IDX 17 15 4 17 3 18 18 19 33 20 19 21 21 22 32 23 22 24 25 25
REMARK SMILES IDX 24 26 23 27 2 28 1 29 20 30 26 32 27 33 31 34 28 35 30 36
REMARK SMILES IDX 29 37
REMARK H PARENT 13 12 15 14 17 16 20 31
REMARK Flexibility Score: inf
ROOT
ATOM      1  O   UNL     1      18.542   7.435  15.961  1.00  0.00    -0.458 OA
ENDROOT
BRANCH   1   2
ATOM      2  C   UNL     1      17.958   8.737  15.943  1.00  0.00     0.339 C 
ATOM      3  C   UNL     1      17.956  10.805  17.010  1.00  0.00     0.199 C 
ATOM      4  C   UNL     1      18.122  11.615  15.705  1.00  0.00     0.180 C 
ATOM      5  O   UNL     1      18.605   9.551  16.905  1.00  0.00    -0.328 OA
ATOM      6  C   UNL     1      17.635  10.801  14.480  1.00  0.00     0.181 C 
ATOM      7  C   UNL     1      18.124   9.335  14.529  1.00  0.00     0.214 C 
BRANCH   3   8
ATOM      8  C   UNL     1      18.564  11.558  18.157  1.00  0.00     0.073 C 
ATOM      9  O   UNL     1      18.233  12.753  18.378  1.00  0.00    -0.547 OA
ATOM     10  O   UNL     1      19.536  10.959  18.948  1.00  0.00    -0.547 OA
ENDBRANCH   3   8
BRANCH   4  11
ATOM     11  O   UNL     1      17.411  12.822  15.799  1.00  0.00    -0.387 OA
ATOM     12  H   UNL     1      16.814  12.864  15.007  1.00  0.00     0.211 HD
ENDBRANCH   4  11
BRANCH   6  13
ATOM     13  O   UNL     1      16.235  10.859  14.342  1.00  0.00    -0.387 OA
ATOM     14  H   UNL     1      15.829  10.384  15.111  1.00  0.00     0.211 HD
ENDBRANCH   6  13
BRANCH   7  15
ATOM     15  O   UNL     1      19.460   9.238  14.094  1.00  0.00    -0.384 OA
ATOM     16  H   UNL     1      19.544   8.418  13.543  1.00  0.00     0.211 HD
ENDBRANCH   7  15
ENDBRANCH   1   2
BRANCH   1  17
ATOM     17  C   UNL     1      17.885   6.261  16.365  1.00  0.00     0.172 A 
ATOM     18  C   UNL     1      17.409   5.398  15.375  1.00  0.00     0.205 A 
ATOM     19  C   UNL     1      17.694   5.932  17.716  1.00  0.00     0.097 A 
ATOM     20  C   UNL     1      16.737   4.215  15.725  1.00  0.00     0.188 A 
ATOM     21  C   UNL     1      17.024   4.764  18.092  1.00  0.00     0.134 A 
ATOM     22  C   UNL     1      16.566   3.860  17.089  1.00  0.00     0.111 A 
ATOM     23  O   UNL     1      16.253   3.439  14.759  1.00  0.00    -0.452 OA
ATOM     24  C   UNL     1      15.963   2.608  17.354  1.00  0.00     0.197 A 
ATOM     25  C   UNL     1      15.616   2.295  14.985  1.00  0.00     0.138 A 
ATOM     26  C   UNL     1      15.474   1.837  16.301  1.00  0.00     0.100 A 
ATOM     27  O   UNL     1      15.877   2.143  18.521  1.00  0.00    -0.289 OA
BRANCH  18  28
ATOM     28  O   UNL     1      17.603   5.739  14.033  1.00  0.00    -0.490 OA
ATOM     29  C   UNL     1      16.572   6.327  13.250  1.00  0.00     0.278 C 
ENDBRANCH  18  28
BRANCH  21  30
ATOM     30  O   UNL     1      16.818   4.578  19.462  1.00  0.00    -0.507 OA
ATOM     31  H   UNL     1      17.496   4.188  20.099  1.00  0.00     0.293 HD
ENDBRANCH  21  30
BRANCH  25  32
ATOM     32  C   UNL     1      15.088   1.525  13.829  1.00  0.00     0.017 A 
ATOM     33  C   UNL     1      14.778   2.194  12.630  1.00  0.00     0.012 A 
ATOM     34  C   UNL     1      14.851   0.138  13.912  1.00  0.00     0.012 A 
ATOM     35  C   UNL     1      14.265   1.491  11.536  1.00  0.00     0.001 A 
ATOM     36  C   UNL     1      14.337  -0.560  12.814  1.00  0.00     0.001 A 
ATOM     37  C   UNL     1      14.047   0.115  11.627  1.00  0.00     0.000 A 
ENDBRANCH  25  32
ENDBRANCH   1  17
TORSDOF 9
ENDMDL
