MODEL 1
REMARK VINA RESULT:    -2.355      0.000      0.000
REMARK INTER + INTRA:          -2.684
REMARK INTER:                  -2.630
REMARK INTRA:                  -0.054
REMARK UNBOUND:                -0.054
REMARK SMILES CCCC(=O)[O-]
REMARK SMILES IDX 3 1 4 2 5 3 6 4 2 5 1 6
REMARK H PARENT
REMARK Flexibility Score: inf
ROOT
ATOM      1  C   UNL     1      73.773  30.775  60.416  1.00  0.00     0.052 C 
ENDROOT
BRANCH   1   2
ATOM      2  C   UNL     1      73.330  29.988  61.610  1.00  0.00     0.041 C 
ATOM      3  O   UNL     1      72.424  29.121  61.499  1.00  0.00    -0.550 OA
ATOM      4  O   UNL     1      73.941  30.191  62.842  1.00  0.00    -0.550 OA
ENDBRANCH   1   2
BRANCH   1   5
ATOM      5  C   UNL     1      72.605  31.531  59.769  1.00  0.00     0.003 C 
ATOM      6  C   UNL     1      72.278  32.833  60.501  1.00  0.00     0.004 C 
ENDBRANCH   1   5
TORSDOF 2
ENDMDL
MODEL 2
REMARK VINA RESULT:    -2.306      2.267      3.329
REMARK INTER + INTRA:          -2.630
REMARK INTER:                  -2.604
REMARK INTRA:                  -0.026
REMARK UNBOUND:                -0.054
REMARK SMILES CCCC(=O)[O-]
REMARK SMILES IDX 3 1 4 2 5 3 6 4 2 5 1 6
REMARK H PARENT
REMARK Flexibility Score: inf
ROOT
ATOM      1  C   UNL     1      73.603  30.934  60.529  1.00  0.00     0.052 C 
ENDROOT
BRANCH   1   2
ATOM      2  C   UNL     1      72.566  31.925  60.097  1.00  0.00     0.041 C 
ATOM      3  O   UNL     1      72.360  32.965  60.775  1.00  0.00    -0.550 OA
ATOM      4  O   UNL     1      71.849  31.714  58.925  1.00  0.00    -0.550 OA
ENDBRANCH   1   2
BRANCH   1   5
ATOM      5  C   UNL     1      73.131  30.107  61.731  1.00  0.00     0.003 C 
ATOM      6  C   UNL     1      74.125  30.151  62.893  1.00  0.00     0.004 C 
ENDBRANCH   1   5
TORSDOF 2
ENDMDL
MODEL 3
REMARK VINA RESULT:    -2.294      0.661      1.514
REMARK INTER + INTRA:          -2.616
REMARK INTER:                  -2.606
REMARK INTRA:                  -0.010
REMARK UNBOUND:                -0.054
REMARK SMILES CCCC(=O)[O-]
REMARK SMILES IDX 3 1 4 2 5 3 6 4 2 5 1 6
REMARK H PARENT
REMARK Flexibility Score: inf
ROOT
ATOM      1  C   UNL     1      73.480  31.013  60.453  1.00  0.00     0.052 C 
ENDROOT
BRANCH   1   2
ATOM      2  C   UNL     1      73.212  30.050  61.568  1.00  0.00     0.041 C 
ATOM      3  O   UNL     1      73.788  30.189  62.678  1.00  0.00    -0.550 OA
ATOM      4  O   UNL     1      72.300  29.017  61.390  1.00  0.00    -0.550 OA
ENDBRANCH   1   2
BRANCH   1   5
ATOM      5  C   UNL     1      72.547  32.229  60.515  1.00  0.00     0.003 C 
ATOM      6  C   UNL     1      72.001  32.613  59.139  1.00  0.00     0.004 C 
ENDBRANCH   1   5
TORSDOF 2
ENDMDL
MODEL 4
REMARK VINA RESULT:    -2.209      2.508      3.232
REMARK INTER + INTRA:          -2.522
REMARK INTER:                  -2.485
REMARK INTRA:                  -0.037
REMARK UNBOUND:                -0.054
REMARK SMILES CCCC(=O)[O-]
REMARK SMILES IDX 3 1 4 2 5 3 6 4 2 5 1 6
REMARK H PARENT
REMARK Flexibility Score: inf
ROOT
ATOM      1  C   UNL     1      72.730  30.823  59.699  1.00  0.00     0.052 C 
ENDROOT
BRANCH   1   2
ATOM      2  C   UNL     1      72.102  32.181  59.636  1.00  0.00     0.041 C 
ATOM      3  O   UNL     1      71.315  32.473  58.699  1.00  0.00    -0.550 OA
ATOM      4  O   UNL     1      72.364  33.114  60.632  1.00  0.00    -0.550 OA
ENDBRANCH   1   2
BRANCH   1   5
ATOM      5  C   UNL     1      73.826  30.753  60.770  1.00  0.00     0.003 C 
ATOM      6  C   UNL     1      73.371  29.998  62.020  1.00  0.00     0.004 C 
ENDBRANCH   1   5
TORSDOF 2
ENDMDL
MODEL 5
REMARK VINA RESULT:    -2.203     22.583     23.313
REMARK INTER + INTRA:          -2.514
REMARK INTER:                  -2.496
REMARK INTRA:                  -0.018
REMARK UNBOUND:                -0.054
REMARK SMILES CCCC(=O)[O-]
REMARK SMILES IDX 3 1 4 2 5 3 6 4 2 5 1 6
REMARK H PARENT
REMARK Flexibility Score: inf
ROOT
ATOM      1  C   UNL     1      57.956  18.120  50.136  1.00  0.00     0.052 C 
ENDROOT
BRANCH   1   2
ATOM      2  C   UNL     1      56.639  18.336  50.816  1.00  0.00     0.041 C 
ATOM      3  O   UNL     1      55.599  18.535  50.136  1.00  0.00    -0.550 OA
ATOM      4  O   UNL     1      56.557  18.286  52.203  1.00  0.00    -0.550 OA
ENDBRANCH   1   2
BRANCH   1   5
ATOM      5  C   UNL     1      58.220  16.633  49.870  1.00  0.00     0.003 C 
ATOM      6  C   UNL     1      58.560  16.356  48.405  1.00  0.00     0.004 C 
ENDBRANCH   1   5
TORSDOF 2
ENDMDL
MODEL 6
REMARK VINA RESULT:    -2.184     22.720     23.235
REMARK INTER + INTRA:          -2.494
REMARK INTER:                  -2.480
REMARK INTRA:                  -0.014
REMARK UNBOUND:                -0.054
REMARK SMILES CCCC(=O)[O-]
REMARK SMILES IDX 3 1 4 2 5 3 6 4 2 5 1 6
REMARK H PARENT
REMARK Flexibility Score: inf
ROOT
ATOM      1  C   UNL     1      57.895  18.121  50.255  1.00  0.00     0.052 C 
ENDROOT
BRANCH   1   2
ATOM      2  C   UNL     1      58.357  16.754  49.852  1.00  0.00     0.041 C 
ATOM      3  O   UNL     1      58.740  15.931  50.724  1.00  0.00    -0.550 OA
ATOM      4  O   UNL     1      58.335  16.380  48.514  1.00  0.00    -0.550 OA
ENDBRANCH   1   2
BRANCH   1   5
ATOM      5  C   UNL     1      56.370  18.183  50.406  1.00  0.00     0.003 C 
ATOM      6  C   UNL     1      55.942  18.844  51.717  1.00  0.00     0.004 C 
ENDBRANCH   1   5
TORSDOF 2
ENDMDL
MODEL 7
REMARK VINA RESULT:    -2.176     21.509     21.973
REMARK INTER + INTRA:          -2.485
REMARK INTER:                  -2.479
REMARK INTRA:                  -0.006
REMARK UNBOUND:                -0.054
REMARK SMILES CCCC(=O)[O-]
REMARK SMILES IDX 3 1 4 2 5 3 6 4 2 5 1 6
REMARK H PARENT
REMARK Flexibility Score: inf
ROOT
ATOM      1  C   UNL     1      54.368  26.708  50.459  1.00  0.00     0.052 C 
ENDROOT
BRANCH   1   2
ATOM      2  C   UNL     1      55.112  25.773  49.557  1.00  0.00     0.041 C 
ATOM      3  O   UNL     1      54.531  25.239  48.577  1.00  0.00    -0.550 OA
ATOM      4  O   UNL     1      56.460  25.517  49.782  1.00  0.00    -0.550 OA
ENDBRANCH   1   2
BRANCH   1   5
ATOM      5  C   UNL     1      53.951  27.991  49.729  1.00  0.00     0.003 C 
ATOM      6  C   UNL     1      53.887  29.198  50.665  1.00  0.00     0.004 C 
ENDBRANCH   1   5
TORSDOF 2
ENDMDL
MODEL 8
REMARK VINA RESULT:    -2.077      8.526      9.037
REMARK INTER + INTRA:          -2.374
REMARK INTER:                  -2.305
REMARK INTRA:                  -0.069
REMARK UNBOUND:                -0.054
REMARK SMILES CCCC(=O)[O-]
REMARK SMILES IDX 3 1 4 2 5 3 6 4 2 5 1 6
REMARK H PARENT
REMARK Flexibility Score: inf
ROOT
ATOM      1  C   UNL     1      64.154  34.767  60.805  1.00  0.00     0.052 C 
ENDROOT
BRANCH   1   2
ATOM      2  C   UNL     1      64.883  33.597  60.220  1.00  0.00     0.041 C 
ATOM      3  O   UNL     1      65.127  32.584  60.925  1.00  0.00    -0.550 OA
ATOM      4  O   UNL     1      65.265  33.614  58.883  1.00  0.00    -0.550 OA
ENDBRANCH   1   2
BRANCH   1   5
ATOM      5  C   UNL     1      64.894  35.350  62.015  1.00  0.00     0.003 C 
ATOM      6  C   UNL     1      66.231  35.985  61.629  1.00  0.00     0.004 C 
ENDBRANCH   1   5
TORSDOF 2
ENDMDL
MODEL 9
REMARK VINA RESULT:    -2.070      1.652      1.974
REMARK INTER + INTRA:          -2.366
REMARK INTER:                  -2.324
REMARK INTRA:                  -0.042
REMARK UNBOUND:                -0.054
REMARK SMILES CCCC(=O)[O-]
REMARK SMILES IDX 3 1 4 2 5 3 6 4 2 5 1 6
REMARK H PARENT
REMARK Flexibility Score: inf
ROOT
ATOM      1  C   UNL     1      73.100  29.909  61.734  1.00  0.00     0.052 C 
ENDROOT
BRANCH   1   2
ATOM      2  C   UNL     1      72.282  28.825  61.103  1.00  0.00     0.041 C 
ATOM      3  O   UNL     1      71.025  28.901  61.096  1.00  0.00    -0.550 OA
ATOM      4  O   UNL     1      72.909  27.746  60.493  1.00  0.00    -0.550 OA
ENDBRANCH   1   2
BRANCH   1   5
ATOM      5  C   UNL     1      73.615  30.911  60.692  1.00  0.00     0.003 C 
ATOM      6  C   UNL     1      72.618  32.041  60.430  1.00  0.00     0.004 C 
ENDBRANCH   1   5
TORSDOF 2
ENDMDL
