MODEL 1
REMARK VINA RESULT:    -3.736      0.000      0.000
REMARK INTER + INTRA:          -6.585
REMARK INTER:                  -5.921
REMARK INTRA:                  -0.664
REMARK UNBOUND:                -0.664
REMARK SMILES CCCCCCCCCCCC(=O)[O-]
REMARK SMILES IDX 7 1 8 2 9 3 10 4 11 5 12 6 13 7 14 8 6 9 5 10 4 11 3 12 2 13
REMARK SMILES IDX 1 14
REMARK H PARENT
REMARK Flexibility Score: inf
ROOT
ATOM      1  C   UNL     1      60.759  32.060  61.041  1.00  0.00     0.000 C 
ENDROOT
BRANCH   1   2
ATOM      2  C   UNL     1      61.289  30.783  61.709  1.00  0.00     0.000 C 
BRANCH   2   3
ATOM      3  C   UNL     1      62.340  30.052  60.855  1.00  0.00     0.000 C 
BRANCH   3   4
ATOM      4  C   UNL     1      63.767  30.039  61.443  1.00  0.00     0.006 C 
BRANCH   4   5
ATOM      5  C   UNL     1      64.848  30.598  60.505  1.00  0.00     0.053 C 
BRANCH   5   6
ATOM      6  C   UNL     1      65.994  29.648  60.339  1.00  0.00     0.041 C 
ATOM      7  O   UNL     1      66.836  29.826  59.420  1.00  0.00    -0.550 OA
ATOM      8  O   UNL     1      66.112  28.547  61.177  1.00  0.00    -0.550 OA
ENDBRANCH   5   6
ENDBRANCH   4   5
ENDBRANCH   3   4
ENDBRANCH   2   3
ENDBRANCH   1   2
BRANCH   1   9
ATOM      9  C   UNL     1      61.912  32.968  60.597  1.00  0.00     0.000 C 
BRANCH   9  10
ATOM     10  C   UNL     1      61.463  34.435  60.531  1.00  0.00    -0.000 C 
BRANCH  10  11
ATOM     11  C   UNL     1      62.571  35.412  60.958  1.00  0.00    -0.000 C 
BRANCH  11  12
ATOM     12  C   UNL     1      63.911  34.704  61.228  1.00  0.00    -0.000 C 
BRANCH  12  13
ATOM     13  C   UNL     1      65.052  35.695  61.510  1.00  0.00    -0.003 C 
ATOM     14  C   UNL     1      64.573  36.958  62.223  1.00  0.00     0.004 C 
ENDBRANCH  12  13
ENDBRANCH  11  12
ENDBRANCH  10  11
ENDBRANCH   9  10
ENDBRANCH   1   9
TORSDOF 10
ENDMDL
MODEL 2
REMARK VINA RESULT:    -3.593     12.497     14.036
REMARK INTER + INTRA:          -6.358
REMARK INTER:                  -5.700
REMARK INTRA:                  -0.657
REMARK UNBOUND:                -0.664
REMARK SMILES CCCCCCCCCCCC(=O)[O-]
REMARK SMILES IDX 7 1 8 2 9 3 10 4 11 5 12 6 13 7 14 8 6 9 5 10 4 11 3 12 2 13
REMARK SMILES IDX 1 14
REMARK H PARENT
REMARK Flexibility Score: inf
ROOT
ATOM      1  C   UNL     1      58.387  29.598  49.684  1.00  0.00     0.000 C 
ENDROOT
BRANCH   1   2
ATOM      2  C   UNL     1      59.402  28.678  48.990  1.00  0.00     0.000 C 
BRANCH   2   3
ATOM      3  C   UNL     1      59.375  27.238  49.534  1.00  0.00     0.000 C 
BRANCH   3   4
ATOM      4  C   UNL     1      60.750  26.667  49.939  1.00  0.00     0.006 C 
BRANCH   4   5
ATOM      5  C   UNL     1      60.724  25.765  51.183  1.00  0.00     0.053 C 
BRANCH   5   6
ATOM      6  C   UNL     1      59.812  24.591  51.007  1.00  0.00     0.041 C 
ATOM      7  O   UNL     1      60.080  23.702  50.156  1.00  0.00    -0.550 OA
ATOM      8  O   UNL     1      58.647  24.495  51.757  1.00  0.00    -0.550 OA
ENDBRANCH   5   6
ENDBRANCH   4   5
ENDBRANCH   3   4
ENDBRANCH   2   3
ENDBRANCH   1   2
BRANCH   1   9
ATOM      9  C   UNL     1      57.671  28.865  50.825  1.00  0.00     0.000 C 
BRANCH   9  10
ATOM     10  C   UNL     1      56.155  29.103  50.767  1.00  0.00    -0.000 C 
BRANCH  10  11
ATOM     11  C   UNL     1      55.389  27.895  50.203  1.00  0.00    -0.000 C 
BRANCH  11  12
ATOM     12  C   UNL     1      53.872  28.142  50.125  1.00  0.00    -0.000 C 
BRANCH  12  13
ATOM     13  C   UNL     1      53.118  26.968  49.481  1.00  0.00    -0.003 C 
ATOM     14  C   UNL     1      54.016  25.758  49.228  1.00  0.00     0.004 C 
ENDBRANCH  12  13
ENDBRANCH  11  12
ENDBRANCH  10  11
ENDBRANCH   9  10
ENDBRANCH   1   9
TORSDOF 10
ENDMDL
MODEL 3
REMARK VINA RESULT:    -3.550     12.823     14.415
REMARK INTER + INTRA:          -6.290
REMARK INTER:                  -5.017
REMARK INTRA:                  -1.273
REMARK UNBOUND:                -0.664
REMARK SMILES CCCCCCCCCCCC(=O)[O-]
REMARK SMILES IDX 7 1 8 2 9 3 10 4 11 5 12 6 13 7 14 8 6 9 5 10 4 11 3 12 2 13
REMARK SMILES IDX 1 14
REMARK H PARENT
REMARK Flexibility Score: inf
ROOT
ATOM      1  C   UNL     1      58.440  29.370  51.224  1.00  0.00     0.000 C 
ENDROOT
BRANCH   1   2
ATOM      2  C   UNL     1      57.025  29.006  51.699  1.00  0.00     0.000 C 
BRANCH   2   3
ATOM      3  C   UNL     1      55.954  29.225  50.616  1.00  0.00     0.000 C 
BRANCH   3   4
ATOM      4  C   UNL     1      54.820  28.179  50.596  1.00  0.00     0.006 C 
BRANCH   4   5
ATOM      5  C   UNL     1      55.159  26.886  49.838  1.00  0.00     0.053 C 
BRANCH   5   6
ATOM      6  C   UNL     1      54.117  25.829  50.037  1.00  0.00     0.041 C 
ATOM      7  O   UNL     1      53.901  25.362  51.187  1.00  0.00    -0.550 OA
ATOM      8  O   UNL     1      53.411  25.333  48.949  1.00  0.00    -0.550 OA
ENDBRANCH   5   6
ENDBRANCH   4   5
ENDBRANCH   3   4
ENDBRANCH   2   3
ENDBRANCH   1   2
BRANCH   1   9
ATOM      9  C   UNL     1      58.469  29.593  49.707  1.00  0.00     0.000 C 
BRANCH   9  10
ATOM     10  C   UNL     1      59.480  28.654  49.032  1.00  0.00    -0.000 C 
BRANCH  10  11
ATOM     11  C   UNL     1      60.189  27.730  50.035  1.00  0.00    -0.000 C 
BRANCH  11  12
ATOM     12  C   UNL     1      59.898  26.241  49.775  1.00  0.00    -0.000 C 
BRANCH  12  13
ATOM     13  C   UNL     1      58.439  25.865  50.077  1.00  0.00    -0.003 C 
ATOM     14  C   UNL     1      58.219  25.481  51.539  1.00  0.00     0.004 C 
ENDBRANCH  12  13
ENDBRANCH  11  12
ENDBRANCH  10  11
ENDBRANCH   9  10
ENDBRANCH   1   9
TORSDOF 10
ENDMDL
MODEL 4
REMARK VINA RESULT:    -3.526      2.930      5.037
REMARK INTER + INTRA:          -6.251
REMARK INTER:                  -4.659
REMARK INTRA:                  -1.592
REMARK UNBOUND:                -0.664
REMARK SMILES CCCCCCCCCCCC(=O)[O-]
REMARK SMILES IDX 7 1 8 2 9 3 10 4 11 5 12 6 13 7 14 8 6 9 5 10 4 11 3 12 2 13
REMARK SMILES IDX 1 14
REMARK H PARENT
REMARK Flexibility Score: inf
ROOT
ATOM      1  C   UNL     1      60.693  31.617  61.528  1.00  0.00     0.000 C 
ENDROOT
BRANCH   1   2
ATOM      2  C   UNL     1      60.747  31.780  60.001  1.00  0.00     0.000 C 
BRANCH   2   3
ATOM      3  C   UNL     1      61.324  33.138  59.564  1.00  0.00     0.000 C 
BRANCH   3   4
ATOM      4  C   UNL     1      61.881  34.012  60.708  1.00  0.00     0.006 C 
BRANCH   4   5
ATOM      5  C   UNL     1      63.411  34.149  60.718  1.00  0.00     0.053 C 
BRANCH   5   6
ATOM      6  C   UNL     1      63.849  35.519  61.138  1.00  0.00     0.041 C 
ATOM      7  O   UNL     1      63.367  36.537  60.576  1.00  0.00    -0.550 OA
ATOM      8  O   UNL     1      64.816  35.669  62.123  1.00  0.00    -0.550 OA
ENDBRANCH   5   6
ENDBRANCH   4   5
ENDBRANCH   3   4
ENDBRANCH   2   3
ENDBRANCH   1   2
BRANCH   1   9
ATOM      9  C   UNL     1      61.388  30.322  61.967  1.00  0.00     0.000 C 
BRANCH   9  10
ATOM     10  C   UNL     1      62.535  29.962  61.011  1.00  0.00    -0.000 C 
BRANCH  10  11
ATOM     11  C   UNL     1      63.890  30.518  61.477  1.00  0.00    -0.000 C 
BRANCH  11  12
ATOM     12  C   UNL     1      64.867  30.750  60.310  1.00  0.00    -0.000 C 
BRANCH  12  13
ATOM     13  C   UNL     1      64.199  30.563  58.939  1.00  0.00    -0.003 C 
ATOM     14  C   UNL     1      64.409  31.761  58.013  1.00  0.00     0.004 C 
ENDBRANCH  12  13
ENDBRANCH  11  12
ENDBRANCH  10  11
ENDBRANCH   9  10
ENDBRANCH   1   9
TORSDOF 10
ENDMDL
MODEL 5
REMARK VINA RESULT:    -3.514     12.741     14.079
REMARK INTER + INTRA:          -6.232
REMARK INTER:                  -4.750
REMARK INTRA:                  -1.482
REMARK UNBOUND:                -0.664
REMARK SMILES CCCCCCCCCCCC(=O)[O-]
REMARK SMILES IDX 7 1 8 2 9 3 10 4 11 5 12 6 13 7 14 8 6 9 5 10 4 11 3 12 2 13
REMARK SMILES IDX 1 14
REMARK H PARENT
REMARK Flexibility Score: inf
ROOT
ATOM      1  C   UNL     1      60.203  26.204  51.191  1.00  0.00     0.000 C 
ENDROOT
BRANCH   1   2
ATOM      2  C   UNL     1      58.766  25.985  51.685  1.00  0.00     0.000 C 
BRANCH   2   3
ATOM      3  C   UNL     1      57.742  25.919  50.537  1.00  0.00     0.000 C 
BRANCH   3   4
ATOM      4  C   UNL     1      56.269  26.086  50.965  1.00  0.00     0.006 C 
BRANCH   4   5
ATOM      5  C   UNL     1      55.339  26.609  49.858  1.00  0.00     0.053 C 
BRANCH   5   6
ATOM      6  C   UNL     1      54.085  25.797  49.748  1.00  0.00     0.041 C 
ATOM      7  O   UNL     1      53.512  25.665  48.635  1.00  0.00    -0.550 OA
ATOM      8  O   UNL     1      53.531  25.216  50.881  1.00  0.00    -0.550 OA
ENDBRANCH   5   6
ENDBRANCH   4   5
ENDBRANCH   3   4
ENDBRANCH   2   3
ENDBRANCH   1   2
BRANCH   1   9
ATOM      9  C   UNL     1      60.218  26.659  49.727  1.00  0.00     0.000 C 
BRANCH   9  10
ATOM     10  C   UNL     1      61.008  27.966  49.564  1.00  0.00    -0.000 C 
BRANCH  10  11
ATOM     11  C   UNL     1      60.192  29.203  49.970  1.00  0.00    -0.000 C 
BRANCH  11  12
ATOM     12  C   UNL     1      58.828  29.272  49.259  1.00  0.00    -0.000 C 
BRANCH  12  13
ATOM     13  C   UNL     1      57.670  29.542  50.233  1.00  0.00    -0.003 C 
ATOM     14  C   UNL     1      58.133  29.643  51.686  1.00  0.00     0.004 C 
ENDBRANCH  12  13
ENDBRANCH  11  12
ENDBRANCH  10  11
ENDBRANCH   9  10
ENDBRANCH   1   9
TORSDOF 10
ENDMDL
MODEL 6
REMARK VINA RESULT:    -3.502      3.003      5.550
REMARK INTER + INTRA:          -6.213
REMARK INTER:                  -4.670
REMARK INTRA:                  -1.543
REMARK UNBOUND:                -0.664
REMARK SMILES CCCCCCCCCCCC(=O)[O-]
REMARK SMILES IDX 7 1 8 2 9 3 10 4 11 5 12 6 13 7 14 8 6 9 5 10 4 11 3 12 2 13
REMARK SMILES IDX 1 14
REMARK H PARENT
REMARK Flexibility Score: inf
ROOT
ATOM      1  C   UNL     1      63.998  31.575  58.864  1.00  0.00     0.000 C 
ENDROOT
BRANCH   1   2
ATOM      2  C   UNL     1      64.325  33.075  58.918  1.00  0.00     0.000 C 
BRANCH   2   3
ATOM      3  C   UNL     1      63.102  33.942  59.268  1.00  0.00     0.000 C 
BRANCH   3   4
ATOM      4  C   UNL     1      63.020  34.393  60.741  1.00  0.00     0.006 C 
BRANCH   4   5
ATOM      5  C   UNL     1      64.376  34.473  61.460  1.00  0.00     0.053 C 
BRANCH   5   6
ATOM      6  C   UNL     1      64.953  35.854  61.417  1.00  0.00     0.041 C 
ATOM      7  O   UNL     1      64.882  36.602  62.428  1.00  0.00    -0.550 OA
ATOM      8  O   UNL     1      65.538  36.328  60.250  1.00  0.00    -0.550 OA
ENDBRANCH   5   6
ENDBRANCH   4   5
ENDBRANCH   3   4
ENDBRANCH   2   3
ENDBRANCH   1   2
BRANCH   1   9
ATOM      9  C   UNL     1      64.974  30.768  59.729  1.00  0.00     0.000 C 
BRANCH   9  10
ATOM     10  C   UNL     1      64.221  29.918  60.762  1.00  0.00    -0.000 C 
BRANCH  10  11
ATOM     11  C   UNL     1      63.339  30.764  61.694  1.00  0.00    -0.000 C 
BRANCH  11  12
ATOM     12  C   UNL     1      61.892  30.245  61.772  1.00  0.00    -0.000 C 
BRANCH  12  13
ATOM     13  C   UNL     1      60.856  31.359  61.558  1.00  0.00    -0.003 C 
ATOM     14  C   UNL     1      60.438  31.504  60.095  1.00  0.00     0.004 C 
ENDBRANCH  12  13
ENDBRANCH  11  12
ENDBRANCH  10  11
ENDBRANCH   9  10
ENDBRANCH   1   9
TORSDOF 10
ENDMDL
MODEL 7
REMARK VINA RESULT:    -3.479      2.222      3.658
REMARK INTER + INTRA:          -6.178
REMARK INTER:                  -5.184
REMARK INTRA:                  -0.994
REMARK UNBOUND:                -0.664
REMARK SMILES CCCCCCCCCCCC(=O)[O-]
REMARK SMILES IDX 7 1 8 2 9 3 10 4 11 5 12 6 13 7 14 8 6 9 5 10 4 11 3 12 2 13
REMARK SMILES IDX 1 14
REMARK H PARENT
REMARK Flexibility Score: inf
ROOT
ATOM      1  C   UNL     1      61.927  35.354  60.688  1.00  0.00     0.000 C 
ENDROOT
BRANCH   1   2
ATOM      2  C   UNL     1      62.403  33.894  60.653  1.00  0.00     0.000 C 
BRANCH   2   3
ATOM      3  C   UNL     1      61.287  32.909  60.259  1.00  0.00     0.000 C 
BRANCH   3   4
ATOM      4  C   UNL     1      60.860  31.927  61.370  1.00  0.00     0.006 C 
BRANCH   4   5
ATOM      5  C   UNL     1      60.883  30.447  60.956  1.00  0.00     0.053 C 
BRANCH   5   6
ATOM      6  C   UNL     1      62.053  29.718  61.540  1.00  0.00     0.041 C 
ATOM      7  O   UNL     1      63.138  30.324  61.745  1.00  0.00    -0.550 OA
ATOM      8  O   UNL     1      61.958  28.363  61.824  1.00  0.00    -0.550 OA
ENDBRANCH   5   6
ENDBRANCH   4   5
ENDBRANCH   3   4
ENDBRANCH   2   3
ENDBRANCH   1   2
BRANCH   1   9
ATOM      9  C   UNL     1      62.985  36.261  61.329  1.00  0.00     0.000 C 
BRANCH   9  10
ATOM     10  C   UNL     1      64.250  35.466  61.683  1.00  0.00    -0.000 C 
BRANCH  10  11
ATOM     11  C   UNL     1      65.528  36.108  61.119  1.00  0.00    -0.000 C 
BRANCH  11  12
ATOM     12  C   UNL     1      65.303  36.763  59.744  1.00  0.00    -0.000 C 
BRANCH  12  13
ATOM     13  C   UNL     1      65.604  35.805  58.580  1.00  0.00    -0.003 C 
ATOM     14  C   UNL     1      64.357  35.452  57.770  1.00  0.00     0.004 C 
ENDBRANCH  12  13
ENDBRANCH  11  12
ENDBRANCH  10  11
ENDBRANCH   9  10
ENDBRANCH   1   9
TORSDOF 10
ENDMDL
MODEL 8
REMARK VINA RESULT:    -3.473     12.537     13.728
REMARK INTER + INTRA:          -6.168
REMARK INTER:                  -5.168
REMARK INTRA:                  -1.000
REMARK UNBOUND:                -0.664
REMARK SMILES CCCCCCCCCCCC(=O)[O-]
REMARK SMILES IDX 7 1 8 2 9 3 10 4 11 5 12 6 13 7 14 8 6 9 5 10 4 11 3 12 2 13
REMARK SMILES IDX 1 14
REMARK H PARENT
REMARK Flexibility Score: inf
ROOT
ATOM      1  C   UNL     1      57.258  27.880  51.139  1.00  0.00     0.000 C 
ENDROOT
BRANCH   1   2
ATOM      2  C   UNL     1      57.178  29.188  50.337  1.00  0.00     0.000 C 
BRANCH   2   3
ATOM      3  C   UNL     1      58.528  29.597  49.722  1.00  0.00     0.000 C 
BRANCH   3   4
ATOM      4  C   UNL     1      59.306  28.457  49.033  1.00  0.00     0.006 C 
BRANCH   4   5
ATOM      5  C   UNL     1      60.677  28.152  49.657  1.00  0.00     0.053 C 
BRANCH   5   6
ATOM      6  C   UNL     1      60.880  26.685  49.880  1.00  0.00     0.041 C 
ATOM      7  O   UNL     1      59.909  25.890  49.780  1.00  0.00    -0.550 OA
ATOM      8  O   UNL     1      62.133  26.201  50.232  1.00  0.00    -0.550 OA
ENDBRANCH   5   6
ENDBRANCH   4   5
ENDBRANCH   3   4
ENDBRANCH   2   3
ENDBRANCH   1   2
BRANCH   1   9
ATOM      9  C   UNL     1      55.862  27.283  51.358  1.00  0.00     0.000 C 
BRANCH   9  10
ATOM     10  C   UNL     1      55.303  26.697  50.054  1.00  0.00    -0.000 C 
BRANCH  10  11
ATOM     11  C   UNL     1      53.967  27.336  49.643  1.00  0.00    -0.000 C 
BRANCH  11  12
ATOM     12  C   UNL     1      53.403  28.274  50.726  1.00  0.00    -0.000 C 
BRANCH  12  13
ATOM     13  C   UNL     1      53.354  29.739  50.266  1.00  0.00    -0.003 C 
ATOM     14  C   UNL     1      53.732  30.719  51.377  1.00  0.00     0.004 C 
ENDBRANCH  12  13
ENDBRANCH  11  12
ENDBRANCH  10  11
ENDBRANCH   9  10
ENDBRANCH   1   9
TORSDOF 10
ENDMDL
MODEL 9
REMARK VINA RESULT:    -3.454      2.158      3.200
REMARK INTER + INTRA:          -6.138
REMARK INTER:                  -4.868
REMARK INTRA:                  -1.270
REMARK UNBOUND:                -0.664
REMARK SMILES CCCCCCCCCCCC(=O)[O-]
REMARK SMILES IDX 7 1 8 2 9 3 10 4 11 5 12 6 13 7 14 8 6 9 5 10 4 11 3 12 2 13
REMARK SMILES IDX 1 14
REMARK H PARENT
REMARK Flexibility Score: inf
ROOT
ATOM      1  C   UNL     1      62.445  33.109  58.857  1.00  0.00     0.000 C 
ENDROOT
BRANCH   1   2
ATOM      2  C   UNL     1      61.348  32.187  59.410  1.00  0.00     0.000 C 
BRANCH   2   3
ATOM      3  C   UNL     1      61.120  32.366  60.922  1.00  0.00     0.000 C 
BRANCH   3   4
ATOM      4  C   UNL     1      61.071  31.057  61.736  1.00  0.00     0.006 C 
BRANCH   4   5
ATOM      5  C   UNL     1      62.390  30.268  61.754  1.00  0.00     0.053 C 
BRANCH   5   6
ATOM      6  C   UNL     1      62.252  28.928  61.099  1.00  0.00     0.041 C 
ATOM      7  O   UNL     1      61.624  28.002  61.677  1.00  0.00    -0.550 OA
ATOM      8  O   UNL     1      62.847  28.692  59.867  1.00  0.00    -0.550 OA
ENDBRANCH   5   6
ENDBRANCH   4   5
ENDBRANCH   3   4
ENDBRANCH   2   3
ENDBRANCH   1   2
BRANCH   1   9
ATOM      9  C   UNL     1      63.771  32.890  59.597  1.00  0.00     0.000 C 
BRANCH   9  10
ATOM     10  C   UNL     1      64.426  34.231  59.959  1.00  0.00    -0.000 C 
BRANCH  10  11
ATOM     11  C   UNL     1      64.070  34.698  61.380  1.00  0.00    -0.000 C 
BRANCH  11  12
ATOM     12  C   UNL     1      63.631  36.172  61.426  1.00  0.00    -0.000 C 
BRANCH  12  13
ATOM     13  C   UNL     1      62.581  36.507  60.355  1.00  0.00    -0.003 C 
ATOM     14  C   UNL     1      61.165  36.112  60.774  1.00  0.00     0.004 C 
ENDBRANCH  12  13
ENDBRANCH  11  12
ENDBRANCH  10  11
ENDBRANCH   9  10
ENDBRANCH   1   9
TORSDOF 10
ENDMDL
