MODEL 1
REMARK VINA RESULT:    -3.467      0.000      0.000
REMARK INTER + INTRA:          -4.876
REMARK INTER:                  -4.683
REMARK INTRA:                  -0.193
REMARK UNBOUND:                -0.193
REMARK SMILES CCCCCCCC(=O)[O-]
REMARK SMILES IDX 5 1 6 2 7 3 8 4 9 5 10 6 4 7 3 8 2 9 1 10
REMARK H PARENT
REMARK Flexibility Score: inf
ROOT
ATOM      1  C   UNL     1      57.345  28.079  50.234  1.00  0.00     0.000 C 
ENDROOT
BRANCH   1   2
ATOM      2  C   UNL     1      58.413  29.176  50.378  1.00  0.00     0.006 C 
BRANCH   2   3
ATOM      3  C   UNL     1      59.325  29.261  49.146  1.00  0.00     0.053 C 
BRANCH   3   4
ATOM      4  C   UNL     1      60.539  28.397  49.297  1.00  0.00     0.041 C 
ATOM      5  O   UNL     1      60.479  27.165  49.042  1.00  0.00    -0.550 OA
ATOM      6  O   UNL     1      61.730  28.947  49.755  1.00  0.00    -0.550 OA
ENDBRANCH   3   4
ENDBRANCH   2   3
ENDBRANCH   1   2
BRANCH   1   7
ATOM      7  C   UNL     1      55.911  28.616  50.393  1.00  0.00     0.000 C 
BRANCH   7   8
ATOM      8  C   UNL     1      54.818  27.767  49.713  1.00  0.00    -0.000 C 
BRANCH   8   9
ATOM      9  C   UNL     1      55.222  26.315  49.403  1.00  0.00    -0.003 C 
ATOM     10  C   UNL     1      54.069  25.481  48.849  1.00  0.00     0.004 C 
ENDBRANCH   8   9
ENDBRANCH   7   8
ENDBRANCH   1   7
TORSDOF 6
ENDMDL
MODEL 2
REMARK VINA RESULT:    -3.416     12.094     13.824
REMARK INTER + INTRA:          -4.807
REMARK INTER:                  -4.605
REMARK INTRA:                  -0.202
REMARK UNBOUND:                -0.193
REMARK SMILES CCCCCCCC(=O)[O-]
REMARK SMILES IDX 5 1 6 2 7 3 8 4 9 5 10 6 4 7 3 8 2 9 1 10
REMARK H PARENT
REMARK Flexibility Score: inf
ROOT
ATOM      1  C   UNL     1      62.425  32.675  60.212  1.00  0.00     0.000 C 
ENDROOT
BRANCH   1   2
ATOM      2  C   UNL     1      61.149  31.824  60.336  1.00  0.00     0.006 C 
BRANCH   2   3
ATOM      3  C   UNL     1      61.266  30.763  61.437  1.00  0.00     0.053 C 
BRANCH   3   4
ATOM      4  C   UNL     1      62.061  29.578  60.981  1.00  0.00     0.041 C 
ATOM      5  O   UNL     1      63.277  29.471  61.290  1.00  0.00    -0.550 OA
ATOM      6  O   UNL     1      61.467  28.608  60.184  1.00  0.00    -0.550 OA
ENDBRANCH   3   4
ENDBRANCH   2   3
ENDBRANCH   1   2
BRANCH   1   7
ATOM      7  C   UNL     1      62.130  34.151  59.888  1.00  0.00     0.000 C 
BRANCH   7   8
ATOM      8  C   UNL     1      63.034  35.170  60.612  1.00  0.00    -0.000 C 
BRANCH   8   9
ATOM      9  C   UNL     1      64.422  34.638  61.012  1.00  0.00    -0.003 C 
ATOM     10  C   UNL     1      65.381  35.744  61.450  1.00  0.00     0.004 C 
ENDBRANCH   8   9
ENDBRANCH   7   8
ENDBRANCH   1   7
TORSDOF 6
ENDMDL
MODEL 3
REMARK VINA RESULT:    -3.304      3.581      5.582
REMARK INTER + INTRA:          -4.656
REMARK INTER:                  -4.457
REMARK INTRA:                  -0.199
REMARK UNBOUND:                -0.193
REMARK SMILES CCCCCCCC(=O)[O-]
REMARK SMILES IDX 5 1 6 2 7 3 8 4 9 5 10 6 4 7 3 8 2 9 1 10
REMARK H PARENT
REMARK Flexibility Score: inf
ROOT
ATOM      1  C   UNL     1      55.998  28.811  50.548  1.00  0.00     0.000 C 
ENDROOT
BRANCH   1   2
ATOM      2  C   UNL     1      54.867  28.031  49.858  1.00  0.00     0.006 C 
BRANCH   2   3
ATOM      3  C   UNL     1      55.263  26.579  49.560  1.00  0.00     0.053 C 
BRANCH   3   4
ATOM      4  C   UNL     1      54.168  25.622  49.918  1.00  0.00     0.041 C 
ATOM      5  O   UNL     1      54.082  24.508  49.336  1.00  0.00    -0.550 OA
ATOM      6  O   UNL     1      53.220  25.975  50.869  1.00  0.00    -0.550 OA
ENDBRANCH   3   4
ENDBRANCH   2   3
ENDBRANCH   1   2
BRANCH   1   7
ATOM      7  C   UNL     1      57.396  28.266  50.203  1.00  0.00     0.000 C 
BRANCH   7   8
ATOM      8  C   UNL     1      58.535  29.305  50.268  1.00  0.00    -0.000 C 
BRANCH   8   9
ATOM      9  C   UNL     1      59.505  29.281  49.074  1.00  0.00    -0.003 C 
ATOM     10  C   UNL     1      60.347  28.007  49.015  1.00  0.00     0.004 C 
ENDBRANCH   8   9
ENDBRANCH   7   8
ENDBRANCH   1   7
TORSDOF 6
ENDMDL
MODEL 4
REMARK VINA RESULT:    -3.301     12.574     13.518
REMARK INTER + INTRA:          -4.651
REMARK INTER:                  -4.321
REMARK INTRA:                  -0.330
REMARK UNBOUND:                -0.193
REMARK SMILES CCCCCCCC(=O)[O-]
REMARK SMILES IDX 5 1 6 2 7 3 8 4 9 5 10 6 4 7 3 8 2 9 1 10
REMARK H PARENT
REMARK Flexibility Score: inf
ROOT
ATOM      1  C   UNL     1      61.760  31.908  59.784  1.00  0.00     0.000 C 
ENDROOT
BRANCH   1   2
ATOM      2  C   UNL     1      62.098  33.384  60.056  1.00  0.00     0.006 C 
BRANCH   2   3
ATOM      3  C   UNL     1      63.603  33.604  60.264  1.00  0.00     0.053 C 
BRANCH   3   4
ATOM      4  C   UNL     1      63.882  34.912  60.937  1.00  0.00     0.041 C 
ATOM      5  O   UNL     1      63.016  35.826  60.934  1.00  0.00    -0.550 OA
ATOM      6  O   UNL     1      65.115  35.136  61.538  1.00  0.00    -0.550 OA
ENDBRANCH   3   4
ENDBRANCH   2   3
ENDBRANCH   1   2
BRANCH   1   7
ATOM      7  C   UNL     1      61.262  31.168  61.039  1.00  0.00     0.000 C 
BRANCH   7   8
ATOM      8  C   UNL     1      62.107  29.946  61.453  1.00  0.00    -0.000 C 
BRANCH   8   9
ATOM      9  C   UNL     1      63.607  30.052  61.124  1.00  0.00    -0.003 C 
ATOM     10  C   UNL     1      64.182  28.762  60.543  1.00  0.00     0.004 C 
ENDBRANCH   8   9
ENDBRANCH   7   8
ENDBRANCH   1   7
TORSDOF 6
ENDMDL
MODEL 5
REMARK VINA RESULT:    -3.284     12.014     13.203
REMARK INTER + INTRA:          -4.629
REMARK INTER:                  -4.317
REMARK INTRA:                  -0.312
REMARK UNBOUND:                -0.193
REMARK SMILES CCCCCCCC(=O)[O-]
REMARK SMILES IDX 5 1 6 2 7 3 8 4 9 5 10 6 4 7 3 8 2 9 1 10
REMARK H PARENT
REMARK Flexibility Score: inf
ROOT
ATOM      1  C   UNL     1      61.207  31.110  61.047  1.00  0.00     0.000 C 
ENDROOT
BRANCH   1   2
ATOM      2  C   UNL     1      62.218  30.019  61.438  1.00  0.00     0.006 C 
BRANCH   2   3
ATOM      3  C   UNL     1      63.658  30.411  61.083  1.00  0.00     0.053 C 
BRANCH   3   4
ATOM      4  C   UNL     1      64.483  29.216  60.717  1.00  0.00     0.041 C 
ATOM      5  O   UNL     1      65.703  29.348  60.433  1.00  0.00    -0.550 OA
ATOM      6  O   UNL     1      63.895  27.959  60.654  1.00  0.00    -0.550 OA
ENDBRANCH   3   4
ENDBRANCH   2   3
ENDBRANCH   1   2
BRANCH   1   7
ATOM      7  C   UNL     1      61.621  31.883  59.781  1.00  0.00     0.000 C 
BRANCH   7   8
ATOM      8  C   UNL     1      61.614  33.419  59.924  1.00  0.00    -0.000 C 
BRANCH   8   9
ATOM      9  C   UNL     1      62.979  34.047  60.255  1.00  0.00    -0.003 C 
ATOM     10  C   UNL     1      62.878  35.521  60.646  1.00  0.00     0.004 C 
ENDBRANCH   8   9
ENDBRANCH   7   8
ENDBRANCH   1   7
TORSDOF 6
ENDMDL
MODEL 6
REMARK VINA RESULT:    -3.215     12.861     14.036
REMARK INTER + INTRA:          -4.536
REMARK INTER:                  -4.320
REMARK INTRA:                  -0.216
REMARK UNBOUND:                -0.193
REMARK SMILES CCCCCCCC(=O)[O-]
REMARK SMILES IDX 5 1 6 2 7 3 8 4 9 5 10 6 4 7 3 8 2 9 1 10
REMARK H PARENT
REMARK Flexibility Score: inf
ROOT
ATOM      1  C   UNL     1      64.504  32.907  60.072  1.00  0.00     0.000 C 
ENDROOT
BRANCH   1   2
ATOM      2  C   UNL     1      63.388  31.849  60.028  1.00  0.00     0.006 C 
BRANCH   2   3
ATOM      3  C   UNL     1      63.673  30.669  60.967  1.00  0.00     0.053 C 
BRANCH   3   4
ATOM      4  C   UNL     1      62.411  29.978  61.384  1.00  0.00     0.041 C 
ATOM      5  O   UNL     1      62.349  28.719  61.392  1.00  0.00    -0.550 OA
ATOM      6  O   UNL     1      61.292  30.723  61.730  1.00  0.00    -0.550 OA
ENDBRANCH   3   4
ENDBRANCH   2   3
ENDBRANCH   1   2
BRANCH   1   7
ATOM      7  C   UNL     1      64.026  34.255  60.643  1.00  0.00     0.000 C 
BRANCH   7   8
ATOM      8  C   UNL     1      62.568  34.627  60.304  1.00  0.00    -0.000 C 
BRANCH   8   9
ATOM      9  C   UNL     1      62.237  36.125  60.416  1.00  0.00    -0.003 C 
ATOM     10  C   UNL     1      63.341  36.930  61.099  1.00  0.00     0.004 C 
ENDBRANCH   8   9
ENDBRANCH   7   8
ENDBRANCH   1   7
TORSDOF 6
ENDMDL
MODEL 7
REMARK VINA RESULT:    -3.192      1.515      2.413
REMARK INTER + INTRA:          -4.505
REMARK INTER:                  -4.277
REMARK INTRA:                  -0.228
REMARK UNBOUND:                -0.193
REMARK SMILES CCCCCCCC(=O)[O-]
REMARK SMILES IDX 5 1 6 2 7 3 8 4 9 5 10 6 4 7 3 8 2 9 1 10
REMARK H PARENT
REMARK Flexibility Score: inf
ROOT
ATOM      1  C   UNL     1      56.382  26.231  50.318  1.00  0.00     0.000 C 
ENDROOT
BRANCH   1   2
ATOM      2  C   UNL     1      57.777  26.099  49.684  1.00  0.00     0.006 C 
BRANCH   2   3
ATOM      3  C   UNL     1      58.751  27.165  50.203  1.00  0.00     0.053 C 
BRANCH   3   4
ATOM      4  C   UNL     1      60.036  27.161  49.433  1.00  0.00     0.041 C 
ATOM      5  O   UNL     1      60.757  26.128  49.406  1.00  0.00    -0.550 OA
ATOM      6  O   UNL     1      60.455  28.310  48.775  1.00  0.00    -0.550 OA
ENDBRANCH   3   4
ENDBRANCH   2   3
ENDBRANCH   1   2
BRANCH   1   7
ATOM      7  C   UNL     1      55.243  25.950  49.321  1.00  0.00     0.000 C 
BRANCH   7   8
ATOM      8  C   UNL     1      54.092  26.976  49.339  1.00  0.00    -0.000 C 
BRANCH   8   9
ATOM      9  C   UNL     1      54.478  28.375  49.853  1.00  0.00    -0.003 C 
ATOM     10  C   UNL     1      53.308  29.358  49.840  1.00  0.00     0.004 C 
ENDBRANCH   8   9
ENDBRANCH   7   8
ENDBRANCH   1   7
TORSDOF 6
ENDMDL
MODEL 8
REMARK VINA RESULT:    -3.124     12.638     13.608
REMARK INTER + INTRA:          -4.413
REMARK INTER:                  -4.057
REMARK INTRA:                  -0.356
REMARK UNBOUND:                -0.193
REMARK SMILES CCCCCCCC(=O)[O-]
REMARK SMILES IDX 5 1 6 2 7 3 8 4 9 5 10 6 4 7 3 8 2 9 1 10
REMARK H PARENT
REMARK Flexibility Score: inf
ROOT
ATOM      1  C   UNL     1      61.679  33.512  59.151  1.00  0.00     0.000 C 
ENDROOT
BRANCH   1   2
ATOM      2  C   UNL     1      62.215  34.441  60.254  1.00  0.00     0.006 C 
BRANCH   2   3
ATOM      3  C   UNL     1      63.733  34.305  60.437  1.00  0.00     0.053 C 
BRANCH   3   4
ATOM      4  C   UNL     1      64.318  35.509  61.109  1.00  0.00     0.041 C 
ATOM      5  O   UNL     1      65.505  35.488  61.531  1.00  0.00    -0.550 OA
ATOM      6  O   UNL     1      63.541  36.645  61.301  1.00  0.00    -0.550 OA
ENDBRANCH   3   4
ENDBRANCH   2   3
ENDBRANCH   1   2
BRANCH   1   7
ATOM      7  C   UNL     1      61.885  32.021  59.474  1.00  0.00     0.000 C 
BRANCH   7   8
ATOM      8  C   UNL     1      61.045  31.487  60.652  1.00  0.00    -0.000 C 
BRANCH   8   9
ATOM      9  C   UNL     1      61.688  30.331  61.437  1.00  0.00    -0.003 C 
ATOM     10  C   UNL     1      63.181  30.173  61.152  1.00  0.00     0.004 C 
ENDBRANCH   8   9
ENDBRANCH   7   8
ENDBRANCH   1   7
TORSDOF 6
ENDMDL
MODEL 9
REMARK VINA RESULT:    -3.108      3.014      5.342
REMARK INTER + INTRA:          -4.391
REMARK INTER:                  -4.135
REMARK INTRA:                  -0.256
REMARK UNBOUND:                -0.193
REMARK SMILES CCCCCCCC(=O)[O-]
REMARK SMILES IDX 5 1 6 2 7 3 8 4 9 5 10 6 4 7 3 8 2 9 1 10
REMARK H PARENT
REMARK Flexibility Score: inf
ROOT
ATOM      1  C   UNL     1      58.445  29.255  50.195  1.00  0.00     0.000 C 
ENDROOT
BRANCH   1   2
ATOM      2  C   UNL     1      57.342  28.184  50.150  1.00  0.00     0.006 C 
BRANCH   2   3
ATOM      3  C   UNL     1      55.962  28.761  50.494  1.00  0.00     0.053 C 
BRANCH   3   4
ATOM      4  C   UNL     1      54.863  28.012  49.804  1.00  0.00     0.041 C 
ATOM      5  O   UNL     1      55.051  26.833  49.404  1.00  0.00    -0.550 OA
ATOM      6  O   UNL     1      53.642  28.631  49.571  1.00  0.00    -0.550 OA
ENDBRANCH   3   4
ENDBRANCH   2   3
ENDBRANCH   1   2
BRANCH   1   7
ATOM      7  C   UNL     1      59.547  29.024  49.145  1.00  0.00     0.000 C 
BRANCH   7   8
ATOM      8  C   UNL     1      60.962  28.812  49.721  1.00  0.00    -0.000 C 
BRANCH   8   9
ATOM      9  C   UNL     1      61.598  27.449  49.396  1.00  0.00    -0.003 C 
ATOM     10  C   UNL     1      60.597  26.297  49.446  1.00  0.00     0.004 C 
ENDBRANCH   8   9
ENDBRANCH   7   8
ENDBRANCH   1   7
TORSDOF 6
ENDMDL
