MODEL 1
REMARK VINA RESULT:    -5.230      0.000      0.000
REMARK INTER + INTRA:          -5.717
REMARK INTER:                  -5.689
REMARK INTRA:                  -0.029
REMARK UNBOUND:                -0.029
REMARK SMILES O=C([O-])c1ccc(O)cc1
REMARK SMILES IDX 7 1 6 2 9 3 5 4 10 5 4 6 8 7 2 9 1 10 3 11
REMARK H PARENT 8 8
REMARK Flexibility Score: inf
ROOT
ATOM      1  C   UNL     1      15.774  -2.896  17.286  1.00  0.00     0.115 A 
ATOM      2  C   UNL     1      16.888  -3.685  16.974  1.00  0.00     0.047 A 
ATOM      3  C   UNL     1      14.493  -3.340  16.945  1.00  0.00     0.047 A 
ATOM      4  C   UNL     1      16.721  -4.913  16.327  1.00  0.00     0.014 A 
ATOM      5  C   UNL     1      14.321  -4.567  16.297  1.00  0.00     0.014 A 
ATOM      6  C   UNL     1      15.435  -5.367  15.980  1.00  0.00    -0.003 A 
ENDROOT
BRANCH   1   7
ATOM      7  O   UNL     1      15.928  -1.671  17.931  1.00  0.00    -0.508 OA
ATOM      8  H   UNL     1      15.186  -0.981  17.941  1.00  0.00     0.293 HD
ENDBRANCH   1   7
BRANCH   6   9
ATOM      9  C   UNL     1      15.261  -6.666  15.295  1.00  0.00     0.071 C 
ATOM     10  O   UNL     1      14.591  -7.588  15.831  1.00  0.00    -0.545 OA
ATOM     11  O   UNL     1      15.834  -6.887  14.048  1.00  0.00    -0.545 OA
ENDBRANCH   6   9
TORSDOF 2
ENDMDL
MODEL 2
REMARK VINA RESULT:    -5.130      2.109      2.873
REMARK INTER + INTRA:          -5.609
REMARK INTER:                  -5.574
REMARK INTRA:                  -0.035
REMARK UNBOUND:                -0.029
REMARK SMILES O=C([O-])c1ccc(O)cc1
REMARK SMILES IDX 7 1 6 2 9 3 5 4 10 5 4 6 8 7 2 9 1 10 3 11
REMARK H PARENT 8 8
REMARK Flexibility Score: inf
ROOT
ATOM      1  C   UNL     1      17.794  -3.163  17.952  1.00  0.00     0.115 A 
ATOM      2  C   UNL     1      16.619  -2.512  18.345  1.00  0.00     0.047 A 
ATOM      3  C   UNL     1      17.757  -4.086  16.903  1.00  0.00     0.047 A 
ATOM      4  C   UNL     1      15.412  -2.781  17.691  1.00  0.00     0.014 A 
ATOM      5  C   UNL     1      16.553  -4.359  16.246  1.00  0.00     0.014 A 
ATOM      6  C   UNL     1      15.367  -3.709  16.635  1.00  0.00    -0.003 A 
ENDROOT
BRANCH   1   7
ATOM      7  O   UNL     1      19.001  -2.902  18.596  1.00  0.00    -0.508 OA
ATOM      8  H   UNL     1      19.652  -3.645  18.824  1.00  0.00     0.293 HD
ENDBRANCH   1   7
BRANCH   6   9
ATOM      9  C   UNL     1      14.090  -3.993  15.944  1.00  0.00     0.071 C 
ATOM     10  O   UNL     1      12.990  -3.739  16.502  1.00  0.00    -0.545 OA
ATOM     11  O   UNL     1      14.087  -4.546  14.668  1.00  0.00    -0.545 OA
ENDBRANCH   6   9
TORSDOF 2
ENDMDL
MODEL 3
REMARK VINA RESULT:    -5.130      2.222      2.742
REMARK INTER + INTRA:          -5.608
REMARK INTER:                  -5.573
REMARK INTRA:                  -0.036
REMARK UNBOUND:                -0.029
REMARK SMILES O=C([O-])c1ccc(O)cc1
REMARK SMILES IDX 7 1 6 2 9 3 5 4 10 5 4 6 8 7 2 9 1 10 3 11
REMARK H PARENT 8 8
REMARK Flexibility Score: inf
ROOT
ATOM      1  C   UNL     1      17.949  -3.143  18.004  1.00  0.00     0.115 A 
ATOM      2  C   UNL     1      17.945  -3.927  16.843  1.00  0.00     0.047 A 
ATOM      3  C   UNL     1      16.755  -2.580  18.464  1.00  0.00     0.047 A 
ATOM      4  C   UNL     1      16.751  -4.148  16.149  1.00  0.00     0.014 A 
ATOM      5  C   UNL     1      15.560  -2.799  17.772  1.00  0.00     0.014 A 
ATOM      6  C   UNL     1      15.546  -3.586  16.605  1.00  0.00    -0.003 A 
ENDROOT
BRANCH   1   7
ATOM      7  O   UNL     1      19.131  -2.916  18.704  1.00  0.00    -0.508 OA
ATOM      8  H   UNL     1      20.022  -2.834  18.228  1.00  0.00     0.293 HD
ENDBRANCH   1   7
BRANCH   6   9
ATOM      9  C   UNL     1      14.285  -3.821  15.869  1.00  0.00     0.071 C 
ATOM     10  O   UNL     1      13.178  -3.498  16.375  1.00  0.00    -0.545 OA
ATOM     11  O   UNL     1      14.305  -4.402  14.606  1.00  0.00    -0.545 OA
ENDBRANCH   6   9
TORSDOF 2
ENDMDL
MODEL 4
REMARK VINA RESULT:    -5.109      2.402      4.618
REMARK INTER + INTRA:          -5.585
REMARK INTER:                  -5.551
REMARK INTRA:                  -0.035
REMARK UNBOUND:                -0.029
REMARK SMILES O=C([O-])c1ccc(O)cc1
REMARK SMILES IDX 7 1 6 2 9 3 5 4 10 5 4 6 8 7 2 9 1 10 3 11
REMARK H PARENT 8 8
REMARK Flexibility Score: inf
ROOT
ATOM      1  C   UNL     1      15.119  -8.002  15.211  1.00  0.00     0.115 A 
ATOM      2  C   UNL     1      14.855  -6.927  16.069  1.00  0.00     0.047 A 
ATOM      3  C   UNL     1      15.572  -7.755  13.912  1.00  0.00     0.047 A 
ATOM      4  C   UNL     1      15.045  -5.613  15.631  1.00  0.00     0.014 A 
ATOM      5  C   UNL     1      15.763  -6.443  13.469  1.00  0.00     0.014 A 
ATOM      6  C   UNL     1      15.501  -5.357  14.325  1.00  0.00    -0.003 A 
ENDROOT
BRANCH   1   7
ATOM      7  O   UNL     1      14.933  -9.315  15.637  1.00  0.00    -0.508 OA
ATOM      8  H   UNL     1      15.640  -9.802  16.175  1.00  0.00     0.293 HD
ENDBRANCH   1   7
BRANCH   6   9
ATOM      9  C   UNL     1      15.701  -3.966  13.863  1.00  0.00     0.071 C 
ATOM     10  O   UNL     1      15.717  -3.696  12.633  1.00  0.00    -0.545 OA
ATOM     11  O   UNL     1      15.875  -2.937  14.781  1.00  0.00    -0.545 OA
ENDBRANCH   6   9
TORSDOF 2
ENDMDL
MODEL 5
REMARK VINA RESULT:    -5.092      3.567      5.439
REMARK INTER + INTRA:          -5.567
REMARK INTER:                  -5.540
REMARK INTRA:                  -0.027
REMARK UNBOUND:                -0.029
REMARK SMILES O=C([O-])c1ccc(O)cc1
REMARK SMILES IDX 7 1 6 2 9 3 5 4 10 5 4 6 8 7 2 9 1 10 3 11
REMARK H PARENT 8 8
REMARK Flexibility Score: inf
ROOT
ATOM      1  C   UNL     1      15.594  -5.389  10.404  1.00  0.00     0.115 A 
ATOM      2  C   UNL     1      14.376  -5.461  11.091  1.00  0.00     0.047 A 
ATOM      3  C   UNL     1      16.767  -5.827  11.025  1.00  0.00     0.047 A 
ATOM      4  C   UNL     1      14.332  -5.970  12.393  1.00  0.00     0.014 A 
ATOM      5  C   UNL     1      16.727  -6.336  12.327  1.00  0.00     0.014 A 
ATOM      6  C   UNL     1      15.508  -6.412  13.025  1.00  0.00    -0.003 A 
ENDROOT
BRANCH   1   7
ATOM      7  O   UNL     1      15.650  -4.885   9.107  1.00  0.00    -0.508 OA
ATOM      8  H   UNL     1      15.706  -3.889   8.927  1.00  0.00     0.293 HD
ENDBRANCH   1   7
BRANCH   6   9
ATOM      9  C   UNL     1      15.459  -6.950  14.402  1.00  0.00     0.071 C 
ATOM     10  O   UNL     1      15.553  -8.188  14.610  1.00  0.00    -0.545 OA
ATOM     11  O   UNL     1      15.308  -6.093  15.487  1.00  0.00    -0.545 OA
ENDBRANCH   6   9
TORSDOF 2
ENDMDL
MODEL 6
REMARK VINA RESULT:    -5.079      4.730      6.583
REMARK INTER + INTRA:          -5.553
REMARK INTER:                  -5.519
REMARK INTRA:                  -0.035
REMARK UNBOUND:                -0.029
REMARK SMILES O=C([O-])c1ccc(O)cc1
REMARK SMILES IDX 7 1 6 2 9 3 5 4 10 5 4 6 8 7 2 9 1 10 3 11
REMARK H PARENT 8 8
REMARK Flexibility Score: inf
ROOT
ATOM      1  C   UNL     1      13.515  -5.613   9.715  1.00  0.00     0.115 A 
ATOM      2  C   UNL     1      13.362  -5.618  11.107  1.00  0.00     0.047 A 
ATOM      3  C   UNL     1      14.798  -5.620   9.159  1.00  0.00     0.047 A 
ATOM      4  C   UNL     1      14.487  -5.632  11.938  1.00  0.00     0.014 A 
ATOM      5  C   UNL     1      15.925  -5.635   9.987  1.00  0.00     0.014 A 
ATOM      6  C   UNL     1      15.780  -5.640  11.387  1.00  0.00    -0.003 A 
ENDROOT
BRANCH   1   7
ATOM      7  O   UNL     1      12.402  -5.598   8.878  1.00  0.00    -0.508 OA
ATOM      8  H   UNL     1      11.512  -5.224   9.186  1.00  0.00     0.293 HD
ENDBRANCH   1   7
BRANCH   6   9
ATOM      9  C   UNL     1      16.969  -5.655  12.267  1.00  0.00     0.071 C 
ATOM     10  O   UNL     1      18.077  -6.072  11.840  1.00  0.00    -0.545 OA
ATOM     11  O   UNL     1      16.877  -5.209  13.581  1.00  0.00    -0.545 OA
ENDBRANCH   6   9
TORSDOF 2
ENDMDL
MODEL 7
REMARK VINA RESULT:    -5.019      1.791      4.144
REMARK INTER + INTRA:          -5.488
REMARK INTER:                  -5.455
REMARK INTRA:                  -0.033
REMARK UNBOUND:                -0.029
REMARK SMILES O=C([O-])c1ccc(O)cc1
REMARK SMILES IDX 7 1 6 2 9 3 5 4 10 5 4 6 8 7 2 9 1 10 3 11
REMARK H PARENT 8 8
REMARK Flexibility Score: inf
ROOT
ATOM      1  C   UNL     1      14.393  -4.389  15.618  1.00  0.00     0.115 A 
ATOM      2  C   UNL     1      14.218  -3.424  16.617  1.00  0.00     0.047 A 
ATOM      3  C   UNL     1      15.664  -4.923  15.385  1.00  0.00     0.047 A 
ATOM      4  C   UNL     1      15.309  -2.997  17.381  1.00  0.00     0.014 A 
ATOM      5  C   UNL     1      16.757  -4.499  16.146  1.00  0.00     0.014 A 
ATOM      6  C   UNL     1      16.591  -3.530  17.153  1.00  0.00    -0.003 A 
ENDROOT
BRANCH   1   7
ATOM      7  O   UNL     1      13.314  -4.822  14.851  1.00  0.00    -0.508 OA
ATOM      8  H   UNL     1      13.084  -4.387  13.965  1.00  0.00     0.293 HD
ENDBRANCH   1   7
BRANCH   6   9
ATOM      9  C   UNL     1      17.743  -3.076  17.961  1.00  0.00     0.071 C 
ATOM     10  O   UNL     1      17.591  -2.752  19.168  1.00  0.00    -0.545 OA
ATOM     11  O   UNL     1      19.013  -3.002  17.399  1.00  0.00    -0.545 OA
ENDBRANCH   6   9
TORSDOF 2
ENDMDL
MODEL 8
REMARK VINA RESULT:    -4.968      2.042      3.901
REMARK INTER + INTRA:          -5.433
REMARK INTER:                  -5.398
REMARK INTRA:                  -0.035
REMARK UNBOUND:                -0.029
REMARK SMILES O=C([O-])c1ccc(O)cc1
REMARK SMILES IDX 7 1 6 2 9 3 5 4 10 5 4 6 8 7 2 9 1 10 3 11
REMARK H PARENT 8 8
REMARK Flexibility Score: inf
ROOT
ATOM      1  C   UNL     1      14.154  -4.144  15.293  1.00  0.00     0.115 A 
ATOM      2  C   UNL     1      15.459  -4.512  14.945  1.00  0.00     0.047 A 
ATOM      3  C   UNL     1      13.926  -3.428  16.471  1.00  0.00     0.047 A 
ATOM      4  C   UNL     1      16.532  -4.163  15.771  1.00  0.00     0.014 A 
ATOM      5  C   UNL     1      14.996  -3.077  17.301  1.00  0.00     0.014 A 
ATOM      6  C   UNL     1      16.312  -3.442  16.958  1.00  0.00    -0.003 A 
ENDROOT
BRANCH   1   7
ATOM      7  O   UNL     1      13.078  -4.486  14.477  1.00  0.00    -0.508 OA
ATOM      8  H   UNL     1      13.046  -4.217  13.501  1.00  0.00     0.293 HD
ENDBRANCH   1   7
BRANCH   6   9
ATOM      9  C   UNL     1      17.448  -3.074  17.831  1.00  0.00     0.071 C 
ATOM     10  O   UNL     1      17.257  -2.775  19.039  1.00  0.00    -0.545 OA
ATOM     11  O   UNL     1      18.744  -3.053  17.329  1.00  0.00    -0.545 OA
ENDBRANCH   6   9
TORSDOF 2
ENDMDL
MODEL 9
REMARK VINA RESULT:    -4.864      4.669      6.147
REMARK INTER + INTRA:          -5.319
REMARK INTER:                  -5.290
REMARK INTRA:                  -0.029
REMARK UNBOUND:                -0.029
REMARK SMILES O=C([O-])c1ccc(O)cc1
REMARK SMILES IDX 7 1 6 2 9 3 5 4 10 5 4 6 8 7 2 9 1 10 3 11
REMARK H PARENT 8 8
REMARK Flexibility Score: inf
ROOT
ATOM      1  C   UNL     1      16.155  -6.041  12.398  1.00  0.00     0.115 A 
ATOM      2  C   UNL     1      14.849  -6.178  12.884  1.00  0.00     0.047 A 
ATOM      3  C   UNL     1      16.363  -5.656  11.071  1.00  0.00     0.047 A 
ATOM      4  C   UNL     1      13.757  -5.928  12.047  1.00  0.00     0.014 A 
ATOM      5  C   UNL     1      15.274  -5.406  10.230  1.00  0.00     0.014 A 
ATOM      6  C   UNL     1      13.958  -5.540  10.710  1.00  0.00    -0.003 A 
ENDROOT
BRANCH   1   7
ATOM      7  O   UNL     1      17.250  -6.287  13.223  1.00  0.00    -0.508 OA
ATOM      8  H   UNL     1      17.965  -5.585  13.378  1.00  0.00     0.293 HD
ENDBRANCH   1   7
BRANCH   6   9
ATOM      9  C   UNL     1      12.802  -5.277   9.826  1.00  0.00     0.071 C 
ATOM     10  O   UNL     1      12.622  -5.963   8.786  1.00  0.00    -0.545 OA
ATOM     11  O   UNL     1      11.896  -4.268  10.133  1.00  0.00    -0.545 OA
ENDBRANCH   6   9
TORSDOF 2
ENDMDL
