MODEL 1
REMARK VINA RESULT:    -4.441      0.000      0.000
REMARK INTER + INTRA:          -4.441
REMARK INTER:                  -4.441
REMARK INTRA:                   0.000
REMARK UNBOUND:                 0.000
REMARK SMILES O=c1ccc2ccccc2o1
REMARK SMILES IDX 7 1 8 2 9 3 10 4 5 5 6 6 4 7 3 8 2 9 1 10 11 11
REMARK H PARENT
REMARK Flexibility Score: inf
ROOT
ATOM      1  C   UNL     1      -7.787   4.500  -7.598  1.00  0.00     0.001 A 
ATOM      2  C   UNL     1      -7.046   4.630  -6.418  1.00  0.00     0.004 A 
ATOM      3  C   UNL     1      -5.654   4.757  -6.472  1.00  0.00     0.048 A 
ATOM      4  C   UNL     1      -4.997   4.753  -7.707  1.00  0.00     0.138 A 
ATOM      5  C   UNL     1      -5.746   4.622  -8.899  1.00  0.00     0.018 A 
ATOM      6  C   UNL     1      -7.142   4.496  -8.838  1.00  0.00     0.012 A 
ATOM      7  C   UNL     1      -5.063   4.623 -10.119  1.00  0.00     0.019 A 
ATOM      8  C   UNL     1      -3.673   4.752 -10.125  1.00  0.00     0.094 A 
ATOM      9  C   UNL     1      -2.998   4.878  -8.906  1.00  0.00     0.336 A 
ATOM     10  O   UNL     1      -1.746   4.994  -8.891  1.00  0.00    -0.246 OA
ATOM     11  O   UNL     1      -3.673   4.875  -7.758  1.00  0.00    -0.423 OA
ENDROOT
TORSDOF 0
ENDMDL
MODEL 2
REMARK VINA RESULT:    -4.349      1.682      3.859
REMARK INTER + INTRA:          -4.349
REMARK INTER:                  -4.349
REMARK INTRA:                   0.000
REMARK UNBOUND:                 0.000
REMARK SMILES O=c1ccc2ccccc2o1
REMARK SMILES IDX 7 1 8 2 9 3 10 4 5 5 6 6 4 7 3 8 2 9 1 10 11 11
REMARK H PARENT
REMARK Flexibility Score: inf
ROOT
ATOM      1  C   UNL     1      -3.516   4.751  -9.986  1.00  0.00     0.001 A 
ATOM      2  C   UNL     1      -2.937   4.818  -8.713  1.00  0.00     0.004 A 
ATOM      3  C   UNL     1      -3.744   4.785  -7.571  1.00  0.00     0.048 A 
ATOM      4  C   UNL     1      -5.134   4.686  -7.697  1.00  0.00     0.138 A 
ATOM      5  C   UNL     1      -5.719   4.618  -8.983  1.00  0.00     0.018 A 
ATOM      6  C   UNL     1      -4.904   4.651 -10.124  1.00  0.00     0.012 A 
ATOM      7  C   UNL     1      -7.110   4.519  -9.078  1.00  0.00     0.019 A 
ATOM      8  C   UNL     1      -7.875   4.490  -7.912  1.00  0.00     0.094 A 
ATOM      9  C   UNL     1      -7.228   4.561  -6.673  1.00  0.00     0.336 A 
ATOM     10  O   UNL     1      -7.901   4.537  -5.611  1.00  0.00    -0.246 OA
ATOM     11  O   UNL     1      -5.902   4.654  -6.610  1.00  0.00    -0.423 OA
ENDROOT
TORSDOF 0
ENDMDL
MODEL 3
REMARK VINA RESULT:    -3.552      1.187      2.251
REMARK INTER + INTRA:          -3.552
REMARK INTER:                  -3.552
REMARK INTRA:                   0.000
REMARK UNBOUND:                 0.000
REMARK SMILES O=c1ccc2ccccc2o1
REMARK SMILES IDX 7 1 8 2 9 3 10 4 5 5 6 6 4 7 3 8 2 9 1 10 11 11
REMARK H PARENT
REMARK Flexibility Score: inf
ROOT
ATOM      1  C   UNL     1      -7.119   4.387  -7.995  1.00  0.00     0.001 A 
ATOM      2  C   UNL     1      -7.134   4.514  -9.388  1.00  0.00     0.004 A 
ATOM      3  C   UNL     1      -5.945   4.752 -10.085  1.00  0.00     0.048 A 
ATOM      4  C   UNL     1      -4.736   4.866  -9.391  1.00  0.00     0.138 A 
ATOM      5  C   UNL     1      -4.721   4.738  -7.983  1.00  0.00     0.018 A 
ATOM      6  C   UNL     1      -5.916   4.498  -7.290  1.00  0.00     0.012 A 
ATOM      7  C   UNL     1      -3.497   4.854  -7.316  1.00  0.00     0.019 A 
ATOM      8  C   UNL     1      -2.337   5.093  -8.052  1.00  0.00     0.094 A 
ATOM      9  C   UNL     1      -2.428   5.208  -9.444  1.00  0.00     0.336 A 
ATOM     10  O   UNL     1      -1.392   5.423 -10.125  1.00  0.00    -0.246 OA
ATOM     11  O   UNL     1      -3.604   5.092 -10.054  1.00  0.00    -0.423 OA
ENDROOT
TORSDOF 0
ENDMDL
MODEL 4
REMARK VINA RESULT:    -3.547     12.774     14.222
REMARK INTER + INTRA:          -3.547
REMARK INTER:                  -3.547
REMARK INTRA:                   0.000
REMARK UNBOUND:                 0.000
REMARK SMILES O=c1ccc2ccccc2o1
REMARK SMILES IDX 7 1 8 2 9 3 10 4 5 5 6 6 4 7 3 8 2 9 1 10 11 11
REMARK H PARENT
REMARK Flexibility Score: inf
ROOT
ATOM      1  C   UNL     1       9.608   9.988  -9.453  1.00  0.00     0.001 A 
ATOM      2  C   UNL     1       8.264  10.125  -9.087  1.00  0.00     0.004 A 
ATOM      3  C   UNL     1       7.429   9.003  -9.044  1.00  0.00     0.048 A 
ATOM      4  C   UNL     1       7.935   7.740  -9.368  1.00  0.00     0.138 A 
ATOM      5  C   UNL     1       9.292   7.601  -9.738  1.00  0.00     0.018 A 
ATOM      6  C   UNL     1      10.125   8.730  -9.778  1.00  0.00     0.012 A 
ATOM      7  C   UNL     1       9.770   6.326 -10.055  1.00  0.00     0.019 A 
ATOM      8  C   UNL     1       8.901   5.236  -9.998  1.00  0.00     0.094 A 
ATOM      9  C   UNL     1       7.569   5.449  -9.624  1.00  0.00     0.336 A 
ATOM     10  O   UNL     1       6.771   4.479  -9.567  1.00  0.00    -0.246 OA
ATOM     11  O   UNL     1       7.140   6.673  -9.326  1.00  0.00    -0.423 OA
ENDROOT
TORSDOF 0
ENDMDL
MODEL 5
REMARK VINA RESULT:    -3.517     15.402     16.916
REMARK INTER + INTRA:          -3.517
REMARK INTER:                  -3.517
REMARK INTRA:                   0.000
REMARK UNBOUND:                 0.000
REMARK SMILES O=c1ccc2ccccc2o1
REMARK SMILES IDX 7 1 8 2 9 3 10 4 5 5 6 6 4 7 3 8 2 9 1 10 11 11
REMARK H PARENT
REMARK Flexibility Score: inf
ROOT
ATOM      1  C   UNL     1       6.794 -10.125  -8.578  1.00  0.00     0.001 A 
ATOM      2  C   UNL     1       6.015  -9.955  -9.729  1.00  0.00     0.004 A 
ATOM      3  C   UNL     1       5.616  -8.675 -10.125  1.00  0.00     0.048 A 
ATOM      4  C   UNL     1       5.992  -7.558  -9.371  1.00  0.00     0.138 A 
ATOM      5  C   UNL     1       6.778  -7.729  -8.209  1.00  0.00     0.018 A 
ATOM      6  C   UNL     1       7.177  -9.016  -7.817  1.00  0.00     0.012 A 
ATOM      7  C   UNL     1       7.140  -6.595  -7.476  1.00  0.00     0.019 A 
ATOM      8  C   UNL     1       6.718  -5.337  -7.909  1.00  0.00     0.094 A 
ATOM      9  C   UNL     1       5.941  -5.244  -9.069  1.00  0.00     0.336 A 
ATOM     10  O   UNL     1       5.551  -4.119  -9.475  1.00  0.00    -0.246 OA
ATOM     11  O   UNL     1       5.611  -6.340  -9.749  1.00  0.00    -0.423 OA
ENDROOT
TORSDOF 0
ENDMDL
MODEL 6
REMARK VINA RESULT:    -3.085      1.882      4.277
REMARK INTER + INTRA:          -3.085
REMARK INTER:                  -3.085
REMARK INTRA:                   0.000
REMARK UNBOUND:                 0.000
REMARK SMILES O=c1ccc2ccccc2o1
REMARK SMILES IDX 7 1 8 2 9 3 10 4 5 5 6 6 4 7 3 8 2 9 1 10 11 11
REMARK H PARENT
REMARK Flexibility Score: inf
ROOT
ATOM      1  C   UNL     1      -2.021   5.102  -8.298  1.00  0.00     0.001 A 
ATOM      2  C   UNL     1      -2.297   5.259  -9.661  1.00  0.00     0.004 A 
ATOM      3  C   UNL     1      -3.614   5.179 -10.125  1.00  0.00     0.048 A 
ATOM      4  C   UNL     1      -4.661   4.939  -9.228  1.00  0.00     0.138 A 
ATOM      5  C   UNL     1      -4.382   4.780  -7.852  1.00  0.00     0.018 A 
ATOM      6  C   UNL     1      -3.059   4.863  -7.391  1.00  0.00     0.012 A 
ATOM      7  C   UNL     1      -5.448   4.543  -6.979  1.00  0.00     0.019 A 
ATOM      8  C   UNL     1      -6.745   4.471  -7.487  1.00  0.00     0.094 A 
ATOM      9  C   UNL     1      -6.946   4.637  -8.862  1.00  0.00     0.336 A 
ATOM     10  O   UNL     1      -8.108   4.575  -9.339  1.00  0.00    -0.246 OA
ATOM     11  O   UNL     1      -5.913   4.863  -9.671  1.00  0.00    -0.423 OA
ENDROOT
TORSDOF 0
ENDMDL
MODEL 7
REMARK VINA RESULT:    -3.001     14.846     16.324
REMARK INTER + INTRA:          -3.001
REMARK INTER:                  -3.001
REMARK INTRA:                   0.000
REMARK UNBOUND:                 0.000
REMARK SMILES O=c1ccc2ccccc2o1
REMARK SMILES IDX 7 1 8 2 9 3 10 4 5 5 6 6 4 7 3 8 2 9 1 10 11 11
REMARK H PARENT
REMARK Flexibility Score: inf
ROOT
ATOM      1  C   UNL     1       6.744  -9.268  -8.853  1.00  0.00     0.001 A 
ATOM      2  C   UNL     1       7.200  -9.012  -7.554  1.00  0.00     0.004 A 
ATOM      3  C   UNL     1       7.203  -7.706  -7.055  1.00  0.00     0.048 A 
ATOM      4  C   UNL     1       6.751  -6.649  -7.852  1.00  0.00     0.138 A 
ATOM      5  C   UNL     1       6.291  -6.907  -9.163  1.00  0.00     0.018 A 
ATOM      6  C   UNL     1       6.289  -8.219  -9.659  1.00  0.00     0.012 A 
ATOM      7  C   UNL     1       5.844  -5.831  -9.936  1.00  0.00     0.019 A 
ATOM      8  C   UNL     1       5.866  -4.545  -9.396  1.00  0.00     0.094 A 
ATOM      9  C   UNL     1       6.335  -4.365  -8.090  1.00  0.00     0.336 A 
ATOM     10  O   UNL     1       6.363  -3.213  -7.586  1.00  0.00    -0.246 OA
ATOM     11  O   UNL     1       6.754  -5.406  -7.375  1.00  0.00    -0.423 OA
ENDROOT
TORSDOF 0
ENDMDL
MODEL 8
REMARK VINA RESULT:    -2.679     17.691     18.274
REMARK INTER + INTRA:          -2.679
REMARK INTER:                  -2.679
REMARK INTRA:                   0.000
REMARK UNBOUND:                 0.000
REMARK SMILES O=c1ccc2ccccc2o1
REMARK SMILES IDX 7 1 8 2 9 3 10 4 5 5 6 6 4 7 3 8 2 9 1 10 11 11
REMARK H PARENT
REMARK Flexibility Score: inf
ROOT
ATOM      1  C   UNL     1      -9.736   5.966  10.074  1.00  0.00     0.001 A 
ATOM      2  C   UNL     1     -10.125   7.310  10.125  1.00  0.00     0.004 A 
ATOM      3  C   UNL     1      -9.193   8.322   9.872  1.00  0.00     0.048 A 
ATOM      4  C   UNL     1      -7.867   7.995   9.568  1.00  0.00     0.138 A 
ATOM      5  C   UNL     1      -7.474   6.638   9.516  1.00  0.00     0.018 A 
ATOM      6  C   UNL     1      -8.413   5.627   9.769  1.00  0.00     0.012 A 
ATOM      7  C   UNL     1      -6.143   6.341   9.208  1.00  0.00     0.019 A 
ATOM      8  C   UNL     1      -5.249   7.384   8.964  1.00  0.00     0.094 A 
ATOM      9  C   UNL     1      -5.709   8.703   9.033  1.00  0.00     0.336 A 
ATOM     10  O   UNL     1      -4.917   9.657   8.816  1.00  0.00    -0.246 OA
ATOM     11  O   UNL     1      -6.982   8.959   9.327  1.00  0.00    -0.423 OA
ENDROOT
TORSDOF 0
ENDMDL
