MODEL 1
REMARK VINA RESULT:    -5.405      0.000      0.000
REMARK INTER + INTRA:          -6.625
REMARK INTER:                  -6.353
REMARK INTRA:                  -0.272
REMARK UNBOUND:                -0.272
REMARK SMILES O=c1c(O)c(-c2ccc(O)cc2)oc2cc(O)cc(O)c12
REMARK SMILES IDX 5 1 3 2 2 3 1 4 21 5 19 6 18 7 16 8 15 9 14 10 13 11 6 12
REMARK SMILES IDX 7 13 8 14 9 15 12 16 11 17 10 18 4 20 20 22 17 24
REMARK H PARENT 10 19 4 21 20 23 17 25
REMARK Flexibility Score: inf
ROOT
ATOM      1  C   UNL     1      17.413   3.078  41.413  1.00  0.00     0.180 A 
ATOM      2  C   UNL     1      17.756   4.310  40.829  1.00  0.00     0.208 A 
ATOM      3  C   UNL     1      17.274   4.612  39.546  1.00  0.00     0.238 A 
ATOM      4  O   UNL     1      17.646   5.683  39.000  1.00  0.00    -0.285 OA
ATOM      5  C   UNL     1      16.410   3.706  38.885  1.00  0.00     0.111 A 
ATOM      6  C   UNL     1      15.825   3.930  37.601  1.00  0.00     0.134 A 
ATOM      7  C   UNL     1      15.070   2.916  37.000  1.00  0.00     0.093 A 
ATOM      8  C   UNL     1      14.824   1.712  37.660  1.00  0.00     0.123 A 
ATOM      9  C   UNL     1      15.344   1.504  38.937  1.00  0.00     0.094 A 
ATOM     10  C   UNL     1      16.134   2.482  39.548  1.00  0.00     0.146 A 
ATOM     11  O   UNL     1      16.626   2.235  40.756  1.00  0.00    -0.452 OA
ENDROOT
BRANCH   1  12
ATOM     12  C   UNL     1      17.893   2.681  42.757  1.00  0.00     0.021 A 
ATOM     13  C   UNL     1      19.181   2.139  42.898  1.00  0.00     0.016 A 
ATOM     14  C   UNL     1      19.664   1.779  44.160  1.00  0.00     0.047 A 
ATOM     15  C   UNL     1      18.870   1.972  45.298  1.00  0.00     0.115 A 
ATOM     16  C   UNL     1      17.110   2.892  43.907  1.00  0.00     0.016 A 
ATOM     17  C   UNL     1      17.596   2.532  45.168  1.00  0.00     0.047 A 
BRANCH  15  18
ATOM     18  O   UNL     1      19.341   1.617  46.560  1.00  0.00    -0.508 OA
ATOM     19  H   UNL     1      20.309   1.759  46.824  1.00  0.00     0.293 HD
ENDBRANCH  15  18
ENDBRANCH   1  12
BRANCH   2  20
ATOM     20  O   UNL     1      18.548   5.223  41.529  1.00  0.00    -0.502 OA
ATOM     21  H   UNL     1      18.226   5.692  42.367  1.00  0.00     0.293 HD
ENDBRANCH   2  20
BRANCH   6  22
ATOM     22  O   UNL     1      15.933   5.128  36.889  1.00  0.00    -0.507 OA
ATOM     23  H   UNL     1      15.315   5.417  36.145  1.00  0.00     0.293 HD
ENDBRANCH   6  22
BRANCH   8  24
ATOM     24  O   UNL     1      14.054   0.732  37.038  1.00  0.00    -0.508 OA
ATOM     25  H   UNL     1      14.115  -0.242  37.310  1.00  0.00     0.293 HD
ENDBRANCH   8  24
TORSDOF 5
ENDMDL
MODEL 2
REMARK VINA RESULT:    -5.379      1.189      1.602
REMARK INTER + INTRA:          -6.594
REMARK INTER:                  -6.311
REMARK INTRA:                  -0.283
REMARK UNBOUND:                -0.272
REMARK SMILES O=c1c(O)c(-c2ccc(O)cc2)oc2cc(O)cc(O)c12
REMARK SMILES IDX 5 1 3 2 2 3 1 4 21 5 19 6 18 7 16 8 15 9 14 10 13 11 6 12
REMARK SMILES IDX 7 13 8 14 9 15 12 16 11 17 10 18 4 20 20 22 17 24
REMARK H PARENT 10 19 4 21 20 23 17 25
REMARK Flexibility Score: inf
ROOT
ATOM      1  C   UNL     1      17.515   2.480  40.708  1.00  0.00     0.180 A 
ATOM      2  C   UNL     1      17.417   3.766  40.148  1.00  0.00     0.208 A 
ATOM      3  C   UNL     1      16.899   3.905  38.852  1.00  0.00     0.238 A 
ATOM      4  O   UNL     1      16.883   5.050  38.329  1.00  0.00    -0.285 OA
ATOM      5  C   UNL     1      16.434   2.766  38.150  1.00  0.00     0.111 A 
ATOM      6  C   UNL     1      15.849   2.796  36.848  1.00  0.00     0.134 A 
ATOM      7  C   UNL     1      15.522   1.594  36.209  1.00  0.00     0.093 A 
ATOM      8  C   UNL     1      15.699   0.368  36.849  1.00  0.00     0.123 A 
ATOM      9  C   UNL     1      16.219   0.329  38.142  1.00  0.00     0.094 A 
ATOM     10  C   UNL     1      16.590   1.510  38.791  1.00  0.00     0.146 A 
ATOM     11  O   UNL     1      17.101   1.427  40.014  1.00  0.00    -0.452 OA
ENDROOT
BRANCH   1  12
ATOM     12  C   UNL     1      18.063   2.250  42.064  1.00  0.00     0.021 A 
ATOM     13  C   UNL     1      17.183   2.034  43.137  1.00  0.00     0.016 A 
ATOM     14  C   UNL     1      17.679   1.791  44.422  1.00  0.00     0.047 A 
ATOM     15  C   UNL     1      19.061   1.747  44.646  1.00  0.00     0.115 A 
ATOM     16  C   UNL     1      19.450   2.182  42.293  1.00  0.00     0.016 A 
ATOM     17  C   UNL     1      19.943   1.939  43.579  1.00  0.00     0.047 A 
BRANCH  15  18
ATOM     18  O   UNL     1      19.566   1.506  45.922  1.00  0.00    -0.508 OA
ATOM     19  H   UNL     1      19.767   2.263  46.564  1.00  0.00     0.293 HD
ENDBRANCH  15  18
ENDBRANCH   1  12
BRANCH   2  20
ATOM     20  O   UNL     1      17.810   4.886  40.886  1.00  0.00    -0.502 OA
ATOM     21  H   UNL     1      17.244   5.724  40.946  1.00  0.00     0.293 HD
ENDBRANCH   2  20
BRANCH   6  22
ATOM     22  O   UNL     1      15.545   3.971  36.152  1.00  0.00    -0.507 OA
ATOM     23  H   UNL     1      14.784   4.595  36.375  1.00  0.00     0.293 HD
ENDBRANCH   6  22
BRANCH   8  24
ATOM     24  O   UNL     1      15.347  -0.808  36.189  1.00  0.00    -0.508 OA
ATOM     25  H   UNL     1      16.038  -1.514  35.959  1.00  0.00     0.293 HD
ENDBRANCH   8  24
TORSDOF 5
ENDMDL
MODEL 3
REMARK VINA RESULT:    -5.368      9.143     10.191
REMARK INTER + INTRA:          -6.581
REMARK INTER:                  -6.342
REMARK INTRA:                  -0.239
REMARK UNBOUND:                -0.272
REMARK SMILES O=c1c(O)c(-c2ccc(O)cc2)oc2cc(O)cc(O)c12
REMARK SMILES IDX 5 1 3 2 2 3 1 4 21 5 19 6 18 7 16 8 15 9 14 10 13 11 6 12
REMARK SMILES IDX 7 13 8 14 9 15 12 16 11 17 10 18 4 20 20 22 17 24
REMARK H PARENT 10 19 4 21 20 23 17 25
REMARK Flexibility Score: inf
ROOT
ATOM      1  C   UNL     1       9.779   0.657  45.931  1.00  0.00     0.180 A 
ATOM      2  C   UNL     1       9.994   1.780  46.750  1.00  0.00     0.208 A 
ATOM      3  C   UNL     1       9.064   2.829  46.723  1.00  0.00     0.238 A 
ATOM      4  O   UNL     1       9.302   3.862  47.402  1.00  0.00    -0.285 OA
ATOM      5  C   UNL     1       7.901   2.722  45.922  1.00  0.00     0.111 A 
ATOM      6  C   UNL     1       6.869   3.707  45.852  1.00  0.00     0.134 A 
ATOM      7  C   UNL     1       5.816   3.541  44.944  1.00  0.00     0.093 A 
ATOM      8  C   UNL     1       5.724   2.399  44.149  1.00  0.00     0.123 A 
ATOM      9  C   UNL     1       6.698   1.405  44.248  1.00  0.00     0.094 A 
ATOM     10  C   UNL     1       7.780   1.559  45.118  1.00  0.00     0.146 A 
ATOM     11  O   UNL     1       8.696   0.599  45.166  1.00  0.00    -0.452 OA
ENDROOT
BRANCH   1  12
ATOM     12  C   UNL     1      10.722  -0.484  45.893  1.00  0.00     0.021 A 
ATOM     13  C   UNL     1      10.351  -1.706  46.478  1.00  0.00     0.016 A 
ATOM     14  C   UNL     1      11.216  -2.804  46.434  1.00  0.00     0.047 A 
ATOM     15  C   UNL     1      12.456  -2.698  45.790  1.00  0.00     0.115 A 
ATOM     16  C   UNL     1      11.960  -0.391  45.230  1.00  0.00     0.016 A 
ATOM     17  C   UNL     1      12.823  -1.491  45.187  1.00  0.00     0.047 A 
BRANCH  15  18
ATOM     18  O   UNL     1      13.326  -3.785  45.740  1.00  0.00    -0.508 OA
ATOM     19  H   UNL     1      13.059  -4.694  46.099  1.00  0.00     0.293 HD
ENDBRANCH  15  18
ENDBRANCH   1  12
BRANCH   2  20
ATOM     20  O   UNL     1      11.109   1.832  47.591  1.00  0.00    -0.502 OA
ATOM     21  H   UNL     1      11.357   1.073  48.214  1.00  0.00     0.293 HD
ENDBRANCH   2  20
BRANCH   6  22
ATOM     22  O   UNL     1       6.815   4.844  46.663  1.00  0.00    -0.507 OA
ATOM     23  H   UNL     1       7.421   5.023  47.450  1.00  0.00     0.293 HD
ENDBRANCH   6  22
BRANCH   8  24
ATOM     24  O   UNL     1       4.653   2.259  43.268  1.00  0.00    -0.508 OA
ATOM     25  H   UNL     1       3.694   2.257  43.596  1.00  0.00     0.293 HD
ENDBRANCH   8  24
TORSDOF 5
ENDMDL
MODEL 4
REMARK VINA RESULT:    -5.349      1.801      7.133
REMARK INTER + INTRA:          -6.559
REMARK INTER:                  -6.393
REMARK INTRA:                  -0.166
REMARK UNBOUND:                -0.272
REMARK SMILES O=c1c(O)c(-c2ccc(O)cc2)oc2cc(O)cc(O)c12
REMARK SMILES IDX 5 1 3 2 2 3 1 4 21 5 19 6 18 7 16 8 15 9 14 10 13 11 6 12
REMARK SMILES IDX 7 13 8 14 9 15 12 16 11 17 10 18 4 20 20 22 17 24
REMARK H PARENT 10 19 4 21 20 23 17 25
REMARK Flexibility Score: inf
ROOT
ATOM      1  C   UNL     1      17.388   2.700  41.764  1.00  0.00     0.180 A 
ATOM      2  C   UNL     1      18.255   1.640  42.082  1.00  0.00     0.208 A 
ATOM      3  C   UNL     1      18.791   1.565  43.377  1.00  0.00     0.238 A 
ATOM      4  O   UNL     1      19.624   0.656  43.632  1.00  0.00    -0.285 OA
ATOM      5  C   UNL     1      18.411   2.516  44.354  1.00  0.00     0.111 A 
ATOM      6  C   UNL     1      18.858   2.510  45.711  1.00  0.00     0.134 A 
ATOM      7  C   UNL     1      18.500   3.562  46.561  1.00  0.00     0.093 A 
ATOM      8  C   UNL     1      17.660   4.587  46.125  1.00  0.00     0.123 A 
ATOM      9  C   UNL     1      17.173   4.575  44.818  1.00  0.00     0.094 A 
ATOM     10  C   UNL     1      17.544   3.557  43.934  1.00  0.00     0.146 A 
ATOM     11  O   UNL     1      17.075   3.595  42.693  1.00  0.00    -0.452 OA
ENDROOT
BRANCH   1  12
ATOM     12  C   UNL     1      16.793   2.855  40.417  1.00  0.00     0.021 A 
ATOM     13  C   UNL     1      15.821   1.940  39.981  1.00  0.00     0.016 A 
ATOM     14  C   UNL     1      15.229   2.081  38.722  1.00  0.00     0.047 A 
ATOM     15  C   UNL     1      15.591   3.149  37.890  1.00  0.00     0.115 A 
ATOM     16  C   UNL     1      17.136   3.937  39.584  1.00  0.00     0.016 A 
ATOM     17  C   UNL     1      16.541   4.076  38.326  1.00  0.00     0.047 A 
BRANCH  15  18
ATOM     18  O   UNL     1      15.008   3.299  36.634  1.00  0.00    -0.508 OA
ATOM     19  H   UNL     1      14.644   2.506  36.120  1.00  0.00     0.293 HD
ENDBRANCH  15  18
ENDBRANCH   1  12
BRANCH   2  20
ATOM     20  O   UNL     1      18.557   0.668  41.125  1.00  0.00    -0.502 OA
ATOM     21  H   UNL     1      17.848   0.078  40.706  1.00  0.00     0.293 HD
ENDBRANCH   2  20
BRANCH   6  22
ATOM     22  O   UNL     1      19.628   1.489  46.278  1.00  0.00    -0.507 OA
ATOM     23  H   UNL     1      20.623   1.537  46.438  1.00  0.00     0.293 HD
ENDBRANCH   6  22
BRANCH   8  24
ATOM     24  O   UNL     1      17.311   5.610  47.004  1.00  0.00    -0.508 OA
ATOM     25  H   UNL     1      17.065   5.420  47.968  1.00  0.00     0.293 HD
ENDBRANCH   8  24
TORSDOF 5
ENDMDL
MODEL 5
REMARK VINA RESULT:    -5.269      9.266     11.412
REMARK INTER + INTRA:          -6.465
REMARK INTER:                  -6.209
REMARK INTRA:                  -0.256
REMARK UNBOUND:                -0.272
REMARK SMILES O=c1c(O)c(-c2ccc(O)cc2)oc2cc(O)cc(O)c12
REMARK SMILES IDX 5 1 3 2 2 3 1 4 21 5 19 6 18 7 16 8 15 9 14 10 13 11 6 12
REMARK SMILES IDX 7 13 8 14 9 15 12 16 11 17 10 18 4 20 20 22 17 24
REMARK H PARENT 10 19 4 21 20 23 17 25
REMARK Flexibility Score: inf
ROOT
ATOM      1  C   UNL     1       8.772   0.506  45.758  1.00  0.00     0.180 A 
ATOM      2  C   UNL     1       8.277  -0.481  46.627  1.00  0.00     0.208 A 
ATOM      3  C   UNL     1       9.078  -1.597  46.915  1.00  0.00     0.238 A 
ATOM      4  O   UNL     1       8.600  -2.512  47.634  1.00  0.00    -0.285 OA
ATOM      5  C   UNL     1      10.384  -1.686  46.376  1.00  0.00     0.111 A 
ATOM      6  C   UNL     1      11.301  -2.751  46.637  1.00  0.00     0.134 A 
ATOM      7  C   UNL     1      12.527  -2.787  45.963  1.00  0.00     0.093 A 
ATOM      8  C   UNL     1      12.900  -1.767  45.089  1.00  0.00     0.123 A 
ATOM      9  C   UNL     1      12.036  -0.694  44.868  1.00  0.00     0.094 A 
ATOM     10  C   UNL     1      10.788  -0.649  45.496  1.00  0.00     0.146 A 
ATOM     11  O   UNL     1       9.988   0.380  45.242  1.00  0.00    -0.452 OA
ENDROOT
BRANCH   1  12
ATOM     12  C   UNL     1       7.982   1.705  45.395  1.00  0.00     0.021 A 
ATOM     13  C   UNL     1       8.325   2.951  45.945  1.00  0.00     0.016 A 
ATOM     14  C   UNL     1       7.607   4.100  45.599  1.00  0.00     0.047 A 
ATOM     15  C   UNL     1       6.548   4.020  44.686  1.00  0.00     0.115 A 
ATOM     16  C   UNL     1       6.931   1.636  44.462  1.00  0.00     0.016 A 
ATOM     17  C   UNL     1       6.216   2.788  44.116  1.00  0.00     0.047 A 
BRANCH  15  18
ATOM     18  O   UNL     1       5.827   5.159  44.333  1.00  0.00    -0.508 OA
ATOM     19  H   UNL     1       6.180   6.089  44.522  1.00  0.00     0.293 HD
ENDBRANCH  15  18
ENDBRANCH   1  12
BRANCH   2  20
ATOM     20  O   UNL     1       7.015  -0.337  47.210  1.00  0.00    -0.502 OA
ATOM     21  H   UNL     1       6.864   0.205  48.052  1.00  0.00     0.293 HD
ENDBRANCH   2  20
BRANCH   6  22
ATOM     22  O   UNL     1      11.068  -3.776  47.558  1.00  0.00    -0.507 OA
ATOM     23  H   UNL     1      11.752  -4.137  48.207  1.00  0.00     0.293 HD
ENDBRANCH   6  22
BRANCH   8  24
ATOM     24  O   UNL     1      14.136  -1.827  44.449  1.00  0.00    -0.508 OA
ATOM     25  H   UNL     1      14.513  -1.030  43.949  1.00  0.00     0.293 HD
ENDBRANCH   8  24
TORSDOF 5
ENDMDL
MODEL 6
REMARK VINA RESULT:    -5.248      1.726      6.289
REMARK INTER + INTRA:          -6.440
REMARK INTER:                  -6.144
REMARK INTRA:                  -0.296
REMARK UNBOUND:                -0.272
REMARK SMILES O=c1c(O)c(-c2ccc(O)cc2)oc2cc(O)cc(O)c12
REMARK SMILES IDX 5 1 3 2 2 3 1 4 21 5 19 6 18 7 16 8 15 9 14 10 13 11 6 12
REMARK SMILES IDX 7 13 8 14 9 15 12 16 11 17 10 18 4 20 20 22 17 24
REMARK H PARENT 10 19 4 21 20 23 17 25
REMARK Flexibility Score: inf
ROOT
ATOM      1  C   UNL     1      16.357   2.395  40.207  1.00  0.00     0.180 A 
ATOM      2  C   UNL     1      16.638   3.770  40.121  1.00  0.00     0.208 A 
ATOM      3  C   UNL     1      16.946   4.476  41.294  1.00  0.00     0.238 A 
ATOM      4  O   UNL     1      17.123   5.719  41.219  1.00  0.00    -0.285 OA
ATOM      5  C   UNL     1      17.026   3.790  42.530  1.00  0.00     0.111 A 
ATOM      6  C   UNL     1      17.374   4.397  43.776  1.00  0.00     0.134 A 
ATOM      7  C   UNL     1      17.317   3.641  44.952  1.00  0.00     0.093 A 
ATOM      8  C   UNL     1      16.987   2.286  44.923  1.00  0.00     0.123 A 
ATOM      9  C   UNL     1      16.698   1.669  43.706  1.00  0.00     0.094 A 
ATOM     10  C   UNL     1      16.710   2.407  42.519  1.00  0.00     0.146 A 
ATOM     11  O   UNL     1      16.408   1.785  41.385  1.00  0.00    -0.452 OA
ENDROOT
BRANCH   1  12
ATOM     12  C   UNL     1      16.010   1.585  39.017  1.00  0.00     0.021 A 
ATOM     13  C   UNL     1      17.012   0.841  38.371  1.00  0.00     0.016 A 
ATOM     14  C   UNL     1      16.702   0.051  37.260  1.00  0.00     0.047 A 
ATOM     15  C   UNL     1      15.384  -0.017  36.790  1.00  0.00     0.115 A 
ATOM     16  C   UNL     1      14.685   1.494  38.552  1.00  0.00     0.016 A 
ATOM     17  C   UNL     1      14.378   0.702  37.441  1.00  0.00     0.047 A 
BRANCH  15  18
ATOM     18  O   UNL     1      15.064  -0.802  35.684  1.00  0.00    -0.508 OA
ATOM     19  H   UNL     1      14.958  -1.806  35.759  1.00  0.00     0.293 HD
ENDBRANCH  15  18
ENDBRANCH   1  12
BRANCH   2  20
ATOM     20  O   UNL     1      16.630   4.413  38.880  1.00  0.00    -0.502 OA
ATOM     21  H   UNL     1      17.480   4.684  38.402  1.00  0.00     0.293 HD
ENDBRANCH   2  20
BRANCH   6  22
ATOM     22  O   UNL     1      17.804   5.721  43.908  1.00  0.00    -0.507 OA
ATOM     23  H   UNL     1      17.657   6.448  43.224  1.00  0.00     0.293 HD
ENDBRANCH   6  22
BRANCH   8  24
ATOM     24  O   UNL     1      16.957   1.561  46.112  1.00  0.00    -0.508 OA
ATOM     25  H   UNL     1      17.189   1.989  47.001  1.00  0.00     0.293 HD
ENDBRANCH   8  24
TORSDOF 5
ENDMDL
MODEL 7
REMARK VINA RESULT:    -5.203      2.253      2.406
REMARK INTER + INTRA:          -6.388
REMARK INTER:                  -6.138
REMARK INTRA:                  -0.250
REMARK UNBOUND:                -0.272
REMARK SMILES O=c1c(O)c(-c2ccc(O)cc2)oc2cc(O)cc(O)c12
REMARK SMILES IDX 5 1 3 2 2 3 1 4 21 5 19 6 18 7 16 8 15 9 14 10 13 11 6 12
REMARK SMILES IDX 7 13 8 14 9 15 12 16 11 17 10 18 4 20 20 22 17 24
REMARK H PARENT 10 19 4 21 20 23 17 25
REMARK Flexibility Score: inf
ROOT
ATOM      1  C   UNL     1      18.078   1.470  40.684  1.00  0.00     0.180 A 
ATOM      2  C   UNL     1      19.031   1.521  39.652  1.00  0.00     0.208 A 
ATOM      3  C   UNL     1      18.594   1.472  38.319  1.00  0.00     0.238 A 
ATOM      4  O   UNL     1      19.457   1.443  37.403  1.00  0.00    -0.285 OA
ATOM      5  C   UNL     1      17.208   1.429  38.032  1.00  0.00     0.111 A 
ATOM      6  C   UNL     1      16.651   1.422  36.716  1.00  0.00     0.134 A 
ATOM      7  C   UNL     1      15.269   1.271  36.553  1.00  0.00     0.093 A 
ATOM      8  C   UNL     1      14.418   1.191  37.654  1.00  0.00     0.123 A 
ATOM      9  C   UNL     1      14.945   1.252  38.944  1.00  0.00     0.094 A 
ATOM     10  C   UNL     1      16.324   1.364  39.140  1.00  0.00     0.146 A 
ATOM     11  O   UNL     1      16.787   1.398  40.384  1.00  0.00    -0.452 OA
ENDROOT
BRANCH   1  12
ATOM     12  C   UNL     1      18.461   1.503  42.114  1.00  0.00     0.021 A 
ATOM     13  C   UNL     1      18.962   0.340  42.722  1.00  0.00     0.016 A 
ATOM     14  C   UNL     1      19.351   0.354  44.065  1.00  0.00     0.047 A 
ATOM     15  C   UNL     1      19.259   1.536  44.812  1.00  0.00     0.115 A 
ATOM     16  C   UNL     1      18.392   2.691  42.865  1.00  0.00     0.016 A 
ATOM     17  C   UNL     1      18.783   2.703  44.207  1.00  0.00     0.047 A 
BRANCH  15  18
ATOM     18  O   UNL     1      19.645   1.562  46.150  1.00  0.00    -0.508 OA
ATOM     19  H   UNL     1      20.238   2.296  46.516  1.00  0.00     0.293 HD
ENDBRANCH  15  18
ENDBRANCH   1  12
BRANCH   2  20
ATOM     20  O   UNL     1      20.390   1.641  39.956  1.00  0.00    -0.502 OA
ATOM     21  H   UNL     1      20.802   1.222  40.781  1.00  0.00     0.293 HD
ENDBRANCH   2  20
BRANCH   6  22
ATOM     22  O   UNL     1      17.400   1.584  35.547  1.00  0.00    -0.507 OA
ATOM     23  H   UNL     1      17.118   1.269  34.631  1.00  0.00     0.293 HD
ENDBRANCH   6  22
BRANCH   8  24
ATOM     24  O   UNL     1      13.045   1.058  37.454  1.00  0.00    -0.508 OA
ATOM     25  H   UNL     1      12.597   0.149  37.442  1.00  0.00     0.293 HD
ENDBRANCH   8  24
TORSDOF 5
ENDMDL
MODEL 8
REMARK VINA RESULT:    -5.176      9.199     10.523
REMARK INTER + INTRA:          -6.355
REMARK INTER:                  -6.090
REMARK INTRA:                  -0.266
REMARK UNBOUND:                -0.272
REMARK SMILES O=c1c(O)c(-c2ccc(O)cc2)oc2cc(O)cc(O)c12
REMARK SMILES IDX 5 1 3 2 2 3 1 4 21 5 19 6 18 7 16 8 15 9 14 10 13 11 6 12
REMARK SMILES IDX 7 13 8 14 9 15 12 16 11 17 10 18 4 20 20 22 17 24
REMARK H PARENT 10 19 4 21 20 23 17 25
REMARK Flexibility Score: inf
ROOT
ATOM      1  C   UNL     1       9.984  -0.015  45.892  1.00  0.00     0.180 A 
ATOM      2  C   UNL     1       9.368  -0.785  46.894  1.00  0.00     0.208 A 
ATOM      3  C   UNL     1       7.971  -0.747  47.018  1.00  0.00     0.238 A 
ATOM      4  O   UNL     1       7.433  -1.380  47.964  1.00  0.00    -0.285 OA
ATOM      5  C   UNL     1       7.201   0.014  46.105  1.00  0.00     0.111 A 
ATOM      6  C   UNL     1       5.774   0.088  46.110  1.00  0.00     0.134 A 
ATOM      7  C   UNL     1       5.126   0.957  45.224  1.00  0.00     0.093 A 
ATOM      8  C   UNL     1       5.844   1.705  44.293  1.00  0.00     0.123 A 
ATOM      9  C   UNL     1       7.234   1.600  44.243  1.00  0.00     0.094 A 
ATOM     10  C   UNL     1       7.913   0.769  45.139  1.00  0.00     0.146 A 
ATOM     11  O   UNL     1       9.238   0.714  45.071  1.00  0.00    -0.452 OA
ENDROOT
BRANCH   1  12
ATOM     12  C   UNL     1      11.453   0.009  45.707  1.00  0.00     0.021 A 
ATOM     13  C   UNL     1      12.026  -0.695  44.635  1.00  0.00     0.016 A 
ATOM     14  C   UNL     1      13.409  -0.668  44.428  1.00  0.00     0.047 A 
ATOM     15  C   UNL     1      14.233   0.078  45.280  1.00  0.00     0.115 A 
ATOM     16  C   UNL     1      12.286   0.773  46.546  1.00  0.00     0.016 A 
ATOM     17  C   UNL     1      13.668   0.800  46.335  1.00  0.00     0.047 A 
BRANCH  15  18
ATOM     18  O   UNL     1      15.612   0.113  45.082  1.00  0.00    -0.508 OA
ATOM     19  H   UNL     1      16.141  -0.729  44.890  1.00  0.00     0.293 HD
ENDBRANCH  15  18
ENDBRANCH   1  12
BRANCH   2  20
ATOM     20  O   UNL     1      10.140  -1.589  47.737  1.00  0.00    -0.502 OA
ATOM     21  H   UNL     1       9.740  -2.112  48.507  1.00  0.00     0.293 HD
ENDBRANCH   2  20
BRANCH   6  22
ATOM     22  O   UNL     1       4.952  -0.681  46.938  1.00  0.00    -0.507 OA
ATOM     23  H   UNL     1       4.618  -0.397  47.847  1.00  0.00     0.293 HD
ENDBRANCH   6  22
BRANCH   8  24
ATOM     24  O   UNL     1       5.164   2.547  43.416  1.00  0.00    -0.508 OA
ATOM     25  H   UNL     1       5.506   2.725  42.478  1.00  0.00     0.293 HD
ENDBRANCH   8  24
TORSDOF 5
ENDMDL
MODEL 9
REMARK VINA RESULT:    -5.173      3.757      6.747
REMARK INTER + INTRA:          -6.352
REMARK INTER:                  -6.064
REMARK INTRA:                  -0.289
REMARK UNBOUND:                -0.272
REMARK SMILES O=c1c(O)c(-c2ccc(O)cc2)oc2cc(O)cc(O)c12
REMARK SMILES IDX 5 1 3 2 2 3 1 4 21 5 19 6 18 7 16 8 15 9 14 10 13 11 6 12
REMARK SMILES IDX 7 13 8 14 9 15 12 16 11 17 10 18 4 20 20 22 17 24
REMARK H PARENT 10 19 4 21 20 23 17 25
REMARK Flexibility Score: inf
ROOT
ATOM      1  C   UNL     1      16.442   4.986  43.919  1.00  0.00     0.180 A 
ATOM      2  C   UNL     1      16.924   4.934  45.238  1.00  0.00     0.208 A 
ATOM      3  C   UNL     1      17.731   3.853  45.626  1.00  0.00     0.238 A 
ATOM      4  O   UNL     1      18.098   3.776  46.827  1.00  0.00    -0.285 OA
ATOM      5  C   UNL     1      18.092   2.866  44.677  1.00  0.00     0.111 A 
ATOM      6  C   UNL     1      18.943   1.750  44.948  1.00  0.00     0.134 A 
ATOM      7  C   UNL     1      19.145   0.780  43.960  1.00  0.00     0.093 A 
ATOM      8  C   UNL     1      18.582   0.916  42.691  1.00  0.00     0.123 A 
ATOM      9  C   UNL     1      17.795   2.029  42.397  1.00  0.00     0.094 A 
ATOM     10  C   UNL     1      17.543   2.995  43.375  1.00  0.00     0.146 A 
ATOM     11  O   UNL     1      16.771   4.029  43.060  1.00  0.00    -0.452 OA
ENDROOT
BRANCH   1  12
ATOM     12  C   UNL     1      15.574   6.086  43.439  1.00  0.00     0.021 A 
ATOM     13  C   UNL     1      14.180   5.968  43.558  1.00  0.00     0.016 A 
ATOM     14  C   UNL     1      13.343   7.004  43.132  1.00  0.00     0.047 A 
ATOM     15  C   UNL     1      13.891   8.177  42.597  1.00  0.00     0.115 A 
ATOM     16  C   UNL     1      16.118   7.275  42.920  1.00  0.00     0.016 A 
ATOM     17  C   UNL     1      15.279   8.310  42.496  1.00  0.00     0.047 A 
BRANCH  15  18
ATOM     18  O   UNL     1      13.067   9.216  42.170  1.00  0.00    -0.508 OA
ATOM     19  H   UNL     1      13.442  10.125  41.928  1.00  0.00     0.293 HD
ENDBRANCH  15  18
ENDBRANCH   1  12
BRANCH   2  20
ATOM     20  O   UNL     1      16.619   5.958  46.139  1.00  0.00    -0.502 OA
ATOM     21  H   UNL     1      16.996   5.986  47.079  1.00  0.00     0.293 HD
ENDBRANCH   2  20
BRANCH   6  22
ATOM     22  O   UNL     1      19.627   1.562  46.153  1.00  0.00    -0.507 OA
ATOM     23  H   UNL     1      20.624   1.430  46.237  1.00  0.00     0.293 HD
ENDBRANCH   6  22
BRANCH   8  24
ATOM     24  O   UNL     1      18.819  -0.061  41.726  1.00  0.00    -0.508 OA
ATOM     25  H   UNL     1      19.622  -0.677  41.781  1.00  0.00     0.293 HD
ENDBRANCH   8  24
TORSDOF 5
ENDMDL
