MODEL 1
REMARK VINA RESULT:    -1.064      0.000      0.000
REMARK INTER + INTRA:          -2.282
REMARK INTER:                  -2.060
REMARK INTRA:                  -0.222
REMARK UNBOUND:                -0.222
REMARK SMILES CCCCCCCCCCCCCCCCCC(=O)[O-]
REMARK SMILES IDX 10 1 11 2 12 3 13 4 14 5 15 6 16 7 17 8 18 9 19 10 20 11
REMARK SMILES IDX 9 12 8 13 7 14 6 15 5 16 4 17 3 18 2 19 1 20
REMARK H PARENT
REMARK Flexibility Score: inf
ROOT
ATOM      1  C   UNL     1      -9.090  51.015  -3.689  1.00  0.00     0.000 C 
ENDROOT
BRANCH   1   2
ATOM      2  C   UNL     1      -8.800  51.992  -2.540  1.00  0.00     0.000 C 
BRANCH   2   3
ATOM      3  C   UNL     1      -8.511  51.277  -1.209  1.00  0.00     0.000 C 
BRANCH   3   4
ATOM      4  C   UNL     1      -7.368  51.937  -0.420  1.00  0.00     0.000 C 
BRANCH   4   5
ATOM      5  C   UNL     1      -6.022  51.210  -0.591  1.00  0.00     0.000 C 
BRANCH   5   6
ATOM      6  C   UNL     1      -5.082  51.278   0.627  1.00  0.00     0.000 C 
BRANCH   6   7
ATOM      7  C   UNL     1      -3.637  50.874   0.294  1.00  0.00     0.006 C 
BRANCH   7   8
ATOM      8  C   UNL     1      -2.661  52.007   0.623  1.00  0.00     0.053 C 
BRANCH   8   9
ATOM      9  C   UNL     1      -1.358  51.795  -0.080  1.00  0.00     0.041 C 
ATOM     10  O   UNL     1      -0.276  52.114   0.479  1.00  0.00    -0.550 OA
ATOM     11  O   UNL     1      -1.340  51.293  -1.375  1.00  0.00    -0.550 OA
ENDBRANCH   8   9
ENDBRANCH   7   8
ENDBRANCH   6   7
ENDBRANCH   5   6
ENDBRANCH   4   5
ENDBRANCH   3   4
ENDBRANCH   2   3
ENDBRANCH   1   2
BRANCH   1  12
ATOM     12  C   UNL     1      -9.107  51.747  -5.038  1.00  0.00     0.000 C 
BRANCH  12  13
ATOM     13  C   UNL     1      -7.700  51.958  -5.625  1.00  0.00    -0.000 C 
BRANCH  13  14
ATOM     14  C   UNL     1      -7.391  51.138  -6.894  1.00  0.00    -0.000 C 
BRANCH  14  15
ATOM     15  C   UNL     1      -7.480  51.923  -8.215  1.00  0.00    -0.000 C 
BRANCH  15  16
ATOM     16  C   UNL     1      -6.647  51.294  -9.341  1.00  0.00    -0.000 C 
BRANCH  16  17
ATOM     17  C   UNL     1      -5.184  51.117  -8.910  1.00  0.00    -0.000 C 
BRANCH  17  18
ATOM     18  C   UNL     1      -4.762  52.099  -7.803  1.00  0.00    -0.000 C 
BRANCH  18  19
ATOM     19  C   UNL     1      -3.653  51.582  -6.869  1.00  0.00    -0.003 C 
ATOM     20  C   UNL     1      -2.257  52.038  -7.289  1.00  0.00     0.004 C 
ENDBRANCH  18  19
ENDBRANCH  17  18
ENDBRANCH  16  17
ENDBRANCH  15  16
ENDBRANCH  14  15
ENDBRANCH  13  14
ENDBRANCH  12  13
ENDBRANCH   1  12
TORSDOF 16
ENDMDL
MODEL 2
REMARK VINA RESULT:     0.403      4.857      5.441
REMARK INTER + INTRA:           0.558
REMARK INTER:                   1.126
REMARK INTRA:                  -0.568
REMARK UNBOUND:                -0.222
REMARK SMILES CCCCCCCCCCCCCCCCCC(=O)[O-]
REMARK SMILES IDX 10 1 11 2 12 3 13 4 14 5 15 6 16 7 17 8 18 9 19 10 20 11
REMARK SMILES IDX 9 12 8 13 7 14 6 15 5 16 4 17 3 18 2 19 1 20
REMARK H PARENT
REMARK Flexibility Score: inf
ROOT
ATOM      1  C   UNL     1      -8.455  50.807  -1.704  1.00  0.00     0.000 C 
ENDROOT
BRANCH   1   2
ATOM      2  C   UNL     1      -8.051  49.521  -0.969  1.00  0.00     0.000 C 
BRANCH   2   3
ATOM      3  C   UNL     1      -7.657  48.385  -1.928  1.00  0.00     0.000 C 
BRANCH   3   4
ATOM      4  C   UNL     1      -7.049  47.177  -1.195  1.00  0.00     0.000 C 
BRANCH   4   5
ATOM      5  C   UNL     1      -6.828  45.965  -2.118  1.00  0.00     0.000 C 
BRANCH   5   6
ATOM      6  C   UNL     1      -6.632  44.619  -1.396  1.00  0.00     0.000 C 
BRANCH   6   7
ATOM      7  C   UNL     1      -5.690  43.666  -2.147  1.00  0.00     0.006 C 
BRANCH   7   8
ATOM      8  C   UNL     1      -5.186  42.552  -1.224  1.00  0.00     0.053 C 
BRANCH   8   9
ATOM      9  C   UNL     1      -3.738  42.750  -0.907  1.00  0.00     0.041 C 
ATOM     10  O   UNL     1      -3.116  43.740  -1.375  1.00  0.00    -0.550 OA
ATOM     11  O   UNL     1      -3.061  41.814  -0.135  1.00  0.00    -0.550 OA
ENDBRANCH   8   9
ENDBRANCH   7   8
ENDBRANCH   6   7
ENDBRANCH   5   6
ENDBRANCH   4   5
ENDBRANCH   3   4
ENDBRANCH   2   3
ENDBRANCH   1   2
BRANCH   1  12
ATOM     12  C   UNL     1      -7.994  50.768  -3.168  1.00  0.00     0.000 C 
BRANCH  12  13
ATOM     13  C   UNL     1      -8.625  51.880  -4.026  1.00  0.00    -0.000 C 
BRANCH  13  14
ATOM     14  C   UNL     1      -8.035  52.025  -5.444  1.00  0.00    -0.000 C 
BRANCH  14  15
ATOM     15  C   UNL     1      -6.501  52.123  -5.504  1.00  0.00    -0.000 C 
BRANCH  15  16
ATOM     16  C   UNL     1      -5.952  52.038  -6.936  1.00  0.00    -0.000 C 
BRANCH  16  17
ATOM     17  C   UNL     1      -4.418  52.100  -6.941  1.00  0.00    -0.000 C 
BRANCH  17  18
ATOM     18  C   UNL     1      -3.803  51.648  -8.277  1.00  0.00    -0.000 C 
BRANCH  18  19
ATOM     19  C   UNL     1      -2.267  51.544  -8.279  1.00  0.00    -0.003 C 
ATOM     20  C   UNL     1      -1.642  51.902  -6.932  1.00  0.00     0.004 C 
ENDBRANCH  18  19
ENDBRANCH  17  18
ENDBRANCH  16  17
ENDBRANCH  15  16
ENDBRANCH  14  15
ENDBRANCH  13  14
ENDBRANCH  12  13
ENDBRANCH   1  12
TORSDOF 16
ENDMDL
MODEL 3
REMARK VINA RESULT:     0.443      4.433      5.089
REMARK INTER + INTRA:           0.636
REMARK INTER:                   1.124
REMARK INTRA:                  -0.488
REMARK UNBOUND:                -0.222
REMARK SMILES CCCCCCCCCCCCCCCCCC(=O)[O-]
REMARK SMILES IDX 10 1 11 2 12 3 13 4 14 5 15 6 16 7 17 8 18 9 19 10 20 11
REMARK SMILES IDX 9 12 8 13 7 14 6 15 5 16 4 17 3 18 2 19 1 20
REMARK H PARENT
REMARK Flexibility Score: inf
ROOT
ATOM      1  C   UNL     1      -8.698  52.116  -2.684  1.00  0.00     0.000 C 
ENDROOT
BRANCH   1   2
ATOM      2  C   UNL     1      -8.177  51.396  -1.431  1.00  0.00     0.000 C 
BRANCH   2   3
ATOM      3  C   UNL     1      -8.692  49.951  -1.317  1.00  0.00     0.000 C 
BRANCH   3   4
ATOM      4  C   UNL     1      -7.931  48.978  -2.234  1.00  0.00     0.000 C 
BRANCH   4   5
ATOM      5  C   UNL     1      -7.411  47.735  -1.490  1.00  0.00     0.000 C 
BRANCH   5   6
ATOM      6  C   UNL     1      -6.826  46.630  -2.389  1.00  0.00     0.000 C 
BRANCH   6   7
ATOM      7  C   UNL     1      -6.556  45.320  -1.634  1.00  0.00     0.006 C 
BRANCH   7   8
ATOM      8  C   UNL     1      -6.166  44.199  -2.601  1.00  0.00     0.053 C 
BRANCH   8   9
ATOM      9  C   UNL     1      -5.407  43.129  -1.882  1.00  0.00     0.041 C 
ATOM     10  O   UNL     1      -5.972  42.046  -1.578  1.00  0.00    -0.550 OA
ATOM     11  O   UNL     1      -4.089  43.348  -1.500  1.00  0.00    -0.550 OA
ENDBRANCH   8   9
ENDBRANCH   7   8
ENDBRANCH   6   7
ENDBRANCH   5   6
ENDBRANCH   4   5
ENDBRANCH   3   4
ENDBRANCH   2   3
ENDBRANCH   1   2
BRANCH   1  12
ATOM     12  C   UNL     1      -7.795  51.832  -3.893  1.00  0.00     0.000 C 
BRANCH  12  13
ATOM     13  C   UNL     1      -8.586  51.431  -5.151  1.00  0.00    -0.000 C 
BRANCH  13  14
ATOM     14  C   UNL     1      -8.066  52.037  -6.471  1.00  0.00    -0.000 C 
BRANCH  14  15
ATOM     15  C   UNL     1      -6.534  52.102  -6.597  1.00  0.00    -0.000 C 
BRANCH  15  16
ATOM     16  C   UNL     1      -6.053  52.102  -8.056  1.00  0.00    -0.000 C 
BRANCH  16  17
ATOM     17  C   UNL     1      -4.648  51.494  -8.171  1.00  0.00    -0.000 C 
BRANCH  17  18
ATOM     18  C   UNL     1      -3.639  52.125  -7.195  1.00  0.00    -0.000 C 
BRANCH  18  19
ATOM     19  C   UNL     1      -2.160  51.903  -7.563  1.00  0.00    -0.003 C 
ATOM     20  C   UNL     1      -1.879  52.100  -9.051  1.00  0.00     0.004 C 
ENDBRANCH  18  19
ENDBRANCH  17  18
ENDBRANCH  16  17
ENDBRANCH  15  16
ENDBRANCH  14  15
ENDBRANCH  13  14
ENDBRANCH  12  13
ENDBRANCH   1  12
TORSDOF 16
ENDMDL
MODEL 4
REMARK VINA RESULT:     0.548      4.821      5.686
REMARK INTER + INTRA:           0.839
REMARK INTER:                   1.604
REMARK INTRA:                  -0.766
REMARK UNBOUND:                -0.222
REMARK SMILES CCCCCCCCCCCCCCCCCC(=O)[O-]
REMARK SMILES IDX 10 1 11 2 12 3 13 4 14 5 15 6 16 7 17 8 18 9 19 10 20 11
REMARK SMILES IDX 9 12 8 13 7 14 6 15 5 16 4 17 3 18 2 19 1 20
REMARK H PARENT
REMARK Flexibility Score: inf
ROOT
ATOM      1  C   UNL     1      -8.433  50.814  -1.515  1.00  0.00     0.000 C 
ENDROOT
BRANCH   1   2
ATOM      2  C   UNL     1      -7.667  49.608  -0.951  1.00  0.00     0.000 C 
BRANCH   2   3
ATOM      3  C   UNL     1      -7.499  48.476  -1.978  1.00  0.00     0.000 C 
BRANCH   3   4
ATOM      4  C   UNL     1      -7.274  47.106  -1.316  1.00  0.00     0.000 C 
BRANCH   4   5
ATOM      5  C   UNL     1      -6.592  46.092  -2.253  1.00  0.00     0.000 C 
BRANCH   5   6
ATOM      6  C   UNL     1      -6.799  44.613  -1.879  1.00  0.00     0.000 C 
BRANCH   6   7
ATOM      7  C   UNL     1      -5.766  43.679  -2.525  1.00  0.00     0.006 C 
BRANCH   7   8
ATOM      8  C   UNL     1      -5.345  42.569  -1.557  1.00  0.00     0.053 C 
BRANCH   8   9
ATOM      9  C   UNL     1      -4.076  42.939  -0.858  1.00  0.00     0.041 C 
ATOM     10  O   UNL     1      -3.873  42.566   0.328  1.00  0.00    -0.550 OA
ATOM     11  O   UNL     1      -3.138  43.740  -1.497  1.00  0.00    -0.550 OA
ENDBRANCH   8   9
ENDBRANCH   7   8
ENDBRANCH   6   7
ENDBRANCH   5   6
ENDBRANCH   4   5
ENDBRANCH   3   4
ENDBRANCH   2   3
ENDBRANCH   1   2
BRANCH   1  12
ATOM     12  C   UNL     1      -8.788  50.595  -2.992  1.00  0.00     0.000 C 
BRANCH  12  13
ATOM     13  C   UNL     1      -8.882  51.908  -3.788  1.00  0.00    -0.000 C 
BRANCH  13  14
ATOM     14  C   UNL     1      -8.535  51.791  -5.286  1.00  0.00    -0.000 C 
BRANCH  14  15
ATOM     15  C   UNL     1      -7.054  51.501  -5.591  1.00  0.00    -0.000 C 
BRANCH  15  16
ATOM     16  C   UNL     1      -6.582  52.125  -6.912  1.00  0.00    -0.000 C 
BRANCH  16  17
ATOM     17  C   UNL     1      -5.800  51.105  -7.752  1.00  0.00    -0.000 C 
BRANCH  17  18
ATOM     18  C   UNL     1      -5.976  51.315  -9.267  1.00  0.00    -0.000 C 
BRANCH  18  19
ATOM     19  C   UNL     1      -7.392  51.030  -9.798  1.00  0.00    -0.003 C 
ATOM     20  C   UNL     1      -8.075  49.864  -9.085  1.00  0.00     0.004 C 
ENDBRANCH  18  19
ENDBRANCH  17  18
ENDBRANCH  16  17
ENDBRANCH  15  16
ENDBRANCH  14  15
ENDBRANCH  13  14
ENDBRANCH  12  13
ENDBRANCH   1  12
TORSDOF 16
ENDMDL
MODEL 5
REMARK VINA RESULT:     1.769      5.412      8.431
REMARK INTER + INTRA:           3.202
REMARK INTER:                   4.054
REMARK INTRA:                  -0.852
REMARK UNBOUND:                -0.222
REMARK SMILES CCCCCCCCCCCCCCCCCC(=O)[O-]
REMARK SMILES IDX 10 1 11 2 12 3 13 4 14 5 15 6 16 7 17 8 18 9 19 10 20 11
REMARK SMILES IDX 9 12 8 13 7 14 6 15 5 16 4 17 3 18 2 19 1 20
REMARK H PARENT
REMARK Flexibility Score: inf
ROOT
ATOM      1  C   UNL     1      -7.954  49.699  -2.957  1.00  0.00     0.000 C 
ENDROOT
BRANCH   1   2
ATOM      2  C   UNL     1      -9.124  50.673  -3.160  1.00  0.00     0.000 C 
BRANCH   2   3
ATOM      3  C   UNL     1      -8.735  51.906  -3.994  1.00  0.00     0.000 C 
BRANCH   3   4
ATOM      4  C   UNL     1      -7.213  52.062  -4.143  1.00  0.00     0.000 C 
BRANCH   4   5
ATOM      5  C   UNL     1      -6.756  52.125  -5.612  1.00  0.00     0.000 C 
BRANCH   5   6
ATOM      6  C   UNL     1      -7.706  51.453  -6.622  1.00  0.00     0.000 C 
BRANCH   6   7
ATOM      7  C   UNL     1      -7.468  51.913  -8.068  1.00  0.00     0.006 C 
BRANCH   7   8
ATOM      8  C   UNL     1      -5.976  51.891  -8.413  1.00  0.00     0.053 C 
BRANCH   8   9
ATOM      9  C   UNL     1      -5.713  50.942  -9.538  1.00  0.00     0.041 C 
ATOM     10  O   UNL     1      -6.665  50.319 -10.078  1.00  0.00    -0.550 OA
ATOM     11  O   UNL     1      -4.410  50.704  -9.958  1.00  0.00    -0.550 OA
ENDBRANCH   8   9
ENDBRANCH   7   8
ENDBRANCH   6   7
ENDBRANCH   5   6
ENDBRANCH   4   5
ENDBRANCH   3   4
ENDBRANCH   2   3
ENDBRANCH   1   2
BRANCH   1  12
ATOM     12  C   UNL     1      -7.584  49.590  -1.472  1.00  0.00     0.000 C 
BRANCH  12  13
ATOM     13  C   UNL     1      -6.911  48.253  -1.117  1.00  0.00    -0.000 C 
BRANCH  13  14
ATOM     14  C   UNL     1      -7.221  47.089  -2.081  1.00  0.00    -0.000 C 
BRANCH  14  15
ATOM     15  C   UNL     1      -6.997  45.683  -1.498  1.00  0.00    -0.000 C 
BRANCH  15  16
ATOM     16  C   UNL     1      -6.503  44.674  -2.545  1.00  0.00    -0.000 C 
BRANCH  16  17
ATOM     17  C   UNL     1      -6.138  43.335  -1.887  1.00  0.00    -0.000 C 
BRANCH  17  18
ATOM     18  C   UNL     1      -4.636  43.208  -1.578  1.00  0.00    -0.000 C 
BRANCH  18  19
ATOM     19  C   UNL     1      -4.273  42.086  -0.588  1.00  0.00    -0.003 C 
ATOM     20  C   UNL     1      -3.611  42.604   0.687  1.00  0.00     0.004 C 
ENDBRANCH  18  19
ENDBRANCH  17  18
ENDBRANCH  16  17
ENDBRANCH  15  16
ENDBRANCH  14  15
ENDBRANCH  13  14
ENDBRANCH  12  13
ENDBRANCH   1  12
TORSDOF 16
ENDMDL
MODEL 6
REMARK VINA RESULT:     1.854      4.815      7.199
REMARK INTER + INTRA:           3.366
REMARK INTER:                   3.897
REMARK INTRA:                  -0.532
REMARK UNBOUND:                -0.222
REMARK SMILES CCCCCCCCCCCCCCCCCC(=O)[O-]
REMARK SMILES IDX 10 1 11 2 12 3 13 4 14 5 15 6 16 7 17 8 18 9 19 10 20 11
REMARK SMILES IDX 9 12 8 13 7 14 6 15 5 16 4 17 3 18 2 19 1 20
REMARK H PARENT
REMARK Flexibility Score: inf
ROOT
ATOM      1  C   UNL     1      -8.971  50.319  -3.386  1.00  0.00     0.000 C 
ENDROOT
BRANCH   1   2
ATOM      2  C   UNL     1      -8.818  49.125  -2.432  1.00  0.00     0.000 C 
BRANCH   2   3
ATOM      3  C   UNL     1      -7.373  48.606  -2.355  1.00  0.00     0.000 C 
BRANCH   3   4
ATOM      4  C   UNL     1      -7.245  47.341  -1.489  1.00  0.00     0.000 C 
BRANCH   4   5
ATOM      5  C   UNL     1      -6.844  46.096  -2.301  1.00  0.00     0.000 C 
BRANCH   5   6
ATOM      6  C   UNL     1      -6.433  44.871  -1.462  1.00  0.00     0.000 C 
BRANCH   6   7
ATOM      7  C   UNL     1      -5.704  43.797  -2.283  1.00  0.00     0.006 C 
BRANCH   7   8
ATOM      8  C   UNL     1      -5.331  42.596  -1.409  1.00  0.00     0.053 C 
BRANCH   8   9
ATOM      9  C   UNL     1      -3.976  42.789  -0.807  1.00  0.00     0.041 C 
ATOM     10  O   UNL     1      -3.740  42.394   0.365  1.00  0.00    -0.550 OA
ATOM     11  O   UNL     1      -2.985  43.451  -1.522  1.00  0.00    -0.550 OA
ENDBRANCH   8   9
ENDBRANCH   7   8
ENDBRANCH   6   7
ENDBRANCH   5   6
ENDBRANCH   4   5
ENDBRANCH   3   4
ENDBRANCH   2   3
ENDBRANCH   1   2
BRANCH   1  12
ATOM     12  C   UNL     1      -8.754  51.645  -2.642  1.00  0.00     0.000 C 
BRANCH  12  13
ATOM     13  C   UNL     1      -7.544  51.608  -1.692  1.00  0.00    -0.000 C 
BRANCH  13  14
ATOM     14  C   UNL     1      -7.876  51.836  -0.203  1.00  0.00    -0.000 C 
BRANCH  14  15
ATOM     15  C   UNL     1      -6.662  52.125   0.698  1.00  0.00    -0.000 C 
BRANCH  15  16
ATOM     16  C   UNL     1      -5.431  51.284   0.330  1.00  0.00    -0.000 C 
BRANCH  16  17
ATOM     17  C   UNL     1      -4.138  52.092   0.515  1.00  0.00    -0.000 C 
BRANCH  17  18
ATOM     18  C   UNL     1      -3.258  52.114  -0.747  1.00  0.00    -0.000 C 
BRANCH  18  19
ATOM     19  C   UNL     1      -1.759  51.876  -0.493  1.00  0.00    -0.003 C 
ATOM     20  C   UNL     1      -1.381  51.969   0.984  1.00  0.00     0.004 C 
ENDBRANCH  18  19
ENDBRANCH  17  18
ENDBRANCH  16  17
ENDBRANCH  15  16
ENDBRANCH  14  15
ENDBRANCH  13  14
ENDBRANCH  12  13
ENDBRANCH   1  12
TORSDOF 16
ENDMDL
