MODEL 1
REMARK VINA RESULT:    -7.131      0.000      0.000
REMARK INTER + INTRA:          -8.721
REMARK INTER:                  -8.382
REMARK INTRA:                  -0.340
REMARK UNBOUND:                -0.340
REMARK SMILES C=C(C)[C@@H]1CC[C@@]2(CO)CC[C@]3(C)[C@H](CC[C@H]4[C@@]5(C)CC[C@H](O)C(C)(C)[C@H]5CC[C@]43C)[C@@H]12
REMARK SMILES IDX 4 1 5 2 6 3 7 4 32 5 14 6 15 7 16 8 17 9 18 10 20 11 21 12
REMARK SMILES IDX 22 13 24 14 27 15 28 16 29 17 30 18 12 19 11 20 10 21 13 22
REMARK SMILES IDX 31 23 25 24 26 25 19 26 2 27 3 28 1 29 8 30 9 31 23 33
REMARK H PARENT 9 32 23 34
REMARK Flexibility Score: inf
ROOT
ATOM      1  C   UNL     1       5.498 -16.126 -35.179  1.00  0.00     0.018 C 
ATOM      2  C   UNL     1       5.239 -14.723 -35.720  1.00  0.00     0.009 C 
ATOM      3  C   UNL     1       4.942 -14.932 -37.194  1.00  0.00     0.010 C 
ATOM      4  C   UNL     1       4.144 -16.245 -37.273  1.00  0.00    -0.003 C 
ATOM      5  C   UNL     1       4.788 -17.136 -36.146  1.00  0.00     0.008 C 
ATOM      6  C   UNL     1       5.824 -18.167 -36.694  1.00  0.00    -0.000 C 
ATOM      7  C   UNL     1       6.426 -19.052 -35.608  1.00  0.00     0.005 C 
ATOM      8  C   UNL     1       7.717 -19.704 -36.119  1.00  0.00     0.005 C 
ATOM      9  C   UNL     1       7.817 -19.923 -37.680  1.00  0.00     0.002 C 
ATOM     10  C   UNL     1       8.987 -20.956 -38.105  1.00  0.00    -0.026 C 
ATOM     11  C   UNL     1      10.182 -20.857 -37.083  1.00  0.00     0.010 C 
ATOM     12  C   UNL     1      11.231 -21.956 -37.203  1.00  0.00     0.033 C 
ATOM     13  C   UNL     1      10.575 -23.319 -36.993  1.00  0.00     0.120 C 
ATOM     14  C   UNL     1       9.524 -23.630 -38.096  1.00  0.00    -0.006 C 
ATOM     15  C   UNL     1       8.441 -22.456 -38.234  1.00  0.00     0.003 C 
ATOM     16  C   UNL     1       7.154 -22.659 -37.386  1.00  0.00     0.005 C 
ATOM     17  C   UNL     1       5.995 -21.651 -37.655  1.00  0.00     0.008 C 
ATOM     18  C   UNL     1       6.384 -20.246 -38.258  1.00  0.00    -0.024 C 
ATOM     19  C   UNL     1       5.319 -19.037 -37.892  1.00  0.00    -0.024 C 
ATOM     20  C   UNL     1       5.173 -17.969 -39.032  1.00  0.00     0.008 C 
ATOM     21  C   UNL     1       4.179 -16.830 -38.731  1.00  0.00     0.010 C 
ATOM     22  C   UNL     1       3.904 -19.640 -37.613  1.00  0.00     0.012 C 
ATOM     23  C   UNL     1       6.387 -20.412 -39.811  1.00  0.00     0.012 C 
ATOM     24  C   UNL     1       8.866 -24.992 -37.737  1.00  0.00     0.014 C 
ATOM     25  C   UNL     1      10.228 -23.870 -39.465  1.00  0.00     0.014 C 
ATOM     26  C   UNL     1       9.565 -20.484 -39.483  1.00  0.00     0.012 C 
ENDROOT
BRANCH   1  27
ATOM     27  C   UNL     1       5.136 -16.279 -33.703  1.00  0.00    -0.077 C 
ATOM     28  C   UNL     1       4.931 -15.053 -32.849  1.00  0.00     0.039 C 
ATOM     29  C   UNL     1       4.987 -17.482 -33.126  1.00  0.00     0.008 C 
ENDBRANCH   1  27
BRANCH   4  30
ATOM     30  C   UNL     1       2.652 -15.939 -36.922  1.00  0.00     0.163 C 
BRANCH  30  31
ATOM     31  O   UNL     1       2.063 -17.026 -36.257  1.00  0.00    -0.396 OA
ATOM     32  H   UNL     1       2.710 -17.308 -35.558  1.00  0.00     0.210 HD
ENDBRANCH  30  31
ENDBRANCH   4  30
BRANCH  13  33
ATOM     33  O   UNL     1      11.571 -24.314 -36.964  1.00  0.00    -0.393 OA
ATOM     34  H   UNL     1      11.817 -24.452 -36.012  1.00  0.00     0.210 HD
ENDBRANCH  13  33
TORSDOF 4
ENDMDL
MODEL 2
REMARK VINA RESULT:    -6.681      2.129      8.032
REMARK INTER + INTRA:          -8.192
REMARK INTER:                  -7.630
REMARK INTRA:                  -0.562
REMARK UNBOUND:                -0.340
REMARK SMILES C=C(C)[C@@H]1CC[C@@]2(CO)CC[C@]3(C)[C@H](CC[C@H]4[C@@]5(C)CC[C@H](O)C(C)(C)[C@H]5CC[C@]43C)[C@@H]12
REMARK SMILES IDX 4 1 5 2 6 3 7 4 32 5 14 6 15 7 16 8 17 9 18 10 20 11 21 12
REMARK SMILES IDX 22 13 24 14 27 15 28 16 29 17 30 18 12 19 11 20 10 21 13 22
REMARK SMILES IDX 31 23 25 24 26 25 19 26 2 27 3 28 1 29 8 30 9 31 23 33
REMARK H PARENT 9 32 23 34
REMARK Flexibility Score: inf
ROOT
ATOM      1  C   UNL     1      10.332 -22.169 -38.961  1.00  0.00     0.018 C 
ATOM      2  C   UNL     1      11.612 -22.350 -38.150  1.00  0.00     0.009 C 
ATOM      3  C   UNL     1      11.243 -21.897 -36.749  1.00  0.00     0.010 C 
ATOM      4  C   UNL     1       9.793 -22.366 -36.532  1.00  0.00    -0.003 C 
ATOM      5  C   UNL     1       9.133 -22.194 -37.950  1.00  0.00     0.008 C 
ATOM      6  C   UNL     1       8.296 -20.884 -38.084  1.00  0.00    -0.000 C 
ATOM      7  C   UNL     1       7.629 -20.731 -39.447  1.00  0.00     0.005 C 
ATOM      8  C   UNL     1       7.216 -19.270 -39.667  1.00  0.00     0.005 C 
ATOM      9  C   UNL     1       6.910 -18.429 -38.366  1.00  0.00     0.002 C 
ATOM     10  C   UNL     1       6.107 -17.058 -38.669  1.00  0.00    -0.026 C 
ATOM     11  C   UNL     1       6.516 -16.501 -40.084  1.00  0.00     0.010 C 
ATOM     12  C   UNL     1       5.645 -15.367 -40.612  1.00  0.00     0.033 C 
ATOM     13  C   UNL     1       4.197 -15.839 -40.720  1.00  0.00     0.120 C 
ATOM     14  C   UNL     1       3.603 -16.202 -39.330  1.00  0.00    -0.006 C 
ATOM     15  C   UNL     1       4.523 -17.257 -38.547  1.00  0.00     0.003 C 
ATOM     16  C   UNL     1       4.125 -18.744 -38.759  1.00  0.00     0.005 C 
ATOM     17  C   UNL     1       4.857 -19.780 -37.852  1.00  0.00     0.008 C 
ATOM     18  C   UNL     1       6.266 -19.367 -37.273  1.00  0.00    -0.024 C 
ATOM     19  C   UNL     1       7.258 -20.643 -36.938  1.00  0.00    -0.024 C 
ATOM     20  C   UNL     1       8.191 -20.400 -35.699  1.00  0.00     0.008 C 
ATOM     21  C   UNL     1       9.125 -21.575 -35.350  1.00  0.00     0.010 C 
ATOM     22  C   UNL     1       6.404 -21.922 -36.653  1.00  0.00     0.012 C 
ATOM     23  C   UNL     1       5.993 -18.621 -35.928  1.00  0.00     0.012 C 
ATOM     24  C   UNL     1       2.166 -16.744 -39.568  1.00  0.00     0.014 C 
ATOM     25  C   UNL     1       3.413 -14.917 -38.469  1.00  0.00     0.014 C 
ATOM     26  C   UNL     1       6.586 -15.984 -37.633  1.00  0.00     0.012 C 
ENDROOT
BRANCH   1  27
ATOM     27  C   UNL     1      10.215 -23.147 -40.129  1.00  0.00    -0.077 C 
ATOM     28  C   UNL     1      10.192 -24.632 -39.865  1.00  0.00     0.039 C 
ATOM     29  C   UNL     1      10.127 -22.730 -41.402  1.00  0.00     0.008 C 
ENDBRANCH   1  27
BRANCH   4  30
ATOM     30  C   UNL     1       9.818 -23.878 -36.134  1.00  0.00     0.163 C 
BRANCH  30  31
ATOM     31  O   UNL     1       9.363 -24.054 -34.819  1.00  0.00    -0.396 OA
ATOM     32  H   UNL     1       8.374 -24.133 -34.874  1.00  0.00     0.210 HD
ENDBRANCH  30  31
ENDBRANCH   4  30
BRANCH  13  33
ATOM     33  O   UNL     1       3.428 -14.836 -41.341  1.00  0.00    -0.393 OA
ATOM     34  H   UNL     1       3.812 -14.692 -42.245  1.00  0.00     0.210 HD
ENDBRANCH  13  33
TORSDOF 4
ENDMDL
MODEL 3
REMARK VINA RESULT:    -6.680      1.789      3.278
REMARK INTER + INTRA:          -8.191
REMARK INTER:                  -7.510
REMARK INTRA:                  -0.681
REMARK UNBOUND:                -0.340
REMARK SMILES C=C(C)[C@@H]1CC[C@@]2(CO)CC[C@]3(C)[C@H](CC[C@H]4[C@@]5(C)CC[C@H](O)C(C)(C)[C@H]5CC[C@]43C)[C@@H]12
REMARK SMILES IDX 4 1 5 2 6 3 7 4 32 5 14 6 15 7 16 8 17 9 18 10 20 11 21 12
REMARK SMILES IDX 22 13 24 14 27 15 28 16 29 17 30 18 12 19 11 20 10 21 13 22
REMARK SMILES IDX 31 23 25 24 26 25 19 26 2 27 3 28 1 29 8 30 9 31 23 33
REMARK H PARENT 9 32 23 34
REMARK Flexibility Score: inf
ROOT
ATOM      1  C   UNL     1       2.952 -18.030 -37.121  1.00  0.00     0.018 C 
ATOM      2  C   UNL     1       2.538 -16.804 -36.314  1.00  0.00     0.009 C 
ATOM      3  C   UNL     1       3.779 -15.931 -36.283  1.00  0.00     0.010 C 
ATOM      4  C   UNL     1       4.437 -16.098 -37.664  1.00  0.00    -0.003 C 
ATOM      5  C   UNL     1       4.165 -17.607 -38.021  1.00  0.00     0.008 C 
ATOM      6  C   UNL     1       5.387 -18.536 -37.739  1.00  0.00    -0.000 C 
ATOM      7  C   UNL     1       5.137 -19.993 -38.114  1.00  0.00     0.005 C 
ATOM      8  C   UNL     1       6.163 -20.896 -37.418  1.00  0.00     0.005 C 
ATOM      9  C   UNL     1       7.556 -20.234 -37.075  1.00  0.00     0.002 C 
ATOM     10  C   UNL     1       8.706 -21.316 -36.726  1.00  0.00    -0.026 C 
ATOM     11  C   UNL     1       8.061 -22.578 -36.038  1.00  0.00     0.010 C 
ATOM     12  C   UNL     1       8.983 -23.784 -35.899  1.00  0.00     0.033 C 
ATOM     13  C   UNL     1       9.465 -24.225 -37.279  1.00  0.00     0.120 C 
ATOM     14  C   UNL     1      10.323 -23.127 -37.969  1.00  0.00    -0.006 C 
ATOM     15  C   UNL     1       9.558 -21.719 -38.021  1.00  0.00     0.003 C 
ATOM     16  C   UNL     1       8.751 -21.469 -39.325  1.00  0.00     0.005 C 
ATOM     17  C   UNL     1       8.171 -20.032 -39.502  1.00  0.00     0.008 C 
ATOM     18  C   UNL     1       7.928 -19.184 -38.193  1.00  0.00    -0.024 C 
ATOM     19  C   UNL     1       6.745 -18.042 -38.341  1.00  0.00    -0.024 C 
ATOM     20  C   UNL     1       7.021 -16.745 -37.500  1.00  0.00     0.008 C 
ATOM     21  C   UNL     1       5.943 -15.651 -37.620  1.00  0.00     0.010 C 
ATOM     22  C   UNL     1       6.594 -17.620 -39.839  1.00  0.00     0.012 C 
ATOM     23  C   UNL     1       9.266 -18.436 -37.892  1.00  0.00     0.012 C 
ATOM     24  C   UNL     1      10.685 -23.648 -39.388  1.00  0.00     0.014 C 
ATOM     25  C   UNL     1      11.689 -22.967 -37.237  1.00  0.00     0.014 C 
ATOM     26  C   UNL     1       9.651 -20.680 -35.650  1.00  0.00     0.012 C 
ENDROOT
BRANCH   1  27
ATOM     27  C   UNL     1       1.789 -18.683 -37.867  1.00  0.00    -0.077 C 
ATOM     28  C   UNL     1       1.517 -20.156 -37.692  1.00  0.00     0.039 C 
ATOM     29  C   UNL     1       0.984 -17.985 -38.684  1.00  0.00     0.008 C 
ENDBRANCH   1  27
BRANCH   4  30
ATOM     30  C   UNL     1       3.697 -15.169 -38.680  1.00  0.00     0.163 C 
BRANCH  30  31
ATOM     31  O   UNL     1       3.521 -15.817 -39.912  1.00  0.00    -0.396 OA
ATOM     32  H   UNL     1       4.060 -16.651 -39.867  1.00  0.00     0.210 HD
ENDBRANCH  30  31
ENDBRANCH   4  30
BRANCH  13  33
ATOM     33  O   UNL     1      10.197 -25.421 -37.154  1.00  0.00    -0.393 OA
ATOM     34  H   UNL     1       9.849 -26.049 -37.838  1.00  0.00     0.210 HD
ENDBRANCH  13  33
TORSDOF 4
ENDMDL
MODEL 4
REMARK VINA RESULT:    -6.537      1.864      7.937
REMARK INTER + INTRA:          -8.023
REMARK INTER:                  -7.686
REMARK INTRA:                  -0.337
REMARK UNBOUND:                -0.340
REMARK SMILES C=C(C)[C@@H]1CC[C@@]2(CO)CC[C@]3(C)[C@H](CC[C@H]4[C@@]5(C)CC[C@H](O)C(C)(C)[C@H]5CC[C@]43C)[C@@H]12
REMARK SMILES IDX 4 1 5 2 6 3 7 4 32 5 14 6 15 7 16 8 17 9 18 10 20 11 21 12
REMARK SMILES IDX 22 13 24 14 27 15 28 16 29 17 30 18 12 19 11 20 10 21 13 22
REMARK SMILES IDX 31 23 25 24 26 25 19 26 2 27 3 28 1 29 8 30 9 31 23 33
REMARK H PARENT 9 32 23 34
REMARK Flexibility Score: inf
ROOT
ATOM      1  C   UNL     1       8.298 -22.414 -37.287  1.00  0.00     0.018 C 
ATOM      2  C   UNL     1       8.686 -23.464 -38.324  1.00  0.00     0.009 C 
ATOM      3  C   UNL     1       8.917 -22.672 -39.599  1.00  0.00     0.010 C 
ATOM      4  C   UNL     1       9.571 -21.352 -39.153  1.00  0.00    -0.003 C 
ATOM      5  C   UNL     1       8.870 -21.039 -37.780  1.00  0.00     0.008 C 
ATOM      6  C   UNL     1       7.717 -19.995 -37.901  1.00  0.00    -0.000 C 
ATOM      7  C   UNL     1       7.057 -19.666 -36.566  1.00  0.00     0.005 C 
ATOM      8  C   UNL     1       5.691 -19.011 -36.804  1.00  0.00     0.005 C 
ATOM      9  C   UNL     1       5.524 -18.219 -38.161  1.00  0.00     0.002 C 
ATOM     10  C   UNL     1       4.241 -17.235 -38.170  1.00  0.00    -0.026 C 
ATOM     11  C   UNL     1       3.093 -17.847 -37.282  1.00  0.00     0.010 C 
ATOM     12  C   UNL     1       1.931 -16.906 -36.983  1.00  0.00     0.033 C 
ATOM     13  C   UNL     1       2.448 -15.667 -36.254  1.00  0.00     0.120 C 
ATOM     14  C   UNL     1       3.428 -14.845 -37.136  1.00  0.00    -0.006 C 
ATOM     15  C   UNL     1       4.624 -15.752 -37.702  1.00  0.00     0.003 C 
ATOM     16  C   UNL     1       5.906 -15.753 -36.824  1.00  0.00     0.005 C 
ATOM     17  C   UNL     1       7.156 -16.449 -37.445  1.00  0.00     0.008 C 
ATOM     18  C   UNL     1       6.899 -17.547 -38.548  1.00  0.00    -0.024 C 
ATOM     19  C   UNL     1       8.093 -18.681 -38.663  1.00  0.00    -0.024 C 
ATOM     20  C   UNL     1       8.318 -19.205 -40.125  1.00  0.00     0.008 C 
ATOM     21  C   UNL     1       9.433 -20.258 -40.273  1.00  0.00     0.010 C 
ATOM     22  C   UNL     1       9.446 -18.084 -38.153  1.00  0.00     0.012 C 
ATOM     23  C   UNL     1       6.833 -16.796 -39.917  1.00  0.00     0.012 C 
ATOM     24  C   UNL     1       3.950 -13.664 -36.270  1.00  0.00     0.014 C 
ATOM     25  C   UNL     1       2.664 -14.173 -38.316  1.00  0.00     0.014 C 
ATOM     26  C   UNL     1       3.676 -17.198 -39.631  1.00  0.00     0.012 C 
ENDROOT
BRANCH   1  27
ATOM     27  C   UNL     1       8.684 -22.804 -35.861  1.00  0.00    -0.077 C 
ATOM     28  C   UNL     1       9.278 -24.163 -35.589  1.00  0.00     0.039 C 
ATOM     29  C   UNL     1       8.517 -21.968 -34.824  1.00  0.00     0.008 C 
ENDBRANCH   1  27
BRANCH   4  30
ATOM     30  C   UNL     1      11.097 -21.608 -38.927  1.00  0.00     0.163 C 
BRANCH  30  31
ATOM     31  O   UNL     1      11.511 -21.089 -37.691  1.00  0.00    -0.396 OA
ATOM     32  H   UNL     1      10.741 -20.572 -37.334  1.00  0.00     0.210 HD
ENDBRANCH  30  31
ENDBRANCH   4  30
BRANCH  13  33
ATOM     33  O   UNL     1       1.354 -14.875 -35.857  1.00  0.00    -0.393 OA
ATOM     34  H   UNL     1       1.173 -15.085 -34.904  1.00  0.00     0.210 HD
ENDBRANCH  13  33
TORSDOF 4
ENDMDL
MODEL 5
REMARK VINA RESULT:    -6.219      2.619      5.067
REMARK INTER + INTRA:          -7.649
REMARK INTER:                  -6.959
REMARK INTRA:                  -0.690
REMARK UNBOUND:                -0.340
REMARK SMILES C=C(C)[C@@H]1CC[C@@]2(CO)CC[C@]3(C)[C@H](CC[C@H]4[C@@]5(C)CC[C@H](O)C(C)(C)[C@H]5CC[C@]43C)[C@@H]12
REMARK SMILES IDX 4 1 5 2 6 3 7 4 32 5 14 6 15 7 16 8 17 9 18 10 20 11 21 12
REMARK SMILES IDX 22 13 24 14 27 15 28 16 29 17 30 18 12 19 11 20 10 21 13 22
REMARK SMILES IDX 31 23 25 24 26 25 19 26 2 27 3 28 1 29 8 30 9 31 23 33
REMARK H PARENT 9 32 23 34
REMARK Flexibility Score: inf
ROOT
ATOM      1  C   UNL     1       6.597 -18.351 -39.864  1.00  0.00     0.018 C 
ATOM      2  C   UNL     1       5.156 -18.730 -40.189  1.00  0.00     0.009 C 
ATOM      3  C   UNL     1       4.932 -20.041 -39.457  1.00  0.00     0.010 C 
ATOM      4  C   UNL     1       5.704 -19.912 -38.132  1.00  0.00    -0.003 C 
ATOM      5  C   UNL     1       6.981 -19.082 -38.529  1.00  0.00     0.008 C 
ATOM      6  C   UNL     1       8.247 -19.967 -38.751  1.00  0.00    -0.000 C 
ATOM      7  C   UNL     1       9.492 -19.161 -39.105  1.00  0.00     0.005 C 
ATOM      8  C   UNL     1      10.549 -20.078 -39.733  1.00  0.00     0.005 C 
ATOM      9  C   UNL     1      10.496 -21.598 -39.305  1.00  0.00     0.002 C 
ATOM     10  C   UNL     1      11.847 -22.409 -39.670  1.00  0.00    -0.026 C 
ATOM     11  C   UNL     1      12.489 -21.815 -40.980  1.00  0.00     0.010 C 
ATOM     12  C   UNL     1      13.900 -22.302 -41.291  1.00  0.00     0.033 C 
ATOM     13  C   UNL     1      14.833 -21.946 -40.135  1.00  0.00     0.120 C 
ATOM     14  C   UNL     1      14.426 -22.670 -38.821  1.00  0.00    -0.006 C 
ATOM     15  C   UNL     1      12.887 -22.414 -38.452  1.00  0.00     0.003 C 
ATOM     16  C   UNL     1      12.641 -21.212 -37.498  1.00  0.00     0.005 C 
ATOM     17  C   UNL     1      11.189 -21.062 -36.951  1.00  0.00     0.008 C 
ATOM     18  C   UNL     1      10.025 -21.704 -37.802  1.00  0.00    -0.024 C 
ATOM     19  C   UNL     1       8.558 -20.975 -37.596  1.00  0.00    -0.024 C 
ATOM     20  C   UNL     1       7.348 -21.970 -37.697  1.00  0.00     0.008 C 
ATOM     21  C   UNL     1       5.961 -21.327 -37.499  1.00  0.00     0.010 C 
ATOM     22  C   UNL     1       8.498 -20.285 -36.194  1.00  0.00     0.012 C 
ATOM     23  C   UNL     1       9.885 -23.183 -37.321  1.00  0.00     0.012 C 
ATOM     24  C   UNL     1      15.385 -22.173 -37.703  1.00  0.00     0.014 C 
ATOM     25  C   UNL     1      14.700 -24.200 -38.937  1.00  0.00     0.014 C 
ATOM     26  C   UNL     1      11.441 -23.880 -40.024  1.00  0.00     0.012 C 
ENDROOT
BRANCH   1  27
ATOM     27  C   UNL     1       6.841 -16.843 -39.869  1.00  0.00    -0.077 C 
ATOM     28  C   UNL     1       7.894 -16.256 -40.776  1.00  0.00     0.039 C 
ATOM     29  C   UNL     1       6.141 -16.004 -39.089  1.00  0.00     0.008 C 
ENDBRANCH   1  27
BRANCH   4  30
ATOM     30  C   UNL     1       4.829 -19.096 -37.127  1.00  0.00     0.163 C 
BRANCH  30  31
ATOM     31  O   UNL     1       5.624 -18.222 -36.369  1.00  0.00    -0.396 OA
ATOM     32  H   UNL     1       5.634 -17.359 -36.861  1.00  0.00     0.210 HD
ENDBRANCH  30  31
ENDBRANCH   4  30
BRANCH  13  33
ATOM     33  O   UNL     1      16.155 -22.270 -40.491  1.00  0.00    -0.393 OA
ATOM     34  H   UNL     1      16.125 -22.657 -41.405  1.00  0.00     0.210 HD
ENDBRANCH  13  33
TORSDOF 4
ENDMDL
MODEL 6
REMARK VINA RESULT:    -6.158     10.658     12.768
REMARK INTER + INTRA:          -7.577
REMARK INTER:                  -7.022
REMARK INTRA:                  -0.555
REMARK UNBOUND:                -0.340
REMARK SMILES C=C(C)[C@@H]1CC[C@@]2(CO)CC[C@]3(C)[C@H](CC[C@H]4[C@@]5(C)CC[C@H](O)C(C)(C)[C@H]5CC[C@]43C)[C@@H]12
REMARK SMILES IDX 4 1 5 2 6 3 7 4 32 5 14 6 15 7 16 8 17 9 18 10 20 11 21 12
REMARK SMILES IDX 22 13 24 14 27 15 28 16 29 17 30 18 12 19 11 20 10 21 13 22
REMARK SMILES IDX 31 23 25 24 26 25 19 26 2 27 3 28 1 29 8 30 9 31 23 33
REMARK H PARENT 9 32 23 34
REMARK Flexibility Score: inf
ROOT
ATOM      1  C   UNL     1      10.533 -11.436 -44.154  1.00  0.00     0.018 C 
ATOM      2  C   UNL     1      11.130 -11.520 -42.752  1.00  0.00     0.009 C 
ATOM      3  C   UNL     1      11.982 -12.776 -42.775  1.00  0.00     0.010 C 
ATOM      4  C   UNL     1      12.606 -12.826 -44.181  1.00  0.00    -0.003 C 
ATOM      5  C   UNL     1      11.472 -12.253 -45.109  1.00  0.00     0.008 C 
ATOM      6  C   UNL     1      10.653 -13.363 -45.839  1.00  0.00    -0.000 C 
ATOM      7  C   UNL     1       9.575 -12.809 -46.763  1.00  0.00     0.005 C 
ATOM      8  C   UNL     1       8.548 -13.902 -47.085  1.00  0.00     0.005 C 
ATOM      9  C   UNL     1       9.075 -15.390 -47.033  1.00  0.00     0.002 C 
ATOM     10  C   UNL     1       8.084 -16.442 -47.760  1.00  0.00    -0.026 C 
ATOM     11  C   UNL     1       6.592 -15.959 -47.613  1.00  0.00     0.010 C 
ATOM     12  C   UNL     1       5.580 -16.705 -48.474  1.00  0.00     0.033 C 
ATOM     13  C   UNL     1       5.953 -16.561 -49.948  1.00  0.00     0.120 C 
ATOM     14  C   UNL     1       7.326 -17.217 -50.263  1.00  0.00    -0.006 C 
ATOM     15  C   UNL     1       8.482 -16.674 -49.294  1.00  0.00     0.003 C 
ATOM     16  C   UNL     1       9.282 -15.465 -49.855  1.00  0.00     0.005 C 
ATOM     17  C   UNL     1      10.544 -15.046 -49.040  1.00  0.00     0.008 C 
ATOM     18  C   UNL     1      10.578 -15.432 -47.511  1.00  0.00    -0.024 C 
ATOM     19  C   UNL     1      11.515 -14.435 -46.585  1.00  0.00    -0.024 C 
ATOM     20  C   UNL     1      12.222 -15.173 -45.393  1.00  0.00     0.008 C 
ATOM     21  C   UNL     1      13.113 -14.277 -44.512  1.00  0.00     0.010 C 
ATOM     22  C   UNL     1      12.624 -13.774 -47.467  1.00  0.00     0.012 C 
ATOM     23  C   UNL     1      11.195 -16.865 -47.427  1.00  0.00     0.012 C 
ATOM     24  C   UNL     1       7.640 -16.938 -51.760  1.00  0.00     0.014 C 
ATOM     25  C   UNL     1       7.224 -18.768 -50.154  1.00  0.00     0.014 C 
ATOM     26  C   UNL     1       8.172 -17.799 -46.981  1.00  0.00     0.012 C 
ENDROOT
BRANCH   1  27
ATOM     27  C   UNL     1      10.242 -10.004 -44.601  1.00  0.00    -0.077 C 
ATOM     28  C   UNL     1      11.351  -8.982 -44.613  1.00  0.00     0.039 C 
ATOM     29  C   UNL     1       9.019  -9.614 -44.993  1.00  0.00     0.008 C 
ENDBRANCH   1  27
BRANCH   4  30
ATOM     30  C   UNL     1      13.847 -11.875 -44.205  1.00  0.00     0.163 C 
BRANCH  30  31
ATOM     31  O   UNL     1      14.680 -12.171 -45.295  1.00  0.00    -0.396 OA
ATOM     32  H   UNL     1      14.402 -11.564 -46.030  1.00  0.00     0.210 HD
ENDBRANCH  30  31
ENDBRANCH   4  30
BRANCH  13  33
ATOM     33  O   UNL     1       4.938 -17.130 -50.740  1.00  0.00    -0.393 OA
ATOM     34  H   UNL     1       4.071 -16.871 -50.333  1.00  0.00     0.210 HD
ENDBRANCH  13  33
TORSDOF 4
ENDMDL
MODEL 7
REMARK VINA RESULT:    -6.093      9.926     12.153
REMARK INTER + INTRA:          -7.501
REMARK INTER:                  -6.850
REMARK INTRA:                  -0.651
REMARK UNBOUND:                -0.340
REMARK SMILES C=C(C)[C@@H]1CC[C@@]2(CO)CC[C@]3(C)[C@H](CC[C@H]4[C@@]5(C)CC[C@H](O)C(C)(C)[C@H]5CC[C@]43C)[C@@H]12
REMARK SMILES IDX 4 1 5 2 6 3 7 4 32 5 14 6 15 7 16 8 17 9 18 10 20 11 21 12
REMARK SMILES IDX 22 13 24 14 27 15 28 16 29 17 30 18 12 19 11 20 10 21 13 22
REMARK SMILES IDX 31 23 25 24 26 25 19 26 2 27 3 28 1 29 8 30 9 31 23 33
REMARK H PARENT 9 32 23 34
REMARK Flexibility Score: inf
ROOT
ATOM      1  C   UNL     1       2.704 -19.747 -47.529  1.00  0.00     0.018 C 
ATOM      2  C   UNL     1       1.875 -20.173 -48.737  1.00  0.00     0.009 C 
ATOM      3  C   UNL     1       2.877 -20.261 -49.874  1.00  0.00     0.010 C 
ATOM      4  C   UNL     1       4.168 -20.815 -49.246  1.00  0.00    -0.003 C 
ATOM      5  C   UNL     1       4.189 -20.164 -47.813  1.00  0.00     0.008 C 
ATOM      6  C   UNL     1       5.120 -18.915 -47.718  1.00  0.00    -0.000 C 
ATOM      7  C   UNL     1       5.167 -18.302 -46.323  1.00  0.00     0.005 C 
ATOM      8  C   UNL     1       5.714 -16.871 -46.398  1.00  0.00     0.005 C 
ATOM      9  C   UNL     1       6.689 -16.559 -47.600  1.00  0.00     0.002 C 
ATOM     10  C   UNL     1       7.531 -15.192 -47.399  1.00  0.00    -0.026 C 
ATOM     11  C   UNL     1       6.675 -14.155 -46.579  1.00  0.00     0.010 C 
ATOM     12  C   UNL     1       7.438 -12.930 -46.086  1.00  0.00     0.033 C 
ATOM     13  C   UNL     1       8.591 -13.370 -45.186  1.00  0.00     0.120 C 
ATOM     14  C   UNL     1       9.635 -14.222 -45.961  1.00  0.00    -0.006 C 
ATOM     15  C   UNL     1       8.952 -15.463 -46.712  1.00  0.00     0.003 C 
ATOM     16  C   UNL     1       8.938 -16.786 -45.897  1.00  0.00     0.005 C 
ATOM     17  C   UNL     1       8.476 -18.058 -46.671  1.00  0.00     0.008 C 
ATOM     18  C   UNL     1       7.547 -17.843 -47.927  1.00  0.00    -0.024 C 
ATOM     19  C   UNL     1       6.569 -19.128 -48.271  1.00  0.00    -0.024 C 
ATOM     20  C   UNL     1       6.307 -19.320 -49.807  1.00  0.00     0.008 C 
ATOM     21  C   UNL     1       5.406 -20.517 -50.167  1.00  0.00     0.010 C 
ATOM     22  C   UNL     1       7.208 -20.446 -47.724  1.00  0.00     0.012 C 
ATOM     23  C   UNL     1       8.494 -17.635 -49.152  1.00  0.00     0.012 C 
ATOM     24  C   UNL     1      10.710 -14.681 -44.936  1.00  0.00     0.014 C 
ATOM     25  C   UNL     1      10.406 -13.336 -46.985  1.00  0.00     0.014 C 
ATOM     26  C   UNL     1       7.742 -14.548 -48.812  1.00  0.00     0.012 C 
ENDROOT
BRANCH   1  27
ATOM     27  C   UNL     1       2.134 -20.245 -46.201  1.00  0.00    -0.077 C 
ATOM     28  C   UNL     1       0.815 -19.710 -45.703  1.00  0.00     0.039 C 
ATOM     29  C   UNL     1       2.771 -21.157 -45.449  1.00  0.00     0.008 C 
ENDBRANCH   1  27
BRANCH   4  30
ATOM     30  C   UNL     1       4.032 -22.367 -49.124  1.00  0.00     0.163 C 
BRANCH  30  31
ATOM     31  O   UNL     1       4.517 -22.815 -47.886  1.00  0.00    -0.396 OA
ATOM     32  H   UNL     1       5.287 -22.228 -47.660  1.00  0.00     0.210 HD
ENDBRANCH  30  31
ENDBRANCH   4  30
BRANCH  13  33
ATOM     33  O   UNL     1       9.199 -12.233 -44.623  1.00  0.00    -0.393 OA
ATOM     34  H   UNL     1       9.129 -12.322 -43.637  1.00  0.00     0.210 HD
ENDBRANCH  13  33
TORSDOF 4
ENDMDL
MODEL 8
REMARK VINA RESULT:    -6.082      2.033      8.209
REMARK INTER + INTRA:          -7.488
REMARK INTER:                  -7.092
REMARK INTRA:                  -0.396
REMARK UNBOUND:                -0.340
REMARK SMILES C=C(C)[C@@H]1CC[C@@]2(CO)CC[C@]3(C)[C@H](CC[C@H]4[C@@]5(C)CC[C@H](O)C(C)(C)[C@H]5CC[C@]43C)[C@@H]12
REMARK SMILES IDX 4 1 5 2 6 3 7 4 32 5 14 6 15 7 16 8 17 9 18 10 20 11 21 12
REMARK SMILES IDX 22 13 24 14 27 15 28 16 29 17 30 18 12 19 11 20 10 21 13 22
REMARK SMILES IDX 31 23 25 24 26 25 19 26 2 27 3 28 1 29 8 30 9 31 23 33
REMARK H PARENT 9 32 23 34
REMARK Flexibility Score: inf
ROOT
ATOM      1  C   UNL     1      12.518 -19.838 -39.220  1.00  0.00     0.018 C 
ATOM      2  C   UNL     1      13.671 -20.298 -38.332  1.00  0.00     0.009 C 
ATOM      3  C   UNL     1      13.024 -21.227 -37.319  1.00  0.00     0.010 C 
ATOM      4  C   UNL     1      11.935 -21.988 -38.094  1.00  0.00    -0.003 C 
ATOM      5  C   UNL     1      11.385 -20.916 -39.107  1.00  0.00     0.008 C 
ATOM      6  C   UNL     1      10.057 -20.246 -38.634  1.00  0.00    -0.000 C 
ATOM      7  C   UNL     1       9.506 -19.230 -39.628  1.00  0.00     0.005 C 
ATOM      8  C   UNL     1       8.493 -18.312 -38.933  1.00  0.00     0.005 C 
ATOM      9  C   UNL     1       7.735 -18.926 -37.690  1.00  0.00     0.002 C 
ATOM     10  C   UNL     1       6.423 -18.080 -37.264  1.00  0.00    -0.026 C 
ATOM     11  C   UNL     1       6.647 -16.553 -37.579  1.00  0.00     0.010 C 
ATOM     12  C   UNL     1       5.402 -15.680 -37.479  1.00  0.00     0.033 C 
ATOM     13  C   UNL     1       4.339 -16.187 -38.453  1.00  0.00     0.120 C 
ATOM     14  C   UNL     1       3.866 -17.623 -38.095  1.00  0.00    -0.006 C 
ATOM     15  C   UNL     1       5.098 -18.642 -37.966  1.00  0.00     0.003 C 
ATOM     16  C   UNL     1       5.439 -19.414 -39.272  1.00  0.00     0.005 C 
ATOM     17  C   UNL     1       6.487 -20.560 -39.131  1.00  0.00     0.008 C 
ATOM     18  C   UNL     1       7.502 -20.468 -37.926  1.00  0.00    -0.024 C 
ATOM     19  C   UNL     1       8.935 -21.243 -38.192  1.00  0.00    -0.024 C 
ATOM     20  C   UNL     1       9.553 -21.875 -36.894  1.00  0.00     0.008 C 
ATOM     21  C   UNL     1      10.887 -22.617 -37.105  1.00  0.00     0.010 C 
ATOM     22  C   UNL     1       8.736 -22.390 -39.237  1.00  0.00     0.012 C 
ATOM     23  C   UNL     1       6.812 -21.163 -36.709  1.00  0.00     0.012 C 
ATOM     24  C   UNL     1       2.857 -18.064 -39.192  1.00  0.00     0.014 C 
ATOM     25  C   UNL     1       3.044 -17.610 -36.771  1.00  0.00     0.014 C 
ATOM     26  C   UNL     1       6.277 -18.177 -35.707  1.00  0.00     0.012 C 
ENDROOT
BRANCH   1  27
ATOM     27  C   UNL     1      12.952 -19.502 -40.646  1.00  0.00    -0.077 C 
ATOM     28  C   UNL     1      14.105 -20.244 -41.274  1.00  0.00     0.039 C 
ATOM     29  C   UNL     1      12.336 -18.558 -41.375  1.00  0.00     0.008 C 
ENDBRANCH   1  27
BRANCH   4  30
ATOM     30  C   UNL     1      12.611 -23.161 -38.874  1.00  0.00     0.163 C 
BRANCH  30  31
ATOM     31  O   UNL     1      13.532 -23.836 -38.058  1.00  0.00    -0.396 OA
ATOM     32  H   UNL     1      13.424 -23.460 -37.145  1.00  0.00     0.210 HD
ENDBRANCH  30  31
ENDBRANCH   4  30
BRANCH  13  33
ATOM     33  O   UNL     1       3.252 -15.293 -38.458  1.00  0.00    -0.393 OA
ATOM     34  H   UNL     1       3.419 -14.633 -39.180  1.00  0.00     0.210 HD
ENDBRANCH  13  33
TORSDOF 4
ENDMDL
MODEL 9
REMARK VINA RESULT:    -6.078      1.994      2.916
REMARK INTER + INTRA:          -7.483
REMARK INTER:                  -6.824
REMARK INTRA:                  -0.660
REMARK UNBOUND:                -0.340
REMARK SMILES C=C(C)[C@@H]1CC[C@@]2(CO)CC[C@]3(C)[C@H](CC[C@H]4[C@@]5(C)CC[C@H](O)C(C)(C)[C@H]5CC[C@]43C)[C@@H]12
REMARK SMILES IDX 4 1 5 2 6 3 7 4 32 5 14 6 15 7 16 8 17 9 18 10 20 11 21 12
REMARK SMILES IDX 22 13 24 14 27 15 28 16 29 17 30 18 12 19 11 20 10 21 13 22
REMARK SMILES IDX 31 23 25 24 26 25 19 26 2 27 3 28 1 29 8 30 9 31 23 33
REMARK H PARENT 9 32 23 34
REMARK Flexibility Score: inf
ROOT
ATOM      1  C   UNL     1       2.880 -16.127 -37.859  1.00  0.00     0.018 C 
ATOM      2  C   UNL     1       2.021 -15.533 -38.972  1.00  0.00     0.009 C 
ATOM      3  C   UNL     1       2.027 -16.589 -40.063  1.00  0.00     0.010 C 
ATOM      4  C   UNL     1       1.997 -17.941 -39.329  1.00  0.00    -0.003 C 
ATOM      5  C   UNL     1       2.872 -17.684 -38.046  1.00  0.00     0.008 C 
ATOM      6  C   UNL     1       4.335 -18.211 -38.183  1.00  0.00    -0.000 C 
ATOM      7  C   UNL     1       5.175 -17.991 -36.929  1.00  0.00     0.005 C 
ATOM      8  C   UNL     1       6.666 -18.109 -37.270  1.00  0.00     0.005 C 
ATOM      9  C   UNL     1       7.029 -19.030 -38.502  1.00  0.00     0.002 C 
ATOM     10  C   UNL     1       8.595 -19.431 -38.557  1.00  0.00    -0.026 C 
ATOM     11  C   UNL     1       9.466 -18.264 -37.956  1.00  0.00     0.010 C 
ATOM     12  C   UNL     1      10.927 -18.611 -37.699  1.00  0.00     0.033 C 
ATOM     13  C   UNL     1      11.013 -19.782 -36.722  1.00  0.00     0.120 C 
ATOM     14  C   UNL     1      10.380 -21.073 -37.312  1.00  0.00    -0.006 C 
ATOM     15  C   UNL     1       8.880 -20.823 -37.819  1.00  0.00     0.003 C 
ATOM     16  C   UNL     1       7.780 -21.136 -36.767  1.00  0.00     0.005 C 
ATOM     17  C   UNL     1       6.311 -21.108 -37.288  1.00  0.00     0.008 C 
ATOM     18  C   UNL     1       6.015 -20.238 -38.571  1.00  0.00    -0.024 C 
ATOM     19  C   UNL     1       4.460 -19.692 -38.672  1.00  0.00    -0.024 C 
ATOM     20  C   UNL     1       3.927 -19.595 -40.146  1.00  0.00     0.008 C 
ATOM     21  C   UNL     1       2.475 -19.099 -40.279  1.00  0.00     0.010 C 
ATOM     22  C   UNL     1       3.508 -20.646 -37.879  1.00  0.00     0.012 C 
ATOM     23  C   UNL     1       6.268 -21.162 -39.805  1.00  0.00     0.012 C 
ATOM     24  C   UNL     1      10.449 -22.167 -36.209  1.00  0.00     0.014 C 
ATOM     25  C   UNL     1      11.254 -21.622 -38.479  1.00  0.00     0.014 C 
ATOM     26  C   UNL     1       9.008 -19.538 -40.065  1.00  0.00     0.012 C 
ENDROOT
BRANCH   1  27
ATOM     27  C   UNL     1       2.484 -15.640 -36.466  1.00  0.00    -0.077 C 
ATOM     28  C   UNL     1       3.543 -15.136 -35.518  1.00  0.00     0.039 C 
ATOM     29  C   UNL     1       1.209 -15.639 -36.046  1.00  0.00     0.008 C 
ENDBRANCH   1  27
BRANCH   4  30
ATOM     30  C   UNL     1       0.522 -18.247 -38.915  1.00  0.00     0.163 C 
BRANCH  30  31
ATOM     31  O   UNL     1       0.466 -18.755 -37.608  1.00  0.00    -0.396 OA
ATOM     32  H   UNL     1       0.668 -17.992 -37.005  1.00  0.00     0.210 HD
ENDBRANCH  30  31
ENDBRANCH   4  30
BRANCH  13  33
ATOM     33  O   UNL     1      12.361 -20.002 -36.381  1.00  0.00    -0.393 OA
ATOM     34  H   UNL     1      12.861 -20.127 -37.230  1.00  0.00     0.210 HD
ENDBRANCH  13  33
TORSDOF 4
ENDMDL
