MODEL 1
REMARK VINA RESULT:    -4.436      0.000      0.000
REMARK INTER + INTRA:          -7.506
REMARK INTER:                  -7.030
REMARK INTRA:                  -0.476
REMARK UNBOUND:                -0.476
REMARK SMILES CCCCCCCCCCCC(=O)[O-]
REMARK SMILES IDX 7 1 8 2 9 3 10 4 11 5 12 6 13 7 14 8 6 9 5 10 4 11 3 12 2 13
REMARK SMILES IDX 1 14
REMARK H PARENT
REMARK Flexibility Score: inf
ROOT
ATOM      1  C   UNL     1      18.124  -8.634  14.179  1.00  0.00     0.000 C 
ENDROOT
BRANCH   1   2
ATOM      2  C   UNL     1      17.816  -9.848  13.290  1.00  0.00     0.000 C 
BRANCH   2   3
ATOM      3  C   UNL     1      16.596  -9.623  12.383  1.00  0.00     0.000 C 
BRANCH   3   4
ATOM      4  C   UNL     1      15.766 -10.899  12.179  1.00  0.00     0.006 C 
BRANCH   4   5
ATOM      5  C   UNL     1      14.290 -10.650  12.501  1.00  0.00     0.053 C 
BRANCH   5   6
ATOM      6  C   UNL     1      13.552 -11.947  12.617  1.00  0.00     0.041 C 
ATOM      7  O   UNL     1      12.324 -11.955  12.894  1.00  0.00    -0.550 OA
ATOM      8  O   UNL     1      14.232 -13.149  12.468  1.00  0.00    -0.550 OA
ENDBRANCH   5   6
ENDBRANCH   4   5
ENDBRANCH   3   4
ENDBRANCH   2   3
ENDBRANCH   1   2
BRANCH   1   9
ATOM      9  C   UNL     1      17.815  -7.323  13.446  1.00  0.00     0.000 C 
BRANCH   9  10
ATOM     10  C   UNL     1      17.090  -6.332  14.369  1.00  0.00    -0.000 C 
BRANCH  10  11
ATOM     11  C   UNL     1      17.317  -6.633  15.859  1.00  0.00    -0.000 C 
BRANCH  11  12
ATOM     12  C   UNL     1      16.366  -5.839  16.772  1.00  0.00    -0.000 C 
BRANCH  12  13
ATOM     13  C   UNL     1      16.759  -5.935  18.255  1.00  0.00    -0.003 C 
ATOM     14  C   UNL     1      16.391  -4.680  19.049  1.00  0.00     0.004 C 
ENDBRANCH  12  13
ENDBRANCH  11  12
ENDBRANCH  10  11
ENDBRANCH   9  10
ENDBRANCH   1   9
TORSDOF 10
ENDMDL
MODEL 2
REMARK VINA RESULT:    -4.400      3.306      6.716
REMARK INTER + INTRA:          -7.449
REMARK INTER:                  -6.833
REMARK INTRA:                  -0.616
REMARK UNBOUND:                -0.476
REMARK SMILES CCCCCCCCCCCC(=O)[O-]
REMARK SMILES IDX 7 1 8 2 9 3 10 4 11 5 12 6 13 7 14 8 6 9 5 10 4 11 3 12 2 13
REMARK SMILES IDX 1 14
REMARK H PARENT
REMARK Flexibility Score: inf
ROOT
ATOM      1  C   UNL     1      18.068  -9.166  13.516  1.00  0.00     0.000 C 
ENDROOT
BRANCH   1   2
ATOM      2  C   UNL     1      18.114  -7.914  12.628  1.00  0.00     0.000 C 
BRANCH   2   3
ATOM      3  C   UNL     1      18.058  -6.609  13.440  1.00  0.00     0.000 C 
BRANCH   3   4
ATOM      4  C   UNL     1      16.849  -6.550  14.384  1.00  0.00     0.006 C 
BRANCH   4   5
ATOM      5  C   UNL     1      17.295  -6.573  15.848  1.00  0.00     0.053 C 
BRANCH   5   6
ATOM      6  C   UNL     1      16.296  -5.869  16.712  1.00  0.00     0.041 C 
ATOM      7  O   UNL     1      16.549  -5.654  17.927  1.00  0.00    -0.550 OA
ATOM      8  O   UNL     1      15.066  -5.494  16.188  1.00  0.00    -0.550 OA
ENDBRANCH   5   6
ENDBRANCH   4   5
ENDBRANCH   3   4
ENDBRANCH   2   3
ENDBRANCH   1   2
BRANCH   1   9
ATOM      9  C   UNL     1      17.265 -10.287  12.845  1.00  0.00     0.000 C 
BRANCH   9  10
ATOM     10  C   UNL     1      15.899  -9.774  12.363  1.00  0.00    -0.000 C 
BRANCH  10  11
ATOM     11  C   UNL     1      14.826 -10.873  12.340  1.00  0.00    -0.000 C 
BRANCH  11  12
ATOM     12  C   UNL     1      15.430 -12.287  12.262  1.00  0.00    -0.000 C 
BRANCH  12  13
ATOM     13  C   UNL     1      14.376 -13.388  12.453  1.00  0.00    -0.003 C 
ATOM     14  C   UNL     1      13.067 -12.862  13.045  1.00  0.00     0.004 C 
ENDBRANCH  12  13
ENDBRANCH  11  12
ENDBRANCH  10  11
ENDBRANCH   9  10
ENDBRANCH   1   9
TORSDOF 10
ENDMDL
MODEL 3
REMARK VINA RESULT:    -4.333      3.004      6.243
REMARK INTER + INTRA:          -7.342
REMARK INTER:                  -6.613
REMARK INTRA:                  -0.729
REMARK UNBOUND:                -0.476
REMARK SMILES CCCCCCCCCCCC(=O)[O-]
REMARK SMILES IDX 7 1 8 2 9 3 10 4 11 5 12 6 13 7 14 8 6 9 5 10 4 11 3 12 2 13
REMARK SMILES IDX 1 14
REMARK H PARENT
REMARK Flexibility Score: inf
ROOT
ATOM      1  C   UNL     1      18.083  -9.576  13.708  1.00  0.00     0.000 C 
ENDROOT
BRANCH   1   2
ATOM      2  C   UNL     1      18.102  -8.074  13.388  1.00  0.00     0.000 C 
BRANCH   2   3
ATOM      3  C   UNL     1      17.477  -7.223  14.504  1.00  0.00     0.000 C 
BRANCH   3   4
ATOM      4  C   UNL     1      17.237  -5.767  14.076  1.00  0.00     0.006 C 
BRANCH   4   5
ATOM      5  C   UNL     1      16.011  -5.659  13.166  1.00  0.00     0.053 C 
BRANCH   5   6
ATOM      6  C   UNL     1      14.762  -5.965  13.930  1.00  0.00     0.041 C 
ATOM      7  O   UNL     1      14.523  -5.373  15.016  1.00  0.00    -0.550 OA
ATOM      8  O   UNL     1      13.885  -6.937  13.468  1.00  0.00    -0.550 OA
ENDBRANCH   5   6
ENDBRANCH   4   5
ENDBRANCH   3   4
ENDBRANCH   2   3
ENDBRANCH   1   2
BRANCH   1   9
ATOM      9  C   UNL     1      17.370 -10.366  12.603  1.00  0.00     0.000 C 
BRANCH   9  10
ATOM     10  C   UNL     1      15.935  -9.856  12.401  1.00  0.00    -0.000 C 
BRANCH  10  11
ATOM     11  C   UNL     1      14.888 -10.977  12.488  1.00  0.00    -0.000 C 
BRANCH  11  12
ATOM     12  C   UNL     1      15.500 -12.374  12.280  1.00  0.00    -0.000 C 
BRANCH  12  13
ATOM     13  C   UNL     1      14.485 -13.502  12.518  1.00  0.00    -0.003 C 
ATOM     14  C   UNL     1      13.145 -12.993  13.051  1.00  0.00     0.004 C 
ENDBRANCH  12  13
ENDBRANCH  11  12
ENDBRANCH  10  11
ENDBRANCH   9  10
ENDBRANCH   1   9
TORSDOF 10
ENDMDL
MODEL 4
REMARK VINA RESULT:    -4.257      2.113      3.481
REMARK INTER + INTRA:          -7.222
REMARK INTER:                  -6.328
REMARK INTRA:                  -0.894
REMARK UNBOUND:                -0.476
REMARK SMILES CCCCCCCCCCCC(=O)[O-]
REMARK SMILES IDX 7 1 8 2 9 3 10 4 11 5 12 6 13 7 14 8 6 9 5 10 4 11 3 12 2 13
REMARK SMILES IDX 1 14
REMARK H PARENT
REMARK Flexibility Score: inf
ROOT
ATOM      1  C   UNL     1      14.026  -7.025  13.254  1.00  0.00     0.000 C 
ENDROOT
BRANCH   1   2
ATOM      2  C   UNL     1      13.616  -8.339  12.572  1.00  0.00     0.000 C 
BRANCH   2   3
ATOM      3  C   UNL     1      14.754  -9.372  12.544  1.00  0.00     0.000 C 
BRANCH   3   4
ATOM      4  C   UNL     1      14.241 -10.819  12.516  1.00  0.00     0.006 C 
BRANCH   4   5
ATOM      5  C   UNL     1      12.732 -10.870  12.771  1.00  0.00     0.053 C 
BRANCH   5   6
ATOM      6  C   UNL     1      12.255 -12.288  12.814  1.00  0.00     0.041 C 
ATOM      7  O   UNL     1      12.992 -13.189  13.294  1.00  0.00    -0.550 OA
ATOM      8  O   UNL     1      11.017 -12.621  12.281  1.00  0.00    -0.550 OA
ENDBRANCH   5   6
ENDBRANCH   4   5
ENDBRANCH   3   4
ENDBRANCH   2   3
ENDBRANCH   1   2
BRANCH   1   9
ATOM      9  C   UNL     1      15.493  -6.687  12.962  1.00  0.00     0.000 C 
BRANCH   9  10
ATOM     10  C   UNL     1      16.199  -6.165  14.221  1.00  0.00    -0.000 C 
BRANCH  10  11
ATOM     11  C   UNL     1      17.342  -7.082  14.686  1.00  0.00    -0.000 C 
BRANCH  11  12
ATOM     12  C   UNL     1      18.078  -7.749  13.511  1.00  0.00    -0.000 C 
BRANCH  12  13
ATOM     13  C   UNL     1      18.177  -9.275  13.669  1.00  0.00    -0.003 C 
ATOM     14  C   UNL     1      18.621  -9.699  15.070  1.00  0.00     0.004 C 
ENDBRANCH  12  13
ENDBRANCH  11  12
ENDBRANCH  10  11
ENDBRANCH   9  10
ENDBRANCH   1   9
TORSDOF 10
ENDMDL
MODEL 5
REMARK VINA RESULT:    -4.216      1.666      2.355
REMARK INTER + INTRA:          -7.157
REMARK INTER:                  -6.144
REMARK INTRA:                  -1.013
REMARK UNBOUND:                -0.476
REMARK SMILES CCCCCCCCCCCC(=O)[O-]
REMARK SMILES IDX 7 1 8 2 9 3 10 4 11 5 12 6 13 7 14 8 6 9 5 10 4 11 3 12 2 13
REMARK SMILES IDX 1 14
REMARK H PARENT
REMARK Flexibility Score: inf
ROOT
ATOM      1  C   UNL     1      18.406  -8.751  13.525  1.00  0.00     0.000 C 
ENDROOT
BRANCH   1   2
ATOM      2  C   UNL     1      17.683 -10.104  13.593  1.00  0.00     0.000 C 
BRANCH   2   3
ATOM      3  C   UNL     1      17.010 -10.483  12.264  1.00  0.00     0.000 C 
BRANCH   3   4
ATOM      4  C   UNL     1      15.543 -10.901  12.440  1.00  0.00     0.006 C 
BRANCH   4   5
ATOM      5  C   UNL     1      14.651  -9.680  12.681  1.00  0.00     0.053 C 
BRANCH   5   6
ATOM      6  C   UNL     1      13.223 -10.097  12.843  1.00  0.00     0.041 C 
ATOM      7  O   UNL     1      12.303  -9.239  12.788  1.00  0.00    -0.550 OA
ATOM      8  O   UNL     1      12.912 -11.425  13.101  1.00  0.00    -0.550 OA
ENDBRANCH   5   6
ENDBRANCH   4   5
ENDBRANCH   3   4
ENDBRANCH   2   3
ENDBRANCH   1   2
BRANCH   1   9
ATOM      9  C   UNL     1      18.034  -7.991  12.246  1.00  0.00     0.000 C 
BRANCH   9  10
ATOM     10  C   UNL     1      18.681  -6.598  12.224  1.00  0.00    -0.000 C 
BRANCH  10  11
ATOM     11  C   UNL     1      18.030  -5.625  13.220  1.00  0.00    -0.000 C 
BRANCH  11  12
ATOM     12  C   UNL     1      16.494  -5.713  13.213  1.00  0.00    -0.000 C 
BRANCH  12  13
ATOM     13  C   UNL     1      15.918  -6.072  14.592  1.00  0.00    -0.003 C 
ATOM     14  C   UNL     1      16.999  -6.236  15.662  1.00  0.00     0.004 C 
ENDBRANCH  12  13
ENDBRANCH  11  12
ENDBRANCH  10  11
ENDBRANCH   9  10
ENDBRANCH   1   9
TORSDOF 10
ENDMDL
MODEL 6
REMARK VINA RESULT:    -4.205      3.680      5.313
REMARK INTER + INTRA:          -7.139
REMARK INTER:                  -5.883
REMARK INTRA:                  -1.257
REMARK UNBOUND:                -0.476
REMARK SMILES CCCCCCCCCCCC(=O)[O-]
REMARK SMILES IDX 7 1 8 2 9 3 10 4 11 5 12 6 13 7 14 8 6 9 5 10 4 11 3 12 2 13
REMARK SMILES IDX 1 14
REMARK H PARENT
REMARK Flexibility Score: inf
ROOT
ATOM      1  C   UNL     1      14.943 -10.272  12.318  1.00  0.00     0.000 C 
ENDROOT
BRANCH   1   2
ATOM      2  C   UNL     1      13.814  -9.231  12.315  1.00  0.00     0.000 C 
BRANCH   2   3
ATOM      3  C   UNL     1      14.335  -7.791  12.181  1.00  0.00     0.000 C 
BRANCH   3   4
ATOM      4  C   UNL     1      14.026  -6.931  13.415  1.00  0.00     0.006 C 
BRANCH   4   5
ATOM      5  C   UNL     1      14.261  -5.447  13.121  1.00  0.00     0.053 C 
BRANCH   5   6
ATOM      6  C   UNL     1      13.313  -4.600  13.911  1.00  0.00     0.041 C 
ATOM      7  O   UNL     1      12.468  -3.876  13.320  1.00  0.00    -0.550 OA
ATOM      8  O   UNL     1      13.394  -4.573  15.296  1.00  0.00    -0.550 OA
ENDBRANCH   5   6
ENDBRANCH   4   5
ENDBRANCH   3   4
ENDBRANCH   2   3
ENDBRANCH   1   2
BRANCH   1   9
ATOM      9  C   UNL     1      16.302  -9.611  12.058  1.00  0.00     0.000 C 
BRANCH   9  10
ATOM     10  C   UNL     1      17.374 -10.163  13.009  1.00  0.00    -0.000 C 
BRANCH  10  11
ATOM     11  C   UNL     1      18.151  -9.054  13.737  1.00  0.00    -0.000 C 
BRANCH  11  12
ATOM     12  C   UNL     1      18.228  -7.753  12.919  1.00  0.00    -0.000 C 
BRANCH  12  13
ATOM     13  C   UNL     1      17.719  -6.534  13.704  1.00  0.00    -0.003 C 
ATOM     14  C   UNL     1      17.387  -6.862  15.161  1.00  0.00     0.004 C 
ENDBRANCH  12  13
ENDBRANCH  11  12
ENDBRANCH  10  11
ENDBRANCH   9  10
ENDBRANCH   1   9
TORSDOF 10
ENDMDL
MODEL 7
REMARK VINA RESULT:    -4.118      3.449      6.650
REMARK INTER + INTRA:          -7.001
REMARK INTER:                  -6.207
REMARK INTRA:                  -0.794
REMARK UNBOUND:                -0.476
REMARK SMILES CCCCCCCCCCCC(=O)[O-]
REMARK SMILES IDX 7 1 8 2 9 3 10 4 11 5 12 6 13 7 14 8 6 9 5 10 4 11 3 12 2 13
REMARK SMILES IDX 1 14
REMARK H PARENT
REMARK Flexibility Score: inf
ROOT
ATOM      1  C   UNL     1      16.551 -11.535  12.648  1.00  0.00     0.000 C 
ENDROOT
BRANCH   1   2
ATOM      2  C   UNL     1      16.918 -10.187  12.010  1.00  0.00     0.000 C 
BRANCH   2   3
ATOM      3  C   UNL     1      16.280  -8.993  12.738  1.00  0.00     0.000 C 
BRANCH   3   4
ATOM      4  C   UNL     1      17.136  -7.721  12.653  1.00  0.00     0.006 C 
BRANCH   4   5
ATOM      5  C   UNL     1      17.851  -7.453  13.980  1.00  0.00     0.053 C 
BRANCH   5   6
ATOM      6  C   UNL     1      17.044  -6.523  14.832  1.00  0.00     0.041 C 
ATOM      7  O   UNL     1      16.164  -5.790  14.310  1.00  0.00    -0.550 OA
ATOM      8  O   UNL     1      17.299  -6.431  16.194  1.00  0.00    -0.550 OA
ENDBRANCH   5   6
ENDBRANCH   4   5
ENDBRANCH   3   4
ENDBRANCH   2   3
ENDBRANCH   1   2
BRANCH   1   9
ATOM      9  C   UNL     1      15.418 -12.220  11.875  1.00  0.00     0.000 C 
BRANCH   9  10
ATOM     10  C   UNL     1      14.919 -13.468  12.620  1.00  0.00    -0.000 C 
BRANCH  10  11
ATOM     11  C   UNL     1      13.423 -13.395  12.965  1.00  0.00    -0.000 C 
BRANCH  11  12
ATOM     12  C   UNL     1      12.676 -12.339  12.132  1.00  0.00    -0.000 C 
BRANCH  12  13
ATOM     13  C   UNL     1      12.021 -11.257  13.005  1.00  0.00    -0.003 C 
ATOM     14  C   UNL     1      12.658  -9.878  12.819  1.00  0.00     0.004 C 
ENDBRANCH  12  13
ENDBRANCH  11  12
ENDBRANCH  10  11
ENDBRANCH   9  10
ENDBRANCH   1   9
TORSDOF 10
ENDMDL
MODEL 8
REMARK VINA RESULT:    -4.113      2.198      3.002
REMARK INTER + INTRA:          -6.994
REMARK INTER:                  -5.947
REMARK INTRA:                  -1.047
REMARK UNBOUND:                -0.476
REMARK SMILES CCCCCCCCCCCC(=O)[O-]
REMARK SMILES IDX 7 1 8 2 9 3 10 4 11 5 12 6 13 7 14 8 6 9 5 10 4 11 3 12 2 13
REMARK SMILES IDX 1 14
REMARK H PARENT
REMARK Flexibility Score: inf
ROOT
ATOM      1  C   UNL     1      18.130  -8.791  13.740  1.00  0.00     0.000 C 
ENDROOT
BRANCH   1   2
ATOM      2  C   UNL     1      17.701 -10.251  13.535  1.00  0.00     0.000 C 
BRANCH   2   3
ATOM      3  C   UNL     1      16.907 -10.458  12.235  1.00  0.00     0.000 C 
BRANCH   3   4
ATOM      4  C   UNL     1      16.158 -11.799  12.206  1.00  0.00     0.006 C 
BRANCH   4   5
ATOM      5  C   UNL     1      14.643 -11.579  12.163  1.00  0.00     0.053 C 
BRANCH   5   6
ATOM      6  C   UNL     1      13.925 -12.775  12.705  1.00  0.00     0.041 C 
ATOM      7  O   UNL     1      14.475 -13.907  12.686  1.00  0.00    -0.550 OA
ATOM      8  O   UNL     1      12.629 -12.647  13.188  1.00  0.00    -0.550 OA
ENDBRANCH   5   6
ENDBRANCH   4   5
ENDBRANCH   3   4
ENDBRANCH   2   3
ENDBRANCH   1   2
BRANCH   1   9
ATOM      9  C   UNL     1      18.107  -8.019  12.414  1.00  0.00     0.000 C 
BRANCH   9  10
ATOM     10  C   UNL     1      17.379  -6.676  12.572  1.00  0.00    -0.000 C 
BRANCH  10  11
ATOM     11  C   UNL     1      16.752  -6.499  13.964  1.00  0.00    -0.000 C 
BRANCH  11  12
ATOM     12  C   UNL     1      15.289  -6.026  13.896  1.00  0.00    -0.000 C 
BRANCH  12  13
ATOM     13  C   UNL     1      14.559  -6.549  12.649  1.00  0.00    -0.003 C 
ATOM     14  C   UNL     1      14.000  -7.961  12.837  1.00  0.00     0.004 C 
ENDBRANCH  12  13
ENDBRANCH  11  12
ENDBRANCH  10  11
ENDBRANCH   9  10
ENDBRANCH   1   9
TORSDOF 10
ENDMDL
MODEL 9
REMARK VINA RESULT:    -4.110      3.762      5.977
REMARK INTER + INTRA:          -6.989
REMARK INTER:                  -5.833
REMARK INTRA:                  -1.156
REMARK UNBOUND:                -0.476
REMARK SMILES CCCCCCCCCCCC(=O)[O-]
REMARK SMILES IDX 7 1 8 2 9 3 10 4 11 5 12 6 13 7 14 8 6 9 5 10 4 11 3 12 2 13
REMARK SMILES IDX 1 14
REMARK H PARENT
REMARK Flexibility Score: inf
ROOT
ATOM      1  C   UNL     1      13.188 -11.734  12.958  1.00  0.00     0.000 C 
ENDROOT
BRANCH   1   2
ATOM      2  C   UNL     1      12.171 -11.019  12.056  1.00  0.00     0.000 C 
BRANCH   2   3
ATOM      3  C   UNL     1      12.487  -9.525  11.875  1.00  0.00     0.000 C 
BRANCH   3   4
ATOM      4  C   UNL     1      13.435  -8.985  12.956  1.00  0.00     0.006 C 
BRANCH   4   5
ATOM      5  C   UNL     1      14.373  -7.921  12.380  1.00  0.00     0.053 C 
BRANCH   5   6
ATOM      6  C   UNL     1      14.559  -6.802  13.356  1.00  0.00     0.041 C 
ATOM      7  O   UNL     1      13.569  -6.122  13.736  1.00  0.00    -0.550 OA
ATOM      8  O   UNL     1      15.831  -6.478  13.808  1.00  0.00    -0.550 OA
ENDBRANCH   5   6
ENDBRANCH   4   5
ENDBRANCH   3   4
ENDBRANCH   2   3
ENDBRANCH   1   2
BRANCH   1   9
ATOM      9  C   UNL     1      13.763 -12.974  12.262  1.00  0.00     0.000 C 
BRANCH   9  10
ATOM     10  C   UNL     1      15.299 -12.941  12.260  1.00  0.00    -0.000 C 
BRANCH  10  11
ATOM     11  C   UNL     1      15.863 -11.549  11.933  1.00  0.00    -0.000 C 
BRANCH  11  12
ATOM     12  C   UNL     1      16.896 -11.073  12.970  1.00  0.00    -0.000 C 
BRANCH  12  13
ATOM     13  C   UNL     1      17.536  -9.729  12.589  1.00  0.00    -0.003 C 
ATOM     14  C   UNL     1      18.240  -9.051  13.765  1.00  0.00     0.004 C 
ENDBRANCH  12  13
ENDBRANCH  11  12
ENDBRANCH  10  11
ENDBRANCH   9  10
ENDBRANCH   1   9
TORSDOF 10
ENDMDL
