MODEL 1
REMARK VINA RESULT:    -6.864      0.000      0.000
REMARK INTER + INTRA:          -8.560
REMARK INTER:                  -8.268
REMARK INTRA:                  -0.292
REMARK UNBOUND:                -0.292
REMARK SMILES O=c1c(O)c(-c2ccc(O)c(O)c2)oc2cc(O)cc(O)c12
REMARK SMILES IDX 5 1 3 2 2 3 1 4 22 5 20 6 19 7 17 8 16 9 15 10 14 11 6 12
REMARK SMILES IDX 7 13 8 14 9 15 13 16 11 17 10 18 12 20 4 22 21 24 18 26
REMARK H PARENT 10 19 12 21 4 23 21 25 18 27
REMARK Flexibility Score: inf
ROOT
ATOM      1  C   UNL     1      54.573   5.292  79.592  1.00  0.00     0.180 A 
ATOM      2  C   UNL     1      54.005   5.371  80.879  1.00  0.00     0.208 A 
ATOM      3  C   UNL     1      52.696   4.902  81.072  1.00  0.00     0.238 A 
ATOM      4  O   UNL     1      52.172   4.977  82.216  1.00  0.00    -0.285 OA
ATOM      5  C   UNL     1      51.988   4.346  79.986  1.00  0.00     0.111 A 
ATOM      6  C   UNL     1      50.667   3.847  80.097  1.00  0.00     0.134 A 
ATOM      7  C   UNL     1      50.033   3.301  78.972  1.00  0.00     0.093 A 
ATOM      8  C   UNL     1      50.692   3.242  77.741  1.00  0.00     0.123 A 
ATOM      9  C   UNL     1      51.996   3.732  77.625  1.00  0.00     0.094 A 
ATOM     10  C   UNL     1      52.645   4.284  78.735  1.00  0.00     0.146 A 
ATOM     11  O   UNL     1      53.881   4.748  78.597  1.00  0.00    -0.452 OA
ENDROOT
BRANCH   1  12
ATOM     12  C   UNL     1      55.941   5.783  79.306  1.00  0.00     0.025 A 
ATOM     13  C   UNL     1      57.045   4.978  79.629  1.00  0.00     0.016 A 
ATOM     14  C   UNL     1      58.343   5.411  79.349  1.00  0.00     0.051 A 
ATOM     15  C   UNL     1      58.558   6.646  78.729  1.00  0.00     0.157 A 
ATOM     16  C   UNL     1      56.157   7.015  78.664  1.00  0.00     0.062 A 
ATOM     17  C   UNL     1      57.460   7.452  78.380  1.00  0.00     0.158 A 
BRANCH  15  18
ATOM     18  O   UNL     1      59.865   7.053  78.463  1.00  0.00    -0.504 OA
ATOM     19  H   UNL     1      60.218   7.955  78.760  1.00  0.00     0.293 HD
ENDBRANCH  15  18
BRANCH  17  20
ATOM     20  O   UNL     1      57.666   8.677  77.749  1.00  0.00    -0.504 OA
ATOM     21  H   UNL     1      57.671   8.760  76.739  1.00  0.00     0.293 HD
ENDBRANCH  17  20
ENDBRANCH   1  12
BRANCH   2  22
ATOM     22  O   UNL     1      54.745   5.881  81.948  1.00  0.00    -0.502 OA
ATOM     23  H   UNL     1      55.362   5.303  82.506  1.00  0.00     0.293 HD
ENDBRANCH   2  22
BRANCH   6  24
ATOM     24  O   UNL     1      49.983   3.891  81.312  1.00  0.00    -0.507 OA
ATOM     25  H   UNL     1      48.970   3.883  81.355  1.00  0.00     0.293 HD
ENDBRANCH   6  24
BRANCH   8  26
ATOM     26  O   UNL     1      50.040   2.691  76.639  1.00  0.00    -0.508 OA
ATOM     27  H   UNL     1      50.548   2.194  75.918  1.00  0.00     0.293 HD
ENDBRANCH   8  26
TORSDOF 6
ENDMDL
MODEL 2
REMARK VINA RESULT:    -6.592      1.662      7.085
REMARK INTER + INTRA:          -8.233
REMARK INTER:                  -7.901
REMARK INTRA:                  -0.332
REMARK UNBOUND:                -0.292
REMARK SMILES O=c1c(O)c(-c2ccc(O)c(O)c2)oc2cc(O)cc(O)c12
REMARK SMILES IDX 5 1 3 2 2 3 1 4 22 5 20 6 19 7 17 8 16 9 15 10 14 11 6 12
REMARK SMILES IDX 7 13 8 14 9 15 13 16 11 17 10 18 12 20 4 22 21 24 18 26
REMARK H PARENT 10 19 12 21 4 23 21 25 18 27
REMARK Flexibility Score: inf
ROOT
ATOM      1  C   UNL     1      54.758   5.888  78.672  1.00  0.00     0.180 A 
ATOM      2  C   UNL     1      55.926   5.216  79.083  1.00  0.00     0.208 A 
ATOM      3  C   UNL     1      57.173   5.815  78.843  1.00  0.00     0.238 A 
ATOM      4  O   UNL     1      58.226   5.218  79.197  1.00  0.00    -0.285 OA
ATOM      5  C   UNL     1      57.231   7.078  78.218  1.00  0.00     0.111 A 
ATOM      6  C   UNL     1      58.446   7.751  77.945  1.00  0.00     0.134 A 
ATOM      7  C   UNL     1      58.420   9.010  77.327  1.00  0.00     0.093 A 
ATOM      8  C   UNL     1      57.207   9.609  76.980  1.00  0.00     0.123 A 
ATOM      9  C   UNL     1      56.003   8.949  77.248  1.00  0.00     0.094 A 
ATOM     10  C   UNL     1      56.008   7.691  77.860  1.00  0.00     0.146 A 
ATOM     11  O   UNL     1      54.851   7.084  78.099  1.00  0.00    -0.452 OA
ENDROOT
BRANCH   1  12
ATOM     12  C   UNL     1      53.409   5.313  78.872  1.00  0.00     0.025 A 
ATOM     13  C   UNL     1      52.688   5.632  80.034  1.00  0.00     0.016 A 
ATOM     14  C   UNL     1      51.404   5.118  80.235  1.00  0.00     0.051 A 
ATOM     15  C   UNL     1      50.816   4.292  79.273  1.00  0.00     0.157 A 
ATOM     16  C   UNL     1      52.807   4.499  77.896  1.00  0.00     0.062 A 
ATOM     17  C   UNL     1      51.518   3.982  78.095  1.00  0.00     0.158 A 
BRANCH  15  18
ATOM     18  O   UNL     1      49.534   3.791  79.502  1.00  0.00    -0.504 OA
ATOM     19  H   UNL     1      49.348   3.093  80.212  1.00  0.00     0.293 HD
ENDBRANCH  15  18
BRANCH  17  20
ATOM     20  O   UNL     1      50.931   3.171  77.125  1.00  0.00    -0.504 OA
ATOM     21  H   UNL     1      50.570   2.251  77.350  1.00  0.00     0.293 HD
ENDBRANCH  17  20
ENDBRANCH   1  12
BRANCH   2  22
ATOM     22  O   UNL     1      55.838   3.989  79.744  1.00  0.00    -0.502 OA
ATOM     23  H   UNL     1      55.439   3.166  79.310  1.00  0.00     0.293 HD
ENDBRANCH   2  22
BRANCH   6  24
ATOM     24  O   UNL     1      59.675   7.180  78.280  1.00  0.00    -0.507 OA
ATOM     25  H   UNL     1      59.787   6.179  78.385  1.00  0.00     0.293 HD
ENDBRANCH   6  24
BRANCH   8  26
ATOM     26  O   UNL     1      57.208  10.861  76.369  1.00  0.00    -0.508 OA
ATOM     27  H   UNL     1      57.481  11.695  76.874  1.00  0.00     0.293 HD
ENDBRANCH   8  26
TORSDOF 6
ENDMDL
MODEL 3
REMARK VINA RESULT:    -6.548      9.387     11.308
REMARK INTER + INTRA:          -8.180
REMARK INTER:                  -7.875
REMARK INTRA:                  -0.305
REMARK UNBOUND:                -0.292
REMARK SMILES O=c1c(O)c(-c2ccc(O)c(O)c2)oc2cc(O)cc(O)c12
REMARK SMILES IDX 5 1 3 2 2 3 1 4 22 5 20 6 19 7 17 8 16 9 15 10 14 11 6 12
REMARK SMILES IDX 7 13 8 14 9 15 13 16 11 17 10 18 12 20 4 22 21 24 18 26
REMARK H PARENT 10 19 12 21 4 23 21 25 18 27
REMARK Flexibility Score: inf
ROOT
ATOM      1  C   UNL     1      46.316   2.449  73.248  1.00  0.00     0.180 A 
ATOM      2  C   UNL     1      47.536   2.230  73.918  1.00  0.00     0.208 A 
ATOM      3  C   UNL     1      47.788   0.964  74.469  1.00  0.00     0.238 A 
ATOM      4  O   UNL     1      48.872   0.759  75.080  1.00  0.00    -0.285 OA
ATOM      5  C   UNL     1      46.831  -0.062  74.326  1.00  0.00     0.111 A 
ATOM      6  C   UNL     1      47.011  -1.366  74.848  1.00  0.00     0.134 A 
ATOM      7  C   UNL     1      46.015  -2.335  74.656  1.00  0.00     0.093 A 
ATOM      8  C   UNL     1      44.848  -2.028  73.953  1.00  0.00     0.123 A 
ATOM      9  C   UNL     1      44.665  -0.742  73.434  1.00  0.00     0.094 A 
ATOM     10  C   UNL     1      45.645   0.239  73.618  1.00  0.00     0.146 A 
ATOM     11  O   UNL     1      45.444   1.454  73.120  1.00  0.00    -0.452 OA
ENDROOT
BRANCH   1  12
ATOM     12  C   UNL     1      45.969   3.762  72.657  1.00  0.00     0.025 A 
ATOM     13  C   UNL     1      45.192   4.668  73.397  1.00  0.00     0.016 A 
ATOM     14  C   UNL     1      44.870   5.921  72.868  1.00  0.00     0.051 A 
ATOM     15  C   UNL     1      45.330   6.293  71.602  1.00  0.00     0.157 A 
ATOM     16  C   UNL     1      46.448   4.146  71.393  1.00  0.00     0.062 A 
ATOM     17  C   UNL     1      46.127   5.404  70.860  1.00  0.00     0.158 A 
BRANCH  15  18
ATOM     18  O   UNL     1      44.991   7.548  71.099  1.00  0.00    -0.504 OA
ATOM     19  H   UNL     1      45.457   7.950  70.294  1.00  0.00     0.293 HD
ENDBRANCH  15  18
BRANCH  17  20
ATOM     20  O   UNL     1      46.602   5.774  69.603  1.00  0.00    -0.504 OA
ATOM     21  H   UNL     1      47.520   6.185  69.482  1.00  0.00     0.293 HD
ENDBRANCH  17  20
ENDBRANCH   1  12
BRANCH   2  22
ATOM     22  O   UNL     1      48.487   3.249  74.003  1.00  0.00    -0.502 OA
ATOM     23  H   UNL     1      48.231   4.226  74.073  1.00  0.00     0.293 HD
ENDBRANCH   2  22
BRANCH   6  24
ATOM     24  O   UNL     1      48.166  -1.705  75.555  1.00  0.00    -0.507 OA
ATOM     25  H   UNL     1      49.070  -1.312  75.319  1.00  0.00     0.293 HD
ENDBRANCH   6  24
BRANCH   8  26
ATOM     26  O   UNL     1      43.875  -3.010  73.774  1.00  0.00    -0.508 OA
ATOM     27  H   UNL     1      43.184  -2.942  73.037  1.00  0.00     0.293 HD
ENDBRANCH   8  26
TORSDOF 6
ENDMDL
MODEL 4
REMARK VINA RESULT:    -6.508      1.835      6.759
REMARK INTER + INTRA:          -8.132
REMARK INTER:                  -8.320
REMARK INTRA:                   0.188
REMARK UNBOUND:                -0.292
REMARK SMILES O=c1c(O)c(-c2ccc(O)c(O)c2)oc2cc(O)cc(O)c12
REMARK SMILES IDX 5 1 3 2 2 3 1 4 22 5 20 6 19 7 17 8 16 9 15 10 14 11 6 12
REMARK SMILES IDX 7 13 8 14 9 15 13 16 11 17 10 18 12 20 4 22 21 24 18 26
REMARK H PARENT 10 19 12 21 4 23 21 25 18 27
REMARK Flexibility Score: inf
ROOT
ATOM      1  C   UNL     1      53.811   3.863  80.216  1.00  0.00     0.180 A 
ATOM      2  C   UNL     1      53.952   3.397  81.538  1.00  0.00     0.208 A 
ATOM      3  C   UNL     1      55.201   3.515  82.169  1.00  0.00     0.238 A 
ATOM      4  O   UNL     1      55.343   3.091  83.348  1.00  0.00    -0.285 OA
ATOM      5  C   UNL     1      56.277   4.113  81.479  1.00  0.00     0.111 A 
ATOM      6  C   UNL     1      57.565   4.274  82.044  1.00  0.00     0.134 A 
ATOM      7  C   UNL     1      58.580   4.887  81.296  1.00  0.00     0.093 A 
ATOM      8  C   UNL     1      58.335   5.342  79.999  1.00  0.00     0.123 A 
ATOM      9  C   UNL     1      57.064   5.187  79.435  1.00  0.00     0.094 A 
ATOM     10  C   UNL     1      56.038   4.575  80.164  1.00  0.00     0.146 A 
ATOM     11  O   UNL     1      54.842   4.435  79.603  1.00  0.00    -0.452 OA
ENDROOT
BRANCH   1  12
ATOM     12  C   UNL     1      52.532   3.756  79.478  1.00  0.00     0.025 A 
ATOM     13  C   UNL     1      52.548   3.416  78.116  1.00  0.00     0.016 A 
ATOM     14  C   UNL     1      51.352   3.288  77.404  1.00  0.00     0.051 A 
ATOM     15  C   UNL     1      50.125   3.483  78.044  1.00  0.00     0.157 A 
ATOM     16  C   UNL     1      51.296   3.932  80.124  1.00  0.00     0.062 A 
ATOM     17  C   UNL     1      50.094   3.803  79.412  1.00  0.00     0.158 A 
BRANCH  15  18
ATOM     18  O   UNL     1      48.948   3.352  77.307  1.00  0.00    -0.504 OA
ATOM     19  H   UNL     1      48.501   2.454  77.162  1.00  0.00     0.293 HD
ENDBRANCH  15  18
BRANCH  17  20
ATOM     20  O   UNL     1      48.873   3.985  80.059  1.00  0.00    -0.504 OA
ATOM     21  H   UNL     1      48.252   4.747  79.815  1.00  0.00     0.293 HD
ENDBRANCH  17  20
ENDBRANCH   1  12
BRANCH   2  22
ATOM     22  O   UNL     1      52.859   2.853  82.216  1.00  0.00    -0.502 OA
ATOM     23  H   UNL     1      52.277   2.128  81.814  1.00  0.00     0.293 HD
ENDBRANCH   2  22
BRANCH   6  24
ATOM     24  O   UNL     1      57.842   3.830  83.338  1.00  0.00    -0.507 OA
ATOM     25  H   UNL     1      58.663   4.142  83.844  1.00  0.00     0.293 HD
ENDBRANCH   6  24
BRANCH   8  26
ATOM     26  O   UNL     1      59.361   5.950  79.278  1.00  0.00    -0.508 OA
ATOM     27  H   UNL     1      59.544   6.943  79.354  1.00  0.00     0.293 HD
ENDBRANCH   8  26
TORSDOF 6
ENDMDL
MODEL 5
REMARK VINA RESULT:    -6.379      9.027     11.687
REMARK INTER + INTRA:          -7.976
REMARK INTER:                  -8.310
REMARK INTRA:                   0.334
REMARK UNBOUND:                -0.292
REMARK SMILES O=c1c(O)c(-c2ccc(O)c(O)c2)oc2cc(O)cc(O)c12
REMARK SMILES IDX 5 1 3 2 2 3 1 4 22 5 20 6 19 7 17 8 16 9 15 10 14 11 6 12
REMARK SMILES IDX 7 13 8 14 9 15 13 16 11 17 10 18 12 20 4 22 21 24 18 26
REMARK H PARENT 10 19 12 21 4 23 21 25 18 27
REMARK Flexibility Score: inf
ROOT
ATOM      1  C   UNL     1      46.484  -1.330  74.996  1.00  0.00     0.180 A 
ATOM      2  C   UNL     1      45.196  -1.871  75.177  1.00  0.00     0.208 A 
ATOM      3  C   UNL     1      45.070  -3.146  75.751  1.00  0.00     0.238 A 
ATOM      4  O   UNL     1      43.923  -3.646  75.908  1.00  0.00    -0.285 OA
ATOM      5  C   UNL     1      46.227  -3.847  76.152  1.00  0.00     0.111 A 
ATOM      6  C   UNL     1      46.187  -5.134  76.742  1.00  0.00     0.134 A 
ATOM      7  C   UNL     1      47.382  -5.762  77.121  1.00  0.00     0.093 A 
ATOM      8  C   UNL     1      48.612  -5.131  76.926  1.00  0.00     0.123 A 
ATOM      9  C   UNL     1      48.659  -3.861  76.344  1.00  0.00     0.094 A 
ATOM     10  C   UNL     1      47.479  -3.218  75.955  1.00  0.00     0.146 A 
ATOM     11  O   UNL     1      47.550  -2.014  75.400  1.00  0.00    -0.452 OA
ENDROOT
BRANCH   1  12
ATOM     12  C   UNL     1      46.699  -0.001  74.381  1.00  0.00     0.025 A 
ATOM     13  C   UNL     1      45.758   0.494  73.463  1.00  0.00     0.016 A 
ATOM     14  C   UNL     1      45.929   1.756  72.886  1.00  0.00     0.051 A 
ATOM     15  C   UNL     1      47.031   2.546  73.226  1.00  0.00     0.157 A 
ATOM     16  C   UNL     1      47.795   0.804  74.737  1.00  0.00     0.062 A 
ATOM     17  C   UNL     1      47.968   2.070  74.160  1.00  0.00     0.158 A 
BRANCH  15  18
ATOM     18  O   UNL     1      47.177   3.799  72.632  1.00  0.00    -0.504 OA
ATOM     19  H   UNL     1      48.033   4.335  72.710  1.00  0.00     0.293 HD
ENDBRANCH  15  18
BRANCH  17  20
ATOM     20  O   UNL     1      49.062   2.859  74.515  1.00  0.00    -0.504 OA
ATOM     21  H   UNL     1      49.122   3.305  75.422  1.00  0.00     0.293 HD
ENDBRANCH  17  20
ENDBRANCH   1  12
BRANCH   2  22
ATOM     22  O   UNL     1      44.065  -1.136  74.816  1.00  0.00    -0.502 OA
ATOM     23  H   UNL     1      44.070  -0.472  74.052  1.00  0.00     0.293 HD
ENDBRANCH   2  22
BRANCH   6  24
ATOM     24  O   UNL     1      44.973  -5.790  76.952  1.00  0.00    -0.507 OA
ATOM     25  H   UNL     1      44.438  -6.180  76.185  1.00  0.00     0.293 HD
ENDBRANCH   6  24
BRANCH   8  26
ATOM     26  O   UNL     1      49.785  -5.777  77.314  1.00  0.00    -0.508 OA
ATOM     27  H   UNL     1      49.948  -6.753  77.099  1.00  0.00     0.293 HD
ENDBRANCH   8  26
TORSDOF 6
ENDMDL
MODEL 6
REMARK VINA RESULT:    -6.331      1.894      7.262
REMARK INTER + INTRA:          -7.918
REMARK INTER:                  -7.607
REMARK INTRA:                  -0.312
REMARK UNBOUND:                -0.292
REMARK SMILES O=c1c(O)c(-c2ccc(O)c(O)c2)oc2cc(O)cc(O)c12
REMARK SMILES IDX 5 1 3 2 2 3 1 4 22 5 20 6 19 7 17 8 16 9 15 10 14 11 6 12
REMARK SMILES IDX 7 13 8 14 9 15 13 16 11 17 10 18 12 20 4 22 21 24 18 26
REMARK H PARENT 10 19 12 21 4 23 21 25 18 27
REMARK Flexibility Score: inf
ROOT
ATOM      1  C   UNL     1      54.004   6.579  78.224  1.00  0.00     0.180 A 
ATOM      2  C   UNL     1      53.682   7.802  77.604  1.00  0.00     0.208 A 
ATOM      3  C   UNL     1      54.716   8.700  77.298  1.00  0.00     0.238 A 
ATOM      4  O   UNL     1      54.439   9.803  76.753  1.00  0.00    -0.285 OA
ATOM      5  C   UNL     1      56.051   8.354  77.596  1.00  0.00     0.111 A 
ATOM      6  C   UNL     1      57.151   9.200  77.316  1.00  0.00     0.134 A 
ATOM      7  C   UNL     1      58.450   8.780  77.635  1.00  0.00     0.093 A 
ATOM      8  C   UNL     1      58.672   7.533  78.225  1.00  0.00     0.123 A 
ATOM      9  C   UNL     1      57.589   6.693  78.504  1.00  0.00     0.094 A 
ATOM     10  C   UNL     1      56.285   7.095  78.196  1.00  0.00     0.146 A 
ATOM     11  O   UNL     1      55.274   6.280  78.476  1.00  0.00    -0.452 OA
ENDROOT
BRANCH   1  12
ATOM     12  C   UNL     1      52.967   5.589  78.595  1.00  0.00     0.025 A 
ATOM     13  C   UNL     1      52.433   5.603  79.893  1.00  0.00     0.016 A 
ATOM     14  C   UNL     1      51.438   4.693  80.260  1.00  0.00     0.051 A 
ATOM     15  C   UNL     1      50.953   3.765  79.333  1.00  0.00     0.157 A 
ATOM     16  C   UNL     1      52.463   4.669  77.659  1.00  0.00     0.062 A 
ATOM     17  C   UNL     1      51.464   3.754  78.024  1.00  0.00     0.158 A 
BRANCH  15  18
ATOM     18  O   UNL     1      49.962   2.867  79.728  1.00  0.00    -0.504 OA
ATOM     19  H   UNL     1      48.977   3.057  79.590  1.00  0.00     0.293 HD
ENDBRANCH  15  18
BRANCH  17  20
ATOM     20  O   UNL     1      50.975   2.842  77.091  1.00  0.00    -0.504 OA
ATOM     21  H   UNL     1      50.255   3.097  76.426  1.00  0.00     0.293 HD
ENDBRANCH  17  20
ENDBRANCH   1  12
BRANCH   2  22
ATOM     22  O   UNL     1      52.357   8.099  77.275  1.00  0.00    -0.502 OA
ATOM     23  H   UNL     1      51.956   7.867  76.375  1.00  0.00     0.293 HD
ENDBRANCH   2  22
BRANCH   6  24
ATOM     24  O   UNL     1      56.963  10.451  76.726  1.00  0.00    -0.507 OA
ATOM     25  H   UNL     1      57.006  10.579  75.722  1.00  0.00     0.293 HD
ENDBRANCH   6  24
BRANCH   8  26
ATOM     26  O   UNL     1      59.973   7.139  78.530  1.00  0.00    -0.508 OA
ATOM     27  H   UNL     1      60.435   7.448  79.376  1.00  0.00     0.293 HD
ENDBRANCH   8  26
TORSDOF 6
ENDMDL
MODEL 7
REMARK VINA RESULT:    -6.186     10.216     11.599
REMARK INTER + INTRA:          -7.744
REMARK INTER:                  -7.556
REMARK INTRA:                  -0.187
REMARK UNBOUND:                -0.292
REMARK SMILES O=c1c(O)c(-c2ccc(O)c(O)c2)oc2cc(O)cc(O)c12
REMARK SMILES IDX 5 1 3 2 2 3 1 4 22 5 20 6 19 7 17 8 16 9 15 10 14 11 6 12
REMARK SMILES IDX 7 13 8 14 9 15 13 16 11 17 10 18 12 20 4 22 21 24 18 26
REMARK H PARENT 10 19 12 21 4 23 21 25 18 27
REMARK Flexibility Score: inf
ROOT
ATOM      1  C   UNL     1      46.234   0.198  74.143  1.00  0.00     0.180 A 
ATOM      2  C   UNL     1      45.035  -0.246  74.736  1.00  0.00     0.208 A 
ATOM      3  C   UNL     1      45.037  -1.460  75.441  1.00  0.00     0.238 A 
ATOM      4  O   UNL     1      43.968  -1.873  75.967  1.00  0.00    -0.285 OA
ATOM      5  C   UNL     1      46.234  -2.197  75.558  1.00  0.00     0.111 A 
ATOM      6  C   UNL     1      46.321  -3.426  76.255  1.00  0.00     0.134 A 
ATOM      7  C   UNL     1      47.552  -4.094  76.334  1.00  0.00     0.093 A 
ATOM      8  C   UNL     1      48.694  -3.559  75.734  1.00  0.00     0.123 A 
ATOM      9  C   UNL     1      48.614  -2.345  75.045  1.00  0.00     0.094 A 
ATOM     10  C   UNL     1      47.396  -1.664  74.952  1.00  0.00     0.146 A 
ATOM     11  O   UNL     1      47.346  -0.515  74.287  1.00  0.00    -0.452 OA
ENDROOT
BRANCH   1  12
ATOM     12  C   UNL     1      46.307   1.457  73.368  1.00  0.00     0.025 A 
ATOM     13  C   UNL     1      47.153   2.489  73.806  1.00  0.00     0.016 A 
ATOM     14  C   UNL     1      47.255   3.678  73.079  1.00  0.00     0.051 A 
ATOM     15  C   UNL     1      46.527   3.849  71.898  1.00  0.00     0.157 A 
ATOM     16  C   UNL     1      45.592   1.623  72.169  1.00  0.00     0.062 A 
ATOM     17  C   UNL     1      45.694   2.815  71.437  1.00  0.00     0.158 A 
BRANCH  15  18
ATOM     18  O   UNL     1      46.647   5.047  71.195  1.00  0.00    -0.504 OA
ATOM     19  H   UNL     1      45.906   5.738  71.179  1.00  0.00     0.293 HD
ENDBRANCH  15  18
BRANCH  17  20
ATOM     20  O   UNL     1      44.976   2.974  70.252  1.00  0.00    -0.504 OA
ATOM     21  H   UNL     1      45.434   3.221  69.383  1.00  0.00     0.293 HD
ENDBRANCH  17  20
ENDBRANCH   1  12
BRANCH   2  22
ATOM     22  O   UNL     1      43.875   0.526  74.646  1.00  0.00    -0.502 OA
ATOM     23  H   UNL     1      43.784   1.295  73.994  1.00  0.00     0.293 HD
ENDBRANCH   2  22
BRANCH   6  24
ATOM     24  O   UNL     1      45.199  -3.987  76.865  1.00  0.00    -0.507 OA
ATOM     25  H   UNL     1      45.096  -4.989  76.974  1.00  0.00     0.293 HD
ENDBRANCH   6  24
BRANCH   8  26
ATOM     26  O   UNL     1      49.905  -4.242  75.830  1.00  0.00    -0.508 OA
ATOM     27  H   UNL     1      50.791  -3.751  75.826  1.00  0.00     0.293 HD
ENDBRANCH   8  26
TORSDOF 6
ENDMDL
MODEL 8
REMARK VINA RESULT:    -6.127      1.728      7.095
REMARK INTER + INTRA:          -7.673
REMARK INTER:                  -7.643
REMARK INTRA:                  -0.031
REMARK UNBOUND:                -0.292
REMARK SMILES O=c1c(O)c(-c2ccc(O)c(O)c2)oc2cc(O)cc(O)c12
REMARK SMILES IDX 5 1 3 2 2 3 1 4 22 5 20 6 19 7 17 8 16 9 15 10 14 11 6 12
REMARK SMILES IDX 7 13 8 14 9 15 13 16 11 17 10 18 12 20 4 22 21 24 18 26
REMARK H PARENT 10 19 12 21 4 23 21 25 18 27
REMARK Flexibility Score: inf
ROOT
ATOM      1  C   UNL     1      54.080   4.741  79.404  1.00  0.00     0.180 A 
ATOM      2  C   UNL     1      54.691   5.571  78.444  1.00  0.00     0.208 A 
ATOM      3  C   UNL     1      56.039   5.924  78.612  1.00  0.00     0.238 A 
ATOM      4  O   UNL     1      56.594   6.676  77.766  1.00  0.00    -0.285 OA
ATOM      5  C   UNL     1      56.757   5.427  79.720  1.00  0.00     0.111 A 
ATOM      6  C   UNL     1      58.119   5.731  79.960  1.00  0.00     0.134 A 
ATOM      7  C   UNL     1      58.765   5.189  81.081  1.00  0.00     0.093 A 
ATOM      8  C   UNL     1      58.080   4.351  81.963  1.00  0.00     0.123 A 
ATOM      9  C   UNL     1      56.735   4.047  81.732  1.00  0.00     0.094 A 
ATOM     10  C   UNL     1      56.072   4.579  80.621  1.00  0.00     0.146 A 
ATOM     11  O   UNL     1      54.792   4.279  80.427  1.00  0.00    -0.452 OA
ENDROOT
BRANCH   1  12
ATOM     12  C   UNL     1      52.658   4.341  79.306  1.00  0.00     0.025 A 
ATOM     13  C   UNL     1      51.790   4.611  80.377  1.00  0.00     0.016 A 
ATOM     14  C   UNL     1      50.439   4.262  80.298  1.00  0.00     0.051 A 
ATOM     15  C   UNL     1      49.933   3.653  79.146  1.00  0.00     0.157 A 
ATOM     16  C   UNL     1      52.142   3.747  78.141  1.00  0.00     0.062 A 
ATOM     17  C   UNL     1      50.786   3.397  78.059  1.00  0.00     0.158 A 
BRANCH  15  18
ATOM     18  O   UNL     1      48.581   3.314  79.098  1.00  0.00    -0.504 OA
ATOM     19  H   UNL     1      48.209   2.686  78.396  1.00  0.00     0.293 HD
ENDBRANCH  15  18
BRANCH  17  20
ATOM     20  O   UNL     1      50.284   2.803  76.903  1.00  0.00    -0.504 OA
ATOM     21  H   UNL     1      49.293   2.796  76.697  1.00  0.00     0.293 HD
ENDBRANCH  17  20
ENDBRANCH   1  12
BRANCH   2  22
ATOM     22  O   UNL     1      53.972   6.010  77.331  1.00  0.00    -0.502 OA
ATOM     23  H   UNL     1      54.090   5.600  76.412  1.00  0.00     0.293 HD
ENDBRANCH   2  22
BRANCH   6  24
ATOM     24  O   UNL     1      58.832   6.564  79.097  1.00  0.00    -0.507 OA
ATOM     25  H   UNL     1      58.492   7.485  78.843  1.00  0.00     0.293 HD
ENDBRANCH   6  24
BRANCH   8  26
ATOM     26  O   UNL     1      58.747   3.824  83.068  1.00  0.00    -0.508 OA
ATOM     27  H   UNL     1      59.627   4.209  83.388  1.00  0.00     0.293 HD
ENDBRANCH   8  26
TORSDOF 6
ENDMDL
MODEL 9
REMARK VINA RESULT:    -6.027      2.205      7.045
REMARK INTER + INTRA:          -7.553
REMARK INTER:                  -7.241
REMARK INTRA:                  -0.311
REMARK UNBOUND:                -0.292
REMARK SMILES O=c1c(O)c(-c2ccc(O)c(O)c2)oc2cc(O)cc(O)c12
REMARK SMILES IDX 5 1 3 2 2 3 1 4 22 5 20 6 19 7 17 8 16 9 15 10 14 11 6 12
REMARK SMILES IDX 7 13 8 14 9 15 13 16 11 17 10 18 12 20 4 22 21 24 18 26
REMARK H PARENT 10 19 12 21 4 23 21 25 18 27
REMARK Flexibility Score: inf
ROOT
ATOM      1  C   UNL     1      55.909   5.854  79.257  1.00  0.00     0.180 A 
ATOM      2  C   UNL     1      56.554   5.846  80.509  1.00  0.00     0.208 A 
ATOM      3  C   UNL     1      57.586   6.767  80.746  1.00  0.00     0.238 A 
ATOM      4  O   UNL     1      58.179   6.762  81.859  1.00  0.00    -0.285 OA
ATOM      5  C   UNL     1      57.941   7.690  79.740  1.00  0.00     0.111 A 
ATOM      6  C   UNL     1      58.967   8.653  79.901  1.00  0.00     0.134 A 
ATOM      7  C   UNL     1      59.254   9.542  78.855  1.00  0.00     0.093 A 
ATOM      8  C   UNL     1      58.539   9.490  77.657  1.00  0.00     0.123 A 
ATOM      9  C   UNL     1      57.524   8.541  77.493  1.00  0.00     0.094 A 
ATOM     10  C   UNL     1      57.224   7.643  78.522  1.00  0.00     0.146 A 
ATOM     11  O   UNL     1      56.260   6.748  78.339  1.00  0.00    -0.452 OA
ENDROOT
BRANCH   1  12
ATOM     12  C   UNL     1      54.825   4.901  78.925  1.00  0.00     0.025 A 
ATOM     13  C   UNL     1      53.491   5.339  78.948  1.00  0.00     0.016 A 
ATOM     14  C   UNL     1      52.452   4.464  78.618  1.00  0.00     0.051 A 
ATOM     15  C   UNL     1      52.731   3.146  78.246  1.00  0.00     0.157 A 
ATOM     16  C   UNL     1      55.104   3.581  78.531  1.00  0.00     0.062 A 
ATOM     17  C   UNL     1      54.064   2.701  78.198  1.00  0.00     0.158 A 
BRANCH  15  18
ATOM     18  O   UNL     1      51.674   2.294  77.925  1.00  0.00    -0.504 OA
ATOM     19  H   UNL     1      51.822   1.322  77.681  1.00  0.00     0.293 HD
ENDBRANCH  15  18
BRANCH  17  20
ATOM     20  O   UNL     1      54.349   1.392  77.814  1.00  0.00    -0.504 OA
ATOM     21  H   UNL     1      54.560   0.673  78.496  1.00  0.00     0.293 HD
ENDBRANCH  17  20
ENDBRANCH   1  12
BRANCH   2  22
ATOM     22  O   UNL     1      56.150   4.954  81.505  1.00  0.00    -0.502 OA
ATOM     23  H   UNL     1      55.193   4.903  81.833  1.00  0.00     0.293 HD
ENDBRANCH   2  22
BRANCH   6  24
ATOM     24  O   UNL     1      59.700   8.732  81.085  1.00  0.00    -0.507 OA
ATOM     25  H   UNL     1      60.710   8.657  81.094  1.00  0.00     0.293 HD
ENDBRANCH   6  24
BRANCH   8  26
ATOM     26  O   UNL     1      58.843  10.387  76.635  1.00  0.00    -0.508 OA
ATOM     27  H   UNL     1      58.585  11.365  76.695  1.00  0.00     0.293 HD
ENDBRANCH   8  26
TORSDOF 6
ENDMDL
