MODEL 1
REMARK VINA RESULT:    -5.092      0.000      0.000
REMARK INTER + INTRA:          -5.092
REMARK INTER:                  -5.092
REMARK INTRA:                   0.000
REMARK UNBOUND:                 0.000
REMARK SMILES C[C@@H]1C(=O)CC[C@@H]2[C@]3(C)CC[C@@]4(C)[C@H]5CC(C)(C)CC[C@@]5(C)CC[C@@]4(C)[C@@H]3CC[C@]21C
REMARK SMILES IDX 1 1 2 2 3 3 4 4 5 5 6 6 7 7 30 8 29 9 28 10 27 11 8 12 10 13
REMARK SMILES IDX 11 14 12 15 25 16 24 17 23 18 21 19 14 20 15 21 16 22 19 23
REMARK SMILES IDX 20 24 17 25 18 26 22 27 26 28 13 29 9 30 31 31
REMARK H PARENT
REMARK Flexibility Score: inf
ROOT
ATOM      1  C   UNL     1     135.024 146.662 134.582  1.00  0.00     0.016 C 
ATOM      2  C   UNL     1     134.540 145.404 135.348  1.00  0.00     0.059 C 
ATOM      3  C   UNL     1     133.391 145.746 136.285  1.00  0.00     0.136 C 
ATOM      4  O   UNL     1     132.840 146.838 136.236  1.00  0.00    -0.299 OA
ATOM      5  C   UNL     1     132.830 144.677 137.182  1.00  0.00     0.076 C 
ATOM      6  C   UNL     1     133.948 143.880 137.868  1.00  0.00     0.012 C 
ATOM      7  C   UNL     1     135.008 143.380 136.840  1.00  0.00     0.002 C 
ATOM      8  C   UNL     1     135.675 144.617 136.123  1.00  0.00    -0.020 C 
ATOM      9  C   UNL     1     136.692 144.066 135.111  1.00  0.00     0.008 C 
ATOM     10  C   UNL     1     137.780 143.248 135.789  1.00  0.00     0.005 C 
ATOM     11  C   UNL     1     137.263 141.962 136.492  1.00  0.00     0.002 C 
ATOM     12  C   UNL     1     135.945 142.186 137.374  1.00  0.00    -0.026 C 
ATOM     13  C   UNL     1     136.312 142.398 138.866  1.00  0.00     0.008 C 
ATOM     14  C   UNL     1     137.310 141.386 139.434  1.00  0.00     0.008 C 
ATOM     15  C   UNL     1     138.694 141.314 138.706  1.00  0.00    -0.024 C 
ATOM     16  C   UNL     1     138.449 141.066 137.152  1.00  0.00    -0.024 C 
ATOM     17  C   UNL     1     138.063 139.564 136.985  1.00  0.00     0.008 C 
ATOM     18  C   UNL     1     139.203 138.603 137.263  1.00  0.00     0.007 C 
ATOM     19  C   UNL     1     139.915 138.772 138.650  1.00  0.00    -0.029 C 
ATOM     20  C   UNL     1     139.657 140.184 139.386  1.00  0.00     0.002 C 
ATOM     21  C   UNL     1     139.336 140.004 140.915  1.00  0.00     0.011 C 
ATOM     22  C   UNL     1     140.181 138.955 141.679  1.00  0.00    -0.035 C 
ATOM     23  C   UNL     1     140.118 137.566 140.960  1.00  0.00     0.007 C 
ATOM     24  C   UNL     1     139.444 137.601 139.567  1.00  0.00     0.007 C 
ATOM     25  C   UNL     1     141.633 139.460 141.836  1.00  0.00     0.011 C 
ATOM     26  C   UNL     1     139.594 138.805 143.102  1.00  0.00     0.011 C 
ATOM     27  C   UNL     1     141.447 138.553 138.369  1.00  0.00     0.011 C 
ATOM     28  C   UNL     1     139.781 141.296 136.357  1.00  0.00     0.012 C 
ATOM     29  C   UNL     1     139.387 142.690 138.959  1.00  0.00     0.012 C 
ATOM     30  C   UNL     1     135.047 140.902 137.282  1.00  0.00     0.012 C 
ATOM     31  C   UNL     1     136.381 145.601 137.108  1.00  0.00     0.012 C 
ENDROOT
TORSDOF 0
ENDMDL
MODEL 2
REMARK VINA RESULT:    -5.068      5.639     10.195
REMARK INTER + INTRA:          -5.068
REMARK INTER:                  -5.068
REMARK INTRA:                   0.000
REMARK UNBOUND:                 0.000
REMARK SMILES C[C@@H]1C(=O)CC[C@@H]2[C@]3(C)CC[C@@]4(C)[C@H]5CC(C)(C)CC[C@@]5(C)CC[C@@]4(C)[C@@H]3CC[C@]21C
REMARK SMILES IDX 1 1 2 2 3 3 4 4 5 5 6 6 7 7 30 8 29 9 28 10 27 11 8 12 10 13
REMARK SMILES IDX 11 14 12 15 25 16 24 17 23 18 21 19 14 20 15 21 16 22 19 23
REMARK SMILES IDX 20 24 17 25 18 26 22 27 26 28 13 29 9 30 31 31
REMARK H PARENT
REMARK Flexibility Score: inf
ROOT
ATOM      1  C   UNL     1     146.607 134.884 134.559  1.00  0.00     0.016 C 
ATOM      2  C   UNL     1     147.094 136.152 135.306  1.00  0.00     0.059 C 
ATOM      3  C   UNL     1     148.256 135.825 136.232  1.00  0.00     0.136 C 
ATOM      4  O   UNL     1     148.813 134.735 136.187  1.00  0.00    -0.299 OA
ATOM      5  C   UNL     1     148.823 136.905 137.112  1.00  0.00     0.076 C 
ATOM      6  C   UNL     1     147.709 137.703 137.804  1.00  0.00     0.012 C 
ATOM      7  C   UNL     1     146.635 138.188 136.785  1.00  0.00     0.002 C 
ATOM      8  C   UNL     1     145.965 136.940 136.088  1.00  0.00    -0.020 C 
ATOM      9  C   UNL     1     144.933 137.476 135.084  1.00  0.00     0.008 C 
ATOM     10  C   UNL     1     143.849 138.295 135.767  1.00  0.00     0.005 C 
ATOM     11  C   UNL     1     144.367 139.591 136.452  1.00  0.00     0.002 C 
ATOM     12  C   UNL     1     145.698 139.381 137.319  1.00  0.00    -0.026 C 
ATOM     13  C   UNL     1     145.351 139.182 138.817  1.00  0.00     0.008 C 
ATOM     14  C   UNL     1     144.354 140.195 139.388  1.00  0.00     0.008 C 
ATOM     15  C   UNL     1     142.960 140.252 138.677  1.00  0.00    -0.024 C 
ATOM     16  C   UNL     1     143.185 140.487 137.117  1.00  0.00    -0.024 C 
ATOM     17  C   UNL     1     143.561 141.989 136.931  1.00  0.00     0.008 C 
ATOM     18  C   UNL     1     142.420 142.947 137.215  1.00  0.00     0.007 C 
ATOM     19  C   UNL     1     141.726 142.788 138.611  1.00  0.00    -0.029 C 
ATOM     20  C   UNL     1     142.000 141.384 139.357  1.00  0.00     0.002 C 
ATOM     21  C   UNL     1     142.340 141.580 140.881  1.00  0.00     0.011 C 
ATOM     22  C   UNL     1     141.498 142.632 141.645  1.00  0.00    -0.035 C 
ATOM     23  C   UNL     1     141.545 144.015 140.912  1.00  0.00     0.007 C 
ATOM     24  C   UNL     1     142.202 143.970 139.512  1.00  0.00     0.007 C 
ATOM     25  C   UNL     1     140.051 142.122 141.826  1.00  0.00     0.011 C 
ATOM     26  C   UNL     1     142.103 142.799 143.060  1.00  0.00     0.011 C 
ATOM     27  C   UNL     1     140.190 142.996 138.347  1.00  0.00     0.011 C 
ATOM     28  C   UNL     1     141.845 140.242 136.341  1.00  0.00     0.012 C 
ATOM     29  C   UNL     1     142.278 138.876 138.951  1.00  0.00     0.012 C 
ATOM     30  C   UNL     1     146.587 140.669 137.203  1.00  0.00     0.012 C 
ATOM     31  C   UNL     1     145.276 135.962 137.091  1.00  0.00     0.012 C 
ENDROOT
TORSDOF 0
ENDMDL
MODEL 3
REMARK VINA RESULT:    -5.021      5.224      7.134
REMARK INTER + INTRA:          -5.021
REMARK INTER:                  -5.021
REMARK INTRA:                   0.000
REMARK UNBOUND:                 0.000
REMARK SMILES C[C@@H]1C(=O)CC[C@@H]2[C@]3(C)CC[C@@]4(C)[C@H]5CC(C)(C)CC[C@@]5(C)CC[C@@]4(C)[C@@H]3CC[C@]21C
REMARK SMILES IDX 1 1 2 2 3 3 4 4 5 5 6 6 7 7 30 8 29 9 28 10 27 11 8 12 10 13
REMARK SMILES IDX 11 14 12 15 25 16 24 17 23 18 21 19 14 20 15 21 16 22 19 23
REMARK SMILES IDX 20 24 17 25 18 26 22 27 26 28 13 29 9 30 31 31
REMARK H PARENT
REMARK Flexibility Score: inf
ROOT
ATOM      1  C   UNL     1     146.513 146.954 134.736  1.00  0.00     0.016 C 
ATOM      2  C   UNL     1     145.230 147.397 135.484  1.00  0.00     0.059 C 
ATOM      3  C   UNL     1     145.530 148.534 136.450  1.00  0.00     0.136 C 
ATOM      4  O   UNL     1     146.611 149.108 136.434  1.00  0.00    -0.299 OA
ATOM      5  C   UNL     1     144.432 149.056 137.337  1.00  0.00     0.076 C 
ATOM      6  C   UNL     1     143.644 147.908 137.984  1.00  0.00     0.012 C 
ATOM      7  C   UNL     1     143.187 146.859 136.926  1.00  0.00     0.002 C 
ATOM      8  C   UNL     1     144.452 146.231 136.222  1.00  0.00    -0.020 C 
ATOM      9  C   UNL     1     143.943 145.224 135.179  1.00  0.00     0.008 C 
ATOM     10  C   UNL     1     143.133 144.106 135.819  1.00  0.00     0.005 C 
ATOM     11  C   UNL     1     141.823 144.583 136.506  1.00  0.00     0.002 C 
ATOM     12  C   UNL     1     142.003 145.888 137.418  1.00  0.00    -0.026 C 
ATOM     13  C   UNL     1     142.192 145.496 138.906  1.00  0.00     0.008 C 
ATOM     14  C   UNL     1     141.190 144.467 139.434  1.00  0.00     0.008 C 
ATOM     15  C   UNL     1     141.161 143.095 138.679  1.00  0.00    -0.024 C 
ATOM     16  C   UNL     1     140.939 143.367 137.124  1.00  0.00    -0.024 C 
ATOM     17  C   UNL     1     139.433 143.725 136.935  1.00  0.00     0.008 C 
ATOM     18  C   UNL     1     138.490 142.561 137.172  1.00  0.00     0.007 C 
ATOM     19  C   UNL     1     138.646 141.825 138.547  1.00  0.00    -0.029 C 
ATOM     20  C   UNL     1     140.038 142.097 139.317  1.00  0.00     0.002 C 
ATOM     21  C   UNL     1     139.821 142.385 140.848  1.00  0.00     0.011 C 
ATOM     22  C   UNL     1     138.775 141.503 141.574  1.00  0.00    -0.035 C 
ATOM     23  C   UNL     1     137.399 141.552 140.828  1.00  0.00     0.007 C 
ATOM     24  C   UNL     1     137.448 142.254 139.450  1.00  0.00     0.007 C 
ATOM     25  C   UNL     1     139.306 140.059 141.714  1.00  0.00     0.011 C 
ATOM     26  C   UNL     1     138.584 142.059 143.005  1.00  0.00     0.011 C 
ATOM     27  C   UNL     1     138.465 140.295 138.232  1.00  0.00     0.011 C 
ATOM     28  C   UNL     1     141.212 142.055 136.309  1.00  0.00     0.012 C 
ATOM     29  C   UNL     1     142.545 142.426 138.946  1.00  0.00     0.012 C 
ATOM     30  C   UNL     1     140.703 146.761 137.317  1.00  0.00     0.012 C 
ATOM     31  C   UNL     1     145.430 145.526 137.213  1.00  0.00     0.012 C 
ENDROOT
TORSDOF 0
ENDMDL
MODEL 4
REMARK VINA RESULT:    -4.997      5.426      7.452
REMARK INTER + INTRA:          -4.997
REMARK INTER:                  -4.997
REMARK INTRA:                   0.000
REMARK UNBOUND:                 0.000
REMARK SMILES C[C@@H]1C(=O)CC[C@@H]2[C@]3(C)CC[C@@]4(C)[C@H]5CC(C)(C)CC[C@@]5(C)CC[C@@]4(C)[C@@H]3CC[C@]21C
REMARK SMILES IDX 1 1 2 2 3 3 4 4 5 5 6 6 7 7 30 8 29 9 28 10 27 11 8 12 10 13
REMARK SMILES IDX 11 14 12 15 25 16 24 17 23 18 21 19 14 20 15 21 16 22 19 23
REMARK SMILES IDX 20 24 17 25 18 26 22 27 26 28 13 29 9 30 31 31
REMARK H PARENT
REMARK Flexibility Score: inf
ROOT
ATOM      1  C   UNL     1     135.031 134.598 134.670  1.00  0.00     0.016 C 
ATOM      2  C   UNL     1     136.315 134.150 135.413  1.00  0.00     0.059 C 
ATOM      3  C   UNL     1     136.016 133.016 136.383  1.00  0.00     0.136 C 
ATOM      4  O   UNL     1     134.932 132.447 136.373  1.00  0.00    -0.299 OA
ATOM      5  C   UNL     1     137.116 132.491 137.264  1.00  0.00     0.076 C 
ATOM      6  C   UNL     1     137.912 133.636 137.906  1.00  0.00     0.012 C 
ATOM      7  C   UNL     1     138.368 134.682 136.844  1.00  0.00     0.002 C 
ATOM      8  C   UNL     1     137.103 135.314 136.145  1.00  0.00    -0.020 C 
ATOM      9  C   UNL     1     137.611 136.318 135.098  1.00  0.00     0.008 C 
ATOM     10  C   UNL     1     138.428 137.433 135.732  1.00  0.00     0.005 C 
ATOM     11  C   UNL     1     139.740 136.952 136.413  1.00  0.00     0.002 C 
ATOM     12  C   UNL     1     139.559 135.649 137.328  1.00  0.00    -0.026 C 
ATOM     13  C   UNL     1     139.379 136.044 138.816  1.00  0.00     0.008 C 
ATOM     14  C   UNL     1     140.388 137.070 139.338  1.00  0.00     0.008 C 
ATOM     15  C   UNL     1     140.419 138.440 138.580  1.00  0.00    -0.024 C 
ATOM     16  C   UNL     1     140.632 138.165 137.025  1.00  0.00    -0.024 C 
ATOM     17  C   UNL     1     142.136 137.800 136.828  1.00  0.00     0.008 C 
ATOM     18  C   UNL     1     143.085 138.961 137.058  1.00  0.00     0.007 C 
ATOM     19  C   UNL     1     142.939 139.700 138.434  1.00  0.00    -0.029 C 
ATOM     20  C   UNL     1     141.550 139.434 139.210  1.00  0.00     0.002 C 
ATOM     21  C   UNL     1     141.773 139.149 140.741  1.00  0.00     0.011 C 
ATOM     22  C   UNL     1     142.827 140.027 141.460  1.00  0.00    -0.035 C 
ATOM     23  C   UNL     1     144.199 139.971 140.707  1.00  0.00     0.007 C 
ATOM     24  C   UNL     1     144.140 139.266 139.331  1.00  0.00     0.007 C 
ATOM     25  C   UNL     1     142.303 141.474 141.600  1.00  0.00     0.011 C 
ATOM     26  C   UNL     1     143.023 139.472 142.891  1.00  0.00     0.011 C 
ATOM     27  C   UNL     1     143.125 141.228 138.115  1.00  0.00     0.011 C 
ATOM     28  C   UNL     1     140.361 139.476 136.209  1.00  0.00     0.012 C 
ATOM     29  C   UNL     1     139.039 139.116 138.853  1.00  0.00     0.012 C 
ATOM     30  C   UNL     1     140.855 134.770 137.221  1.00  0.00     0.012 C 
ATOM     31  C   UNL     1     136.132 136.025 137.140  1.00  0.00     0.012 C 
ENDROOT
TORSDOF 0
ENDMDL
MODEL 5
REMARK VINA RESULT:    -4.379      4.267      8.107
REMARK INTER + INTRA:          -4.379
REMARK INTER:                  -4.379
REMARK INTRA:                   0.000
REMARK UNBOUND:                 0.000
REMARK SMILES C[C@@H]1C(=O)CC[C@@H]2[C@]3(C)CC[C@@]4(C)[C@H]5CC(C)(C)CC[C@@]5(C)CC[C@@]4(C)[C@@H]3CC[C@]21C
REMARK SMILES IDX 1 1 2 2 3 3 4 4 5 5 6 6 7 7 30 8 29 9 28 10 27 11 8 12 10 13
REMARK SMILES IDX 11 14 12 15 25 16 24 17 23 18 21 19 14 20 15 21 16 22 19 23
REMARK SMILES IDX 20 24 17 25 18 26 22 27 26 28 13 29 9 30 31 31
REMARK H PARENT
REMARK Flexibility Score: inf
ROOT
ATOM      1  C   UNL     1     139.460 136.359 137.345  1.00  0.00     0.016 C 
ATOM      2  C   UNL     1     140.302 137.211 138.328  1.00  0.00     0.059 C 
ATOM      3  C   UNL     1     139.867 136.973 139.766  1.00  0.00     0.136 C 
ATOM      4  O   UNL     1     139.096 136.065 140.050  1.00  0.00    -0.299 OA
ATOM      5  C   UNL     1     140.507 137.768 140.871  1.00  0.00     0.076 C 
ATOM      6  C   UNL     1     140.594 139.258 140.509  1.00  0.00     0.012 C 
ATOM      7  C   UNL     1     141.227 139.468 139.100  1.00  0.00     0.002 C 
ATOM      8  C   UNL     1     140.334 138.763 138.007  1.00  0.00    -0.020 C 
ATOM      9  C   UNL     1     141.015 138.984 136.647  1.00  0.00     0.008 C 
ATOM     10  C   UNL     1     141.130 140.462 136.306  1.00  0.00     0.005 C 
ATOM     11  C   UNL     1     142.033 141.271 137.278  1.00  0.00     0.002 C 
ATOM     12  C   UNL     1     141.766 140.959 138.827  1.00  0.00    -0.026 C 
ATOM     13  C   UNL     1     140.810 142.013 139.442  1.00  0.00     0.008 C 
ATOM     14  C   UNL     1     141.163 143.468 139.123  1.00  0.00     0.008 C 
ATOM     15  C   UNL     1     141.212 143.838 137.602  1.00  0.00    -0.024 C 
ATOM     16  C   UNL     1     142.199 142.832 136.858  1.00  0.00    -0.024 C 
ATOM     17  C   UNL     1     143.653 143.272 137.213  1.00  0.00     0.008 C 
ATOM     18  C   UNL     1     144.060 144.598 136.599  1.00  0.00     0.007 C 
ATOM     19  C   UNL     1     143.102 145.806 136.885  1.00  0.00    -0.029 C 
ATOM     20  C   UNL     1     141.624 145.404 137.392  1.00  0.00     0.002 C 
ATOM     21  C   UNL     1     141.156 146.286 138.608  1.00  0.00     0.011 C 
ATOM     22  C   UNL     1     141.489 147.797 138.533  1.00  0.00    -0.035 C 
ATOM     23  C   UNL     1     143.020 148.013 138.283  1.00  0.00     0.007 C 
ATOM     24  C   UNL     1     143.797 146.719 137.943  1.00  0.00     0.007 C 
ATOM     25  C   UNL     1     140.625 148.475 137.447  1.00  0.00     0.011 C 
ATOM     26  C   UNL     1     141.111 148.443 139.887  1.00  0.00     0.011 C 
ATOM     27  C   UNL     1     143.035 146.621 135.541  1.00  0.00     0.011 C 
ATOM     28  C   UNL     1     142.035 142.975 135.305  1.00  0.00     0.012 C 
ATOM     29  C   UNL     1     139.751 143.695 137.075  1.00  0.00     0.012 C 
ATOM     30  C   UNL     1     143.127 141.040 139.603  1.00  0.00     0.012 C 
ATOM     31  C   UNL     1     138.867 139.294 137.963  1.00  0.00     0.012 C 
ENDROOT
TORSDOF 0
ENDMDL
MODEL 6
REMARK VINA RESULT:    -4.351      3.820      6.132
REMARK INTER + INTRA:          -4.351
REMARK INTER:                  -4.351
REMARK INTRA:                   0.000
REMARK UNBOUND:                 0.000
REMARK SMILES C[C@@H]1C(=O)CC[C@@H]2[C@]3(C)CC[C@@]4(C)[C@H]5CC(C)(C)CC[C@@]5(C)CC[C@@]4(C)[C@@H]3CC[C@]21C
REMARK SMILES IDX 1 1 2 2 3 3 4 4 5 5 6 6 7 7 30 8 29 9 28 10 27 11 8 12 10 13
REMARK SMILES IDX 11 14 12 15 25 16 24 17 23 18 21 19 14 20 15 21 16 22 19 23
REMARK SMILES IDX 20 24 17 25 18 26 22 27 26 28 13 29 9 30 31 31
REMARK H PARENT
REMARK Flexibility Score: inf
ROOT
ATOM      1  C   UNL     1     136.402 142.153 136.933  1.00  0.00     0.016 C 
ATOM      2  C   UNL     1     137.210 141.352 137.985  1.00  0.00     0.059 C 
ATOM      3  C   UNL     1     136.929 141.862 139.391  1.00  0.00     0.136 C 
ATOM      4  O   UNL     1     136.022 142.657 139.604  1.00  0.00    -0.299 OA
ATOM      5  C   UNL     1     137.678 141.270 140.553  1.00  0.00     0.076 C 
ATOM      6  C   UNL     1     139.178 141.148 140.246  1.00  0.00     0.012 C 
ATOM      7  C   UNL     1     139.427 140.441 138.880  1.00  0.00     0.002 C 
ATOM      8  C   UNL     1     138.770 141.286 137.719  1.00  0.00    -0.020 C 
ATOM      9  C   UNL     1     139.029 140.535 136.404  1.00  0.00     0.008 C 
ATOM     10  C   UNL     1     140.515 140.385 136.119  1.00  0.00     0.005 C 
ATOM     11  C   UNL     1     141.279 139.523 137.163  1.00  0.00     0.002 C 
ATOM     12  C   UNL     1     140.919 139.872 138.685  1.00  0.00    -0.026 C 
ATOM     13  C   UNL     1     141.964 140.846 139.287  1.00  0.00     0.008 C 
ATOM     14  C   UNL     1     143.424 140.461 139.036  1.00  0.00     0.008 C 
ATOM     15  C   UNL     1     143.845 140.330 137.533  1.00  0.00    -0.024 C 
ATOM     16  C   UNL     1     142.851 139.319 136.805  1.00  0.00    -0.024 C 
ATOM     17  C   UNL     1     143.260 137.879 137.248  1.00  0.00     0.008 C 
ATOM     18  C   UNL     1     144.600 137.426 136.701  1.00  0.00     0.007 C 
ATOM     19  C   UNL     1     145.810 138.384 136.979  1.00  0.00    -0.029 C 
ATOM     20  C   UNL     1     145.411 139.890 137.398  1.00  0.00     0.002 C 
ATOM     21  C   UNL     1     146.258 140.409 138.618  1.00  0.00     0.011 C 
ATOM     22  C   UNL     1     147.766 140.055 138.611  1.00  0.00    -0.035 C 
ATOM     23  C   UNL     1     147.970 138.511 138.446  1.00  0.00     0.007 C 
ATOM     24  C   UNL     1     146.678 137.732 138.101  1.00  0.00     0.007 C 
ATOM     25  C   UNL     1     148.492 140.855 137.507  1.00  0.00     0.011 C 
ATOM     26  C   UNL     1     148.371 140.494 139.966  1.00  0.00     0.011 C 
ATOM     27  C   UNL     1     146.670 138.372 135.663  1.00  0.00     0.011 C 
ATOM     28  C   UNL     1     143.049 139.402 135.252  1.00  0.00     0.012 C 
ATOM     29  C   UNL     1     143.738 141.764 136.928  1.00  0.00     0.012 C 
ATOM     30  C   UNL     1     140.956 138.551 139.531  1.00  0.00     0.012 C 
ATOM     31  C   UNL     1     139.323 142.742 137.620  1.00  0.00     0.012 C 
ENDROOT
TORSDOF 0
ENDMDL
MODEL 7
REMARK VINA RESULT:    -4.351      4.266      5.792
REMARK INTER + INTRA:          -4.351
REMARK INTER:                  -4.351
REMARK INTRA:                   0.000
REMARK UNBOUND:                 0.000
REMARK SMILES C[C@@H]1C(=O)CC[C@@H]2[C@]3(C)CC[C@@]4(C)[C@H]5CC(C)(C)CC[C@@]5(C)CC[C@@]4(C)[C@@H]3CC[C@]21C
REMARK SMILES IDX 1 1 2 2 3 3 4 4 5 5 6 6 7 7 30 8 29 9 28 10 27 11 8 12 10 13
REMARK SMILES IDX 11 14 12 15 25 16 24 17 23 18 21 19 14 20 15 21 16 22 19 23
REMARK SMILES IDX 20 24 17 25 18 26 22 27 26 28 13 29 9 30 31 31
REMARK H PARENT
REMARK Flexibility Score: inf
ROOT
ATOM      1  C   UNL     1     142.141 145.259 136.899  1.00  0.00     0.016 C 
ATOM      2  C   UNL     1     141.342 144.423 137.931  1.00  0.00     0.059 C 
ATOM      3  C   UNL     1     141.832 144.692 139.345  1.00  0.00     0.136 C 
ATOM      4  O   UNL     1     142.609 145.608 139.581  1.00  0.00    -0.299 OA
ATOM      5  C   UNL     1     141.241 143.916 140.490  1.00  0.00     0.076 C 
ATOM      6  C   UNL     1     141.148 142.419 140.161  1.00  0.00     0.012 C 
ATOM      7  C   UNL     1     140.460 142.178 138.783  1.00  0.00     0.002 C 
ATOM      8  C   UNL     1     141.306 142.865 137.642  1.00  0.00    -0.020 C 
ATOM      9  C   UNL     1     140.574 142.613 136.314  1.00  0.00     0.008 C 
ATOM     10  C   UNL     1     140.452 141.129 136.007  1.00  0.00     0.005 C 
ATOM     11  C   UNL     1     139.593 140.335 137.030  1.00  0.00     0.002 C 
ATOM     12  C   UNL     1     139.919 140.679 138.561  1.00  0.00    -0.026 C 
ATOM     13  C   UNL     1     140.904 139.642 139.158  1.00  0.00     0.008 C 
ATOM     14  C   UNL     1     140.547 138.179 138.882  1.00  0.00     0.008 C 
ATOM     15  C   UNL     1     140.439 137.779 137.372  1.00  0.00    -0.024 C 
ATOM     16  C   UNL     1     139.419 138.765 136.647  1.00  0.00    -0.024 C 
ATOM     17  C   UNL     1     137.982 138.326 137.068  1.00  0.00     0.008 C 
ATOM     18  C   UNL     1     137.558 136.986 136.497  1.00  0.00     0.007 C 
ATOM     19  C   UNL     1     138.533 135.789 136.768  1.00  0.00    -0.029 C 
ATOM     20  C   UNL     1     140.027 136.207 137.209  1.00  0.00     0.002 C 
ATOM     21  C   UNL     1     140.548 135.352 138.423  1.00  0.00     0.011 C 
ATOM     22  C   UNL     1     140.220 133.838 138.391  1.00  0.00    -0.035 C 
ATOM     23  C   UNL     1     138.682 133.611 138.205  1.00  0.00     0.007 C 
ATOM     24  C   UNL     1     137.885 134.894 137.871  1.00  0.00     0.007 C 
ATOM     25  C   UNL     1     141.045 133.142 137.285  1.00  0.00     0.011 C 
ATOM     26  C   UNL     1     140.654 133.221 139.741  1.00  0.00     0.011 C 
ATOM     27  C   UNL     1     138.551 134.948 135.440  1.00  0.00     0.011 C 
ATOM     28  C   UNL     1     139.522 138.592 135.092  1.00  0.00     0.012 C 
ATOM     29  C   UNL     1     141.878 137.918 136.784  1.00  0.00     0.012 C 
ATOM     30  C   UNL     1     138.590 140.608 139.392  1.00  0.00     0.012 C 
ATOM     31  C   UNL     1     142.773 142.339 137.550  1.00  0.00     0.012 C 
ENDROOT
TORSDOF 0
ENDMDL
MODEL 8
REMARK VINA RESULT:    -4.338      3.409      7.807
REMARK INTER + INTRA:          -4.338
REMARK INTER:                  -4.338
REMARK INTRA:                   0.000
REMARK UNBOUND:                 0.000
REMARK SMILES C[C@@H]1C(=O)CC[C@@H]2[C@]3(C)CC[C@@]4(C)[C@H]5CC(C)(C)CC[C@@]5(C)CC[C@@]4(C)[C@@H]3CC[C@]21C
REMARK SMILES IDX 1 1 2 2 3 3 4 4 5 5 6 6 7 7 30 8 29 9 28 10 27 11 8 12 10 13
REMARK SMILES IDX 11 14 12 15 25 16 24 17 23 18 21 19 14 20 15 21 16 22 19 23
REMARK SMILES IDX 20 24 17 25 18 26 22 27 26 28 13 29 9 30 31 31
REMARK H PARENT
REMARK Flexibility Score: inf
ROOT
ATOM      1  C   UNL     1     145.238 139.434 136.839  1.00  0.00     0.016 C 
ATOM      2  C   UNL     1     144.431 140.236 137.893  1.00  0.00     0.059 C 
ATOM      3  C   UNL     1     144.706 139.718 139.297  1.00  0.00     0.136 C 
ATOM      4  O   UNL     1     145.607 138.917 139.510  1.00  0.00    -0.299 OA
ATOM      5  C   UNL     1     143.956 140.310 140.460  1.00  0.00     0.076 C 
ATOM      6  C   UNL     1     142.459 140.441 140.149  1.00  0.00     0.012 C 
ATOM      7  C   UNL     1     142.217 141.155 138.785  1.00  0.00     0.002 C 
ATOM      8  C   UNL     1     142.872 140.311 137.623  1.00  0.00    -0.020 C 
ATOM      9  C   UNL     1     142.622 141.069 136.310  1.00  0.00     0.008 C 
ATOM     10  C   UNL     1     141.136 141.229 136.022  1.00  0.00     0.005 C 
ATOM     11  C   UNL     1     140.375 142.090 137.067  1.00  0.00     0.002 C 
ATOM     12  C   UNL     1     140.729 141.733 138.588  1.00  0.00    -0.026 C 
ATOM     13  C   UNL     1     139.676 140.763 139.183  1.00  0.00     0.008 C 
ATOM     14  C   UNL     1     138.219 141.157 138.930  1.00  0.00     0.008 C 
ATOM     15  C   UNL     1     137.804 141.297 137.427  1.00  0.00    -0.024 C 
ATOM     16  C   UNL     1     138.805 142.305 136.706  1.00  0.00    -0.024 C 
ATOM     17  C   UNL     1     138.403 143.745 137.153  1.00  0.00     0.008 C 
ATOM     18  C   UNL     1     137.067 144.208 136.604  1.00  0.00     0.007 C 
ATOM     19  C   UNL     1     135.851 143.256 136.875  1.00  0.00    -0.029 C 
ATOM     20  C   UNL     1     136.240 141.746 137.289  1.00  0.00     0.002 C 
ATOM     21  C   UNL     1     135.387 141.227 138.504  1.00  0.00     0.011 C 
ATOM     22  C   UNL     1     133.881 141.590 138.495  1.00  0.00    -0.035 C 
ATOM     23  C   UNL     1     133.686 143.135 138.336  1.00  0.00     0.007 C 
ATOM     24  C   UNL     1     134.984 143.908 137.998  1.00  0.00     0.007 C 
ATOM     25  C   UNL     1     133.154 140.797 137.386  1.00  0.00     0.011 C 
ATOM     26  C   UNL     1     133.270 141.148 139.846  1.00  0.00     0.011 C 
ATOM     27  C   UNL     1     134.994 143.277 135.557  1.00  0.00     0.011 C 
ATOM     28  C   UNL     1     138.611 142.230 135.151  1.00  0.00     0.012 C 
ATOM     29  C   UNL     1     137.904 139.864 136.816  1.00  0.00     0.012 C 
ATOM     30  C   UNL     1     140.697 143.051 139.440  1.00  0.00     0.012 C 
ATOM     31  C   UNL     1     142.312 138.858 137.516  1.00  0.00     0.012 C 
ENDROOT
TORSDOF 0
ENDMDL
MODEL 9
REMARK VINA RESULT:    -4.242      3.542      8.331
REMARK INTER + INTRA:          -4.242
REMARK INTER:                  -4.242
REMARK INTRA:                   0.000
REMARK UNBOUND:                 0.000
REMARK SMILES C[C@@H]1C(=O)CC[C@@H]2[C@]3(C)CC[C@@]4(C)[C@H]5CC(C)(C)CC[C@@]5(C)CC[C@@]4(C)[C@@H]3CC[C@]21C
REMARK SMILES IDX 1 1 2 2 3 3 4 4 5 5 6 6 7 7 30 8 29 9 28 10 27 11 8 12 10 13
REMARK SMILES IDX 11 14 12 15 25 16 24 17 23 18 21 19 14 20 15 21 16 22 19 23
REMARK SMILES IDX 20 24 17 25 18 26 22 27 26 28 13 29 9 30 31 31
REMARK H PARENT
REMARK Flexibility Score: inf
ROOT
ATOM      1  C   UNL     1     139.876 137.638 141.177  1.00  0.00     0.016 C 
ATOM      2  C   UNL     1     140.910 138.717 140.767  1.00  0.00     0.059 C 
ATOM      3  C   UNL     1     141.555 139.347 141.992  1.00  0.00     0.136 C 
ATOM      4  O   UNL     1     141.387 138.873 143.109  1.00  0.00    -0.299 OA
ATOM      5  C   UNL     1     142.530 140.478 141.813  1.00  0.00     0.076 C 
ATOM      6  C   UNL     1     142.004 141.515 140.811  1.00  0.00     0.012 C 
ATOM      7  C   UNL     1     141.531 140.843 139.486  1.00  0.00     0.002 C 
ATOM      8  C   UNL     1     140.354 139.837 139.794  1.00  0.00    -0.020 C 
ATOM      9  C   UNL     1     139.944 139.192 138.461  1.00  0.00     0.008 C 
ATOM     10  C   UNL     1     139.455 140.225 137.458  1.00  0.00     0.005 C 
ATOM     11  C   UNL     1     140.537 141.252 137.024  1.00  0.00     0.002 C 
ATOM     12  C   UNL     1     141.393 141.850 138.239  1.00  0.00    -0.026 C 
ATOM     13  C   UNL     1     140.821 143.217 138.694  1.00  0.00     0.008 C 
ATOM     14  C   UNL     1     140.526 144.202 137.560  1.00  0.00     0.008 C 
ATOM     15  C   UNL     1     139.513 143.706 136.473  1.00  0.00    -0.024 C 
ATOM     16  C   UNL     1     140.015 142.306 135.901  1.00  0.00    -0.024 C 
ATOM     17  C   UNL     1     141.203 142.606 134.936  1.00  0.00     0.008 C 
ATOM     18  C   UNL     1     140.794 143.319 133.662  1.00  0.00     0.007 C 
ATOM     19  C   UNL     1     139.975 144.643 133.853  1.00  0.00    -0.029 C 
ATOM     20  C   UNL     1     139.304 144.830 135.308  1.00  0.00     0.002 C 
ATOM     21  C   UNL     1     139.512 146.284 135.873  1.00  0.00     0.011 C 
ATOM     22  C   UNL     1     139.343 147.446 134.863  1.00  0.00    -0.035 C 
ATOM     23  C   UNL     1     140.261 147.229 133.613  1.00  0.00     0.007 C 
ATOM     24  C   UNL     1     140.933 145.837 133.552  1.00  0.00     0.007 C 
ATOM     25  C   UNL     1     137.856 147.593 134.471  1.00  0.00     0.011 C 
ATOM     26  C   UNL     1     139.762 148.760 135.565  1.00  0.00     0.011 C 
ATOM     27  C   UNL     1     138.881 144.630 132.724  1.00  0.00     0.011 C 
ATOM     28  C   UNL     1     138.879 141.640 135.048  1.00  0.00     0.012 C 
ATOM     29  C   UNL     1     138.139 143.563 137.198  1.00  0.00     0.012 C 
ATOM     30  C   UNL     1     142.867 142.088 137.754  1.00  0.00     0.012 C 
ATOM     31  C   UNL     1     139.117 140.512 140.464  1.00  0.00     0.012 C 
ENDROOT
TORSDOF 0
ENDMDL
