MODEL 1
REMARK VINA RESULT:    -5.931      0.000      0.000
REMARK INTER + INTRA:         -10.515
REMARK INTER:                  -8.185
REMARK INTRA:                  -2.330
REMARK UNBOUND:                -2.330
REMARK SMILES CC[C@H](CC[C@@H](C)[C@@H]1CC[C@@H]2[C@@H]3CC=C4C[C@@H](O)CC[C@]4(C)[C@H]3CC[C@@]21C)C(C)C
REMARK SMILES IDX 5 1 4 2 3 3 2 4 1 5 28 6 29 7 30 8 6 9 7 10 8 11 9 12 26 13
REMARK SMILES IDX 10 14 11 15 25 16 27 17 12 18 24 19 23 20 13 21 21 22 14 23
REMARK SMILES IDX 15 24 20 25 22 26 16 27 19 28 17 29 18 30
REMARK H PARENT 18 31
REMARK Flexibility Score: inf
ROOT
ATOM      1  C   UNL     1     145.375 137.874 141.402  1.00  0.00     0.004 C 
ENDROOT
BRANCH   1   2
ATOM      2  C   UNL     1     144.360 137.237 140.430  1.00  0.00     0.004 C 
BRANCH   2   3
ATOM      3  C   UNL     1     143.722 138.200 139.385  1.00  0.00    -0.009 C 
BRANCH   3   4
ATOM      4  C   UNL     1     142.180 138.050 139.256  1.00  0.00     0.000 C 
ATOM      5  C   UNL     1     141.644 136.739 139.834  1.00  0.00     0.004 C 
ENDBRANCH   3   4
BRANCH   3   6
ATOM      6  C   UNL     1     144.160 139.702 139.479  1.00  0.00    -0.014 C 
ATOM      7  C   UNL     1     144.577 140.354 138.148  1.00  0.00     0.007 C 
ATOM      8  C   UNL     1     143.121 140.575 140.196  1.00  0.00     0.007 C 
ENDBRANCH   3   6
ENDBRANCH   2   3
ENDBRANCH   1   2
BRANCH   1   9
ATOM      9  C   UNL     1     144.823 138.033 142.844  1.00  0.00    -0.011 C 
ATOM     10  C   UNL     1     145.079 139.468 143.356  1.00  0.00     0.008 C 
BRANCH   9  11
ATOM     11  C   UNL     1     143.319 137.567 142.903  1.00  0.00    -0.002 C 
ATOM     12  C   UNL     1     142.259 138.653 143.152  1.00  0.00     0.005 C 
ATOM     13  C   UNL     1     142.971 136.416 143.886  1.00  0.00    -0.026 C 
ATOM     14  C   UNL     1     141.055 137.932 143.766  1.00  0.00     0.005 C 
ATOM     15  C   UNL     1     141.427 136.439 143.854  1.00  0.00    -0.001 C 
ATOM     16  C   UNL     1     143.484 136.708 145.325  1.00  0.00     0.007 C 
ATOM     17  C   UNL     1     143.521 135.063 143.364  1.00  0.00     0.012 C 
ATOM     18  C   UNL     1     140.738 135.624 144.996  1.00  0.00     0.000 C 
ATOM     19  C   UNL     1     142.863 135.783 146.374  1.00  0.00     0.005 C 
ATOM     20  C   UNL     1     141.320 135.913 146.401  1.00  0.00     0.003 C 
ATOM     21  C   UNL     1     139.216 135.844 144.986  1.00  0.00     0.031 C 
ATOM     22  C   UNL     1     140.641 135.021 147.519  1.00  0.00    -0.008 C 
ATOM     23  C   UNL     1     138.520 135.205 146.150  1.00  0.00    -0.027 C 
ATOM     24  C   UNL     1     139.114 134.977 147.341  1.00  0.00    -0.065 C 
ATOM     25  C   UNL     1     140.958 135.642 148.916  1.00  0.00     0.014 C 
ATOM     26  C   UNL     1     141.165 133.559 147.474  1.00  0.00     0.016 C 
ATOM     27  C   UNL     1     138.256 134.472 148.487  1.00  0.00     0.063 C 
ATOM     28  C   UNL     1     140.139 135.032 150.066  1.00  0.00     0.033 C 
ATOM     29  C   UNL     1     138.638 135.166 149.801  1.00  0.00     0.118 C 
BRANCH  29  30
ATOM     30  O   UNL     1     137.932 134.586 150.867  1.00  0.00    -0.393 OA
ATOM     31  H   UNL     1     138.164 135.105 151.681  1.00  0.00     0.210 HD
ENDBRANCH  29  30
ENDBRANCH   9  11
ENDBRANCH   1   9
TORSDOF 7
ENDMDL
MODEL 2
REMARK VINA RESULT:    -5.519      3.361      8.570
REMARK INTER + INTRA:          -9.947
REMARK INTER:                  -8.155
REMARK INTRA:                  -1.792
REMARK UNBOUND:                -2.330
REMARK SMILES CC[C@H](CC[C@@H](C)[C@@H]1CC[C@@H]2[C@@H]3CC=C4C[C@@H](O)CC[C@]4(C)[C@H]3CC[C@@]21C)C(C)C
REMARK SMILES IDX 5 1 4 2 3 3 2 4 1 5 28 6 29 7 30 8 6 9 7 10 8 11 9 12 26 13
REMARK SMILES IDX 10 14 11 15 25 16 27 17 12 18 24 19 23 20 13 21 21 22 14 23
REMARK SMILES IDX 15 24 20 25 22 26 16 27 19 28 17 29 18 30
REMARK H PARENT 18 31
REMARK Flexibility Score: inf
ROOT
ATOM      1  C   UNL     1     140.565 132.915 146.668  1.00  0.00     0.004 C 
ENDROOT
BRANCH   1   2
ATOM      2  C   UNL     1     140.066 133.134 148.111  1.00  0.00     0.004 C 
BRANCH   2   3
ATOM      3  C   UNL     1     139.927 134.618 148.565  1.00  0.00    -0.009 C 
BRANCH   3   4
ATOM      4  C   UNL     1     138.520 134.971 149.126  1.00  0.00     0.000 C 
ATOM      5  C   UNL     1     137.453 135.130 148.042  1.00  0.00     0.004 C 
ENDBRANCH   3   4
BRANCH   3   6
ATOM      6  C   UNL     1     141.077 135.168 149.476  1.00  0.00    -0.014 C 
ATOM      7  C   UNL     1     142.072 134.113 149.994  1.00  0.00     0.007 C 
ATOM      8  C   UNL     1     141.832 136.339 148.831  1.00  0.00     0.007 C 
ENDBRANCH   3   6
ENDBRANCH   2   3
ENDBRANCH   1   2
BRANCH   1   9
ATOM      9  C   UNL     1     142.048 133.325 146.465  1.00  0.00    -0.011 C 
ATOM     10  C   UNL     1     142.982 132.170 146.885  1.00  0.00     0.008 C 
BRANCH   9  11
ATOM     11  C   UNL     1     142.268 133.855 144.997  1.00  0.00    -0.002 C 
ATOM     12  C   UNL     1     143.304 133.117 144.134  1.00  0.00     0.005 C 
ATOM     13  C   UNL     1     142.589 135.366 144.828  1.00  0.00    -0.026 C 
ATOM     14  C   UNL     1     143.770 134.128 143.081  1.00  0.00     0.005 C 
ATOM     15  C   UNL     1     142.990 135.431 143.338  1.00  0.00    -0.001 C 
ATOM     16  C   UNL     1     143.779 135.809 145.727  1.00  0.00     0.007 C 
ATOM     17  C   UNL     1     141.331 136.229 145.107  1.00  0.00     0.012 C 
ATOM     18  C   UNL     1     143.703 136.755 142.912  1.00  0.00     0.000 C 
ATOM     19  C   UNL     1     144.342 137.175 145.332  1.00  0.00     0.005 C 
ATOM     20  C   UNL     1     144.846 137.179 143.868  1.00  0.00     0.003 C 
ATOM     21  C   UNL     1     144.217 136.661 141.465  1.00  0.00     0.031 C 
ATOM     22  C   UNL     1     145.497 138.557 143.437  1.00  0.00    -0.008 C 
ATOM     23  C   UNL     1     145.038 137.846 141.052  1.00  0.00    -0.027 C 
ATOM     24  C   UNL     1     145.740 138.604 141.920  1.00  0.00    -0.065 C 
ATOM     25  C   UNL     1     146.872 138.709 144.164  1.00  0.00     0.014 C 
ATOM     26  C   UNL     1     144.584 139.757 143.809  1.00  0.00     0.016 C 
ATOM     27  C   UNL     1     146.658 139.676 141.358  1.00  0.00     0.063 C 
ATOM     28  C   UNL     1     147.729 139.868 143.632  1.00  0.00     0.033 C 
ATOM     29  C   UNL     1     147.983 139.718 142.130  1.00  0.00     0.118 C 
BRANCH  29  30
ATOM     30  O   UNL     1     148.758 140.802 141.686  1.00  0.00    -0.393 OA
ATOM     31  H   UNL     1     149.454 140.960 142.376  1.00  0.00     0.210 HD
ENDBRANCH  29  30
ENDBRANCH   9  11
ENDBRANCH   1   9
TORSDOF 7
ENDMDL
MODEL 3
REMARK VINA RESULT:    -5.470      6.797      9.691
REMARK INTER + INTRA:          -9.879
REMARK INTER:                  -7.990
REMARK INTRA:                  -1.888
REMARK UNBOUND:                -2.330
REMARK SMILES CC[C@H](CC[C@@H](C)[C@@H]1CC[C@@H]2[C@@H]3CC=C4C[C@@H](O)CC[C@]4(C)[C@H]3CC[C@@]21C)C(C)C
REMARK SMILES IDX 5 1 4 2 3 3 2 4 1 5 28 6 29 7 30 8 6 9 7 10 8 11 9 12 26 13
REMARK SMILES IDX 10 14 11 15 25 16 27 17 12 18 24 19 23 20 13 21 21 22 14 23
REMARK SMILES IDX 15 24 20 25 22 26 16 27 19 28 17 29 18 30
REMARK H PARENT 18 31
REMARK Flexibility Score: inf
ROOT
ATOM      1  C   UNL     1     140.867 140.333 143.202  1.00  0.00     0.004 C 
ENDROOT
BRANCH   1   2
ATOM      2  C   UNL     1     141.106 141.684 142.497  1.00  0.00     0.004 C 
BRANCH   2   3
ATOM      3  C   UNL     1     140.639 142.950 143.276  1.00  0.00    -0.009 C 
BRANCH   3   4
ATOM      4  C   UNL     1     141.810 143.817 143.819  1.00  0.00     0.000 C 
ATOM      5  C   UNL     1     141.372 144.857 144.851  1.00  0.00     0.004 C 
ENDBRANCH   3   4
BRANCH   3   6
ATOM      6  C   UNL     1     139.540 143.820 142.575  1.00  0.00    -0.014 C 
ATOM      7  C   UNL     1     139.637 143.898 141.040  1.00  0.00     0.007 C 
ATOM      8  C   UNL     1     138.118 143.426 142.999  1.00  0.00     0.007 C 
ENDBRANCH   3   6
ENDBRANCH   2   3
ENDBRANCH   1   2
BRANCH   1   9
ATOM      9  C   UNL     1     139.950 139.376 142.395  1.00  0.00    -0.011 C 
ATOM     10  C   UNL     1     139.687 138.085 143.201  1.00  0.00     0.008 C 
BRANCH   9  11
ATOM     11  C   UNL     1     138.654 140.137 141.922  1.00  0.00    -0.002 C 
ATOM     12  C   UNL     1     137.367 139.895 142.727  1.00  0.00     0.005 C 
ATOM     13  C   UNL     1     138.245 139.984 140.431  1.00  0.00    -0.026 C 
ATOM     14  C   UNL     1     136.209 140.199 141.770  1.00  0.00     0.005 C 
ATOM     15  C   UNL     1     136.839 140.624 140.430  1.00  0.00    -0.001 C 
ATOM     16  C   UNL     1     138.157 138.491 140.005  1.00  0.00     0.007 C 
ATOM     17  C   UNL     1     139.217 140.768 139.511  1.00  0.00     0.012 C 
ATOM     18  C   UNL     1     135.991 140.335 139.149  1.00  0.00     0.000 C 
ATOM     19  C   UNL     1     137.427 138.296 138.675  1.00  0.00     0.005 C 
ATOM     20  C   UNL     1     135.979 138.841 138.738  1.00  0.00     0.003 C 
ATOM     21  C   UNL     1     134.556 140.862 139.310  1.00  0.00     0.031 C 
ATOM     22  C   UNL     1     135.165 138.602 137.402  1.00  0.00    -0.008 C 
ATOM     23  C   UNL     1     133.657 140.483 138.172  1.00  0.00    -0.027 C 
ATOM     24  C   UNL     1     133.840 139.381 137.413  1.00  0.00    -0.065 C 
ATOM     25  C   UNL     1     134.842 137.079 137.279  1.00  0.00     0.014 C 
ATOM     26  C   UNL     1     135.973 139.058 136.155  1.00  0.00     0.016 C 
ATOM     27  C   UNL     1     132.770 139.023 136.396  1.00  0.00     0.063 C 
ATOM     28  C   UNL     1     133.829 136.747 136.171  1.00  0.00     0.033 C 
ATOM     29  C   UNL     1     132.519 137.510 136.380  1.00  0.00     0.118 C 
BRANCH  29  30
ATOM     30  O   UNL     1     131.631 137.186 135.341  1.00  0.00    -0.393 OA
ATOM     31  H   UNL     1     132.113 136.567 134.733  1.00  0.00     0.210 HD
ENDBRANCH  29  30
ENDBRANCH   9  11
ENDBRANCH   1   9
TORSDOF 7
ENDMDL
MODEL 4
REMARK VINA RESULT:    -5.454      4.522      7.638
REMARK INTER + INTRA:          -9.857
REMARK INTER:                  -8.266
REMARK INTRA:                  -1.590
REMARK UNBOUND:                -2.330
REMARK SMILES CC[C@H](CC[C@@H](C)[C@@H]1CC[C@@H]2[C@@H]3CC=C4C[C@@H](O)CC[C@]4(C)[C@H]3CC[C@@]21C)C(C)C
REMARK SMILES IDX 5 1 4 2 3 3 2 4 1 5 28 6 29 7 30 8 6 9 7 10 8 11 9 12 26 13
REMARK SMILES IDX 10 14 11 15 25 16 27 17 12 18 24 19 23 20 13 21 21 22 14 23
REMARK SMILES IDX 15 24 20 25 22 26 16 27 19 28 17 29 18 30
REMARK H PARENT 18 31
REMARK Flexibility Score: inf
ROOT
ATOM      1  C   UNL     1     146.250 140.577 142.397  1.00  0.00     0.004 C 
ENDROOT
BRANCH   1   2
ATOM      2  C   UNL     1     145.910 140.260 143.868  1.00  0.00     0.004 C 
BRANCH   2   3
ATOM      3  C   UNL     1     146.238 138.813 144.345  1.00  0.00    -0.009 C 
BRANCH   3   4
ATOM      4  C   UNL     1     147.757 138.549 144.543  1.00  0.00     0.000 C 
ATOM      5  C   UNL     1     148.515 139.745 145.120  1.00  0.00     0.004 C 
ENDBRANCH   3   4
BRANCH   3   6
ATOM      6  C   UNL     1     145.387 138.278 145.548  1.00  0.00    -0.014 C 
ATOM      7  C   UNL     1     143.985 137.756 145.186  1.00  0.00     0.007 C 
ATOM      8  C   UNL     1     146.143 137.237 146.387  1.00  0.00     0.007 C 
ENDBRANCH   3   6
ENDBRANCH   2   3
ENDBRANCH   1   2
BRANCH   1   9
ATOM      9  C   UNL     1     144.994 140.717 141.496  1.00  0.00    -0.011 C 
ATOM     10  C   UNL     1     145.269 140.110 140.103  1.00  0.00     0.008 C 
BRANCH   9  11
ATOM     11  C   UNL     1     143.730 140.135 142.235  1.00  0.00    -0.002 C 
ATOM     12  C   UNL     1     143.235 138.749 141.789  1.00  0.00     0.005 C 
ATOM     13  C   UNL     1     142.462 141.031 142.285  1.00  0.00    -0.026 C 
ATOM     14  C   UNL     1     141.749 138.695 142.159  1.00  0.00     0.005 C 
ATOM     15  C   UNL     1     141.405 140.042 142.824  1.00  0.00    -0.001 C 
ATOM     16  C   UNL     1     142.053 141.537 140.871  1.00  0.00     0.007 C 
ATOM     17  C   UNL     1     142.667 142.218 143.262  1.00  0.00     0.012 C 
ATOM     18  C   UNL     1     139.926 140.523 142.679  1.00  0.00     0.000 C 
ATOM     19  C   UNL     1     140.638 142.115 140.835  1.00  0.00     0.005 C 
ATOM     20  C   UNL     1     139.586 141.065 141.269  1.00  0.00     0.003 C 
ATOM     21  C   UNL     1     138.944 139.410 143.081  1.00  0.00     0.031 C 
ATOM     22  C   UNL     1     138.099 141.602 141.183  1.00  0.00    -0.008 C 
ATOM     23  C   UNL     1     137.511 139.765 142.822  1.00  0.00    -0.027 C 
ATOM     24  C   UNL     1     137.119 140.631 141.863  1.00  0.00    -0.065 C 
ATOM     25  C   UNL     1     137.700 141.733 139.679  1.00  0.00     0.014 C 
ATOM     26  C   UNL     1     137.954 142.985 141.877  1.00  0.00     0.016 C 
ATOM     27  C   UNL     1     135.632 140.783 141.595  1.00  0.00     0.063 C 
ATOM     28  C   UNL     1     136.201 141.986 139.455  1.00  0.00     0.033 C 
ATOM     29  C   UNL     1     135.357 140.878 140.089  1.00  0.00     0.118 C 
BRANCH  29  30
ATOM     30  O   UNL     1     133.998 141.156 139.871  1.00  0.00    -0.393 OA
ATOM     31  H   UNL     1     133.485 140.617 140.528  1.00  0.00     0.210 HD
ENDBRANCH  29  30
ENDBRANCH   9  11
ENDBRANCH   1   9
TORSDOF 7
ENDMDL
MODEL 5
REMARK VINA RESULT:    -5.426      3.601      8.686
REMARK INTER + INTRA:          -9.818
REMARK INTER:                  -8.232
REMARK INTRA:                  -1.587
REMARK UNBOUND:                -2.330
REMARK SMILES CC[C@H](CC[C@@H](C)[C@@H]1CC[C@@H]2[C@@H]3CC=C4C[C@@H](O)CC[C@]4(C)[C@H]3CC[C@@]21C)C(C)C
REMARK SMILES IDX 5 1 4 2 3 3 2 4 1 5 28 6 29 7 30 8 6 9 7 10 8 11 9 12 26 13
REMARK SMILES IDX 10 14 11 15 25 16 27 17 12 18 24 19 23 20 13 21 21 22 14 23
REMARK SMILES IDX 15 24 20 25 22 26 16 27 19 28 17 29 18 30
REMARK H PARENT 18 31
REMARK Flexibility Score: inf
ROOT
ATOM      1  C   UNL     1     141.383 134.258 148.249  1.00  0.00     0.004 C 
ENDROOT
BRANCH   1   2
ATOM      2  C   UNL     1     139.964 133.806 147.848  1.00  0.00     0.004 C 
BRANCH   2   3
ATOM      3  C   UNL     1     138.897 134.937 147.732  1.00  0.00    -0.009 C 
BRANCH   3   4
ATOM      4  C   UNL     1     138.359 135.143 146.288  1.00  0.00     0.000 C 
ATOM      5  C   UNL     1     138.647 133.966 145.355  1.00  0.00     0.004 C 
ENDBRANCH   3   4
BRANCH   3   6
ATOM      6  C   UNL     1     137.741 134.900 148.790  1.00  0.00    -0.014 C 
ATOM      7  C   UNL     1     136.630 133.870 148.519  1.00  0.00     0.007 C 
ATOM      8  C   UNL     1     138.262 134.756 150.227  1.00  0.00     0.007 C 
ENDBRANCH   3   6
ENDBRANCH   2   3
ENDBRANCH   1   2
BRANCH   1   9
ATOM      9  C   UNL     1     142.415 134.124 147.097  1.00  0.00    -0.011 C 
ATOM     10  C   UNL     1     142.377 132.695 146.513  1.00  0.00     0.008 C 
BRANCH   9  11
ATOM     11  C   UNL     1     142.205 135.276 146.043  1.00  0.00    -0.002 C 
ATOM     12  C   UNL     1     142.183 134.873 144.560  1.00  0.00     0.005 C 
ATOM     13  C   UNL     1     143.160 136.498 146.126  1.00  0.00    -0.026 C 
ATOM     14  C   UNL     1     142.588 136.127 143.777  1.00  0.00     0.005 C 
ATOM     15  C   UNL     1     142.826 137.241 144.814  1.00  0.00    -0.001 C 
ATOM     16  C   UNL     1     144.655 136.065 146.134  1.00  0.00     0.007 C 
ATOM     17  C   UNL     1     142.829 137.371 147.365  1.00  0.00     0.012 C 
ATOM     18  C   UNL     1     143.853 138.348 144.411  1.00  0.00     0.000 C 
ATOM     19  C   UNL     1     145.610 137.228 145.862  1.00  0.00     0.005 C 
ATOM     20  C   UNL     1     145.328 137.881 144.486  1.00  0.00     0.003 C 
ATOM     21  C   UNL     1     143.535 138.911 143.016  1.00  0.00     0.031 C 
ATOM     22  C   UNL     1     146.337 139.050 144.134  1.00  0.00    -0.008 C 
ATOM     23  C   UNL     1     144.573 139.870 142.516  1.00  0.00    -0.027 C 
ATOM     24  C   UNL     1     145.867 139.834 142.898  1.00  0.00    -0.065 C 
ATOM     25  C   UNL     1     147.735 138.426 143.821  1.00  0.00     0.014 C 
ATOM     26  C   UNL     1     146.474 140.055 145.310  1.00  0.00     0.016 C 
ATOM     27  C   UNL     1     146.849 140.757 142.198  1.00  0.00     0.063 C 
ATOM     28  C   UNL     1     148.733 139.419 143.205  1.00  0.00     0.033 C 
ATOM     29  C   UNL     1     148.173 140.034 141.921  1.00  0.00     0.118 C 
BRANCH  29  30
ATOM     30  O   UNL     1     149.111 140.941 141.401  1.00  0.00    -0.393 OA
ATOM     31  H   UNL     1     149.511 141.416 142.176  1.00  0.00     0.210 HD
ENDBRANCH  29  30
ENDBRANCH   9  11
ENDBRANCH   1   9
TORSDOF 7
ENDMDL
MODEL 6
REMARK VINA RESULT:    -5.397      8.187     11.259
REMARK INTER + INTRA:          -9.778
REMARK INTER:                  -8.511
REMARK INTRA:                  -1.266
REMARK UNBOUND:                -2.330
REMARK SMILES CC[C@H](CC[C@@H](C)[C@@H]1CC[C@@H]2[C@@H]3CC=C4C[C@@H](O)CC[C@]4(C)[C@H]3CC[C@@]21C)C(C)C
REMARK SMILES IDX 5 1 4 2 3 3 2 4 1 5 28 6 29 7 30 8 6 9 7 10 8 11 9 12 26 13
REMARK SMILES IDX 10 14 11 15 25 16 27 17 12 18 24 19 23 20 13 21 21 22 14 23
REMARK SMILES IDX 15 24 20 25 22 26 16 27 19 28 17 29 18 30
REMARK H PARENT 18 31
REMARK Flexibility Score: inf
ROOT
ATOM      1  C   UNL     1     133.398 138.549 136.703  1.00  0.00     0.004 C 
ENDROOT
BRANCH   1   2
ATOM      2  C   UNL     1     132.321 139.561 137.144  1.00  0.00     0.004 C 
BRANCH   2   3
ATOM      3  C   UNL     1     131.022 138.951 137.752  1.00  0.00    -0.009 C 
BRANCH   3   4
ATOM      4  C   UNL     1     130.261 139.920 138.700  1.00  0.00     0.000 C 
ATOM      5  C   UNL     1     130.900 141.306 138.798  1.00  0.00     0.004 C 
ENDBRANCH   3   4
BRANCH   3   6
ATOM      6  C   UNL     1     130.058 138.242 136.740  1.00  0.00    -0.014 C 
ATOM      7  C   UNL     1     129.370 136.969 137.263  1.00  0.00     0.007 C 
ATOM      8  C   UNL     1     129.019 139.203 136.144  1.00  0.00     0.007 C 
ENDBRANCH   3   6
ENDBRANCH   2   3
ENDBRANCH   1   2
BRANCH   1   9
ATOM      9  C   UNL     1     134.706 138.648 137.532  1.00  0.00    -0.011 C 
ATOM     10  C   UNL     1     135.749 137.638 137.003  1.00  0.00     0.008 C 
BRANCH   9  11
ATOM     11  C   UNL     1     135.202 140.143 137.587  1.00  0.00    -0.002 C 
ATOM     12  C   UNL     1     136.345 140.538 136.638  1.00  0.00     0.005 C 
ATOM     13  C   UNL     1     135.605 140.707 138.977  1.00  0.00    -0.026 C 
ATOM     14  C   UNL     1     137.027 141.749 137.282  1.00  0.00     0.005 C 
ATOM     15  C   UNL     1     136.265 142.047 138.587  1.00  0.00    -0.001 C 
ATOM     16  C   UNL     1     136.634 139.789 139.698  1.00  0.00     0.007 C 
ATOM     17  C   UNL     1     134.351 140.936 139.861  1.00  0.00     0.012 C 
ATOM     18  C   UNL     1     137.092 142.724 139.727  1.00  0.00     0.000 C 
ATOM     19  C   UNL     1     137.309 140.476 140.886  1.00  0.00     0.005 C 
ATOM     20  C   UNL     1     138.063 141.756 140.447  1.00  0.00     0.003 C 
ATOM     21  C   UNL     1     137.848 143.955 139.202  1.00  0.00     0.031 C 
ATOM     22  C   UNL     1     138.832 142.463 141.636  1.00  0.00    -0.008 C 
ATOM     23  C   UNL     1     138.773 144.557 140.216  1.00  0.00    -0.027 C 
ATOM     24  C   UNL     1     139.341 143.853 141.218  1.00  0.00    -0.065 C 
ATOM     25  C   UNL     1     140.062 141.585 142.030  1.00  0.00     0.014 C 
ATOM     26  C   UNL     1     137.914 142.648 142.876  1.00  0.00     0.016 C 
ATOM     27  C   UNL     1     140.384 144.542 142.081  1.00  0.00     0.063 C 
ATOM     28  C   UNL     1     141.043 142.284 142.984  1.00  0.00     0.033 C 
ATOM     29  C   UNL     1     141.552 143.596 142.383  1.00  0.00     0.118 C 
BRANCH  29  30
ATOM     30  O   UNL     1     142.433 144.204 143.292  1.00  0.00    -0.393 OA
ATOM     31  H   UNL     1     142.856 143.474 143.815  1.00  0.00     0.210 HD
ENDBRANCH  29  30
ENDBRANCH   9  11
ENDBRANCH   1   9
TORSDOF 7
ENDMDL
MODEL 7
REMARK VINA RESULT:    -5.393      4.263      7.275
REMARK INTER + INTRA:          -9.773
REMARK INTER:                  -8.104
REMARK INTRA:                  -1.668
REMARK UNBOUND:                -2.330
REMARK SMILES CC[C@H](CC[C@@H](C)[C@@H]1CC[C@@H]2[C@@H]3CC=C4C[C@@H](O)CC[C@]4(C)[C@H]3CC[C@@]21C)C(C)C
REMARK SMILES IDX 5 1 4 2 3 3 2 4 1 5 28 6 29 7 30 8 6 9 7 10 8 11 9 12 26 13
REMARK SMILES IDX 10 14 11 15 25 16 27 17 12 18 24 19 23 20 13 21 21 22 14 23
REMARK SMILES IDX 15 24 20 25 22 26 16 27 19 28 17 29 18 30
REMARK H PARENT 18 31
REMARK Flexibility Score: inf
ROOT
ATOM      1  C   UNL     1     145.859 138.198 142.751  1.00  0.00     0.004 C 
ENDROOT
BRANCH   1   2
ATOM      2  C   UNL     1     145.951 139.278 143.849  1.00  0.00     0.004 C 
BRANCH   2   3
ATOM      3  C   UNL     1     145.787 138.774 145.314  1.00  0.00    -0.009 C 
BRANCH   3   4
ATOM      4  C   UNL     1     145.237 137.324 145.419  1.00  0.00     0.000 C 
ATOM      5  C   UNL     1     143.875 137.237 146.110  1.00  0.00     0.004 C 
ENDBRANCH   3   4
BRANCH   3   6
ATOM      6  C   UNL     1     147.015 139.006 146.260  1.00  0.00    -0.014 C 
ATOM      7  C   UNL     1     147.525 137.756 147.001  1.00  0.00     0.007 C 
ATOM      8  C   UNL     1     148.178 139.717 145.553  1.00  0.00     0.007 C 
ENDBRANCH   3   6
ENDBRANCH   2   3
ENDBRANCH   1   2
BRANCH   1   9
ATOM      9  C   UNL     1     144.646 138.392 141.803  1.00  0.00    -0.011 C 
ATOM     10  C   UNL     1     144.740 137.416 140.610  1.00  0.00     0.008 C 
BRANCH   9  11
ATOM     11  C   UNL     1     143.300 138.311 142.619  1.00  0.00    -0.002 C 
ATOM     12  C   UNL     1     142.466 137.029 142.469  1.00  0.00     0.005 C 
ATOM     13  C   UNL     1     142.294 139.482 142.448  1.00  0.00    -0.026 C 
ATOM     14  C   UNL     1     141.025 137.423 142.808  1.00  0.00     0.005 C 
ATOM     15  C   UNL     1     141.044 138.922 143.162  1.00  0.00    -0.001 C 
ATOM     16  C   UNL     1     141.979 139.760 140.950  1.00  0.00     0.007 C 
ATOM     17  C   UNL     1     142.815 140.762 143.153  1.00  0.00     0.012 C 
ATOM     18  C   UNL     1     139.724 139.711 142.884  1.00  0.00     0.000 C 
ATOM     19  C   UNL     1     140.749 140.649 140.759  1.00  0.00     0.005 C 
ATOM     20  C   UNL     1     139.484 140.008 141.382  1.00  0.00     0.003 C 
ATOM     21  C   UNL     1     138.512 138.987 143.491  1.00  0.00     0.031 C 
ATOM     22  C   UNL     1     138.173 140.865 141.150  1.00  0.00    -0.008 C 
ATOM     23  C   UNL     1     137.203 139.621 143.130  1.00  0.00    -0.027 C 
ATOM     24  C   UNL     1     137.007 140.333 142.000  1.00  0.00    -0.065 C 
ATOM     25  C   UNL     1     137.772 140.767 139.644  1.00  0.00     0.014 C 
ATOM     26  C   UNL     1     138.395 142.355 141.528  1.00  0.00     0.016 C 
ATOM     27  C   UNL     1     135.595 140.787 141.671  1.00  0.00     0.063 C 
ATOM     28  C   UNL     1     136.375 141.329 139.337  1.00  0.00     0.033 C 
ATOM     29  C   UNL     1     135.305 140.624 140.174  1.00  0.00     0.118 C 
BRANCH  29  30
ATOM     30  O   UNL     1     134.050 141.176 139.870  1.00  0.00    -0.393 OA
ATOM     31  H   UNL     1     133.712 141.598 140.703  1.00  0.00     0.210 HD
ENDBRANCH  29  30
ENDBRANCH   9  11
ENDBRANCH   1   9
TORSDOF 7
ENDMDL
MODEL 8
REMARK VINA RESULT:    -5.382      3.210      8.513
REMARK INTER + INTRA:          -9.757
REMARK INTER:                  -8.037
REMARK INTRA:                  -1.720
REMARK UNBOUND:                -2.330
REMARK SMILES CC[C@H](CC[C@@H](C)[C@@H]1CC[C@@H]2[C@@H]3CC=C4C[C@@H](O)CC[C@]4(C)[C@H]3CC[C@@]21C)C(C)C
REMARK SMILES IDX 5 1 4 2 3 3 2 4 1 5 28 6 29 7 30 8 6 9 7 10 8 11 9 12 26 13
REMARK SMILES IDX 10 14 11 15 25 16 27 17 12 18 24 19 23 20 13 21 21 22 14 23
REMARK SMILES IDX 15 24 20 25 22 26 16 27 19 28 17 29 18 30
REMARK H PARENT 18 31
REMARK Flexibility Score: inf
ROOT
ATOM      1  C   UNL     1     138.921 132.776 148.133  1.00  0.00     0.004 C 
ENDROOT
BRANCH   1   2
ATOM      2  C   UNL     1     138.330 132.074 146.894  1.00  0.00     0.004 C 
BRANCH   2   3
ATOM      3  C   UNL     1     137.068 132.743 146.270  1.00  0.00    -0.009 C 
BRANCH   3   4
ATOM      4  C   UNL     1     137.167 132.954 144.733  1.00  0.00     0.000 C 
ATOM      5  C   UNL     1     137.934 134.217 144.338  1.00  0.00     0.004 C 
ENDBRANCH   3   4
BRANCH   3   6
ATOM      6  C   UNL     1     135.688 132.130 146.691  1.00  0.00    -0.014 C 
ATOM      7  C   UNL     1     135.583 130.598 146.579  1.00  0.00     0.007 C 
ATOM      8  C   UNL     1     135.237 132.595 148.083  1.00  0.00     0.007 C 
ENDBRANCH   3   6
ENDBRANCH   2   3
ENDBRANCH   1   2
BRANCH   1   9
ATOM      9  C   UNL     1     139.154 134.296 147.922  1.00  0.00    -0.011 C 
ATOM     10  C   UNL     1     138.261 135.110 148.884  1.00  0.00     0.008 C 
BRANCH   9  11
ATOM     11  C   UNL     1     140.693 134.626 148.007  1.00  0.00    -0.002 C 
ATOM     12  C   UNL     1     141.114 135.757 148.959  1.00  0.00     0.005 C 
ATOM     13  C   UNL     1     141.433 134.911 146.672  1.00  0.00    -0.026 C 
ATOM     14  C   UNL     1     142.451 136.281 148.424  1.00  0.00     0.005 C 
ATOM     15  C   UNL     1     142.793 135.439 147.179  1.00  0.00    -0.001 C 
ATOM     16  C   UNL     1     140.711 136.003 145.831  1.00  0.00     0.007 C 
ATOM     17  C   UNL     1     141.610 133.606 145.852  1.00  0.00     0.012 C 
ATOM     18  C   UNL     1     143.667 136.143 146.092  1.00  0.00     0.000 C 
ATOM     19  C   UNL     1     141.583 136.554 144.701  1.00  0.00     0.005 C 
ATOM     20  C   UNL     1     142.888 137.184 145.249  1.00  0.00     0.003 C 
ATOM     21  C   UNL     1     144.915 136.784 146.720  1.00  0.00     0.031 C 
ATOM     22  C   UNL     1     143.791 137.824 144.117  1.00  0.00    -0.008 C 
ATOM     23  C   UNL     1     145.714 137.599 145.747  1.00  0.00    -0.027 C 
ATOM     24  C   UNL     1     145.179 138.198 144.662  1.00  0.00    -0.065 C 
ATOM     25  C   UNL     1     143.097 139.125 143.600  1.00  0.00     0.014 C 
ATOM     26  C   UNL     1     143.996 136.843 142.930  1.00  0.00     0.016 C 
ATOM     27  C   UNL     1     146.062 139.126 143.846  1.00  0.00     0.063 C 
ATOM     28  C   UNL     1     143.992 139.987 142.695  1.00  0.00     0.033 C 
ATOM     29  C   UNL     1     145.285 140.376 143.414  1.00  0.00     0.118 C 
BRANCH  29  30
ATOM     30  O   UNL     1     146.075 141.151 142.548  1.00  0.00    -0.393 OA
ATOM     31  H   UNL     1     146.152 140.643 141.698  1.00  0.00     0.210 HD
ENDBRANCH  29  30
ENDBRANCH   9  11
ENDBRANCH   1   9
TORSDOF 7
ENDMDL
MODEL 9
REMARK VINA RESULT:    -5.344      4.438      7.307
REMARK INTER + INTRA:          -9.705
REMARK INTER:                  -7.771
REMARK INTRA:                  -1.935
REMARK UNBOUND:                -2.330
REMARK SMILES CC[C@H](CC[C@@H](C)[C@@H]1CC[C@@H]2[C@@H]3CC=C4C[C@@H](O)CC[C@]4(C)[C@H]3CC[C@@]21C)C(C)C
REMARK SMILES IDX 5 1 4 2 3 3 2 4 1 5 28 6 29 7 30 8 6 9 7 10 8 11 9 12 26 13
REMARK SMILES IDX 10 14 11 15 25 16 27 17 12 18 24 19 23 20 13 21 21 22 14 23
REMARK SMILES IDX 15 24 20 25 22 26 16 27 19 28 17 29 18 30
REMARK H PARENT 18 31
REMARK Flexibility Score: inf
ROOT
ATOM      1  C   UNL     1     139.755 143.595 139.639  1.00  0.00     0.004 C 
ENDROOT
BRANCH   1   2
ATOM      2  C   UNL     1     138.430 143.904 140.367  1.00  0.00     0.004 C 
BRANCH   2   3
ATOM      3  C   UNL     1     137.420 142.722 140.474  1.00  0.00    -0.009 C 
BRANCH   3   4
ATOM      4  C   UNL     1     137.881 141.437 139.729  1.00  0.00     0.000 C 
ATOM      5  C   UNL     1     137.173 141.220 138.392  1.00  0.00     0.004 C 
ENDBRANCH   3   4
BRANCH   3   6
ATOM      6  C   UNL     1     136.883 142.407 141.912  1.00  0.00    -0.014 C 
ATOM      7  C   UNL     1     137.278 141.031 142.479  1.00  0.00     0.007 C 
ATOM      8  C   UNL     1     137.217 143.514 142.922  1.00  0.00     0.007 C 
ENDBRANCH   3   6
ENDBRANCH   2   3
ENDBRANCH   1   2
BRANCH   1   9
ATOM      9  C   UNL     1     140.975 143.525 140.595  1.00  0.00    -0.011 C 
ATOM     10  C   UNL     1     141.084 144.830 141.415  1.00  0.00     0.008 C 
BRANCH   9  11
ATOM     11  C   UNL     1     140.917 142.206 141.455  1.00  0.00    -0.002 C 
ATOM     12  C   UNL     1     140.566 142.355 142.944  1.00  0.00     0.005 C 
ATOM     13  C   UNL     1     142.160 141.275 141.414  1.00  0.00    -0.026 C 
ATOM     14  C   UNL     1     141.162 141.128 143.642  1.00  0.00     0.005 C 
ATOM     15  C   UNL     1     141.837 140.278 142.548  1.00  0.00    -0.001 C 
ATOM     16  C   UNL     1     143.472 142.048 141.733  1.00  0.00     0.007 C 
ATOM     17  C   UNL     1     142.260 140.553 140.045  1.00  0.00     0.012 C 
ATOM     18  C   UNL     1     143.044 139.399 143.008  1.00  0.00     0.000 C 
ATOM     19  C   UNL     1     144.645 141.118 142.046  1.00  0.00     0.005 C 
ATOM     20  C   UNL     1     144.340 140.210 143.262  1.00  0.00     0.003 C 
ATOM     21  C   UNL     1     142.677 138.566 144.247  1.00  0.00     0.031 C 
ATOM     22  C   UNL     1     145.554 139.275 143.662  1.00  0.00    -0.008 C 
ATOM     23  C   UNL     1     143.842 137.815 144.820  1.00  0.00    -0.027 C 
ATOM     24  C   UNL     1     145.124 138.218 144.692  1.00  0.00    -0.065 C 
ATOM     25  C   UNL     1     146.676 140.157 144.297  1.00  0.00     0.014 C 
ATOM     26  C   UNL     1     146.126 138.528 142.426  1.00  0.00     0.016 C 
ATOM     27  C   UNL     1     146.196 137.458 145.453  1.00  0.00     0.063 C 
ATOM     28  C   UNL     1     147.794 139.347 144.972  1.00  0.00     0.033 C 
ATOM     29  C   UNL     1     147.226 138.424 146.053  1.00  0.00     0.118 C 
BRANCH  29  30
ATOM     30  O   UNL     1     148.279 137.696 146.632  1.00  0.00    -0.393 OA
ATOM     31  H   UNL     1     148.500 136.961 146.003  1.00  0.00     0.210 HD
ENDBRANCH  29  30
ENDBRANCH   9  11
ENDBRANCH   1   9
TORSDOF 7
ENDMDL
