MODEL 1
REMARK VINA RESULT:    -2.257      0.000      0.000
REMARK INTER + INTRA:          -2.864
REMARK INTER:                  -2.851
REMARK INTRA:                  -0.013
REMARK UNBOUND:                -0.013
REMARK SMILES CSCC[C@@H]([NH3+])C(=O)[O-]
REMARK SMILES IDX 4 1 5 2 6 3 7 7 8 8 9 9 3 10 2 11 1 12
REMARK H PARENT 6 4 6 5 6 6
REMARK Flexibility Score: inf
ROOT
ATOM      1  C   UNL     1       9.557  39.531  34.254  1.00  0.00     0.082 C 
ENDROOT
BRANCH   1   2
ATOM      2  C   UNL     1       8.689  40.790  34.003  1.00  0.00     0.228 C 
BRANCH   2   3
ATOM      3  N   UNL     1       8.001  40.738  32.706  1.00  0.00    -0.350 N 
ATOM      4  H   UNL     1       8.112  41.656  32.216  1.00  0.00     0.345 HD
ATOM      5  H   UNL     1       8.430  39.998  32.104  1.00  0.00     0.345 HD
ATOM      6  H   UNL     1       6.982  40.541  32.815  1.00  0.00     0.345 HD
ENDBRANCH   2   3
BRANCH   2   7
ATOM      7  C   UNL     1       7.720  41.048  35.128  1.00  0.00     0.099 C 
ATOM      8  O   UNL     1       8.050  41.804  36.080  1.00  0.00    -0.544 OA
ATOM      9  O   UNL     1       6.477  40.424  35.152  1.00  0.00    -0.544 OA
ENDBRANCH   2   7
ENDBRANCH   1   2
BRANCH   1  10
ATOM     10  C   UNL     1      10.465  39.585  35.499  1.00  0.00     0.076 C 
BRANCH  10  11
ATOM     11  S   UNL     1      10.980  37.914  36.048  1.00  0.00    -0.165 SA
ATOM     12  C   UNL     1      11.736  38.449  37.618  1.00  0.00     0.085 C 
ENDBRANCH  10  11
ENDBRANCH   1  10
TORSDOF 5
ENDMDL
MODEL 2
REMARK VINA RESULT:    -1.866      1.889      2.183
REMARK INTER + INTRA:          -2.369
REMARK INTER:                  -2.307
REMARK INTRA:                  -0.063
REMARK UNBOUND:                -0.013
REMARK SMILES CSCC[C@@H]([NH3+])C(=O)[O-]
REMARK SMILES IDX 4 1 5 2 6 3 7 7 8 8 9 9 3 10 2 11 1 12
REMARK H PARENT 6 4 6 5 6 6
REMARK Flexibility Score: inf
ROOT
ATOM      1  C   UNL     1       9.852  40.464  35.041  1.00  0.00     0.082 C 
ENDROOT
BRANCH   1   2
ATOM      2  C   UNL     1       8.312  40.621  34.955  1.00  0.00     0.228 C 
BRANCH   2   3
ATOM      3  N   UNL     1       7.830  41.771  35.732  1.00  0.00    -0.350 N 
ATOM      4  H   UNL     1       7.734  42.601  35.101  1.00  0.00     0.345 HD
ATOM      5  H   UNL     1       6.888  41.561  36.133  1.00  0.00     0.345 HD
ATOM      6  H   UNL     1       8.484  42.017  36.506  1.00  0.00     0.345 HD
ENDBRANCH   2   3
BRANCH   2   7
ATOM      7  C   UNL     1       7.823  40.676  33.531  1.00  0.00     0.099 C 
ATOM      8  O   UNL     1       6.621  40.408  33.270  1.00  0.00    -0.544 OA
ATOM      9  O   UNL     1       8.696  40.975  32.491  1.00  0.00    -0.544 OA
ENDBRANCH   2   7
ENDBRANCH   1   2
BRANCH   1  10
ATOM     10  C   UNL     1      10.357  39.069  35.459  1.00  0.00     0.076 C 
BRANCH  10  11
ATOM     11  S   UNL     1      12.066  39.125  36.120  1.00  0.00    -0.165 SA
ATOM     12  C   UNL     1      11.754  38.050  37.559  1.00  0.00     0.085 C 
ENDBRANCH  10  11
ENDBRANCH   1  10
TORSDOF 5
ENDMDL
MODEL 3
REMARK VINA RESULT:    -1.612      3.515      4.482
REMARK INTER + INTRA:          -2.049
REMARK INTER:                  -1.914
REMARK INTRA:                  -0.135
REMARK UNBOUND:                -0.013
REMARK SMILES CSCC[C@@H]([NH3+])C(=O)[O-]
REMARK SMILES IDX 4 1 5 2 6 3 7 7 8 8 9 9 3 10 2 11 1 12
REMARK H PARENT 6 4 6 5 6 6
REMARK Flexibility Score: inf
ROOT
ATOM      1  C   UNL     1      10.230  40.582  35.216  1.00  0.00     0.082 C 
ENDROOT
BRANCH   1   2
ATOM      2  C   UNL     1      10.450  39.132  35.719  1.00  0.00     0.228 C 
BRANCH   2   3
ATOM      3  N   UNL     1      10.385  38.152  34.626  1.00  0.00    -0.350 N 
ATOM      4  H   UNL     1      10.987  38.474  33.833  1.00  0.00     0.345 HD
ATOM      5  H   UNL     1      10.748  37.228  34.952  1.00  0.00     0.345 HD
ATOM      6  H   UNL     1       9.410  38.031  34.273  1.00  0.00     0.345 HD
ENDBRANCH   2   3
BRANCH   2   7
ATOM      7  C   UNL     1      11.727  38.990  36.507  1.00  0.00     0.099 C 
ATOM      8  O   UNL     1      12.787  39.525  36.087  1.00  0.00    -0.544 OA
ATOM      9  O   UNL     1      11.760  38.235  37.674  1.00  0.00    -0.544 OA
ENDBRANCH   2   7
ENDBRANCH   1   2
BRANCH   1  10
ATOM     10  C   UNL     1       8.882  41.223  35.601  1.00  0.00     0.076 C 
BRANCH  10  11
ATOM     11  S   UNL     1       7.502  40.592  34.573  1.00  0.00    -0.165 SA
ATOM     12  C   UNL     1       8.377  40.707  32.978  1.00  0.00     0.085 C 
ENDBRANCH  10  11
ENDBRANCH   1  10
TORSDOF 5
ENDMDL
MODEL 4
REMARK VINA RESULT:    -0.848      3.639      4.813
REMARK INTER + INTRA:          -1.084
REMARK INTER:                  -1.016
REMARK INTRA:                  -0.067
REMARK UNBOUND:                -0.013
REMARK SMILES CSCC[C@@H]([NH3+])C(=O)[O-]
REMARK SMILES IDX 4 1 5 2 6 3 7 7 8 8 9 9 3 10 2 11 1 12
REMARK H PARENT 6 4 6 5 6 6
REMARK Flexibility Score: inf
ROOT
ATOM      1  C   UNL     1      10.311  39.039  35.198  1.00  0.00     0.082 C 
ENDROOT
BRANCH   1   2
ATOM      2  C   UNL     1      11.741  38.747  35.719  1.00  0.00     0.228 C 
BRANCH   2   3
ATOM      3  N   UNL     1      12.594  39.943  35.691  1.00  0.00    -0.350 N 
ATOM      4  H   UNL     1      12.392  40.535  36.530  1.00  0.00     0.345 HD
ATOM      5  H   UNL     1      13.602  39.664  35.729  1.00  0.00     0.345 HD
ATOM      6  H   UNL     1      12.431  40.515  34.834  1.00  0.00     0.345 HD
ENDBRANCH   2   3
BRANCH   2   7
ATOM      7  C   UNL     1      11.731  38.112  37.086  1.00  0.00     0.099 C 
ATOM      8  O   UNL     1      12.104  36.917  37.225  1.00  0.00    -0.544 OA
ATOM      9  O   UNL     1      11.269  38.816  38.193  1.00  0.00    -0.544 OA
ENDBRANCH   2   7
ENDBRANCH   1   2
BRANCH   1  10
ATOM     10  C   UNL     1       9.786  40.466  35.456  1.00  0.00     0.076 C 
BRANCH  10  11
ATOM     11  S   UNL     1       8.099  40.710  34.783  1.00  0.00    -0.165 SA
ATOM     12  C   UNL     1       8.574  40.617  33.026  1.00  0.00     0.085 C 
ENDBRANCH  10  11
ENDBRANCH   1  10
TORSDOF 5
ENDMDL
