MODEL 1
REMARK VINA RESULT:    -6.318      0.000      0.000
REMARK INTER + INTRA:          -8.121
REMARK INTER:                  -7.795
REMARK INTRA:                  -0.326
REMARK UNBOUND:                -0.326
REMARK SMILES O=c1c(O)c(-c2cc(O)c(O)c(O)c2)oc2cc(O)cc(O)c12
REMARK SMILES IDX 5 1 3 2 2 3 1 4 23 5 21 6 20 7 18 8 17 9 16 10 15 11 6 12
REMARK SMILES IDX 7 13 8 14 14 15 10 16 12 17 9 18 11 20 13 22 4 24 22 26
REMARK SMILES IDX 19 28
REMARK H PARENT 9 19 11 21 13 23 4 25 22 27 19 29
REMARK Flexibility Score: inf
ROOT
ATOM      1  C   UNL     1      44.172   7.795  15.697  1.00  0.00     0.180 A 
ATOM      2  C   UNL     1      42.834   8.028  15.336  1.00  0.00     0.208 A 
ATOM      3  C   UNL     1      41.857   8.086  16.344  1.00  0.00     0.238 A 
ATOM      4  O   UNL     1      40.654   8.240  16.010  1.00  0.00    -0.285 OA
ATOM      5  C   UNL     1      42.234   7.928  17.699  1.00  0.00     0.111 A 
ATOM      6  C   UNL     1      41.334   8.008  18.805  1.00  0.00     0.134 A 
ATOM      7  C   UNL     1      41.793   7.706  20.093  1.00  0.00     0.093 A 
ATOM      8  C   UNL     1      43.134   7.390  20.323  1.00  0.00     0.123 A 
ATOM      9  C   UNL     1      44.032   7.367  19.259  1.00  0.00     0.094 A 
ATOM     10  C   UNL     1      43.597   7.628  17.958  1.00  0.00     0.146 A 
ATOM     11  O   UNL     1      44.484   7.585  16.970  1.00  0.00    -0.452 OA
ENDROOT
BRANCH   1  12
ATOM     12  C   UNL     1      45.260   7.745  14.694  1.00  0.00     0.029 A 
ATOM     13  C   UNL     1      45.472   6.565  13.962  1.00  0.00     0.062 A 
ATOM     14  C   UNL     1      46.508   6.487  13.023  1.00  0.00     0.162 A 
ATOM     15  C   UNL     1      46.126   8.835  14.499  1.00  0.00     0.062 A 
ATOM     16  C   UNL     1      47.354   7.584  12.817  1.00  0.00     0.200 A 
ATOM     17  C   UNL     1      47.166   8.761  13.561  1.00  0.00     0.162 A 
BRANCH  14  18
ATOM     18  O   UNL     1      46.703   5.319  12.288  1.00  0.00    -0.504 OA
ATOM     19  H   UNL     1      46.671   4.405  12.725  1.00  0.00     0.293 HD
ENDBRANCH  14  18
BRANCH  16  20
ATOM     20  O   UNL     1      48.379   7.488  11.875  1.00  0.00    -0.502 OA
ATOM     21  H   UNL     1      48.516   8.187  11.155  1.00  0.00     0.293 HD
ENDBRANCH  16  20
BRANCH  17  22
ATOM     22  O   UNL     1      48.014   9.850  13.370  1.00  0.00    -0.504 OA
ATOM     23  H   UNL     1      48.181  10.238  12.448  1.00  0.00     0.293 HD
ENDBRANCH  17  22
ENDBRANCH   1  12
BRANCH   2  24
ATOM     24  O   UNL     1      42.481   8.159  13.991  1.00  0.00    -0.502 OA
ATOM     25  H   UNL     1      42.681   8.995  13.454  1.00  0.00     0.293 HD
ENDBRANCH   2  24
BRANCH   6  26
ATOM     26  O   UNL     1      39.998   8.405  18.696  1.00  0.00    -0.507 OA
ATOM     27  H   UNL     1      39.676   9.360  18.745  1.00  0.00     0.293 HD
ENDBRANCH   6  26
BRANCH   8  28
ATOM     28  O   UNL     1      43.587   7.105  21.610  1.00  0.00    -0.508 OA
ATOM     29  H   UNL     1      44.511   7.383  21.919  1.00  0.00     0.293 HD
ENDBRANCH   8  28
TORSDOF 7
ENDMDL
MODEL 2
REMARK VINA RESULT:    -6.257     15.781     18.137
REMARK INTER + INTRA:          -8.046
REMARK INTER:                  -7.797
REMARK INTRA:                  -0.249
REMARK UNBOUND:                -0.326
REMARK SMILES O=c1c(O)c(-c2cc(O)c(O)c(O)c2)oc2cc(O)cc(O)c12
REMARK SMILES IDX 5 1 3 2 2 3 1 4 23 5 21 6 20 7 18 8 17 9 16 10 15 11 6 12
REMARK SMILES IDX 7 13 8 14 14 15 10 16 12 17 9 18 11 20 13 22 4 24 22 26
REMARK SMILES IDX 19 28
REMARK H PARENT 9 19 11 21 13 23 4 25 22 27 19 29
REMARK Flexibility Score: inf
ROOT
ATOM      1  C   UNL     1      57.044  -2.654  18.879  1.00  0.00     0.180 A 
ATOM      2  C   UNL     1      58.286  -1.998  18.939  1.00  0.00     0.208 A 
ATOM      3  C   UNL     1      58.972  -1.728  17.744  1.00  0.00     0.238 A 
ATOM      4  O   UNL     1      60.107  -1.190  17.807  1.00  0.00    -0.285 OA
ATOM      5  C   UNL     1      58.400  -2.101  16.504  1.00  0.00     0.111 A 
ATOM      6  C   UNL     1      58.988  -1.842  15.229  1.00  0.00     0.134 A 
ATOM      7  C   UNL     1      58.397  -2.372  14.075  1.00  0.00     0.093 A 
ATOM      8  C   UNL     1      57.205  -3.097  14.144  1.00  0.00     0.123 A 
ATOM      9  C   UNL     1      56.593  -3.305  15.378  1.00  0.00     0.094 A 
ATOM     10  C   UNL     1      57.176  -2.821  16.550  1.00  0.00     0.146 A 
ATOM     11  O   UNL     1      56.565  -3.050  17.706  1.00  0.00    -0.452 OA
ENDROOT
BRANCH   1  12
ATOM     12  C   UNL     1      56.251  -2.950  20.094  1.00  0.00     0.029 A 
ATOM     13  C   UNL     1      56.011  -4.286  20.454  1.00  0.00     0.062 A 
ATOM     14  C   UNL     1      55.246  -4.592  21.587  1.00  0.00     0.162 A 
ATOM     15  C   UNL     1      55.683  -1.922  20.866  1.00  0.00     0.062 A 
ATOM     16  C   UNL     1      54.700  -3.563  22.364  1.00  0.00     0.200 A 
ATOM     17  C   UNL     1      54.915  -2.223  22.000  1.00  0.00     0.162 A 
BRANCH  14  18
ATOM     18  O   UNL     1      55.024  -5.920  21.947  1.00  0.00    -0.504 OA
ATOM     19  H   UNL     1      54.352  -6.171  22.663  1.00  0.00     0.293 HD
ENDBRANCH  14  18
BRANCH  16  20
ATOM     20  O   UNL     1      53.943  -3.887  23.491  1.00  0.00    -0.502 OA
ATOM     21  H   UNL     1      53.939  -3.308  24.321  1.00  0.00     0.293 HD
ENDBRANCH  16  20
BRANCH  17  22
ATOM     22  O   UNL     1      54.362  -1.196  22.762  1.00  0.00    -0.504 OA
ATOM     23  H   UNL     1      53.434  -1.272  23.163  1.00  0.00     0.293 HD
ENDBRANCH  17  22
ENDBRANCH   1  12
BRANCH   2  24
ATOM     24  O   UNL     1      58.842  -1.658  20.174  1.00  0.00    -0.502 OA
ATOM     25  H   UNL     1      59.672  -1.082  20.259  1.00  0.00     0.293 HD
ENDBRANCH   2  24
BRANCH   6  26
ATOM     26  O   UNL     1      60.125  -1.052  15.041  1.00  0.00    -0.507 OA
ATOM     27  H   UNL     1      60.997  -1.381  14.654  1.00  0.00     0.293 HD
ENDBRANCH   6  26
BRANCH   8  28
ATOM     28  O   UNL     1      56.616  -3.608  12.990  1.00  0.00    -0.508 OA
ATOM     29  H   UNL     1      55.624  -3.816  12.949  1.00  0.00     0.293 HD
ENDBRANCH   8  28
TORSDOF 7
ENDMDL
MODEL 3
REMARK VINA RESULT:    -6.179     15.823     18.185
REMARK INTER + INTRA:          -7.950
REMARK INTER:                  -7.807
REMARK INTRA:                  -0.142
REMARK UNBOUND:                -0.326
REMARK SMILES O=c1c(O)c(-c2cc(O)c(O)c(O)c2)oc2cc(O)cc(O)c12
REMARK SMILES IDX 5 1 3 2 2 3 1 4 23 5 21 6 20 7 18 8 17 9 16 10 15 11 6 12
REMARK SMILES IDX 7 13 8 14 14 15 10 16 12 17 9 18 11 20 13 22 4 24 22 26
REMARK SMILES IDX 19 28
REMARK H PARENT 9 19 11 21 13 23 4 25 22 27 19 29
REMARK Flexibility Score: inf
ROOT
ATOM      1  C   UNL     1      56.937  -2.678  18.963  1.00  0.00     0.180 A 
ATOM      2  C   UNL     1      58.150  -1.980  19.089  1.00  0.00     0.208 A 
ATOM      3  C   UNL     1      58.878  -1.665  17.930  1.00  0.00     0.238 A 
ATOM      4  O   UNL     1      59.990  -1.088  18.053  1.00  0.00    -0.285 OA
ATOM      5  C   UNL     1      58.375  -2.036  16.660  1.00  0.00     0.111 A 
ATOM      6  C   UNL     1      59.009  -1.734  15.417  1.00  0.00     0.134 A 
ATOM      7  C   UNL     1      58.490  -2.264  14.229  1.00  0.00     0.093 A 
ATOM      8  C   UNL     1      57.323  -3.032  14.233  1.00  0.00     0.123 A 
ATOM      9  C   UNL     1      56.664  -3.283  15.435  1.00  0.00     0.094 A 
ATOM     10  C   UNL     1      57.178  -2.799  16.640  1.00  0.00     0.146 A 
ATOM     11  O   UNL     1      56.524  -3.070  17.763  1.00  0.00    -0.452 OA
ENDROOT
BRANCH   1  12
ATOM     12  C   UNL     1      56.102  -3.023  20.136  1.00  0.00     0.029 A 
ATOM     13  C   UNL     1      55.611  -1.998  20.960  1.00  0.00     0.062 A 
ATOM     14  C   UNL     1      54.836  -2.301  22.088  1.00  0.00     0.162 A 
ATOM     15  C   UNL     1      55.836  -4.361  20.477  1.00  0.00     0.062 A 
ATOM     16  C   UNL     1      54.557  -3.635  22.410  1.00  0.00     0.200 A 
ATOM     17  C   UNL     1      55.062  -4.669  21.604  1.00  0.00     0.162 A 
BRANCH  14  18
ATOM     18  O   UNL     1      54.339  -1.278  22.894  1.00  0.00    -0.504 OA
ATOM     19  H   UNL     1      54.863  -0.426  23.053  1.00  0.00     0.293 HD
ENDBRANCH  14  18
BRANCH  16  20
ATOM     20  O   UNL     1      53.780  -3.916  23.535  1.00  0.00    -0.502 OA
ATOM     21  H   UNL     1      52.913  -4.436  23.474  1.00  0.00     0.293 HD
ENDBRANCH  16  20
BRANCH  17  22
ATOM     22  O   UNL     1      54.798  -5.999  21.929  1.00  0.00    -0.504 OA
ATOM     23  H   UNL     1      55.315  -6.480  22.656  1.00  0.00     0.293 HD
ENDBRANCH  17  22
ENDBRANCH   1  12
BRANCH   2  24
ATOM     24  O   UNL     1      58.639  -1.642  20.353  1.00  0.00    -0.502 OA
ATOM     25  H   UNL     1      59.230  -0.834  20.511  1.00  0.00     0.293 HD
ENDBRANCH   2  24
BRANCH   6  26
ATOM     26  O   UNL     1      60.125  -0.901  15.293  1.00  0.00    -0.507 OA
ATOM     27  H   UNL     1      60.095   0.108  15.311  1.00  0.00     0.293 HD
ENDBRANCH   6  26
BRANCH   8  28
ATOM     28  O   UNL     1      56.804  -3.543  13.046  1.00  0.00    -0.508 OA
ATOM     29  H   UNL     1      55.997  -3.123  12.597  1.00  0.00     0.293 HD
ENDBRANCH   8  28
TORSDOF 7
ENDMDL
MODEL 4
REMARK VINA RESULT:    -6.145     14.693     16.146
REMARK INTER + INTRA:          -7.908
REMARK INTER:                  -7.554
REMARK INTRA:                  -0.353
REMARK UNBOUND:                -0.326
REMARK SMILES O=c1c(O)c(-c2cc(O)c(O)c(O)c2)oc2cc(O)cc(O)c12
REMARK SMILES IDX 5 1 3 2 2 3 1 4 23 5 21 6 20 7 18 8 17 9 16 10 15 11 6 12
REMARK SMILES IDX 7 13 8 14 14 15 10 16 12 17 9 18 11 20 13 22 4 24 22 26
REMARK SMILES IDX 19 28
REMARK H PARENT 9 19 11 21 13 23 4 25 22 27 19 29
REMARK Flexibility Score: inf
ROOT
ATOM      1  C   UNL     1      55.852  -2.631  20.348  1.00  0.00     0.180 A 
ATOM      2  C   UNL     1      55.552  -3.904  20.863  1.00  0.00     0.208 A 
ATOM      3  C   UNL     1      54.801  -4.001  22.045  1.00  0.00     0.238 A 
ATOM      4  O   UNL     1      54.583  -5.141  22.531  1.00  0.00    -0.285 OA
ATOM      5  C   UNL     1      54.345  -2.825  22.688  1.00  0.00     0.111 A 
ATOM      6  C   UNL     1      53.543  -2.805  23.869  1.00  0.00     0.134 A 
ATOM      7  C   UNL     1      53.259  -1.584  24.491  1.00  0.00     0.093 A 
ATOM      8  C   UNL     1      53.694  -0.376  23.939  1.00  0.00     0.123 A 
ATOM      9  C   UNL     1      54.427  -0.381  22.755  1.00  0.00     0.094 A 
ATOM     10  C   UNL     1      54.757  -1.586  22.130  1.00  0.00     0.146 A 
ATOM     11  O   UNL     1      55.466  -1.546  21.009  1.00  0.00    -0.452 OA
ENDROOT
BRANCH   1  12
ATOM     12  C   UNL     1      56.618  -2.450  19.093  1.00  0.00     0.029 A 
ATOM     13  C   UNL     1      55.930  -2.354  17.873  1.00  0.00     0.062 A 
ATOM     14  C   UNL     1      56.633  -2.203  16.670  1.00  0.00     0.162 A 
ATOM     15  C   UNL     1      58.023  -2.429  19.090  1.00  0.00     0.062 A 
ATOM     16  C   UNL     1      58.033  -2.161  16.676  1.00  0.00     0.200 A 
ATOM     17  C   UNL     1      58.731  -2.279  17.889  1.00  0.00     0.162 A 
BRANCH  14  18
ATOM     18  O   UNL     1      55.945  -2.093  15.463  1.00  0.00    -0.504 OA
ATOM     19  H   UNL     1      55.585  -1.204  15.136  1.00  0.00     0.293 HD
ENDBRANCH  14  18
BRANCH  16  20
ATOM     20  O   UNL     1      58.715  -2.007  15.468  1.00  0.00    -0.502 OA
ATOM     21  H   UNL     1      59.329  -2.724  15.101  1.00  0.00     0.293 HD
ENDBRANCH  16  20
BRANCH  17  22
ATOM     22  O   UNL     1      60.124  -2.252  17.898  1.00  0.00    -0.504 OA
ATOM     23  H   UNL     1      60.639  -1.379  17.855  1.00  0.00     0.293 HD
ENDBRANCH  17  22
ENDBRANCH   1  12
BRANCH   2  24
ATOM     24  O   UNL     1      56.031  -5.051  20.225  1.00  0.00    -0.502 OA
ATOM     25  H   UNL     1      55.423  -5.809  19.937  1.00  0.00     0.293 HD
ENDBRANCH   2  24
BRANCH   6  26
ATOM     26  O   UNL     1      52.981  -3.946  24.449  1.00  0.00    -0.507 OA
ATOM     27  H   UNL     1      53.502  -4.763  24.731  1.00  0.00     0.293 HD
ENDBRANCH   6  26
BRANCH   8  28
ATOM     28  O   UNL     1      53.394   0.837  24.556  1.00  0.00    -0.508 OA
ATOM     29  H   UNL     1      52.509   1.304  24.401  1.00  0.00     0.293 HD
ENDBRANCH   8  28
TORSDOF 7
ENDMDL
MODEL 5
REMARK VINA RESULT:    -6.098     14.432     16.376
REMARK INTER + INTRA:          -7.850
REMARK INTER:                  -7.484
REMARK INTRA:                  -0.367
REMARK UNBOUND:                -0.326
REMARK SMILES O=c1c(O)c(-c2cc(O)c(O)c(O)c2)oc2cc(O)cc(O)c12
REMARK SMILES IDX 5 1 3 2 2 3 1 4 23 5 21 6 20 7 18 8 17 9 16 10 15 11 6 12
REMARK SMILES IDX 7 13 8 14 14 15 10 16 12 17 9 18 11 20 13 22 4 24 22 26
REMARK SMILES IDX 19 28
REMARK H PARENT 9 19 11 21 13 23 4 25 22 27 19 29
REMARK Flexibility Score: inf
ROOT
ATOM      1  C   UNL     1      52.898  -4.865  17.791  1.00  0.00     0.180 A 
ATOM      2  C   UNL     1      53.762  -5.235  16.747  1.00  0.00     0.208 A 
ATOM      3  C   UNL     1      53.214  -5.595  15.505  1.00  0.00     0.238 A 
ATOM      4  O   UNL     1      53.990  -5.978  14.591  1.00  0.00    -0.285 OA
ATOM      5  C   UNL     1      51.812  -5.563  15.319  1.00  0.00     0.111 A 
ATOM      6  C   UNL     1      51.150  -5.870  14.091  1.00  0.00     0.134 A 
ATOM      7  C   UNL     1      49.751  -5.933  14.057  1.00  0.00     0.093 A 
ATOM      8  C   UNL     1      48.989  -5.638  15.191  1.00  0.00     0.123 A 
ATOM      9  C   UNL     1      49.625  -5.281  16.377  1.00  0.00     0.094 A 
ATOM     10  C   UNL     1      51.019  -5.244  16.452  1.00  0.00     0.146 A 
ATOM     11  O   UNL     1      51.584  -4.908  17.606  1.00  0.00    -0.452 OA
ENDROOT
BRANCH   1  12
ATOM     12  C   UNL     1      53.402  -4.448  19.120  1.00  0.00     0.029 A 
ATOM     13  C   UNL     1      53.476  -5.392  20.158  1.00  0.00     0.062 A 
ATOM     14  C   UNL     1      53.929  -5.018  21.429  1.00  0.00     0.162 A 
ATOM     15  C   UNL     1      53.756  -3.114  19.384  1.00  0.00     0.062 A 
ATOM     16  C   UNL     1      54.300  -3.690  21.680  1.00  0.00     0.200 A 
ATOM     17  C   UNL     1      54.209  -2.733  20.655  1.00  0.00     0.162 A 
BRANCH  14  18
ATOM     18  O   UNL     1      54.015  -5.962  22.451  1.00  0.00    -0.504 OA
ATOM     19  H   UNL     1      53.727  -5.746  23.398  1.00  0.00     0.293 HD
ENDBRANCH  14  18
BRANCH  16  20
ATOM     20  O   UNL     1      54.753  -3.338  22.952  1.00  0.00    -0.502 OA
ATOM     21  H   UNL     1      54.159  -2.865  23.623  1.00  0.00     0.293 HD
ENDBRANCH  16  20
BRANCH  17  22
ATOM     22  O   UNL     1      54.564  -1.409  20.904  1.00  0.00    -0.504 OA
ATOM     23  H   UNL     1      53.864  -0.688  21.037  1.00  0.00     0.293 HD
ENDBRANCH  17  22
ENDBRANCH   1  12
BRANCH   2  24
ATOM     24  O   UNL     1      55.142  -5.280  16.959  1.00  0.00    -0.502 OA
ATOM     25  H   UNL     1      55.591  -4.804  17.733  1.00  0.00     0.293 HD
ENDBRANCH   2  24
BRANCH   6  26
ATOM     26  O   UNL     1      51.814  -6.089  12.881  1.00  0.00    -0.507 OA
ATOM     27  H   UNL     1      51.742  -6.932  12.330  1.00  0.00     0.293 HD
ENDBRANCH   6  26
BRANCH   8  28
ATOM     28  O   UNL     1      47.598  -5.688  15.145  1.00  0.00    -0.508 OA
ATOM     29  H   UNL     1      47.041  -5.713  15.991  1.00  0.00     0.293 HD
ENDBRANCH   8  28
TORSDOF 7
ENDMDL
MODEL 6
REMARK VINA RESULT:    -5.900      1.280      7.142
REMARK INTER + INTRA:          -7.606
REMARK INTER:                  -7.251
REMARK INTRA:                  -0.355
REMARK UNBOUND:                -0.326
REMARK SMILES O=c1c(O)c(-c2cc(O)c(O)c(O)c2)oc2cc(O)cc(O)c12
REMARK SMILES IDX 5 1 3 2 2 3 1 4 23 5 21 6 20 7 18 8 17 9 16 10 15 11 6 12
REMARK SMILES IDX 7 13 8 14 14 15 10 16 12 17 9 18 11 20 13 22 4 24 22 26
REMARK SMILES IDX 19 28
REMARK H PARENT 9 19 11 21 13 23 4 25 22 27 19 29
REMARK Flexibility Score: inf
ROOT
ATOM      1  C   UNL     1      44.459   7.766  15.811  1.00  0.00     0.180 A 
ATOM      2  C   UNL     1      45.158   8.937  15.472  1.00  0.00     0.208 A 
ATOM      3  C   UNL     1      46.062   8.904  14.398  1.00  0.00     0.238 A 
ATOM      4  O   UNL     1      46.725   9.941  14.134  1.00  0.00    -0.285 OA
ATOM      5  C   UNL     1      46.243   7.706  13.667  1.00  0.00     0.111 A 
ATOM      6  C   UNL     1      47.104   7.568  12.536  1.00  0.00     0.134 A 
ATOM      7  C   UNL     1      47.304   6.303  11.970  1.00  0.00     0.093 A 
ATOM      8  C   UNL     1      46.626   5.182  12.454  1.00  0.00     0.123 A 
ATOM      9  C   UNL     1      45.739   5.317  13.519  1.00  0.00     0.094 A 
ATOM     10  C   UNL     1      45.545   6.559  14.128  1.00  0.00     0.146 A 
ATOM     11  O   UNL     1      44.699   6.641  15.148  1.00  0.00    -0.452 OA
ENDROOT
BRANCH   1  12
ATOM     12  C   UNL     1      43.471   7.730  16.914  1.00  0.00     0.029 A 
ATOM     13  C   UNL     1      42.144   8.112  16.664  1.00  0.00     0.062 A 
ATOM     14  C   UNL     1      41.195   8.106  17.696  1.00  0.00     0.162 A 
ATOM     15  C   UNL     1      43.847   7.376  18.221  1.00  0.00     0.062 A 
ATOM     16  C   UNL     1      41.571   7.732  18.992  1.00  0.00     0.200 A 
ATOM     17  C   UNL     1      42.903   7.369  19.257  1.00  0.00     0.162 A 
BRANCH  14  18
ATOM     18  O   UNL     1      39.875   8.472  17.439  1.00  0.00    -0.504 OA
ATOM     19  H   UNL     1      39.584   8.802  16.527  1.00  0.00     0.293 HD
ENDBRANCH  14  18
BRANCH  16  20
ATOM     20  O   UNL     1      40.612   7.729  20.006  1.00  0.00    -0.502 OA
ATOM     21  H   UNL     1      39.765   8.282  19.947  1.00  0.00     0.293 HD
ENDBRANCH  16  20
BRANCH  17  22
ATOM     22  O   UNL     1      43.284   7.010  20.548  1.00  0.00    -0.504 OA
ATOM     23  H   UNL     1      44.259   6.945  20.816  1.00  0.00     0.293 HD
ENDBRANCH  17  22
ENDBRANCH   1  12
BRANCH   2  24
ATOM     24  O   UNL     1      44.981  10.104  16.220  1.00  0.00    -0.502 OA
ATOM     25  H   UNL     1      45.755  10.605  16.641  1.00  0.00     0.293 HD
ENDBRANCH   2  24
BRANCH   6  26
ATOM     26  O   UNL     1      47.756   8.639  11.917  1.00  0.00    -0.507 OA
ATOM     27  H   UNL     1      48.624   9.044  12.235  1.00  0.00     0.293 HD
ENDBRANCH   6  26
BRANCH   8  28
ATOM     28  O   UNL     1      46.819   3.929  11.875  1.00  0.00    -0.508 OA
ATOM     29  H   UNL     1      47.724   3.644  11.521  1.00  0.00     0.293 HD
ENDBRANCH   8  28
TORSDOF 7
ENDMDL
MODEL 7
REMARK VINA RESULT:    -5.751      1.363      7.001
REMARK INTER + INTRA:          -7.422
REMARK INTER:                  -7.457
REMARK INTRA:                   0.035
REMARK UNBOUND:                -0.326
REMARK SMILES O=c1c(O)c(-c2cc(O)c(O)c(O)c2)oc2cc(O)cc(O)c12
REMARK SMILES IDX 5 1 3 2 2 3 1 4 23 5 21 6 20 7 18 8 17 9 16 10 15 11 6 12
REMARK SMILES IDX 7 13 8 14 14 15 10 16 12 17 9 18 11 20 13 22 4 24 22 26
REMARK SMILES IDX 19 28
REMARK H PARENT 9 19 11 21 13 23 4 25 22 27 19 29
REMARK Flexibility Score: inf
ROOT
ATOM      1  C   UNL     1      43.573   7.350  16.719  1.00  0.00     0.180 A 
ATOM      2  C   UNL     1      42.970   6.498  15.779  1.00  0.00     0.208 A 
ATOM      3  C   UNL     1      43.520   6.409  14.489  1.00  0.00     0.238 A 
ATOM      4  O   UNL     1      42.943   5.686  13.636  1.00  0.00    -0.285 OA
ATOM      5  C   UNL     1      44.674   7.160  14.162  1.00  0.00     0.111 A 
ATOM      6  C   UNL     1      45.338   7.117  12.899  1.00  0.00     0.134 A 
ATOM      7  C   UNL     1      46.394   8.000  12.644  1.00  0.00     0.093 A 
ATOM      8  C   UNL     1      46.852   8.880  13.628  1.00  0.00     0.123 A 
ATOM      9  C   UNL     1      46.248   8.888  14.883  1.00  0.00     0.094 A 
ATOM     10  C   UNL     1      45.169   8.044  15.156  1.00  0.00     0.146 A 
ATOM     11  O   UNL     1      44.616   8.091  16.363  1.00  0.00    -0.452 OA
ENDROOT
BRANCH   1  12
ATOM     12  C   UNL     1      43.067   7.478  18.105  1.00  0.00     0.029 A 
ATOM     13  C   UNL     1      43.963   7.368  19.180  1.00  0.00     0.062 A 
ATOM     14  C   UNL     1      43.505   7.464  20.501  1.00  0.00     0.162 A 
ATOM     15  C   UNL     1      41.698   7.650  18.371  1.00  0.00     0.062 A 
ATOM     16  C   UNL     1      42.142   7.657  20.759  1.00  0.00     0.200 A 
ATOM     17  C   UNL     1      41.234   7.745  19.690  1.00  0.00     0.162 A 
BRANCH  14  18
ATOM     18  O   UNL     1      44.401   7.370  21.564  1.00  0.00    -0.504 OA
ATOM     19  H   UNL     1      44.086   7.377  22.527  1.00  0.00     0.293 HD
ENDBRANCH  14  18
BRANCH  16  20
ATOM     20  O   UNL     1      41.706   7.754  22.081  1.00  0.00    -0.502 OA
ATOM     21  H   UNL     1      41.191   7.008  22.534  1.00  0.00     0.293 HD
ENDBRANCH  16  20
BRANCH  17  22
ATOM     22  O   UNL     1      39.875   7.923  19.943  1.00  0.00    -0.504 OA
ATOM     23  H   UNL     1      39.270   7.141  20.169  1.00  0.00     0.293 HD
ENDBRANCH  17  22
ENDBRANCH   1  12
BRANCH   2  24
ATOM     24  O   UNL     1      41.819   5.782  16.115  1.00  0.00    -0.502 OA
ATOM     25  H   UNL     1      41.097   5.561  15.439  1.00  0.00     0.293 HD
ENDBRANCH   2  24
BRANCH   6  26
ATOM     26  O   UNL     1      45.020   6.213  11.882  1.00  0.00    -0.507 OA
ATOM     27  H   UNL     1      44.901   6.459  10.910  1.00  0.00     0.293 HD
ENDBRANCH   6  26
BRANCH   8  28
ATOM     28  O   UNL     1      47.914   9.745  13.371  1.00  0.00    -0.508 OA
ATOM     29  H   UNL     1      48.850   9.397  13.200  1.00  0.00     0.293 HD
ENDBRANCH   8  28
TORSDOF 7
ENDMDL
MODEL 8
REMARK VINA RESULT:    -5.624      3.118      6.181
REMARK INTER + INTRA:          -7.265
REMARK INTER:                  -6.994
REMARK INTRA:                  -0.272
REMARK UNBOUND:                -0.326
REMARK SMILES O=c1c(O)c(-c2cc(O)c(O)c(O)c2)oc2cc(O)cc(O)c12
REMARK SMILES IDX 5 1 3 2 2 3 1 4 23 5 21 6 20 7 18 8 17 9 16 10 15 11 6 12
REMARK SMILES IDX 7 13 8 14 14 15 10 16 12 17 9 18 11 20 13 22 4 24 22 26
REMARK SMILES IDX 19 28
REMARK H PARENT 9 19 11 21 13 23 4 25 22 27 19 29
REMARK Flexibility Score: inf
ROOT
ATOM      1  C   UNL     1      42.730   6.737  16.435  1.00  0.00     0.180 A 
ATOM      2  C   UNL     1      41.451   6.193  16.640  1.00  0.00     0.208 A 
ATOM      3  C   UNL     1      41.041   5.102  15.856  1.00  0.00     0.238 A 
ATOM      4  O   UNL     1      39.875   4.655  16.006  1.00  0.00    -0.285 OA
ATOM      5  C   UNL     1      41.922   4.561  14.889  1.00  0.00     0.111 A 
ATOM      6  C   UNL     1      41.626   3.432  14.066  1.00  0.00     0.134 A 
ATOM      7  C   UNL     1      42.520   3.063  13.053  1.00  0.00     0.093 A 
ATOM      8  C   UNL     1      43.728   3.742  12.875  1.00  0.00     0.123 A 
ATOM      9  C   UNL     1      44.052   4.808  13.712  1.00  0.00     0.094 A 
ATOM     10  C   UNL     1      43.165   5.222  14.708  1.00  0.00     0.146 A 
ATOM     11  O   UNL     1      43.508   6.249  15.476  1.00  0.00    -0.452 OA
ENDROOT
BRANCH   1  12
ATOM     12  C   UNL     1      43.242   7.870  17.240  1.00  0.00     0.029 A 
ATOM     13  C   UNL     1      43.464   9.112  16.623  1.00  0.00     0.062 A 
ATOM     14  C   UNL     1      43.967  10.193  17.359  1.00  0.00     0.162 A 
ATOM     15  C   UNL     1      43.567   7.715  18.599  1.00  0.00     0.062 A 
ATOM     16  C   UNL     1      44.269  10.037  18.718  1.00  0.00     0.200 A 
ATOM     17  C   UNL     1      44.072   8.793  19.340  1.00  0.00     0.162 A 
BRANCH  14  18
ATOM     18  O   UNL     1      44.170  11.427  16.745  1.00  0.00    -0.504 OA
ATOM     19  H   UNL     1      45.097  11.743  16.482  1.00  0.00     0.293 HD
ENDBRANCH  14  18
BRANCH  16  20
ATOM     20  O   UNL     1      44.766  11.126  19.435  1.00  0.00    -0.502 OA
ATOM     21  H   UNL     1      44.823  12.054  19.033  1.00  0.00     0.293 HD
ENDBRANCH  16  20
BRANCH  17  22
ATOM     22  O   UNL     1      44.384   8.630  20.688  1.00  0.00    -0.504 OA
ATOM     23  H   UNL     1      45.341   8.512  21.002  1.00  0.00     0.293 HD
ENDBRANCH  17  22
ENDBRANCH   1  12
BRANCH   2  24
ATOM     24  O   UNL     1      40.590   6.757  17.585  1.00  0.00    -0.502 OA
ATOM     25  H   UNL     1      39.590   6.593  17.578  1.00  0.00     0.293 HD
ENDBRANCH   2  24
BRANCH   6  26
ATOM     26  O   UNL     1      40.493   2.629  14.221  1.00  0.00    -0.507 OA
ATOM     27  H   UNL     1      39.671   2.890  14.745  1.00  0.00     0.293 HD
ENDBRANCH   6  26
BRANCH   8  28
ATOM     28  O   UNL     1      44.619   3.359  11.875  1.00  0.00    -0.508 OA
ATOM     29  H   UNL     1      44.810   2.382  11.682  1.00  0.00     0.293 HD
ENDBRANCH   8  28
TORSDOF 7
ENDMDL
MODEL 9
REMARK VINA RESULT:    -5.483     15.472     17.461
REMARK INTER + INTRA:          -7.091
REMARK INTER:                  -6.987
REMARK INTRA:                  -0.105
REMARK UNBOUND:                -0.326
REMARK SMILES O=c1c(O)c(-c2cc(O)c(O)c(O)c2)oc2cc(O)cc(O)c12
REMARK SMILES IDX 5 1 3 2 2 3 1 4 23 5 21 6 20 7 18 8 17 9 16 10 15 11 6 12
REMARK SMILES IDX 7 13 8 14 14 15 10 16 12 17 9 18 11 20 13 22 4 24 22 26
REMARK SMILES IDX 19 28
REMARK H PARENT 9 19 11 21 13 23 4 25 22 27 19 29
REMARK Flexibility Score: inf
ROOT
ATOM      1  C   UNL     1      55.440  -3.225  18.628  1.00  0.00     0.180 A 
ATOM      2  C   UNL     1      54.699  -3.740  17.551  1.00  0.00     0.208 A 
ATOM      3  C   UNL     1      55.224  -3.638  16.252  1.00  0.00     0.238 A 
ATOM      4  O   UNL     1      54.531  -4.051  15.287  1.00  0.00    -0.285 OA
ATOM      5  C   UNL     1      56.490  -3.038  16.050  1.00  0.00     0.111 A 
ATOM      6  C   UNL     1      57.136  -2.917  14.783  1.00  0.00     0.134 A 
ATOM      7  C   UNL     1      58.328  -2.189  14.682  1.00  0.00     0.093 A 
ATOM      8  C   UNL     1      58.931  -1.633  15.813  1.00  0.00     0.123 A 
ATOM      9  C   UNL     1      58.338  -1.797  17.063  1.00  0.00     0.094 A 
ATOM     10  C   UNL     1      57.130  -2.486  17.191  1.00  0.00     0.146 A 
ATOM     11  O   UNL     1      56.594  -2.610  18.399  1.00  0.00    -0.452 OA
ENDROOT
BRANCH   1  12
ATOM     12  C   UNL     1      54.964  -3.318  20.028  1.00  0.00     0.029 A 
ATOM     13  C   UNL     1      54.929  -2.162  20.824  1.00  0.00     0.062 A 
ATOM     14  C   UNL     1      54.503  -2.228  22.156  1.00  0.00     0.162 A 
ATOM     15  C   UNL     1      54.601  -4.551  20.596  1.00  0.00     0.062 A 
ATOM     16  C   UNL     1      54.121  -3.456  22.711  1.00  0.00     0.200 A 
ATOM     17  C   UNL     1      54.175  -4.623  21.930  1.00  0.00     0.162 A 
BRANCH  14  18
ATOM     18  O   UNL     1      54.455  -1.074  22.937  1.00  0.00    -0.504 OA
ATOM     19  H   UNL     1      54.452  -1.118  23.949  1.00  0.00     0.293 HD
ENDBRANCH  14  18
BRANCH  16  20
ATOM     20  O   UNL     1      53.696  -3.501  24.040  1.00  0.00    -0.502 OA
ATOM     21  H   UNL     1      52.826  -3.079  24.341  1.00  0.00     0.293 HD
ENDBRANCH  16  20
BRANCH  17  22
ATOM     22  O   UNL     1      53.809  -5.849  22.482  1.00  0.00    -0.504 OA
ATOM     23  H   UNL     1      53.044  -5.927  23.143  1.00  0.00     0.293 HD
ENDBRANCH  17  22
ENDBRANCH   1  12
BRANCH   2  24
ATOM     24  O   UNL     1      53.442  -4.308  17.771  1.00  0.00    -0.502 OA
ATOM     25  H   UNL     1      53.231  -5.272  17.541  1.00  0.00     0.293 HD
ENDBRANCH   2  24
BRANCH   6  26
ATOM     26  O   UNL     1      56.667  -3.512  13.608  1.00  0.00    -0.507 OA
ATOM     27  H   UNL     1      57.039  -4.359  13.205  1.00  0.00     0.293 HD
ENDBRANCH   6  26
BRANCH   8  28
ATOM     28  O   UNL     1      60.125  -0.924  15.707  1.00  0.00    -0.508 OA
ATOM     29  H   UNL     1      60.547  -0.474  16.511  1.00  0.00     0.293 HD
ENDBRANCH   8  28
TORSDOF 7
ENDMDL
