MODEL 1
REMARK VINA RESULT:    -1.100      0.000      0.000
REMARK INTER + INTRA:          -2.796
REMARK INTER:                  -2.064
REMARK INTRA:                  -0.732
REMARK UNBOUND:                -0.732
REMARK SMILES CCCCCCCCC=CCCCCCCCC(=O)[O-]
REMARK SMILES IDX 10 1 9 2 11 3 12 4 13 5 14 6 15 7 16 8 17 9 18 10 19 11
REMARK SMILES IDX 20 12 8 13 7 14 6 15 5 16 4 17 3 18 2 19 1 20
REMARK H PARENT
REMARK Flexibility Score: inf
ROOT
ATOM      1  C   UNL     1      -8.937  51.301  -3.871  1.00  0.00    -0.031 C 
ATOM      2  C   UNL     1      -8.728  50.898  -2.602  1.00  0.00    -0.031 C 
ENDROOT
BRANCH   1   3
ATOM      3  C   UNL     1      -7.861  51.534  -4.900  1.00  0.00     0.027 C 
BRANCH   3   4
ATOM      4  C   UNL     1      -8.417  51.433  -6.328  1.00  0.00     0.004 C 
BRANCH   4   5
ATOM      5  C   UNL     1      -7.518  52.124  -7.370  1.00  0.00     0.000 C 
BRANCH   5   6
ATOM      6  C   UNL     1      -7.416  51.396  -8.723  1.00  0.00     0.000 C 
BRANCH   6   7
ATOM      7  C   UNL     1      -5.972  51.034  -9.100  1.00  0.00     0.000 C 
BRANCH   7   8
ATOM      8  C   UNL     1      -4.990  52.102  -8.600  1.00  0.00     0.006 C 
BRANCH   8   9
ATOM      9  C   UNL     1      -3.528  51.713  -8.856  1.00  0.00     0.053 C 
BRANCH   9  10
ATOM     10  C   UNL     1      -2.869  51.180  -7.621  1.00  0.00     0.041 C 
ATOM     11  O   UNL     1      -1.643  51.384  -7.420  1.00  0.00    -0.550 OA
ATOM     12  O   UNL     1      -3.614  50.482  -6.680  1.00  0.00    -0.550 OA
ENDBRANCH   9  10
ENDBRANCH   8   9
ENDBRANCH   7   8
ENDBRANCH   6   7
ENDBRANCH   5   6
ENDBRANCH   4   5
ENDBRANCH   3   4
ENDBRANCH   1   3
BRANCH   2  13
ATOM     13  C   UNL     1      -7.379  50.582  -1.995  1.00  0.00     0.027 C 
BRANCH  13  14
ATOM     14  C   UNL     1      -7.366  50.807  -0.472  1.00  0.00     0.004 C 
BRANCH  14  15
ATOM     15  C   UNL     1      -6.710  52.124  -0.019  1.00  0.00     0.000 C 
BRANCH  15  16
ATOM     16  C   UNL     1      -5.418  51.903   0.786  1.00  0.00     0.000 C 
BRANCH  16  17
ATOM     17  C   UNL     1      -4.154  52.069  -0.073  1.00  0.00    -0.000 C 
BRANCH  17  18
ATOM     18  C   UNL     1      -2.963  51.259   0.467  1.00  0.00    -0.000 C 
BRANCH  18  19
ATOM     19  C   UNL     1      -1.644  51.608  -0.240  1.00  0.00    -0.003 C 
ATOM     20  C   UNL     1      -0.573  52.125   0.719  1.00  0.00     0.004 C 
ENDBRANCH  18  19
ENDBRANCH  17  18
ENDBRANCH  16  17
ENDBRANCH  15  16
ENDBRANCH  14  15
ENDBRANCH  13  14
ENDBRANCH   2  13
TORSDOF 15
ENDMDL
MODEL 2
REMARK VINA RESULT:     0.592      3.791      7.781
REMARK INTER + INTRA:           0.378
REMARK INTER:                   1.141
REMARK INTRA:                  -0.763
REMARK UNBOUND:                -0.732
REMARK SMILES CCCCCCCCC=CCCCCCCCC(=O)[O-]
REMARK SMILES IDX 10 1 9 2 11 3 12 4 13 5 14 6 15 7 16 8 17 9 18 10 19 11
REMARK SMILES IDX 20 12 8 13 7 14 6 15 5 16 4 17 3 18 2 19 1 20
REMARK H PARENT
REMARK Flexibility Score: inf
ROOT
ATOM      1  C   UNL     1      -8.439  50.431  -3.574  1.00  0.00    -0.031 C 
ATOM      2  C   UNL     1      -8.079  50.633  -4.857  1.00  0.00    -0.031 C 
ENDROOT
BRANCH   1   3
ATOM      3  C   UNL     1      -8.955  51.492  -2.637  1.00  0.00     0.027 C 
BRANCH   3   4
ATOM      4  C   UNL     1      -8.021  51.682  -1.433  1.00  0.00     0.004 C 
BRANCH   4   5
ATOM      5  C   UNL     1      -8.018  50.473  -0.481  1.00  0.00     0.000 C 
BRANCH   5   6
ATOM      6  C   UNL     1      -6.967  49.395  -0.804  1.00  0.00     0.000 C 
BRANCH   6   7
ATOM      7  C   UNL     1      -7.585  48.013  -1.057  1.00  0.00     0.000 C 
BRANCH   7   8
ATOM      8  C   UNL     1      -6.507  46.996  -1.464  1.00  0.00     0.006 C 
BRANCH   8   9
ATOM      9  C   UNL     1      -6.976  45.547  -1.279  1.00  0.00     0.053 C 
BRANCH   9  10
ATOM     10  C   UNL     1      -6.307  44.618  -2.245  1.00  0.00     0.041 C 
ATOM     11  O   UNL     1      -6.724  44.528  -3.430  1.00  0.00    -0.550 OA
ATOM     12  O   UNL     1      -5.204  43.874  -1.846  1.00  0.00    -0.550 OA
ENDBRANCH   9  10
ENDBRANCH   8   9
ENDBRANCH   7   8
ENDBRANCH   6   7
ENDBRANCH   5   6
ENDBRANCH   4   5
ENDBRANCH   3   4
ENDBRANCH   1   3
BRANCH   2  13
ATOM     13  C   UNL     1      -8.153  51.954  -5.589  1.00  0.00     0.027 C 
BRANCH  13  14
ATOM     14  C   UNL     1      -6.993  52.124  -6.588  1.00  0.00     0.004 C 
BRANCH  14  15
ATOM     15  C   UNL     1      -7.412  52.122  -8.070  1.00  0.00     0.000 C 
BRANCH  15  16
ATOM     16  C   UNL     1      -7.161  50.770  -8.760  1.00  0.00     0.000 C 
BRANCH  16  17
ATOM     17  C   UNL     1      -5.756  50.676  -9.379  1.00  0.00    -0.000 C 
BRANCH  17  18
ATOM     18  C   UNL     1      -4.945  51.971  -9.198  1.00  0.00    -0.000 C 
BRANCH  18  19
ATOM     19  C   UNL     1      -3.520  51.706  -8.687  1.00  0.00    -0.003 C 
ATOM     20  C   UNL     1      -3.480  51.326  -7.208  1.00  0.00     0.004 C 
ENDBRANCH  18  19
ENDBRANCH  17  18
ENDBRANCH  16  17
ENDBRANCH  15  16
ENDBRANCH  14  15
ENDBRANCH  13  14
ENDBRANCH   2  13
TORSDOF 15
ENDMDL
MODEL 3
REMARK VINA RESULT:     1.390      4.599      8.526
REMARK INTER + INTRA:           1.878
REMARK INTER:                   2.688
REMARK INTRA:                  -0.810
REMARK UNBOUND:                -0.732
REMARK SMILES CCCCCCCCC=CCCCCCCCC(=O)[O-]
REMARK SMILES IDX 10 1 9 2 11 3 12 4 13 5 14 6 15 7 16 8 17 9 18 10 19 11
REMARK SMILES IDX 20 12 8 13 7 14 6 15 5 16 4 17 3 18 2 19 1 20
REMARK H PARENT
REMARK Flexibility Score: inf
ROOT
ATOM      1  C   UNL     1      -9.125  50.951  -2.098  1.00  0.00    -0.031 C 
ATOM      2  C   UNL     1      -8.953  51.728  -3.186  1.00  0.00    -0.031 C 
ENDROOT
BRANCH   1   3
ATOM      3  C   UNL     1      -8.732  49.499  -1.994  1.00  0.00     0.027 C 
BRANCH   3   4
ATOM      4  C   UNL     1      -7.420  49.326  -1.214  1.00  0.00     0.004 C 
BRANCH   4   5
ATOM      5  C   UNL     1      -7.097  47.853  -0.906  1.00  0.00     0.000 C 
BRANCH   5   6
ATOM      6  C   UNL     1      -7.054  46.927  -2.136  1.00  0.00     0.000 C 
BRANCH   6   7
ATOM      7  C   UNL     1      -6.997  45.439  -1.763  1.00  0.00     0.000 C 
BRANCH   7   8
ATOM      8  C   UNL     1      -5.547  44.983  -1.545  1.00  0.00     0.006 C 
BRANCH   8   9
ATOM      9  C   UNL     1      -5.383  43.466  -1.706  1.00  0.00     0.053 C 
BRANCH   9  10
ATOM     10  C   UNL     1      -4.096  42.979  -1.116  1.00  0.00     0.041 C 
ATOM     11  O   UNL     1      -2.997  43.433  -1.532  1.00  0.00    -0.550 OA
ATOM     12  O   UNL     1      -4.109  42.046  -0.087  1.00  0.00    -0.550 OA
ENDBRANCH   9  10
ENDBRANCH   8   9
ENDBRANCH   7   8
ENDBRANCH   6   7
ENDBRANCH   5   6
ENDBRANCH   4   5
ENDBRANCH   3   4
ENDBRANCH   1   3
BRANCH   2  13
ATOM     13  C   UNL     1      -8.314  51.288  -4.484  1.00  0.00     0.027 C 
BRANCH  13  14
ATOM     14  C   UNL     1      -6.891  51.852  -4.645  1.00  0.00     0.004 C 
BRANCH  14  15
ATOM     15  C   UNL     1      -6.465  52.125  -6.100  1.00  0.00     0.000 C 
BRANCH  15  16
ATOM     16  C   UNL     1      -7.562  51.773  -7.120  1.00  0.00     0.000 C 
BRANCH  16  17
ATOM     17  C   UNL     1      -7.148  52.099  -8.565  1.00  0.00    -0.000 C 
BRANCH  17  18
ATOM     18  C   UNL     1      -7.143  50.856  -9.471  1.00  0.00    -0.000 C 
BRANCH  18  19
ATOM     19  C   UNL     1      -8.555  50.303  -9.720  1.00  0.00    -0.003 C 
ATOM     20  C   UNL     1      -8.685  48.822  -9.368  1.00  0.00     0.004 C 
ENDBRANCH  18  19
ENDBRANCH  17  18
ENDBRANCH  16  17
ENDBRANCH  15  16
ENDBRANCH  14  15
ENDBRANCH  13  14
ENDBRANCH   2  13
TORSDOF 15
ENDMDL
MODEL 4
REMARK VINA RESULT:     1.409      3.590      4.499
REMARK INTER + INTRA:           1.912
REMARK INTER:                   2.427
REMARK INTRA:                  -0.514
REMARK UNBOUND:                -0.732
REMARK SMILES CCCCCCCCC=CCCCCCCCC(=O)[O-]
REMARK SMILES IDX 10 1 9 2 11 3 12 4 13 5 14 6 15 7 16 8 17 9 18 10 19 11
REMARK SMILES IDX 20 12 8 13 7 14 6 15 5 16 4 17 3 18 2 19 1 20
REMARK H PARENT
REMARK Flexibility Score: inf
ROOT
ATOM      1  C   UNL     1      -9.025  51.277  -2.883  1.00  0.00    -0.031 C 
ATOM      2  C   UNL     1      -8.709  50.782  -1.670  1.00  0.00    -0.031 C 
ENDROOT
BRANCH   1   3
ATOM      3  C   UNL     1      -8.297  50.970  -4.166  1.00  0.00     0.027 C 
BRANCH   3   4
ATOM      4  C   UNL     1      -8.416  52.125  -5.171  1.00  0.00     0.004 C 
BRANCH   4   5
ATOM      5  C   UNL     1      -7.318  52.095  -6.250  1.00  0.00     0.000 C 
BRANCH   5   6
ATOM      6  C   UNL     1      -7.833  52.085  -7.700  1.00  0.00     0.000 C 
BRANCH   6   7
ATOM      7  C   UNL     1      -6.932  51.285  -8.651  1.00  0.00     0.000 C 
BRANCH   7   8
ATOM      8  C   UNL     1      -5.728  52.125  -9.104  1.00  0.00     0.006 C 
BRANCH   8   9
ATOM      9  C   UNL     1      -4.450  51.287  -9.231  1.00  0.00     0.053 C 
BRANCH   9  10
ATOM     10  C   UNL     1      -3.599  51.380  -8.002  1.00  0.00     0.041 C 
ATOM     11  O   UNL     1      -2.344  51.315  -8.093  1.00  0.00    -0.550 OA
ATOM     12  O   UNL     1      -4.189  51.564  -6.758  1.00  0.00    -0.550 OA
ENDBRANCH   9  10
ENDBRANCH   8   9
ENDBRANCH   7   8
ENDBRANCH   6   7
ENDBRANCH   5   6
ENDBRANCH   4   5
ENDBRANCH   3   4
ENDBRANCH   1   3
BRANCH   2  13
ATOM     13  C   UNL     1      -7.584  49.812  -1.387  1.00  0.00     0.027 C 
BRANCH  13  14
ATOM     14  C   UNL     1      -8.106  48.393  -1.097  1.00  0.00     0.004 C 
BRANCH  14  15
ATOM     15  C   UNL     1      -7.010  47.327  -0.910  1.00  0.00     0.000 C 
BRANCH  15  16
ATOM     16  C   UNL     1      -7.161  46.137  -1.874  1.00  0.00     0.000 C 
BRANCH  16  17
ATOM     17  C   UNL     1      -5.958  45.181  -1.821  1.00  0.00    -0.000 C 
BRANCH  17  18
ATOM     18  C   UNL     1      -6.336  43.738  -2.198  1.00  0.00    -0.000 C 
BRANCH  18  19
ATOM     19  C   UNL     1      -5.305  42.712  -1.701  1.00  0.00    -0.003 C 
ATOM     20  C   UNL     1      -4.071  43.362  -1.077  1.00  0.00     0.004 C 
ENDBRANCH  18  19
ENDBRANCH  17  18
ENDBRANCH  16  17
ENDBRANCH  15  16
ENDBRANCH  14  15
ENDBRANCH  13  14
ENDBRANCH   2  13
TORSDOF 15
ENDMDL
MODEL 5
REMARK VINA RESULT:     1.528      4.679      8.010
REMARK INTER + INTRA:           2.135
REMARK INTER:                   2.415
REMARK INTRA:                  -0.279
REMARK UNBOUND:                -0.732
REMARK SMILES CCCCCCCCC=CCCCCCCCC(=O)[O-]
REMARK SMILES IDX 10 1 9 2 11 3 12 4 13 5 14 6 15 7 16 8 17 9 18 10 19 11
REMARK SMILES IDX 20 12 8 13 7 14 6 15 5 16 4 17 3 18 2 19 1 20
REMARK H PARENT
REMARK Flexibility Score: inf
ROOT
ATOM      1  C   UNL     1      -9.069  50.667  -1.951  1.00  0.00    -0.031 C 
ATOM      2  C   UNL     1      -8.976  51.256  -3.159  1.00  0.00    -0.031 C 
ENDROOT
BRANCH   1   3
ATOM      3  C   UNL     1      -8.071  49.694  -1.378  1.00  0.00     0.027 C 
BRANCH   3   4
ATOM      4  C   UNL     1      -8.068  48.369  -2.153  1.00  0.00     0.004 C 
BRANCH   4   5
ATOM      5  C   UNL     1      -7.781  47.151  -1.257  1.00  0.00     0.000 C 
BRANCH   5   6
ATOM      6  C   UNL     1      -6.454  46.427  -1.550  1.00  0.00     0.000 C 
BRANCH   6   7
ATOM      7  C   UNL     1      -6.640  45.148  -2.378  1.00  0.00     0.000 C 
BRANCH   7   8
ATOM      8  C   UNL     1      -6.303  43.901  -1.546  1.00  0.00     0.006 C 
BRANCH   8   9
ATOM      9  C   UNL     1      -5.115  43.121  -2.124  1.00  0.00     0.053 C 
BRANCH   9  10
ATOM     10  C   UNL     1      -3.973  43.049  -1.157  1.00  0.00     0.041 C 
ATOM     11  O   UNL     1      -2.836  43.480  -1.485  1.00  0.00    -0.550 OA
ATOM     12  O   UNL     1      -4.170  42.532   0.117  1.00  0.00    -0.550 OA
ENDBRANCH   9  10
ENDBRANCH   8   9
ENDBRANCH   7   8
ENDBRANCH   6   7
ENDBRANCH   5   6
ENDBRANCH   4   5
ENDBRANCH   3   4
ENDBRANCH   1   3
BRANCH   2  13
ATOM     13  C   UNL     1      -7.843  51.065  -4.142  1.00  0.00     0.027 C 
BRANCH  13  14
ATOM     14  C   UNL     1      -8.323  51.164  -5.601  1.00  0.00     0.004 C 
BRANCH  14  15
ATOM     15  C   UNL     1      -7.389  51.953  -6.537  1.00  0.00     0.000 C 
BRANCH  15  16
ATOM     16  C   UNL     1      -7.367  51.395  -7.971  1.00  0.00     0.000 C 
BRANCH  16  17
ATOM     17  C   UNL     1      -6.356  52.125  -8.871  1.00  0.00    -0.000 C 
BRANCH  17  18
ATOM     18  C   UNL     1      -4.947  51.513  -8.791  1.00  0.00    -0.000 C 
BRANCH  18  19
ATOM     19  C   UNL     1      -4.248  51.818  -7.457  1.00  0.00    -0.003 C 
ATOM     20  C   UNL     1      -2.902  51.108  -7.315  1.00  0.00     0.004 C 
ENDBRANCH  18  19
ENDBRANCH  17  18
ENDBRANCH  16  17
ENDBRANCH  15  16
ENDBRANCH  14  15
ENDBRANCH  13  14
ENDBRANCH   2  13
TORSDOF 15
ENDMDL
