MODEL 1
REMARK VINA RESULT:    -6.676      0.000      0.000
REMARK INTER + INTRA:          -8.047
REMARK INTER:                  -7.847
REMARK INTRA:                  -0.200
REMARK UNBOUND:                -0.200
REMARK SMILES O=c1c(O)c(-c2ccc(O)cc2)oc2cc(O)cc(O)c12
REMARK SMILES IDX 5 1 3 2 2 3 1 4 21 5 19 6 18 7 16 8 15 9 14 10 13 11 6 12
REMARK SMILES IDX 7 13 8 14 9 15 12 16 11 17 10 18 4 20 20 22 17 24
REMARK H PARENT 10 19 4 21 20 23 17 25
REMARK Flexibility Score: inf
ROOT
ATOM      1  C   UNL     1     108.187  45.172 138.582  1.00  0.00     0.180 A 
ATOM      2  C   UNL     1     109.013  44.275 139.280  1.00  0.00     0.208 A 
ATOM      3  C   UNL     1     109.342  43.047 138.683  1.00  0.00     0.238 A 
ATOM      4  O   UNL     1     110.038  42.225 139.335  1.00  0.00    -0.285 OA
ATOM      5  C   UNL     1     108.856  42.740 137.390  1.00  0.00     0.111 A 
ATOM      6  C   UNL     1     109.160  41.543 136.673  1.00  0.00     0.134 A 
ATOM      7  C   UNL     1     108.519  41.286 135.455  1.00  0.00     0.093 A 
ATOM      8  C   UNL     1     107.635  42.212 134.897  1.00  0.00     0.123 A 
ATOM      9  C   UNL     1     107.377  43.409 135.560  1.00  0.00     0.094 A 
ATOM     10  C   UNL     1     107.974  43.678 136.795  1.00  0.00     0.146 A 
ATOM     11  O   UNL     1     107.693  44.827 137.399  1.00  0.00    -0.452 OA
ENDROOT
BRANCH   1  12
ATOM     12  C   UNL     1     107.816  46.494 139.134  1.00  0.00     0.021 A 
ATOM     13  C   UNL     1     108.767  47.520 139.283  1.00  0.00     0.016 A 
ATOM     14  C   UNL     1     108.389  48.769 139.785  1.00  0.00     0.047 A 
ATOM     15  C   UNL     1     107.054  49.013 140.130  1.00  0.00     0.115 A 
ATOM     16  C   UNL     1     106.475  46.755 139.465  1.00  0.00     0.016 A 
ATOM     17  C   UNL     1     106.099  48.005 139.966  1.00  0.00     0.047 A 
BRANCH  15  18
ATOM     18  O   UNL     1     106.665  50.254 140.632  1.00  0.00    -0.508 OA
ATOM     19  H   UNL     1     106.213  50.341 141.534  1.00  0.00     0.293 HD
ENDBRANCH  15  18
ENDBRANCH   1  12
BRANCH   2  20
ATOM     20  O   UNL     1     109.464  44.588 140.565  1.00  0.00    -0.502 OA
ATOM     21  H   UNL     1     109.333  45.501 140.981  1.00  0.00     0.293 HD
ENDBRANCH   2  20
BRANCH   6  22
ATOM     22  O   UNL     1     110.098  40.596 137.097  1.00  0.00    -0.507 OA
ATOM     23  H   UNL     1     111.067  40.795 137.292  1.00  0.00     0.293 HD
ENDBRANCH   6  22
BRANCH   8  24
ATOM     24  O   UNL     1     107.012  41.955 133.677  1.00  0.00    -0.508 OA
ATOM     25  H   UNL     1     106.004  41.886 133.601  1.00  0.00     0.293 HD
ENDBRANCH   8  24
TORSDOF 5
ENDMDL
MODEL 2
REMARK VINA RESULT:    -6.236      3.852      6.049
REMARK INTER + INTRA:          -7.530
REMARK INTER:                  -7.239
REMARK INTRA:                  -0.291
REMARK UNBOUND:                -0.200
REMARK SMILES O=c1c(O)c(-c2ccc(O)cc2)oc2cc(O)cc(O)c12
REMARK SMILES IDX 5 1 3 2 2 3 1 4 21 5 19 6 18 7 16 8 15 9 14 10 13 11 6 12
REMARK SMILES IDX 7 13 8 14 9 15 12 16 11 17 10 18 4 20 20 22 17 24
REMARK H PARENT 10 19 4 21 20 23 17 25
REMARK Flexibility Score: inf
ROOT
ATOM      1  C   UNL     1     105.579  42.409 135.996  1.00  0.00     0.180 A 
ATOM      2  C   UNL     1     106.483  41.902 135.048  1.00  0.00     0.208 A 
ATOM      3  C   UNL     1     107.749  41.470 135.477  1.00  0.00     0.238 A 
ATOM      4  O   UNL     1     108.574  41.067 134.615  1.00  0.00    -0.285 OA
ATOM      5  C   UNL     1     108.087  41.535 136.850  1.00  0.00     0.111 A 
ATOM      6  C   UNL     1     109.326  41.087 137.402  1.00  0.00     0.134 A 
ATOM      7  C   UNL     1     109.604  41.319 138.754  1.00  0.00     0.093 A 
ATOM      8  C   UNL     1     108.661  41.924 139.589  1.00  0.00     0.123 A 
ATOM      9  C   UNL     1     107.427  42.311 139.074  1.00  0.00     0.094 A 
ATOM     10  C   UNL     1     107.135  42.126 137.720  1.00  0.00     0.146 A 
ATOM     11  O   UNL     1     105.950  42.519 137.267  1.00  0.00    -0.452 OA
ENDROOT
BRANCH   1  12
ATOM     12  C   UNL     1     104.219  42.862 135.625  1.00  0.00     0.021 A 
ATOM     13  C   UNL     1     103.113  41.995 135.697  1.00  0.00     0.016 A 
ATOM     14  C   UNL     1     101.834  42.450 135.364  1.00  0.00     0.047 A 
ATOM     15  C   UNL     1     101.641  43.780 134.971  1.00  0.00     0.115 A 
ATOM     16  C   UNL     1     104.013  44.200 135.250  1.00  0.00     0.016 A 
ATOM     17  C   UNL     1     102.732  44.653 134.918  1.00  0.00     0.047 A 
BRANCH  15  18
ATOM     18  O   UNL     1     100.371  44.246 134.637  1.00  0.00    -0.508 OA
ATOM     19  H   UNL     1     100.057  44.283 133.674  1.00  0.00     0.293 HD
ENDBRANCH  15  18
ENDBRANCH   1  12
BRANCH   2  20
ATOM     20  O   UNL     1     106.138  41.868 133.694  1.00  0.00    -0.502 OA
ATOM     21  H   UNL     1     105.580  42.590 133.256  1.00  0.00     0.293 HD
ENDBRANCH   2  20
BRANCH   6  22
ATOM     22  O   UNL     1     110.296  40.389 136.675  1.00  0.00    -0.507 OA
ATOM     23  H   UNL     1     111.189  40.768 136.398  1.00  0.00     0.293 HD
ENDBRANCH   6  22
BRANCH   8  24
ATOM     24  O   UNL     1     108.940  42.138 140.938  1.00  0.00    -0.508 OA
ATOM     25  H   UNL     1     108.477  41.606 141.665  1.00  0.00     0.293 HD
ENDBRANCH   8  24
TORSDOF 5
ENDMDL
MODEL 3
REMARK VINA RESULT:    -6.051      1.470      3.165
REMARK INTER + INTRA:          -7.313
REMARK INTER:                  -7.042
REMARK INTRA:                  -0.271
REMARK UNBOUND:                -0.200
REMARK SMILES O=c1c(O)c(-c2ccc(O)cc2)oc2cc(O)cc(O)c12
REMARK SMILES IDX 5 1 3 2 2 3 1 4 21 5 19 6 18 7 16 8 15 9 14 10 13 11 6 12
REMARK SMILES IDX 7 13 8 14 9 15 12 16 11 17 10 18 4 20 20 22 17 24
REMARK H PARENT 10 19 4 21 20 23 17 25
REMARK Flexibility Score: inf
ROOT
ATOM      1  C   UNL     1     108.025  44.904 137.399  1.00  0.00     0.180 A 
ATOM      2  C   UNL     1     107.854  44.873 136.005  1.00  0.00     0.208 A 
ATOM      3  C   UNL     1     107.936  43.642 135.336  1.00  0.00     0.238 A 
ATOM      4  O   UNL     1     107.836  43.628 134.081  1.00  0.00    -0.285 OA
ATOM      5  C   UNL     1     108.171  42.455 136.071  1.00  0.00     0.111 A 
ATOM      6  C   UNL     1     108.233  41.147 135.501  1.00  0.00     0.134 A 
ATOM      7  C   UNL     1     108.600  40.061 136.304  1.00  0.00     0.093 A 
ATOM      8  C   UNL     1     108.844  40.225 137.670  1.00  0.00     0.123 A 
ATOM      9  C   UNL     1     108.729  41.487 138.247  1.00  0.00     0.094 A 
ATOM     10  C   UNL     1     108.400  42.596 137.465  1.00  0.00     0.146 A 
ATOM     11  O   UNL     1     108.310  43.784 138.052  1.00  0.00    -0.452 OA
ENDROOT
BRANCH   1  12
ATOM     12  C   UNL     1     107.929  46.160 138.178  1.00  0.00     0.021 A 
ATOM     13  C   UNL     1     106.683  46.722 138.512  1.00  0.00     0.016 A 
ATOM     14  C   UNL     1     106.616  47.896 139.269  1.00  0.00     0.047 A 
ATOM     15  C   UNL     1     107.791  48.515 139.713  1.00  0.00     0.115 A 
ATOM     16  C   UNL     1     109.102  46.777 138.645  1.00  0.00     0.016 A 
ATOM     17  C   UNL     1     109.033  47.950 139.402  1.00  0.00     0.047 A 
BRANCH  15  18
ATOM     18  O   UNL     1     107.738  49.685 140.467  1.00  0.00    -0.508 OA
ATOM     19  H   UNL     1     107.996  50.582 140.071  1.00  0.00     0.293 HD
ENDBRANCH  15  18
ENDBRANCH   1  12
BRANCH   2  20
ATOM     20  O   UNL     1     107.646  46.060 135.295  1.00  0.00    -0.502 OA
ATOM     21  H   UNL     1     108.346  46.456 134.681  1.00  0.00     0.293 HD
ENDBRANCH   2  20
BRANCH   6  22
ATOM     22  O   UNL     1     107.918  40.861 134.169  1.00  0.00    -0.507 OA
ATOM     23  H   UNL     1     108.319  40.107 133.633  1.00  0.00     0.293 HD
ENDBRANCH   6  22
BRANCH   8  24
ATOM     24  O   UNL     1     109.195  39.135 138.466  1.00  0.00    -0.508 OA
ATOM     25  H   UNL     1     108.861  38.201 138.260  1.00  0.00     0.293 HD
ENDBRANCH   8  24
TORSDOF 5
ENDMDL
MODEL 4
REMARK VINA RESULT:    -5.941      5.696     10.820
REMARK INTER + INTRA:          -7.183
REMARK INTER:                  -7.023
REMARK INTRA:                  -0.161
REMARK UNBOUND:                -0.200
REMARK SMILES O=c1c(O)c(-c2ccc(O)cc2)oc2cc(O)cc(O)c12
REMARK SMILES IDX 5 1 3 2 2 3 1 4 21 5 19 6 18 7 16 8 15 9 14 10 13 11 6 12
REMARK SMILES IDX 7 13 8 14 9 15 12 16 11 17 10 18 4 20 20 22 17 24
REMARK H PARENT 10 19 4 21 20 23 17 25
REMARK Flexibility Score: inf
ROOT
ATOM      1  C   UNL     1     106.470  52.839 138.586  1.00  0.00     0.180 A 
ATOM      2  C   UNL     1     107.200  53.768 137.826  1.00  0.00     0.208 A 
ATOM      3  C   UNL     1     106.567  54.946 137.399  1.00  0.00     0.238 A 
ATOM      4  O   UNL     1     107.211  55.749 136.672  1.00  0.00    -0.285 OA
ATOM      5  C   UNL     1     105.218  55.188 137.751  1.00  0.00     0.111 A 
ATOM      6  C   UNL     1     104.489  56.367 137.407  1.00  0.00     0.134 A 
ATOM      7  C   UNL     1     103.122  56.442 137.696  1.00  0.00     0.093 A 
ATOM      8  C   UNL     1     102.471  55.409 138.375  1.00  0.00     0.123 A 
ATOM      9  C   UNL     1     103.186  54.281 138.767  1.00  0.00     0.094 A 
ATOM     10  C   UNL     1     104.544  54.161 138.461  1.00  0.00     0.146 A 
ATOM     11  O   UNL     1     105.187  53.064 138.844  1.00  0.00    -0.452 OA
ENDROOT
BRANCH   1  12
ATOM     12  C   UNL     1     107.075  51.586 139.093  1.00  0.00     0.021 A 
ATOM     13  C   UNL     1     108.118  51.605 140.037  1.00  0.00     0.016 A 
ATOM     14  C   UNL     1     108.658  50.409 140.519  1.00  0.00     0.047 A 
ATOM     15  C   UNL     1     108.152  49.180 140.077  1.00  0.00     0.115 A 
ATOM     16  C   UNL     1     106.560  50.348 138.670  1.00  0.00     0.016 A 
ATOM     17  C   UNL     1     107.101  49.154 139.155  1.00  0.00     0.047 A 
BRANCH  15  18
ATOM     18  O   UNL     1     108.682  47.981 140.550  1.00  0.00    -0.508 OA
ATOM     19  H   UNL     1     108.610  47.123 140.016  1.00  0.00     0.293 HD
ENDBRANCH  15  18
ENDBRANCH   1  12
BRANCH   2  20
ATOM     20  O   UNL     1     108.525  53.499 137.469  1.00  0.00    -0.502 OA
ATOM     21  H   UNL     1     109.313  53.839 138.005  1.00  0.00     0.293 HD
ENDBRANCH   2  20
BRANCH   6  22
ATOM     22  O   UNL     1     105.065  57.493 136.810  1.00  0.00    -0.507 OA
ATOM     23  H   UNL     1     104.666  58.420 136.828  1.00  0.00     0.293 HD
ENDBRANCH   6  22
BRANCH   8  24
ATOM     24  O   UNL     1     101.112  55.499 138.672  1.00  0.00    -0.508 OA
ATOM     25  H   UNL     1     100.405  55.346 137.963  1.00  0.00     0.293 HD
ENDBRANCH   8  24
TORSDOF 5
ENDMDL
MODEL 5
REMARK VINA RESULT:    -5.650      3.140      5.467
REMARK INTER + INTRA:          -6.841
REMARK INTER:                  -6.718
REMARK INTRA:                  -0.124
REMARK UNBOUND:                -0.200
REMARK SMILES O=c1c(O)c(-c2ccc(O)cc2)oc2cc(O)cc(O)c12
REMARK SMILES IDX 5 1 3 2 2 3 1 4 21 5 19 6 18 7 16 8 15 9 14 10 13 11 6 12
REMARK SMILES IDX 7 13 8 14 9 15 12 16 11 17 10 18 4 20 20 22 17 24
REMARK H PARENT 10 19 4 21 20 23 17 25
REMARK Flexibility Score: inf
ROOT
ATOM      1  C   UNL     1     105.723  43.999 136.089  1.00  0.00     0.180 A 
ATOM      2  C   UNL     1     106.440  43.046 135.346  1.00  0.00     0.208 A 
ATOM      3  C   UNL     1     107.621  42.511 135.885  1.00  0.00     0.238 A 
ATOM      4  O   UNL     1     108.288  41.698 135.192  1.00  0.00    -0.285 OA
ATOM      5  C   UNL     1     108.061  42.923 137.166  1.00  0.00     0.111 A 
ATOM      6  C   UNL     1     109.222  42.417 137.826  1.00  0.00     0.134 A 
ATOM      7  C   UNL     1     109.634  42.991 139.035  1.00  0.00     0.093 A 
ATOM      8  C   UNL     1     108.891  44.009 139.639  1.00  0.00     0.123 A 
ATOM      9  C   UNL     1     107.726  44.469 139.032  1.00  0.00     0.094 A 
ATOM     10  C   UNL     1     107.308  43.940 137.808  1.00  0.00     0.146 A 
ATOM     11  O   UNL     1     106.196  44.414 137.258  1.00  0.00    -0.452 OA
ENDROOT
BRANCH   1  12
ATOM     12  C   UNL     1     104.457  44.591 135.599  1.00  0.00     0.021 A 
ATOM     13  C   UNL     1     104.364  45.957 135.276  1.00  0.00     0.016 A 
ATOM     14  C   UNL     1     103.164  46.490 134.792  1.00  0.00     0.047 A 
ATOM     15  C   UNL     1     102.050  45.662 134.611  1.00  0.00     0.115 A 
ATOM     16  C   UNL     1     103.340  43.764 135.394  1.00  0.00     0.016 A 
ATOM     17  C   UNL     1     102.142  44.298 134.910  1.00  0.00     0.047 A 
BRANCH  15  18
ATOM     18  O   UNL     1     100.850  46.180 134.130  1.00  0.00    -0.508 OA
ATOM     19  H   UNL     1     100.039  45.590 133.984  1.00  0.00     0.293 HD
ENDBRANCH  15  18
ENDBRANCH   1  12
BRANCH   2  20
ATOM     20  O   UNL     1     106.001  42.669 134.074  1.00  0.00    -0.502 OA
ATOM     21  H   UNL     1     105.654  41.741 133.870  1.00  0.00     0.293 HD
ENDBRANCH   2  20
BRANCH   6  22
ATOM     22  O   UNL     1     109.981  41.342 137.354  1.00  0.00    -0.507 OA
ATOM     23  H   UNL     1     110.629  40.807 137.913  1.00  0.00     0.293 HD
ENDBRANCH   6  22
BRANCH   8  24
ATOM     24  O   UNL     1     109.301  44.565 140.850  1.00  0.00    -0.508 OA
ATOM     25  H   UNL     1     109.537  45.547 140.928  1.00  0.00     0.293 HD
ENDBRANCH   8  24
TORSDOF 5
ENDMDL
MODEL 6
REMARK VINA RESULT:    -5.622      8.659     10.223
REMARK INTER + INTRA:          -6.808
REMARK INTER:                  -6.523
REMARK INTRA:                  -0.286
REMARK UNBOUND:                -0.200
REMARK SMILES O=c1c(O)c(-c2ccc(O)cc2)oc2cc(O)cc(O)c12
REMARK SMILES IDX 5 1 3 2 2 3 1 4 21 5 19 6 18 7 16 8 15 9 14 10 13 11 6 12
REMARK SMILES IDX 7 13 8 14 9 15 12 16 11 17 10 18 4 20 20 22 17 24
REMARK H PARENT 10 19 4 21 20 23 17 25
REMARK Flexibility Score: inf
ROOT
ATOM      1  C   UNL     1     101.049  48.869 132.496  1.00  0.00     0.180 A 
ATOM      2  C   UNL     1     100.276  47.737 132.191  1.00  0.00     0.208 A 
ATOM      3  C   UNL     1     100.585  46.514 132.808  1.00  0.00     0.238 A 
ATOM      4  O   UNL     1      99.922  45.492 132.490  1.00  0.00    -0.285 OA
ATOM      5  C   UNL     1     101.652  46.444 133.735  1.00  0.00     0.111 A 
ATOM      6  C   UNL     1     102.028  45.266 134.451  1.00  0.00     0.134 A 
ATOM      7  C   UNL     1     103.181  45.279 135.244  1.00  0.00     0.093 A 
ATOM      8  C   UNL     1     103.935  46.445 135.400  1.00  0.00     0.123 A 
ATOM      9  C   UNL     1     103.544  47.614 134.753  1.00  0.00     0.094 A 
ATOM     10  C   UNL     1     102.418  47.623 133.925  1.00  0.00     0.146 A 
ATOM     11  O   UNL     1     102.085  48.756 133.319  1.00  0.00    -0.452 OA
ENDROOT
BRANCH   1  12
ATOM     12  C   UNL     1     100.770  50.198 131.904  1.00  0.00     0.021 A 
ATOM     13  C   UNL     1      99.982  51.149 132.577  1.00  0.00     0.016 A 
ATOM     14  C   UNL     1      99.752  52.406 132.010  1.00  0.00     0.047 A 
ATOM     15  C   UNL     1     100.317  52.733 130.771  1.00  0.00     0.115 A 
ATOM     16  C   UNL     1     101.350  50.542 130.671  1.00  0.00     0.016 A 
ATOM     17  C   UNL     1     101.118  51.800 130.106  1.00  0.00     0.047 A 
BRANCH  15  18
ATOM     18  O   UNL     1     100.094  53.982 130.195  1.00  0.00    -0.508 OA
ATOM     19  H   UNL     1      99.721  54.074 129.258  1.00  0.00     0.293 HD
ENDBRANCH  15  18
ENDBRANCH   1  12
BRANCH   2  20
ATOM     20  O   UNL     1      99.241  47.823 131.255  1.00  0.00    -0.502 OA
ATOM     21  H   UNL     1      98.609  47.054 131.070  1.00  0.00     0.293 HD
ENDBRANCH   2  20
BRANCH   6  22
ATOM     22  O   UNL     1     101.292  44.077 134.438  1.00  0.00    -0.507 OA
ATOM     23  H   UNL     1     100.295  44.020 134.290  1.00  0.00     0.293 HD
ENDBRANCH   6  22
BRANCH   8  24
ATOM     24  O   UNL     1     105.074  46.453 136.204  1.00  0.00    -0.508 OA
ATOM     25  H   UNL     1     105.229  45.742 136.909  1.00  0.00     0.293 HD
ENDBRANCH   8  24
TORSDOF 5
ENDMDL
MODEL 7
REMARK VINA RESULT:    -5.511      4.197      7.184
REMARK INTER + INTRA:          -6.678
REMARK INTER:                  -6.377
REMARK INTRA:                  -0.301
REMARK UNBOUND:                -0.200
REMARK SMILES O=c1c(O)c(-c2ccc(O)cc2)oc2cc(O)cc(O)c12
REMARK SMILES IDX 5 1 3 2 2 3 1 4 21 5 19 6 18 7 16 8 15 9 14 10 13 11 6 12
REMARK SMILES IDX 7 13 8 14 9 15 12 16 11 17 10 18 4 20 20 22 17 24
REMARK H PARENT 10 19 4 21 20 23 17 25
REMARK Flexibility Score: inf
ROOT
ATOM      1  C   UNL     1     105.486  43.839 135.716  1.00  0.00     0.180 A 
ATOM      2  C   UNL     1     105.451  45.241 135.647  1.00  0.00     0.208 A 
ATOM      3  C   UNL     1     104.217  45.883 135.450  1.00  0.00     0.238 A 
ATOM      4  O   UNL     1     104.200  47.137 135.335  1.00  0.00    -0.285 OA
ATOM      5  C   UNL     1     103.034  45.115 135.342  1.00  0.00     0.111 A 
ATOM      6  C   UNL     1     101.724  45.661 135.182  1.00  0.00     0.134 A 
ATOM      7  C   UNL     1     100.641  44.804 134.956  1.00  0.00     0.093 A 
ATOM      8  C   UNL     1     100.809  43.417 134.948  1.00  0.00     0.123 A 
ATOM      9  C   UNL     1     102.072  42.872 135.162  1.00  0.00     0.094 A 
ATOM     10  C   UNL     1     103.179  43.703 135.355  1.00  0.00     0.146 A 
ATOM     11  O   UNL     1     104.368  43.143 135.545  1.00  0.00    -0.452 OA
ENDROOT
BRANCH   1  12
ATOM     12  C   UNL     1     106.744  43.092 135.946  1.00  0.00     0.021 A 
ATOM     13  C   UNL     1     107.189  42.787 137.245  1.00  0.00     0.016 A 
ATOM     14  C   UNL     1     108.368  42.060 137.438  1.00  0.00     0.047 A 
ATOM     15  C   UNL     1     109.108  41.616 136.335  1.00  0.00     0.115 A 
ATOM     16  C   UNL     1     107.483  42.625 134.845  1.00  0.00     0.016 A 
ATOM     17  C   UNL     1     108.661  41.898 135.040  1.00  0.00     0.047 A 
BRANCH  15  18
ATOM     18  O   UNL     1     110.284  40.891 136.514  1.00  0.00    -0.508 OA
ATOM     19  H   UNL     1     110.738  40.833 137.418  1.00  0.00     0.293 HD
ENDBRANCH  15  18
ENDBRANCH   1  12
BRANCH   2  20
ATOM     20  O   UNL     1     106.635  45.980 135.733  1.00  0.00    -0.502 OA
ATOM     21  H   UNL     1     107.173  46.048 136.586  1.00  0.00     0.293 HD
ENDBRANCH   2  20
BRANCH   6  22
ATOM     22  O   UNL     1     101.433  47.027 135.265  1.00  0.00    -0.507 OA
ATOM     23  H   UNL     1     100.525  47.409 135.482  1.00  0.00     0.293 HD
ENDBRANCH   6  22
BRANCH   8  24
ATOM     24  O   UNL     1      99.723  42.570 134.737  1.00  0.00    -0.508 OA
ATOM     25  H   UNL     1      99.851  41.587 134.528  1.00  0.00     0.293 HD
ENDBRANCH   8  24
TORSDOF 5
ENDMDL
MODEL 8
REMARK VINA RESULT:    -5.491      4.112      5.630
REMARK INTER + INTRA:          -6.654
REMARK INTER:                  -6.448
REMARK INTRA:                  -0.206
REMARK UNBOUND:                -0.200
REMARK SMILES O=c1c(O)c(-c2ccc(O)cc2)oc2cc(O)cc(O)c12
REMARK SMILES IDX 5 1 3 2 2 3 1 4 21 5 19 6 18 7 16 8 15 9 14 10 13 11 6 12
REMARK SMILES IDX 7 13 8 14 9 15 12 16 11 17 10 18 4 20 20 22 17 24
REMARK H PARENT 10 19 4 21 20 23 17 25
REMARK Flexibility Score: inf
ROOT
ATOM      1  C   UNL     1     104.488  44.547 135.479  1.00  0.00     0.180 A 
ATOM      2  C   UNL     1     105.084  45.047 136.649  1.00  0.00     0.208 A 
ATOM      3  C   UNL     1     106.337  44.548 137.042  1.00  0.00     0.238 A 
ATOM      4  O   UNL     1     106.841  44.960 138.120  1.00  0.00    -0.285 OA
ATOM      5  C   UNL     1     106.984  43.568 136.251  1.00  0.00     0.111 A 
ATOM      6  C   UNL     1     108.273  43.022 136.533  1.00  0.00     0.134 A 
ATOM      7  C   UNL     1     108.759  41.964 135.755  1.00  0.00     0.093 A 
ATOM      8  C   UNL     1     108.032  41.478 134.666  1.00  0.00     0.123 A 
ATOM      9  C   UNL     1     106.801  42.044 134.347  1.00  0.00     0.094 A 
ATOM     10  C   UNL     1     106.272  43.076 135.127  1.00  0.00     0.146 A 
ATOM     11  O   UNL     1     105.090  43.581 134.795  1.00  0.00    -0.452 OA
ENDROOT
BRANCH   1  12
ATOM     12  C   UNL     1     103.181  45.041 134.988  1.00  0.00     0.021 A 
ATOM     13  C   UNL     1     103.038  46.339 134.464  1.00  0.00     0.016 A 
ATOM     14  C   UNL     1     101.800  46.775 133.983  1.00  0.00     0.047 A 
ATOM     15  C   UNL     1     100.694  45.916 134.006  1.00  0.00     0.115 A 
ATOM     16  C   UNL     1     102.071  44.179 134.988  1.00  0.00     0.016 A 
ATOM     17  C   UNL     1     100.835  44.618 134.506  1.00  0.00     0.047 A 
BRANCH  15  18
ATOM     18  O   UNL     1      99.455  46.340 133.530  1.00  0.00    -0.508 OA
ATOM     19  H   UNL     1      99.143  47.297 133.645  1.00  0.00     0.293 HD
ENDBRANCH  15  18
ENDBRANCH   1  12
BRANCH   2  20
ATOM     20  O   UNL     1     104.418  45.997 137.428  1.00  0.00    -0.502 OA
ATOM     21  H   UNL     1     103.433  45.928 137.646  1.00  0.00     0.293 HD
ENDBRANCH   2  20
BRANCH   6  22
ATOM     22  O   UNL     1     109.119  43.497 137.539  1.00  0.00    -0.507 OA
ATOM     23  H   UNL     1     108.840  44.130 138.273  1.00  0.00     0.293 HD
ENDBRANCH   6  22
BRANCH   8  24
ATOM     24  O   UNL     1     108.530  40.434 133.887  1.00  0.00    -0.508 OA
ATOM     25  H   UNL     1     109.331  40.563 133.280  1.00  0.00     0.293 HD
ENDBRANCH   8  24
TORSDOF 5
ENDMDL
MODEL 9
REMARK VINA RESULT:    -5.486      1.731      7.026
REMARK INTER + INTRA:          -6.648
REMARK INTER:                  -6.494
REMARK INTRA:                  -0.154
REMARK UNBOUND:                -0.200
REMARK SMILES O=c1c(O)c(-c2ccc(O)cc2)oc2cc(O)cc(O)c12
REMARK SMILES IDX 5 1 3 2 2 3 1 4 21 5 19 6 18 7 16 8 15 9 14 10 13 11 6 12
REMARK SMILES IDX 7 13 8 14 9 15 12 16 11 17 10 18 4 20 20 22 17 24
REMARK H PARENT 10 19 4 21 20 23 17 25
REMARK Flexibility Score: inf
ROOT
ATOM      1  C   UNL     1     107.411  44.873 137.881  1.00  0.00     0.180 A 
ATOM      2  C   UNL     1     106.026  45.021 137.696  1.00  0.00     0.208 A 
ATOM      3  C   UNL     1     105.421  46.242 138.033  1.00  0.00     0.238 A 
ATOM      4  O   UNL     1     104.171  46.350 137.915  1.00  0.00    -0.285 OA
ATOM      5  C   UNL     1     106.209  47.304 138.535  1.00  0.00     0.111 A 
ATOM      6  C   UNL     1     105.708  48.598 138.871  1.00  0.00     0.134 A 
ATOM      7  C   UNL     1     106.555  49.530 139.482  1.00  0.00     0.093 A 
ATOM      8  C   UNL     1     107.902  49.238 139.710  1.00  0.00     0.123 A 
ATOM      9  C   UNL     1     108.415  48.001 139.332  1.00  0.00     0.094 A 
ATOM     10  C   UNL     1     107.586  47.036 138.753  1.00  0.00     0.146 A 
ATOM     11  O   UNL     1     108.113  45.865 138.417  1.00  0.00    -0.452 OA
ENDROOT
BRANCH   1  12
ATOM     12  C   UNL     1     108.125  43.625 137.527  1.00  0.00     0.021 A 
ATOM     13  C   UNL     1     108.198  43.175 136.196  1.00  0.00     0.016 A 
ATOM     14  C   UNL     1     108.899  42.006 135.882  1.00  0.00     0.047 A 
ATOM     15  C   UNL     1     109.545  41.281 136.890  1.00  0.00     0.115 A 
ATOM     16  C   UNL     1     108.794  42.901 138.529  1.00  0.00     0.016 A 
ATOM     17  C   UNL     1     109.493  41.733 138.212  1.00  0.00     0.047 A 
BRANCH  15  18
ATOM     18  O   UNL     1     110.245  40.114 136.589  1.00  0.00    -0.508 OA
ATOM     19  H   UNL     1     110.850  40.054 135.778  1.00  0.00     0.293 HD
ENDBRANCH  15  18
ENDBRANCH   1  12
BRANCH   2  20
ATOM     20  O   UNL     1     105.261  43.952 137.220  1.00  0.00    -0.502 OA
ATOM     21  H   UNL     1     104.288  44.051 136.963  1.00  0.00     0.293 HD
ENDBRANCH   2  20
BRANCH   6  22
ATOM     22  O   UNL     1     104.403  49.023 138.601  1.00  0.00    -0.507 OA
ATOM     23  H   UNL     1     103.888  49.688 139.159  1.00  0.00     0.293 HD
ENDBRANCH   6  22
BRANCH   8  24
ATOM     24  O   UNL     1     108.742  50.177 140.305  1.00  0.00    -0.508 OA
ATOM     25  H   UNL     1     109.625  49.908 140.723  1.00  0.00     0.293 HD
ENDBRANCH   8  24
TORSDOF 5
ENDMDL
