MODEL 1
REMARK VINA RESULT:    26.950      0.000      0.000
REMARK INTER + INTRA:          65.071
REMARK INTER:                  56.884
REMARK INTRA:                   8.187
REMARK UNBOUND:                 8.187
REMARK SMILES CCC(=O)CCCCC[C@@H]1NC(=O)[C@H]2CCCCN2C(=O)[C@H]([C@H](C)CC)NC(=O)[C@@H](Cc2cn(OC)c3ccccc23)NC1=O
REMARK SMILES IDX 9 1 10 2 44 3 43 4 45 6 30 7 28 8 27 9 29 11 22 12 23 14
REMARK SMILES IDX 24 15 25 16 26 17 31 18 32 19 33 20 42 21 34 22 37 23 41 24
REMARK SMILES IDX 38 25 40 26 39 27 35 28 36 29 11 30 12 31 13 33 14 34 19 35
REMARK SMILES IDX 15 36 18 37 16 38 17 39 20 40 21 41 8 43 7 44 6 45 5 46 3 47
REMARK SMILES IDX 4 48 2 49 1 50
REMARK H PARENT 43 5 27 10 11 32
REMARK Flexibility Score: 80.00
ROOT
ATOM      1  C   UNL     1     -19.846  -3.840   7.806  1.00  0.00     0.035 C 
ENDROOT
BRANCH   1   2
ATOM      2  C   UNL     1     -19.715  -2.565   8.667  1.00  0.00     0.171 C 
BRANCH   2   3
ATOM      3  C   UNL     1     -20.139  -1.338   7.908  1.00  0.00     0.243 C 
ATOM      4  N   UNL     1     -19.910  -0.031   8.453  1.00  0.00    -0.342 N 
ATOM      5  H   UNL     1     -19.190   0.071   9.204  1.00  0.00     0.164 HD
ATOM      6  O   UNL     1     -20.754  -1.464   6.814  1.00  0.00    -0.273 OA
BRANCH   4   7
ATOM      7  C   UNL     1     -20.949   0.992   8.362  1.00  0.00     0.175 C 
BRANCH   7   8
ATOM      8  C   UNL     1     -21.237   1.486   9.754  1.00  0.00     0.243 C 
ATOM      9  N   UNL     1     -21.053   0.602  10.866  1.00  0.00    -0.342 N 
ATOM     10  H   UNL     1     -20.962  -0.421  10.676  1.00  0.00     0.164 HD
ATOM     11  O   UNL     1     -21.497   2.705   9.948  1.00  0.00    -0.273 OA
BRANCH   9  12
ATOM     12  C   UNL     1     -20.973   1.087  12.247  1.00  0.00     0.174 CG0
ATOM     13  G   UNL     1     -20.366   0.014  13.124  1.00  0.00     0.000 G0
BRANCH  12  14
ATOM     14  C   UNL     1     -22.362   1.617  12.708  1.00  0.00     0.018 C 
ATOM     15  C   UNL     1     -22.562   1.478  14.225  1.00  0.00     0.010 C 
BRANCH  14  16
ATOM     16  C   UNL     1     -23.568   1.104  11.871  1.00  0.00     0.002 C 
ATOM     17  C   UNL     1     -24.635   2.153  11.542  1.00  0.00     0.004 C 
ENDBRANCH  14  16
ENDBRANCH  12  14
ENDBRANCH   9  12
ENDBRANCH   7   8
BRANCH   7  18
ATOM     18  C   UNL     1     -20.516   2.125   7.411  1.00  0.00     0.073 C 
BRANCH  18  19
ATOM     19  C   UNL     1     -20.597   3.461   8.096  1.00  0.00    -0.016 A 
ATOM     20  C   UNL     1     -19.536   4.344   8.284  1.00  0.00     0.134 A 
ATOM     21  C   UNL     1     -21.730   4.131   8.534  1.00  0.00     0.006 A 
ATOM     22  N   UNL     1     -19.992   5.500   8.825  1.00  0.00    -0.191 N 
ATOM     23  C   UNL     1     -21.320   5.367   8.970  1.00  0.00     0.087 A 
ATOM     24  C   UNL     1     -23.075   3.754   8.566  1.00  0.00     0.011 A 
ATOM     25  C   UNL     1     -22.223   6.312   9.456  1.00  0.00     0.030 A 
ATOM     26  C   UNL     1     -24.008   4.689   9.052  1.00  0.00     0.001 A 
ATOM     27  C   UNL     1     -23.585   5.961   9.495  1.00  0.00     0.002 A 
BRANCH  22  28
ATOM     28  O   UNL     1     -19.257   6.625   9.150  1.00  0.00    -0.417 OA
ATOM     29  C   UNL     1     -18.528   6.732  10.365  1.00  0.00     0.313 C 
ENDBRANCH  22  28
ENDBRANCH  18  19
ENDBRANCH   7  18
ENDBRANCH   4   7
ENDBRANCH   2   3
BRANCH   2  30
ATOM     30  N   UNL     1     -20.550  -2.690   9.867  1.00  0.00    -0.343 N 
ATOM     31  C   UNL     1     -20.283  -1.955  11.074  1.00  0.00     0.243 C 
ATOM     32  H   UNL     1     -21.432  -3.251   9.808  1.00  0.00     0.164 HD
ATOM     33  O   UNL     1     -19.283  -1.190  11.139  1.00  0.00    -0.273 OA
BRANCH  31  34
ATOM     34  C   UNL     1     -21.164  -2.145  12.291  1.00  0.00     0.174 C 
ATOM     35  N   UNL     1     -20.796  -1.267  13.426  1.00  0.00    -0.329 N 
ATOM     36  C   UNL     1     -21.115  -3.623  12.724  1.00  0.00     0.035 C 
ATOM     37  C   UNL     1     -21.531  -1.473  14.681  1.00  0.00     0.120 C 
ATOM     38  C   UNL     1     -21.933  -3.858  13.995  1.00  0.00     0.004 C 
ATOM     39  C   UNL     1     -21.449  -2.937  15.117  1.00  0.00     0.022 C 
BRANCH  35  40
ATOM     40  C   UNL     1     -20.306   0.065  13.186  1.00  0.00     0.246 CG0
ATOM     41  O   UNL     1     -19.285   0.468  13.803  1.00  0.00    -0.272 OA
ATOM     42  G   UNL     1     -21.023   0.984  12.222  1.00  0.00     0.000 G0
ENDBRANCH  35  40
ENDBRANCH  31  34
ENDBRANCH   2  30
ENDBRANCH   1   2
BRANCH   1  43
ATOM     43  C   UNL     1     -18.808  -4.937   8.124  1.00  0.00     0.003 C 
BRANCH  43  44
ATOM     44  C   UNL     1     -19.379  -6.245   8.708  1.00  0.00     0.001 C 
BRANCH  44  45
ATOM     45  C   UNL     1     -20.834  -6.572   8.316  1.00  0.00     0.008 C 
BRANCH  45  46
ATOM     46  C   UNL     1     -21.838  -6.441   9.474  1.00  0.00     0.075 C 
BRANCH  46  47
ATOM     47  C   UNL     1     -23.207  -6.961   9.126  1.00  0.00     0.132 C 
ATOM     48  O   UNL     1     -24.195  -6.449   9.626  1.00  0.00    -0.300 OA
BRANCH  47  49
ATOM     49  C   UNL     1     -23.368  -8.173   8.247  1.00  0.00     0.072 C 
ATOM     50  C   UNL     1     -24.845  -8.460   8.000  1.00  0.00     0.012 C 
ENDBRANCH  47  49
ENDBRANCH  46  47
ENDBRANCH  45  46
ENDBRANCH  44  45
ENDBRANCH  43  44
ENDBRANCH   1  43
TORSDOF 12
ENDMDL
MODEL 2
REMARK VINA RESULT:    27.023      2.400      6.624
REMARK INTER + INTRA:          65.227
REMARK INTER:                  62.052
REMARK INTRA:                   3.174
REMARK UNBOUND:                 8.187
REMARK SMILES CCC(=O)CCCCC[C@@H]1NC(=O)[C@H]2CCCCN2C(=O)[C@H]([C@H](C)CC)NC(=O)[C@@H](Cc2cn(OC)c3ccccc23)NC1=O
REMARK SMILES IDX 9 1 10 2 44 3 43 4 45 6 30 7 28 8 27 9 29 11 22 12 23 14
REMARK SMILES IDX 24 15 25 16 26 17 31 18 32 19 33 20 42 21 34 22 37 23 41 24
REMARK SMILES IDX 38 25 40 26 39 27 35 28 36 29 11 30 12 31 13 33 14 34 19 35
REMARK SMILES IDX 15 36 18 37 16 38 17 39 20 40 21 41 8 43 7 44 6 45 5 46 3 47
REMARK SMILES IDX 4 48 2 49 1 50
REMARK H PARENT 43 5 27 10 11 32
REMARK Flexibility Score: 80.00
ROOT
ATOM      1  C   UNL     1     -20.643  -2.918  12.973  1.00  0.00     0.035 C 
ENDROOT
BRANCH   1   2
ATOM      2  C   UNL     1     -21.134  -2.430  11.594  1.00  0.00     0.171 C 
BRANCH   2   3
ATOM      3  C   UNL     1     -20.104  -1.575  10.909  1.00  0.00     0.243 C 
ATOM      4  N   UNL     1     -20.478  -0.711   9.827  1.00  0.00    -0.342 N 
ATOM      5  H   UNL     1     -21.487  -0.451   9.729  1.00  0.00     0.164 HD
ATOM      6  O   UNL     1     -18.893  -1.666  11.251  1.00  0.00    -0.273 OA
BRANCH   4   7
ATOM      7  C   UNL     1     -19.633  -0.617   8.639  1.00  0.00     0.175 C 
BRANCH   7   8
ATOM      8  C   UNL     1     -19.781  -1.897   7.862  1.00  0.00     0.243 C 
ATOM      9  N   UNL     1     -19.207  -3.104   8.376  1.00  0.00    -0.342 N 
ATOM     10  H   UNL     1     -18.501  -3.029   9.141  1.00  0.00     0.164 HD
ATOM     11  O   UNL     1     -20.525  -1.931   6.843  1.00  0.00    -0.273 OA
BRANCH   9  12
ATOM     12  C   UNL     1     -19.592  -4.428   7.879  1.00  0.00     0.174 CG0
ATOM     13  G   UNL     1     -20.017  -5.299   9.040  1.00  0.00     0.000 G0
BRANCH  12  14
ATOM     14  C   UNL     1     -18.457  -5.014   6.988  1.00  0.00     0.018 C 
ATOM     15  C   UNL     1     -17.879  -6.315   7.565  1.00  0.00     0.010 C 
BRANCH  14  16
ATOM     16  C   UNL     1     -17.372  -3.987   6.554  1.00  0.00     0.002 C 
ATOM     17  C   UNL     1     -17.459  -3.513   5.099  1.00  0.00     0.004 C 
ENDBRANCH  14  16
ENDBRANCH  12  14
ENDBRANCH   9  12
ENDBRANCH   7   8
BRANCH   7  18
ATOM     18  C   UNL     1     -19.999   0.626   7.806  1.00  0.00     0.073 C 
BRANCH  18  19
ATOM     19  C   UNL     1     -21.035   1.457   8.511  1.00  0.00    -0.016 A 
ATOM     20  C   UNL     1     -22.007   0.977   9.384  1.00  0.00     0.134 A 
ATOM     21  C   UNL     1     -21.139   2.840   8.552  1.00  0.00     0.006 A 
ATOM     22  N   UNL     1     -22.689   2.013   9.929  1.00  0.00    -0.191 N 
ATOM     23  C   UNL     1     -22.157   3.138   9.425  1.00  0.00     0.087 A 
ATOM     24  C   UNL     1     -20.414   3.844   7.906  1.00  0.00     0.011 A 
ATOM     25  C   UNL     1     -22.510   4.455   9.720  1.00  0.00     0.030 A 
ATOM     26  C   UNL     1     -20.750   5.182   8.185  1.00  0.00     0.001 A 
ATOM     27  C   UNL     1     -21.793   5.486   9.087  1.00  0.00     0.002 A 
BRANCH  22  28
ATOM     28  O   UNL     1     -23.720   1.954  10.848  1.00  0.00    -0.417 OA
ATOM     29  C   UNL     1     -25.080   1.829  10.459  1.00  0.00     0.313 C 
ENDBRANCH  22  28
ENDBRANCH  18  19
ENDBRANCH   7  18
ENDBRANCH   4   7
ENDBRANCH   2   3
BRANCH   2  30
ATOM     30  N   UNL     1     -21.436  -3.582  10.738  1.00  0.00    -0.343 N 
ATOM     31  C   UNL     1     -21.745  -4.882  11.271  1.00  0.00     0.243 C 
ATOM     32  H   UNL     1     -21.535  -3.429   9.707  1.00  0.00     0.164 HD
ATOM     33  O   UNL     1     -21.735  -5.071  12.517  1.00  0.00    -0.273 OA
BRANCH  31  34
ATOM     34  C   UNL     1     -22.021  -6.041  10.336  1.00  0.00     0.174 C 
ATOM     35  N   UNL     1     -21.305  -5.937   9.044  1.00  0.00    -0.329 N 
ATOM     36  C   UNL     1     -23.540  -6.147  10.098  1.00  0.00     0.035 C 
ATOM     37  C   UNL     1     -21.611  -6.965   8.040  1.00  0.00     0.120 C 
ATOM     38  C   UNL     1     -23.870  -7.261   9.102  1.00  0.00     0.004 C 
ATOM     39  C   UNL     1     -23.117  -7.040   7.789  1.00  0.00     0.022 C 
BRANCH  35  40
ATOM     40  C   UNL     1     -19.988  -5.362   8.986  1.00  0.00     0.246 CG0
ATOM     41  O   UNL     1     -19.153  -5.638   9.887  1.00  0.00    -0.272 OA
ATOM     42  G   UNL     1     -19.613  -4.415   7.868  1.00  0.00     0.000 G0
ENDBRANCH  35  40
ENDBRANCH  31  34
ENDBRANCH   2  30
ENDBRANCH   1   2
BRANCH   1  43
ATOM     43  C   UNL     1     -19.618  -1.986  13.654  1.00  0.00     0.003 C 
BRANCH  43  44
ATOM     44  C   UNL     1     -20.134  -1.214  14.885  1.00  0.00     0.001 C 
BRANCH  44  45
ATOM     45  C   UNL     1     -21.667  -1.164  15.048  1.00  0.00     0.008 C 
BRANCH  45  46
ATOM     46  C   UNL     1     -22.295   0.179  14.639  1.00  0.00     0.075 C 
BRANCH  46  47
ATOM     47  C   UNL     1     -21.284   1.167  14.121  1.00  0.00     0.132 C 
ATOM     48  O   UNL     1     -20.668   1.871  14.906  1.00  0.00    -0.300 OA
BRANCH  47  49
ATOM     49  C   UNL     1     -21.096   1.370  12.642  1.00  0.00     0.072 C 
ATOM     50  C   UNL     1     -20.434   2.717  12.368  1.00  0.00     0.012 C 
ENDBRANCH  47  49
ENDBRANCH  46  47
ENDBRANCH  45  46
ENDBRANCH  44  45
ENDBRANCH  43  44
ENDBRANCH   1  43
TORSDOF 12
ENDMDL
MODEL 3
REMARK VINA RESULT:    27.968      1.929      4.776
REMARK INTER + INTRA:          67.221
REMARK INTER:                  59.742
REMARK INTRA:                   7.479
REMARK UNBOUND:                 8.187
REMARK SMILES CCC(=O)CCCCC[C@@H]1NC(=O)[C@H]2CCCCN2C(=O)[C@H]([C@H](C)CC)NC(=O)[C@@H](Cc2cn(OC)c3ccccc23)NC1=O
REMARK SMILES IDX 9 1 10 2 44 3 43 4 45 6 30 7 28 8 27 9 29 11 22 12 23 14
REMARK SMILES IDX 24 15 25 16 26 17 31 18 32 19 33 20 42 21 34 22 37 23 41 24
REMARK SMILES IDX 38 25 40 26 39 27 35 28 36 29 11 30 12 31 13 33 14 34 19 35
REMARK SMILES IDX 15 36 18 37 16 38 17 39 20 40 21 41 8 43 7 44 6 45 5 46 3 47
REMARK SMILES IDX 4 48 2 49 1 50
REMARK H PARENT 43 5 27 10 11 32
REMARK Flexibility Score: 80.00
ROOT
ATOM      1  C   UNL     1     -20.968  -2.330  14.145  1.00  0.00     0.035 C 
ENDROOT
BRANCH   1   2
ATOM      2  C   UNL     1     -21.280  -1.667  12.786  1.00  0.00     0.171 C 
BRANCH   2   3
ATOM      3  C   UNL     1     -21.147  -0.171  12.857  1.00  0.00     0.243 C 
ATOM      4  N   UNL     1     -21.657   0.655  11.801  1.00  0.00    -0.342 N 
ATOM      5  H   UNL     1     -22.375   0.248  11.159  1.00  0.00     0.164 HD
ATOM      6  O   UNL     1     -20.529   0.354  13.823  1.00  0.00    -0.273 OA
BRANCH   4   7
ATOM      7  C   UNL     1     -20.873   1.788  11.314  1.00  0.00     0.175 C 
BRANCH   7   8
ATOM      8  C   UNL     1     -20.854   1.727   9.811  1.00  0.00     0.243 C 
ATOM      9  N   UNL     1     -20.027   0.758   9.156  1.00  0.00    -0.342 N 
ATOM     10  H   UNL     1     -19.281   0.286   9.714  1.00  0.00     0.164 HD
ATOM     11  O   UNL     1     -21.666   2.424   9.142  1.00  0.00    -0.273 OA
BRANCH   9  12
ATOM     12  C   UNL     1     -20.206   0.400   7.746  1.00  0.00     0.174 CG0
ATOM     13  G   UNL     1     -20.648  -1.043   7.644  1.00  0.00     0.000 G0
BRANCH  12  14
ATOM     14  C   UNL     1     -18.927   0.763   6.937  1.00  0.00     0.018 C 
ATOM     15  C   UNL     1     -18.799   2.276   6.703  1.00  0.00     0.010 C 
BRANCH  14  16
ATOM     16  C   UNL     1     -18.702  -0.087   5.654  1.00  0.00     0.002 C 
ATOM     17  C   UNL     1     -17.260  -0.133   5.139  1.00  0.00     0.004 C 
ENDBRANCH  14  16
ENDBRANCH  12  14
ENDBRANCH   9  12
ENDBRANCH   7   8
BRANCH   7  18
ATOM     18  C   UNL     1     -21.447   3.116  11.844  1.00  0.00     0.073 C 
BRANCH  18  19
ATOM     19  C   UNL     1     -20.814   4.289  11.150  1.00  0.00    -0.016 A 
ATOM     20  C   UNL     1     -19.564   4.830  11.441  1.00  0.00     0.134 A 
ATOM     21  C   UNL     1     -21.262   4.958  10.019  1.00  0.00     0.006 A 
ATOM     22  N   UNL     1     -19.259   5.795  10.540  1.00  0.00    -0.191 N 
ATOM     23  C   UNL     1     -20.288   5.865   9.680  1.00  0.00     0.087 A 
ATOM     24  C   UNL     1     -22.430   4.824   9.265  1.00  0.00     0.011 A 
ATOM     25  C   UNL     1     -20.410   6.692   8.563  1.00  0.00     0.030 A 
ATOM     26  C   UNL     1     -22.579   5.647   8.133  1.00  0.00     0.001 A 
ATOM     27  C   UNL     1     -21.575   6.576   7.783  1.00  0.00     0.002 A 
BRANCH  22  28
ATOM     28  O   UNL     1     -18.108   6.558  10.480  1.00  0.00    -0.417 OA
ATOM     29  C   UNL     1     -18.135   7.960  10.259  1.00  0.00     0.313 C 
ENDBRANCH  22  28
ENDBRANCH  18  19
ENDBRANCH   7  18
ENDBRANCH   4   7
ENDBRANCH   2   3
BRANCH   2  30
ATOM     30  N   UNL     1     -20.360  -2.175  11.763  1.00  0.00    -0.343 N 
ATOM     31  C   UNL     1     -20.413  -1.743  10.392  1.00  0.00     0.243 C 
ATOM     32  H   UNL     1     -19.569  -2.792  12.062  1.00  0.00     0.164 HD
ATOM     33  O   UNL     1     -21.293  -0.919  10.024  1.00  0.00    -0.273 OA
BRANCH  31  34
ATOM     34  C   UNL     1     -19.454  -2.324   9.374  1.00  0.00     0.174 C 
ATOM     35  N   UNL     1     -19.936  -2.205   7.979  1.00  0.00    -0.329 N 
ATOM     36  C   UNL     1     -19.183  -3.801   9.720  1.00  0.00     0.035 C 
ATOM     37  C   UNL     1     -19.114  -2.847   6.943  1.00  0.00     0.120 C 
ATOM     38  C   UNL     1     -18.274  -4.459   8.680  1.00  0.00     0.004 C 
ATOM     39  C   UNL     1     -18.878  -4.319   7.281  1.00  0.00     0.022 C 
BRANCH  35  40
ATOM     40  C   UNL     1     -20.694  -1.054   7.567  1.00  0.00     0.246 CG0
ATOM     41  O   UNL     1     -21.798  -1.218   6.982  1.00  0.00    -0.272 OA
ATOM     42  G   UNL     1     -20.164   0.342   7.809  1.00  0.00     0.000 G0
ENDBRANCH  35  40
ENDBRANCH  31  34
ENDBRANCH   2  30
ENDBRANCH   1   2
BRANCH   1  43
ATOM     43  C   UNL     1     -21.830  -3.569  14.466  1.00  0.00     0.003 C 
BRANCH  43  44
ATOM     44  C   UNL     1     -21.277  -4.916  13.957  1.00  0.00     0.001 C 
BRANCH  44  45
ATOM     45  C   UNL     1     -22.044  -5.551  12.780  1.00  0.00     0.008 C 
BRANCH  45  46
ATOM     46  C   UNL     1     -21.727  -4.921  11.414  1.00  0.00     0.075 C 
BRANCH  46  47
ATOM     47  C   UNL     1     -21.813  -5.906  10.278  1.00  0.00     0.132 C 
ATOM     48  O   UNL     1     -20.802  -6.215   9.667  1.00  0.00    -0.300 OA
BRANCH  47  49
ATOM     49  C   UNL     1     -23.145  -6.435   9.820  1.00  0.00     0.072 C 
ATOM     50  C   UNL     1     -22.955  -7.492   8.737  1.00  0.00     0.012 C 
ENDBRANCH  47  49
ENDBRANCH  46  47
ENDBRANCH  45  46
ENDBRANCH  44  45
ENDBRANCH  43  44
ENDBRANCH   1  43
TORSDOF 12
ENDMDL
MODEL 4
REMARK VINA RESULT:    28.616      2.080      9.504
REMARK INTER + INTRA:          68.589
REMARK INTER:                  62.277
REMARK INTRA:                   6.312
REMARK UNBOUND:                 8.187
REMARK SMILES CCC(=O)CCCCC[C@@H]1NC(=O)[C@H]2CCCCN2C(=O)[C@H]([C@H](C)CC)NC(=O)[C@@H](Cc2cn(OC)c3ccccc23)NC1=O
REMARK SMILES IDX 9 1 10 2 44 3 43 4 45 6 30 7 28 8 27 9 29 11 22 12 23 14
REMARK SMILES IDX 24 15 25 16 26 17 31 18 32 19 33 20 42 21 34 22 37 23 41 24
REMARK SMILES IDX 38 25 40 26 39 27 35 28 36 29 11 30 12 31 13 33 14 34 19 35
REMARK SMILES IDX 15 36 18 37 16 38 17 39 20 40 21 41 8 43 7 44 6 45 5 46 3 47
REMARK SMILES IDX 4 48 2 49 1 50
REMARK H PARENT 43 5 27 10 11 32
REMARK Flexibility Score: 80.00
ROOT
ATOM      1  C   UNL     1     -20.839   2.050  13.845  1.00  0.00     0.035 C 
ENDROOT
BRANCH   1   2
ATOM      2  C   UNL     1     -20.272   1.203  12.685  1.00  0.00     0.171 C 
BRANCH   2   3
ATOM      3  C   UNL     1     -20.889  -0.168  12.647  1.00  0.00     0.243 C 
ATOM      4  N   UNL     1     -20.112  -1.303  12.244  1.00  0.00    -0.342 N 
ATOM      5  H   UNL     1     -19.070  -1.227  12.281  1.00  0.00     0.164 HD
ATOM      6  O   UNL     1     -22.114  -0.306  12.913  1.00  0.00    -0.273 OA
BRANCH   4   7
ATOM      7  C   UNL     1     -20.690  -2.306  11.352  1.00  0.00     0.175 C 
BRANCH   7   8
ATOM      8  C   UNL     1     -20.318  -1.941   9.941  1.00  0.00     0.243 C 
ATOM      9  N   UNL     1     -21.051  -0.912   9.263  1.00  0.00    -0.342 N 
ATOM     10  H   UNL     1     -21.967  -0.613   9.663  1.00  0.00     0.164 HD
ATOM     11  O   UNL     1     -19.283  -2.434   9.415  1.00  0.00    -0.273 OA
BRANCH   9  12
ATOM     12  C   UNL     1     -20.548  -0.263   8.049  1.00  0.00     0.174 CG0
ATOM     13  G   UNL     1     -20.056   1.126   8.386  1.00  0.00     0.000 G0
BRANCH  12  14
ATOM     14  C   UNL     1     -21.622  -0.334   6.924  1.00  0.00     0.018 C 
ATOM     15  C   UNL     1     -21.668  -1.715   6.252  1.00  0.00     0.010 C 
BRANCH  14  16
ATOM     16  C   UNL     1     -21.589   0.849   5.914  1.00  0.00     0.002 C 
ATOM     17  C   UNL     1     -22.356   0.620   4.607  1.00  0.00     0.004 C 
ENDBRANCH  14  16
ENDBRANCH  12  14
ENDBRANCH   9  12
ENDBRANCH   7   8
BRANCH   7  18
ATOM     18  C   UNL     1     -20.216  -3.720  11.741  1.00  0.00     0.073 C 
BRANCH  18  19
ATOM     19  C   UNL     1     -20.648  -4.731  10.716  1.00  0.00    -0.016 A 
ATOM     20  C   UNL     1     -21.876  -5.389  10.688  1.00  0.00     0.134 A 
ATOM     21  C   UNL     1     -19.997  -5.095   9.546  1.00  0.00     0.006 A 
ATOM     22  N   UNL     1     -21.973  -6.133   9.561  1.00  0.00    -0.191 N 
ATOM     23  C   UNL     1     -20.836  -5.949   8.871  1.00  0.00     0.087 A 
ATOM     24  C   UNL     1     -18.754  -4.730   9.025  1.00  0.00     0.011 A 
ATOM     25  C   UNL     1     -20.495  -6.486   7.630  1.00  0.00     0.030 A 
ATOM     26  C   UNL     1     -18.384  -5.259   7.774  1.00  0.00     0.001 A 
ATOM     27  C   UNL     1     -19.249  -6.132   7.080  1.00  0.00     0.002 A 
BRANCH  22  28
ATOM     28  O   UNL     1     -23.037  -6.920   9.160  1.00  0.00    -0.417 OA
ATOM     29  C   UNL     1     -24.385  -6.486   9.261  1.00  0.00     0.313 C 
ENDBRANCH  22  28
ENDBRANCH  18  19
ENDBRANCH   7  18
ENDBRANCH   4   7
ENDBRANCH   2   3
BRANCH   2  30
ATOM     30  N   UNL     1     -20.532   1.874  11.407  1.00  0.00    -0.343 N 
ATOM     31  C   UNL     1     -21.775   1.730  10.697  1.00  0.00     0.243 C 
ATOM     32  H   UNL     1     -19.831   2.566  11.052  1.00  0.00     0.164 HD
ATOM     33  O   UNL     1     -22.680   0.982  11.155  1.00  0.00    -0.273 OA
BRANCH  31  34
ATOM     34  C   UNL     1     -21.975   2.426   9.367  1.00  0.00     0.174 C 
ATOM     35  N   UNL     1     -20.812   2.301   8.457  1.00  0.00    -0.329 N 
ATOM     36  C   UNL     1     -22.299   3.911   9.616  1.00  0.00     0.035 C 
ATOM     37  C   UNL     1     -20.885   3.045   7.192  1.00  0.00     0.120 C 
ATOM     38  C   UNL     1     -22.441   4.678   8.300  1.00  0.00     0.004 C 
ATOM     39  C   UNL     1     -21.177   4.522   7.454  1.00  0.00     0.022 C 
BRANCH  35  40
ATOM     40  C   UNL     1     -20.026   1.096   8.443  1.00  0.00     0.246 CG0
ATOM     41  O   UNL     1     -18.807   1.150   8.756  1.00  0.00    -0.272 OA
ATOM     42  G   UNL     1     -20.647  -0.221   8.035  1.00  0.00     0.000 G0
ENDBRANCH  35  40
ENDBRANCH  31  34
ENDBRANCH   2  30
ENDBRANCH   1   2
BRANCH   1  43
ATOM     43  C   UNL     1     -20.795   3.574  13.607  1.00  0.00     0.003 C 
BRANCH  43  44
ATOM     44  C   UNL     1     -20.325   4.016  12.206  1.00  0.00     0.001 C 
BRANCH  44  45
ATOM     45  C   UNL     1     -19.654   5.403  12.133  1.00  0.00     0.008 C 
BRANCH  45  46
ATOM     46  C   UNL     1     -19.375   5.887  10.700  1.00  0.00     0.075 C 
BRANCH  46  47
ATOM     47  C   UNL     1     -18.062   6.614  10.572  1.00  0.00     0.132 C 
ATOM     48  O   UNL     1     -17.116   6.283  11.268  1.00  0.00    -0.300 OA
BRANCH  47  49
ATOM     49  C   UNL     1     -17.932   7.811   9.669  1.00  0.00     0.072 C 
ATOM     50  C   UNL     1     -16.835   8.742  10.173  1.00  0.00     0.012 C 
ENDBRANCH  47  49
ENDBRANCH  46  47
ENDBRANCH  45  46
ENDBRANCH  44  45
ENDBRANCH  43  44
ENDBRANCH   1  43
TORSDOF 12
ENDMDL
MODEL 5
REMARK VINA RESULT:    29.037      2.351      8.825
REMARK INTER + INTRA:          69.476
REMARK INTER:                  59.339
REMARK INTRA:                  10.137
REMARK UNBOUND:                 8.187
REMARK SMILES CCC(=O)CCCCC[C@@H]1NC(=O)[C@H]2CCCCN2C(=O)[C@H]([C@H](C)CC)NC(=O)[C@@H](Cc2cn(OC)c3ccccc23)NC1=O
REMARK SMILES IDX 9 1 10 2 44 3 43 4 45 6 30 7 28 8 27 9 29 11 22 12 23 14
REMARK SMILES IDX 24 15 25 16 26 17 31 18 32 19 33 20 42 21 34 22 37 23 41 24
REMARK SMILES IDX 38 25 40 26 39 27 35 28 36 29 11 30 12 31 13 33 14 34 19 35
REMARK SMILES IDX 15 36 18 37 16 38 17 39 20 40 21 41 8 43 7 44 6 45 5 46 3 47
REMARK SMILES IDX 4 48 2 49 1 50
REMARK H PARENT 43 5 27 10 11 32
REMARK Flexibility Score: 80.00
ROOT
ATOM      1  C   UNL     1     -21.866   4.785   8.141  1.00  0.00     0.035 C 
ENDROOT
BRANCH   1   2
ATOM      2  C   UNL     1     -22.006   3.367   8.734  1.00  0.00     0.171 C 
BRANCH   2   3
ATOM      3  C   UNL     1     -21.346   2.334   7.862  1.00  0.00     0.243 C 
ATOM      4  N   UNL     1     -21.585   0.938   8.082  1.00  0.00    -0.342 N 
ATOM      5  H   UNL     1     -22.434   0.661   8.626  1.00  0.00     0.164 HD
ATOM      6  O   UNL     1     -20.530   2.700   6.972  1.00  0.00    -0.273 OA
BRANCH   4   7
ATOM      7  C   UNL     1     -20.476  -0.013   8.022  1.00  0.00     0.175 C 
BRANCH   7   8
ATOM      8  C   UNL     1     -20.573  -0.914   9.223  1.00  0.00     0.243 C 
ATOM      9  N   UNL     1     -20.323  -0.378  10.528  1.00  0.00    -0.342 N 
ATOM     10  H   UNL     1     -19.847   0.549  10.599  1.00  0.00     0.164 HD
ATOM     11  O   UNL     1     -21.009  -2.091   9.093  1.00  0.00    -0.273 OA
BRANCH   9  12
ATOM     12  C   UNL     1     -20.726  -1.076  11.752  1.00  0.00     0.174 CG0
ATOM     13  G   UNL     1     -21.599  -0.166  12.587  1.00  0.00     0.000 G0
BRANCH  12  14
ATOM     14  C   UNL     1     -19.473  -1.646  12.478  1.00  0.00     0.018 C 
ATOM     15  C   UNL     1     -18.491  -2.315  11.503  1.00  0.00     0.010 C 
BRANCH  14  16
ATOM     16  C   UNL     1     -19.782  -2.505  13.738  1.00  0.00     0.002 C 
ATOM     17  C   UNL     1     -21.030  -2.092  14.525  1.00  0.00     0.004 C 
ENDBRANCH  14  16
ENDBRANCH  12  14
ENDBRANCH   9  12
ENDBRANCH   7   8
BRANCH   7  18
ATOM     18  C   UNL     1     -20.499  -0.794   6.694  1.00  0.00     0.073 C 
BRANCH  18  19
ATOM     19  C   UNL     1     -19.640  -2.025   6.780  1.00  0.00    -0.016 A 
ATOM     20  C   UNL     1     -19.866  -3.118   7.613  1.00  0.00     0.134 A 
ATOM     21  C   UNL     1     -18.569  -2.379   5.973  1.00  0.00     0.006 A 
ATOM     22  N   UNL     1     -18.969  -4.096   7.342  1.00  0.00    -0.191 N 
ATOM     23  C   UNL     1     -18.189  -3.645   6.346  1.00  0.00     0.087 A 
ATOM     24  C   UNL     1     -17.921  -1.697   4.941  1.00  0.00     0.011 A 
ATOM     25  C   UNL     1     -17.147  -4.318   5.709  1.00  0.00     0.030 A 
ATOM     26  C   UNL     1     -16.864  -2.352   4.282  1.00  0.00     0.001 A 
ATOM     27  C   UNL     1     -16.478  -3.655   4.663  1.00  0.00     0.002 A 
BRANCH  22  28
ATOM     28  O   UNL     1     -18.869  -5.338   7.941  1.00  0.00    -0.417 OA
ATOM     29  C   UNL     1     -19.327  -5.583   9.263  1.00  0.00     0.313 C 
ENDBRANCH  22  28
ENDBRANCH  18  19
ENDBRANCH   7  18
ENDBRANCH   4   7
ENDBRANCH   2   3
BRANCH   2  30
ATOM     30  N   UNL     1     -21.392   3.323  10.065  1.00  0.00    -0.343 N 
ATOM     31  C   UNL     1     -21.290   2.109  10.830  1.00  0.00     0.243 C 
ATOM     32  H   UNL     1     -20.915   4.182  10.426  1.00  0.00     0.164 HD
ATOM     33  O   UNL     1     -21.765   1.034  10.374  1.00  0.00    -0.273 OA
BRANCH  31  34
ATOM     34  C   UNL     1     -20.671   2.131  12.212  1.00  0.00     0.174 C 
ATOM     35  N   UNL     1     -21.240   1.114  13.127  1.00  0.00    -0.329 N 
ATOM     36  C   UNL     1     -20.829   3.539  12.815  1.00  0.00     0.035 C 
ATOM     37  C   UNL     1     -20.771   1.148  14.519  1.00  0.00     0.120 C 
ATOM     38  C   UNL     1     -20.282   3.598  14.243  1.00  0.00     0.004 C 
ATOM     39  C   UNL     1     -20.962   2.542  15.117  1.00  0.00     0.022 C 
BRANCH  35  40
ATOM     40  C   UNL     1     -21.650  -0.170  12.624  1.00  0.00     0.246 CG0
ATOM     41  O   UNL     1     -22.791  -0.614  12.920  1.00  0.00    -0.272 OA
ATOM     42  G   UNL     1     -20.714  -0.993  11.767  1.00  0.00     0.000 G0
ENDBRANCH  35  40
ENDBRANCH  31  34
ENDBRANCH   2  30
ENDBRANCH   1   2
BRANCH   1  43
ATOM     43  C   UNL     1     -21.582   5.890   9.181  1.00  0.00     0.003 C 
BRANCH  43  44
ATOM     44  C   UNL     1     -20.135   6.420   9.211  1.00  0.00     0.001 C 
BRANCH  44  45
ATOM     45  C   UNL     1     -19.460   6.443  10.598  1.00  0.00     0.008 C 
BRANCH  45  46
ATOM     46  C   UNL     1     -17.930   6.583  10.546  1.00  0.00     0.075 C 
BRANCH  46  47
ATOM     47  C   UNL     1     -17.478   7.999  10.302  1.00  0.00     0.132 C 
ATOM     48  O   UNL     1     -18.227   8.786   9.748  1.00  0.00    -0.300 OA
BRANCH  47  49
ATOM     49  C   UNL     1     -16.075   8.426  10.640  1.00  0.00     0.072 C 
ATOM     50  C   UNL     1     -15.543   9.391   9.586  1.00  0.00     0.012 C 
ENDBRANCH  47  49
ENDBRANCH  46  47
ENDBRANCH  45  46
ENDBRANCH  44  45
ENDBRANCH  43  44
ENDBRANCH   1  43
TORSDOF 12
ENDMDL
MODEL 6
REMARK VINA RESULT:    29.243      2.151      8.112
REMARK INTER + INTRA:          69.911
REMARK INTER:                  65.308
REMARK INTRA:                   4.603
REMARK UNBOUND:                 8.187
REMARK SMILES CCC(=O)CCCCC[C@@H]1NC(=O)[C@H]2CCCCN2C(=O)[C@H]([C@H](C)CC)NC(=O)[C@@H](Cc2cn(OC)c3ccccc23)NC1=O
REMARK SMILES IDX 9 1 10 2 44 3 43 4 45 6 30 7 28 8 27 9 29 11 22 12 23 14
REMARK SMILES IDX 24 15 25 16 26 17 31 18 32 19 33 20 42 21 34 22 37 23 41 24
REMARK SMILES IDX 38 25 40 26 39 27 35 28 36 29 11 30 12 31 13 33 14 34 19 35
REMARK SMILES IDX 15 36 18 37 16 38 17 39 20 40 21 41 8 43 7 44 6 45 5 46 3 47
REMARK SMILES IDX 4 48 2 49 1 50
REMARK H PARENT 43 5 27 10 11 32
REMARK Flexibility Score: 80.00
ROOT
ATOM      1  C   UNL     1     -21.514   1.493  12.924  1.00  0.00     0.035 C 
ENDROOT
BRANCH   1   2
ATOM      2  C   UNL     1     -20.596   1.349  11.691  1.00  0.00     0.171 C 
BRANCH   2   3
ATOM      3  C   UNL     1     -21.166   0.385  10.686  1.00  0.00     0.243 C 
ATOM      4  N   UNL     1     -20.297  -0.437   9.895  1.00  0.00    -0.342 N 
ATOM      5  H   UNL     1     -19.318  -0.588  10.231  1.00  0.00     0.164 HD
ATOM      6  O   UNL     1     -22.412   0.348  10.498  1.00  0.00    -0.273 OA
BRANCH   4   7
ATOM      7  C   UNL     1     -20.565  -0.626   8.471  1.00  0.00     0.175 C 
BRANCH   7   8
ATOM      8  C   UNL     1     -20.460   0.715   7.798  1.00  0.00     0.243 C 
ATOM      9  N   UNL     1     -21.265   1.803   8.267  1.00  0.00    -0.342 N 
ATOM     10  H   UNL     1     -22.071   1.588   8.893  1.00  0.00     0.164 HD
ATOM     11  O   UNL     1     -19.570   0.913   6.926  1.00  0.00    -0.273 OA
BRANCH   9  12
ATOM     12  C   UNL     1     -20.981   3.197   7.912  1.00  0.00     0.174 CG0
ATOM     13  G   UNL     1     -21.491   4.109   9.005  1.00  0.00     0.000 G0
BRANCH  12  14
ATOM     14  C   UNL     1     -21.520   3.504   6.484  1.00  0.00     0.018 C 
ATOM     15  C   UNL     1     -22.621   4.575   6.496  1.00  0.00     0.010 C 
BRANCH  14  16
ATOM     16  C   UNL     1     -21.881   2.249   5.638  1.00  0.00     0.002 C 
ATOM     17  C   UNL     1     -22.514   2.536   4.272  1.00  0.00     0.004 C 
ENDBRANCH  14  16
ENDBRANCH  12  14
ENDBRANCH   9  12
ENDBRANCH   7   8
BRANCH   7  18
ATOM     18  C   UNL     1     -19.601  -1.667   7.869  1.00  0.00     0.073 C 
BRANCH  18  19
ATOM     19  C   UNL     1     -19.800  -3.014   8.507  1.00  0.00    -0.016 A 
ATOM     20  C   UNL     1     -20.794  -3.341   9.425  1.00  0.00     0.134 A 
ATOM     21  C   UNL     1     -19.151  -4.204   8.211  1.00  0.00     0.006 A 
ATOM     22  N   UNL     1     -20.754  -4.668   9.694  1.00  0.00    -0.191 N 
ATOM     23  C   UNL     1     -19.760  -5.186   8.954  1.00  0.00     0.087 A 
ATOM     24  C   UNL     1     -18.095  -4.494   7.343  1.00  0.00     0.011 A 
ATOM     25  C   UNL     1     -19.365  -6.521   8.873  1.00  0.00     0.030 A 
ATOM     26  C   UNL     1     -17.676  -5.833   7.243  1.00  0.00     0.001 A 
ATOM     27  C   UNL     1     -18.306  -6.842   8.003  1.00  0.00     0.002 A 
BRANCH  22  28
ATOM     28  O   UNL     1     -21.579  -5.381  10.543  1.00  0.00    -0.417 OA
ATOM     29  C   UNL     1     -22.431  -6.419  10.081  1.00  0.00     0.313 C 
ENDBRANCH  22  28
ENDBRANCH  18  19
ENDBRANCH   7  18
ENDBRANCH   4   7
ENDBRANCH   2   3
BRANCH   2  30
ATOM     30  N   UNL     1     -20.422   2.655  11.047  1.00  0.00    -0.343 N 
ATOM     31  C   UNL     1     -20.420   3.888  11.786  1.00  0.00     0.243 C 
ATOM     32  H   UNL     1     -20.183   2.683  10.028  1.00  0.00     0.164 HD
ATOM     33  O   UNL     1     -20.603   3.876  13.034  1.00  0.00    -0.273 OA
BRANCH  31  34
ATOM     34  C   UNL     1     -20.263   5.209  11.062  1.00  0.00     0.174 C 
ATOM     35  N   UNL     1     -20.453   5.102   9.597  1.00  0.00    -0.329 N 
ATOM     36  C   UNL     1     -18.874   5.796  11.378  1.00  0.00     0.035 C 
ATOM     37  C   UNL     1     -20.204   6.319   8.812  1.00  0.00     0.120 C 
ATOM     38  C   UNL     1     -18.634   7.100  10.613  1.00  0.00     0.004 C 
ATOM     39  C   UNL     1     -18.811   6.875   9.110  1.00  0.00     0.022 C 
BRANCH  35  40
ATOM     40  C   UNL     1     -21.413   4.179   9.053  1.00  0.00     0.246 CG0
ATOM     41  O   UNL     1     -22.583   4.157   9.521  1.00  0.00    -0.272 OA
ATOM     42  G   UNL     1     -21.021   3.226   7.947  1.00  0.00     0.000 G0
ENDBRANCH  35  40
ENDBRANCH  31  34
ENDBRANCH   2  30
ENDBRANCH   1   2
BRANCH   1  43
ATOM     43  C   UNL     1     -22.357   0.240  13.245  1.00  0.00     0.003 C 
BRANCH  43  44
ATOM     44  C   UNL     1     -22.132  -0.373  14.642  1.00  0.00     0.001 C 
BRANCH  44  45
ATOM     45  C   UNL     1     -21.412  -1.736  14.665  1.00  0.00     0.008 C 
BRANCH  45  46
ATOM     46  C   UNL     1     -21.106  -2.306  13.270  1.00  0.00     0.075 C 
BRANCH  46  47
ATOM     47  C   UNL     1     -19.753  -1.896  12.752  1.00  0.00     0.132 C 
ATOM     48  O   UNL     1     -19.252  -0.849  13.130  1.00  0.00    -0.300 OA
BRANCH  47  49
ATOM     49  C   UNL     1     -19.056  -2.710  11.695  1.00  0.00     0.072 C 
ATOM     50  C   UNL     1     -17.803  -1.990  11.208  1.00  0.00     0.012 C 
ENDBRANCH  47  49
ENDBRANCH  46  47
ENDBRANCH  45  46
ENDBRANCH  44  45
ENDBRANCH  43  44
ENDBRANCH   1  43
TORSDOF 12
ENDMDL
MODEL 7
REMARK VINA RESULT:    29.524      2.281      9.367
REMARK INTER + INTRA:          70.504
REMARK INTER:                  56.340
REMARK INTRA:                  14.164
REMARK UNBOUND:                 8.187
REMARK SMILES CCC(=O)CCCCC[C@@H]1NC(=O)[C@H]2CCCCN2C(=O)[C@H]([C@H](C)CC)NC(=O)[C@@H](Cc2cn(OC)c3ccccc23)NC1=O
REMARK SMILES IDX 9 1 10 2 44 3 43 4 45 6 30 7 28 8 27 9 29 11 22 12 23 14
REMARK SMILES IDX 24 15 25 16 26 17 31 18 32 19 33 20 42 21 34 22 37 23 41 24
REMARK SMILES IDX 38 25 40 26 39 27 35 28 36 29 11 30 12 31 13 33 14 34 19 35
REMARK SMILES IDX 15 36 18 37 16 38 17 39 20 40 21 41 8 43 7 44 6 45 5 46 3 47
REMARK SMILES IDX 4 48 2 49 1 50
REMARK H PARENT 43 5 27 10 11 32
REMARK Flexibility Score: 80.00
ROOT
ATOM      1  C   UNL     1     -20.916   1.798  14.271  1.00  0.00     0.035 C 
ENDROOT
BRANCH   1   2
ATOM      2  C   UNL     1     -20.542   1.326  12.850  1.00  0.00     0.171 C 
BRANCH   2   3
ATOM      3  C   UNL     1     -21.083  -0.047  12.561  1.00  0.00     0.243 C 
ATOM      4  N   UNL     1     -20.197  -1.117  12.206  1.00  0.00    -0.342 N 
ATOM      5  H   UNL     1     -19.184  -1.022  12.448  1.00  0.00     0.164 HD
ATOM      6  O   UNL     1     -22.329  -0.240  12.574  1.00  0.00    -0.273 OA
BRANCH   4   7
ATOM      7  C   UNL     1     -20.555  -2.035  11.127  1.00  0.00     0.175 C 
BRANCH   7   8
ATOM      8  C   UNL     1     -19.999  -1.481   9.843  1.00  0.00     0.243 C 
ATOM      9  N   UNL     1     -20.651  -0.371   9.215  1.00  0.00    -0.342 N 
ATOM     10  H   UNL     1     -21.620  -0.129   9.519  1.00  0.00     0.164 HD
ATOM     11  O   UNL     1     -18.891  -1.897   9.406  1.00  0.00    -0.273 OA
BRANCH   9  12
ATOM     12  C   UNL     1     -19.999   0.438   8.181  1.00  0.00     0.174 CG0
ATOM     13  G   UNL     1     -21.003   1.399   7.584  1.00  0.00     0.000 G0
BRANCH  12  14
ATOM     14  C   UNL     1     -19.274  -0.486   7.159  1.00  0.00     0.018 C 
ATOM     15  C   UNL     1     -18.857   0.269   5.887  1.00  0.00     0.010 C 
BRANCH  14  16
ATOM     16  C   UNL     1     -19.992  -1.836   6.875  1.00  0.00     0.002 C 
ATOM     17  C   UNL     1     -21.486  -1.731   6.546  1.00  0.00     0.004 C 
ENDBRANCH  14  16
ENDBRANCH  12  14
ENDBRANCH   9  12
ENDBRANCH   7   8
BRANCH   7  18
ATOM     18  C   UNL     1     -20.042  -3.457  11.428  1.00  0.00     0.073 C 
BRANCH  18  19
ATOM     19  C   UNL     1     -20.106  -4.322  10.199  1.00  0.00    -0.016 A 
ATOM     20  C   UNL     1     -19.097  -4.463   9.250  1.00  0.00     0.134 A 
ATOM     21  C   UNL     1     -21.088  -5.238   9.849  1.00  0.00     0.006 A 
ATOM     22  N   UNL     1     -19.445  -5.412   8.348  1.00  0.00    -0.191 N 
ATOM     23  C   UNL     1     -20.647  -5.881   8.717  1.00  0.00     0.087 A 
ATOM     24  C   UNL     1     -22.310  -5.560  10.443  1.00  0.00     0.011 A 
ATOM     25  C   UNL     1     -21.391  -6.893   8.111  1.00  0.00     0.030 A 
ATOM     26  C   UNL     1     -23.081  -6.577   9.850  1.00  0.00     0.001 A 
ATOM     27  C   UNL     1     -22.625  -7.240   8.691  1.00  0.00     0.002 A 
BRANCH  22  28
ATOM     28  O   UNL     1     -18.710  -5.851   7.262  1.00  0.00    -0.417 OA
ATOM     29  C   UNL     1     -17.372  -5.436   7.030  1.00  0.00     0.313 C 
ENDBRANCH  22  28
ENDBRANCH  18  19
ENDBRANCH   7  18
ENDBRANCH   4   7
ENDBRANCH   2   3
BRANCH   2  30
ATOM     30  N   UNL     1     -21.079   2.263  11.858  1.00  0.00    -0.343 N 
ATOM     31  C   UNL     1     -21.270   1.904  10.478  1.00  0.00     0.243 C 
ATOM     32  H   UNL     1     -21.436   3.191  12.187  1.00  0.00     0.164 HD
ATOM     33  O   UNL     1     -20.943   0.755  10.074  1.00  0.00    -0.273 OA
BRANCH  31  34
ATOM     34  C   UNL     1     -21.803   2.924   9.493  1.00  0.00     0.174 C 
ATOM     35  N   UNL     1     -21.287   2.737   8.118  1.00  0.00    -0.329 N 
ATOM     36  C   UNL     1     -21.468   4.339  10.001  1.00  0.00     0.035 C 
ATOM     37  C   UNL     1     -21.668   3.755   7.129  1.00  0.00     0.120 C 
ATOM     38  C   UNL     1     -21.922   5.409   9.005  1.00  0.00     0.004 C 
ATOM     39  C   UNL     1     -21.303   5.153   7.630  1.00  0.00     0.022 C 
BRANCH  35  40
ATOM     40  C   UNL     1     -21.039   1.415   7.606  1.00  0.00     0.246 CG0
ATOM     41  O   UNL     1     -21.702   0.999   6.619  1.00  0.00    -0.272 OA
ATOM     42  G   UNL     1     -20.010   0.520   8.260  1.00  0.00     0.000 G0
ENDBRANCH  35  40
ENDBRANCH  31  34
ENDBRANCH   2  30
ENDBRANCH   1   2
BRANCH   1  43
ATOM     43  C   UNL     1     -20.398   3.205  14.637  1.00  0.00     0.003 C 
BRANCH  43  44
ATOM     44  C   UNL     1     -20.662   4.305  13.590  1.00  0.00     0.001 C 
BRANCH  44  45
ATOM     45  C   UNL     1     -19.450   4.709  12.725  1.00  0.00     0.008 C 
BRANCH  45  46
ATOM     46  C   UNL     1     -19.803   5.635  11.549  1.00  0.00     0.075 C 
BRANCH  46  47
ATOM     47  C   UNL     1     -18.594   6.286  10.931  1.00  0.00     0.132 C 
ATOM     48  O   UNL     1     -17.487   6.072  11.397  1.00  0.00    -0.300 OA
BRANCH  47  49
ATOM     49  C   UNL     1     -18.745   7.280   9.811  1.00  0.00     0.072 C 
ATOM     50  C   UNL     1     -17.653   8.342   9.889  1.00  0.00     0.012 C 
ENDBRANCH  47  49
ENDBRANCH  46  47
ENDBRANCH  45  46
ENDBRANCH  44  45
ENDBRANCH  43  44
ENDBRANCH   1  43
TORSDOF 12
ENDMDL
