MODEL 1
REMARK VINA RESULT:    -0.951      0.000      0.000
REMARK INTER + INTRA:          -1.742
REMARK INTER:                  -1.424
REMARK INTRA:                  -0.318
REMARK UNBOUND:                -0.318
REMARK SMILES COC(=O)C1=CO[C@H](O[C@H]2O[C@@H](CO)[C@@H](O)[C@@H](O)[C@@H]2O)[C@H]2C(CO)=CC[C@H]12
REMARK SMILES IDX 9 1 8 2 5 3 6 4 27 5 7 6 21 7 26 8 22 9 25 10 3 11 4 12 2 13
REMARK SMILES IDX 1 14 23 15 24 16 10 18 19 19 11 20 17 21 12 22 15 23 20 24
REMARK SMILES IDX 18 26 13 28 14 29 16 31
REMARK H PARENT 24 17 20 25 18 27 14 30 16 32
REMARK Flexibility Score: inf
ROOT
ATOM      1  O   UNL     1      20.488  11.338  -9.524  1.00  0.00    -0.310 OA
ENDROOT
BRANCH   1   2
ATOM      2  C   UNL     1      19.922  12.287 -10.419  1.00  0.00     0.316 C 
ATOM      3  C   UNL     1      18.402  14.762 -10.753  1.00  0.00     0.076 C 
ATOM      4  C   UNL     1      17.771  13.610 -10.431  1.00  0.00     0.202 C 
ATOM      5  C   UNL     1      19.859  14.648 -11.125  1.00  0.00     0.047 C 
ATOM      6  O   UNL     1      18.480  12.391 -10.314  1.00  0.00    -0.471 OA
ATOM      7  C   UNL     1      20.529  13.670 -10.174  1.00  0.00     0.094 C 
ATOM      8  C   UNL     1      20.792  15.857 -11.070  1.00  0.00     0.037 C 
ATOM      9  C   UNL     1      21.974  13.929 -10.439  1.00  0.00    -0.039 C 
ATOM     10  C   UNL     1      22.123  15.185 -10.873  1.00  0.00    -0.024 C 
BRANCH   3  11
ATOM     11  C   UNL     1      17.641  16.015 -10.926  1.00  0.00     0.337 C 
ATOM     12  O   UNL     1      18.246  17.119 -11.015  1.00  0.00    -0.246 OA
BRANCH  11  13
ATOM     13  O   UNL     1      16.246  15.974 -10.970  1.00  0.00    -0.466 OA
ATOM     14  C   UNL     1      15.434  17.092 -10.640  1.00  0.00     0.282 C 
ENDBRANCH  11  13
ENDBRANCH   3  11
BRANCH   9  15
ATOM     15  C   UNL     1      23.101  13.003 -10.089  1.00  0.00     0.187 C 
BRANCH  15  16
ATOM     16  O   UNL     1      22.895  11.769 -10.712  1.00  0.00    -0.392 OA
ATOM     17  H   UNL     1      22.406  11.960 -11.553  1.00  0.00     0.211 HD
ENDBRANCH  15  16
ENDBRANCH   9  15
ENDBRANCH   1   2
BRANCH   1  18
ATOM     18  C   UNL     1      19.595  10.299  -9.157  1.00  0.00     0.286 C 
ATOM     19  C   UNL     1      18.601  10.800  -8.089  1.00  0.00     0.202 C 
ATOM     20  O   UNL     1      20.300   9.144  -8.720  1.00  0.00    -0.341 OA
ATOM     21  C   UNL     1      19.324  11.121  -6.777  1.00  0.00     0.179 C 
ATOM     22  C   UNL     1      21.050   9.339  -7.525  1.00  0.00     0.178 C 
ATOM     23  C   UNL     1      20.219   9.938  -6.353  1.00  0.00     0.177 C 
BRANCH  19  24
ATOM     24  O   UNL     1      17.622   9.822  -7.850  1.00  0.00    -0.385 OA
ATOM     25  H   UNL     1      16.878   9.996  -8.483  1.00  0.00     0.211 HD
ENDBRANCH  19  24
BRANCH  21  26
ATOM     26  O   UNL     1      20.065  12.307  -6.924  1.00  0.00    -0.387 OA
ATOM     27  H   UNL     1      19.603  13.010  -6.398  1.00  0.00     0.211 HD
ENDBRANCH  21  26
BRANCH  22  28
ATOM     28  C   UNL     1      22.440   9.975  -7.785  1.00  0.00     0.191 C 
BRANCH  28  29
ATOM     29  O   UNL     1      22.975   9.593  -9.018  1.00  0.00    -0.394 OA
ATOM     30  H   UNL     1      22.211   9.537  -9.651  1.00  0.00     0.210 HD
ENDBRANCH  28  29
ENDBRANCH  22  28
BRANCH  23  31
ATOM     31  O   UNL     1      21.050  10.319  -5.285  1.00  0.00    -0.387 OA
ATOM     32  H   UNL     1      21.809  10.825  -5.677  1.00  0.00     0.211 HD
ENDBRANCH  23  31
ENDBRANCH   1  18
TORSDOF 11
ENDMDL
MODEL 2
REMARK VINA RESULT:     0.173      1.977      6.583
REMARK INTER + INTRA:          -0.058
REMARK INTER:                  -0.862
REMARK INTRA:                   0.804
REMARK UNBOUND:                -0.318
REMARK SMILES COC(=O)C1=CO[C@H](O[C@H]2O[C@@H](CO)[C@@H](O)[C@@H](O)[C@@H]2O)[C@H]2C(CO)=CC[C@H]12
REMARK SMILES IDX 9 1 8 2 5 3 6 4 27 5 7 6 21 7 26 8 22 9 25 10 3 11 4 12 2 13
REMARK SMILES IDX 1 14 23 15 24 16 10 18 19 19 11 20 17 21 12 22 15 23 20 24
REMARK SMILES IDX 18 26 13 28 14 29 16 31
REMARK H PARENT 24 17 20 25 18 27 14 30 16 32
REMARK Flexibility Score: inf
ROOT
ATOM      1  O   UNL     1      19.572  14.234 -11.084  1.00  0.00    -0.310 OA
ENDROOT
BRANCH   1   2
ATOM      2  C   UNL     1      19.999  12.901 -10.832  1.00  0.00     0.316 C 
ATOM      3  C   UNL     1      20.815  10.903  -8.860  1.00  0.00     0.076 C 
ATOM      4  C   UNL     1      21.675  11.872  -9.247  1.00  0.00     0.202 C 
ATOM      5  C   UNL     1      19.530  10.795  -9.640  1.00  0.00     0.047 C 
ATOM      6  O   UNL     1      21.318  12.819 -10.237  1.00  0.00    -0.471 OA
ATOM      7  C   UNL     1      19.003  12.195  -9.909  1.00  0.00     0.094 C 
ATOM      8  C   UNL     1      18.305  10.084  -9.064  1.00  0.00     0.037 C 
ATOM      9  C   UNL     1      17.609  11.915 -10.357  1.00  0.00    -0.039 C 
ATOM     10  C   UNL     1      17.196  10.763  -9.820  1.00  0.00    -0.024 C 
BRANCH   3  11
ATOM     11  C   UNL     1      21.221   9.888  -7.867  1.00  0.00     0.337 C 
ATOM     12  O   UNL     1      22.271   9.213  -8.042  1.00  0.00    -0.246 OA
BRANCH  11  13
ATOM     13  O   UNL     1      20.423   9.666  -6.743  1.00  0.00    -0.466 OA
ATOM     14  C   UNL     1      19.884  10.724  -5.963  1.00  0.00     0.282 C 
ENDBRANCH  11  13
ENDBRANCH   3  11
BRANCH   9  15
ATOM     15  C   UNL     1      16.736  12.864 -11.125  1.00  0.00     0.187 C 
BRANCH  15  16
ATOM     16  O   UNL     1      15.411  12.423 -11.067  1.00  0.00    -0.392 OA
ATOM     17  H   UNL     1      14.898  12.999 -11.690  1.00  0.00     0.211 HD
ENDBRANCH  15  16
ENDBRANCH   9  15
ENDBRANCH   1   2
BRANCH   1  18
ATOM     18  C   UNL     1      20.538  15.214 -10.741  1.00  0.00     0.286 C 
ATOM     19  C   UNL     1      20.864  15.141  -9.235  1.00  0.00     0.202 C 
ATOM     20  O   UNL     1      20.111  16.515 -11.125  1.00  0.00    -0.341 OA
ATOM     21  C   UNL     1      19.647  15.537  -8.392  1.00  0.00     0.179 C 
ATOM     22  C   UNL     1      18.952  16.973 -10.434  1.00  0.00     0.178 C 
ATOM     23  C   UNL     1      19.066  16.879  -8.885  1.00  0.00     0.177 C 
BRANCH  19  24
ATOM     24  O   UNL     1      21.934  15.999  -8.934  1.00  0.00    -0.385 OA
ATOM     25  H   UNL     1      22.208  16.429  -9.785  1.00  0.00     0.211 HD
ENDBRANCH  19  24
BRANCH  21  26
ATOM     26  O   UNL     1      18.689  14.509  -8.434  1.00  0.00    -0.387 OA
ATOM     27  H   UNL     1      18.229  14.500  -7.555  1.00  0.00     0.211 HD
ENDBRANCH  21  26
BRANCH  22  28
ATOM     28  C   UNL     1      17.634  16.456 -11.065  1.00  0.00     0.191 C 
BRANCH  28  29
ATOM     29  O   UNL     1      16.502  17.012 -10.460  1.00  0.00    -0.394 OA
ATOM     30  H   UNL     1      16.661  17.992 -10.416  1.00  0.00     0.210 HD
ENDBRANCH  28  29
ENDBRANCH  22  28
BRANCH  23  31
ATOM     31  O   UNL     1      17.827  17.125  -8.269  1.00  0.00    -0.387 OA
ATOM     32  H   UNL     1      17.386  16.243  -8.147  1.00  0.00     0.211 HD
ENDBRANCH  23  31
ENDBRANCH   1  18
TORSDOF 11
ENDMDL
MODEL 3
REMARK VINA RESULT:     1.441      1.370      1.955
REMARK INTER + INTRA:           1.840
REMARK INTER:                   2.668
REMARK INTRA:                  -0.829
REMARK UNBOUND:                -0.318
REMARK SMILES COC(=O)C1=CO[C@H](O[C@H]2O[C@@H](CO)[C@@H](O)[C@@H](O)[C@@H]2O)[C@H]2C(CO)=CC[C@H]12
REMARK SMILES IDX 9 1 8 2 5 3 6 4 27 5 7 6 21 7 26 8 22 9 25 10 3 11 4 12 2 13
REMARK SMILES IDX 1 14 23 15 24 16 10 18 19 19 11 20 17 21 12 22 15 23 20 24
REMARK SMILES IDX 18 26 13 28 14 29 16 31
REMARK H PARENT 24 17 20 25 18 27 14 30 16 32
REMARK Flexibility Score: inf
ROOT
ATOM      1  O   UNL     1      20.104  10.524  -8.602  1.00  0.00    -0.310 OA
ENDROOT
BRANCH   1   2
ATOM      2  C   UNL     1      19.926  11.443  -9.673  1.00  0.00     0.316 C 
ATOM      3  C   UNL     1      19.643  14.228 -10.512  1.00  0.00     0.076 C 
ATOM      4  C   UNL     1      18.604  13.577  -9.943  1.00  0.00     0.202 C 
ATOM      5  C   UNL     1      20.846  13.393 -10.868  1.00  0.00     0.047 C 
ATOM      6  O   UNL     1      18.703  12.214  -9.575  1.00  0.00    -0.471 OA
ATOM      7  C   UNL     1      21.109  12.411  -9.738  1.00  0.00     0.094 C 
ATOM      8  C   UNL     1      22.220  14.025 -11.086  1.00  0.00     0.037 C 
ATOM      9  C   UNL     1      22.479  11.925 -10.070  1.00  0.00    -0.039 C 
ATOM     10  C   UNL     1      23.124  12.867 -10.765  1.00  0.00    -0.024 C 
BRANCH   3  11
ATOM     11  C   UNL     1      19.507  15.635 -10.941  1.00  0.00     0.337 C 
ATOM     12  O   UNL     1      20.532  16.346 -11.123  1.00  0.00    -0.246 OA
BRANCH  11  13
ATOM     13  O   UNL     1      18.234  16.179 -11.125  1.00  0.00    -0.466 OA
ATOM     14  C   UNL     1      17.560  16.913 -10.113  1.00  0.00     0.282 C 
ENDBRANCH  11  13
ENDBRANCH   3  11
BRANCH   9  15
ATOM     15  C   UNL     1      23.106  10.668  -9.543  1.00  0.00     0.187 C 
BRANCH  15  16
ATOM     16  O   UNL     1      22.291   9.578  -9.859  1.00  0.00    -0.392 OA
ATOM     17  H   UNL     1      21.449   9.702  -9.351  1.00  0.00     0.211 HD
ENDBRANCH  15  16
ENDBRANCH   9  15
ENDBRANCH   1   2
BRANCH   1  18
ATOM     18  C   UNL     1      19.041  10.532  -7.663  1.00  0.00     0.286 C 
ATOM     19  C   UNL     1      19.385  11.451  -6.473  1.00  0.00     0.202 C 
ATOM     20  O   UNL     1      18.720   9.215  -7.237  1.00  0.00    -0.341 OA
ATOM     21  C   UNL     1      20.559  10.885  -5.667  1.00  0.00     0.179 C 
ATOM     22  C   UNL     1      19.762   8.569  -6.512  1.00  0.00     0.178 C 
ATOM     23  C   UNL     1      20.306   9.404  -5.317  1.00  0.00     0.177 C 
BRANCH  19  24
ATOM     24  O   UNL     1      18.268  11.582  -5.631  1.00  0.00    -0.385 OA
ATOM     25  H   UNL     1      18.598  11.508  -4.698  1.00  0.00     0.211 HD
ENDBRANCH  19  24
BRANCH  21  26
ATOM     26  O   UNL     1      21.752  11.052  -6.392  1.00  0.00    -0.387 OA
ATOM     27  H   UNL     1      22.473  10.603  -5.879  1.00  0.00     0.211 HD
ENDBRANCH  21  26
BRANCH  22  28
ATOM     28  C   UNL     1      20.819   7.912  -7.437  1.00  0.00     0.191 C 
BRANCH  28  29
ATOM     29  O   UNL     1      22.067   8.534  -7.342  1.00  0.00    -0.394 OA
ATOM     30  H   UNL     1      21.955   9.446  -7.720  1.00  0.00     0.210 HD
ENDBRANCH  28  29
ENDBRANCH  22  28
BRANCH  23  31
ATOM     31  O   UNL     1      21.473   8.827  -4.784  1.00  0.00    -0.387 OA
ATOM     32  H   UNL     1      21.998   8.480  -5.552  1.00  0.00     0.211 HD
ENDBRANCH  23  31
ENDBRANCH   1  18
TORSDOF 11
ENDMDL
MODEL 4
REMARK VINA RESULT:     1.941      1.994      6.605
REMARK INTER + INTRA:           2.589
REMARK INTER:                   2.440
REMARK INTRA:                   0.148
REMARK UNBOUND:                -0.318
REMARK SMILES COC(=O)C1=CO[C@H](O[C@H]2O[C@@H](CO)[C@@H](O)[C@@H](O)[C@@H]2O)[C@H]2C(CO)=CC[C@H]12
REMARK SMILES IDX 9 1 8 2 5 3 6 4 27 5 7 6 21 7 26 8 22 9 25 10 3 11 4 12 2 13
REMARK SMILES IDX 1 14 23 15 24 16 10 18 19 19 11 20 17 21 12 22 15 23 20 24
REMARK SMILES IDX 18 26 13 28 14 29 16 31
REMARK H PARENT 24 17 20 25 18 27 14 30 16 32
REMARK Flexibility Score: inf
ROOT
ATOM      1  O   UNL     1      19.371  13.288  -9.626  1.00  0.00    -0.310 OA
ENDROOT
BRANCH   1   2
ATOM      2  C   UNL     1      19.955  12.500  -8.596  1.00  0.00     0.316 C 
ATOM      3  C   UNL     1      20.099   9.905  -7.258  1.00  0.00     0.076 C 
ATOM      4  C   UNL     1      19.059  10.737  -7.025  1.00  0.00     0.202 C 
ATOM      5  C   UNL     1      21.246  10.470  -8.056  1.00  0.00     0.047 C 
ATOM      6  O   UNL     1      18.994  12.018  -7.623  1.00  0.00    -0.471 OA
ATOM      7  C   UNL     1      20.681  11.296  -9.201  1.00  0.00     0.094 C 
ATOM      8  C   UNL     1      22.248   9.560  -8.767  1.00  0.00     0.037 C 
ATOM      9  C   UNL     1      21.883  11.482 -10.064  1.00  0.00    -0.039 C 
ATOM     10  C   UNL     1      22.727  10.464  -9.869  1.00  0.00    -0.024 C 
BRANCH   3  11
ATOM     11  C   UNL     1      20.182   8.594  -6.582  1.00  0.00     0.337 C 
ATOM     12  O   UNL     1      19.134   7.930  -6.353  1.00  0.00    -0.246 OA
BRANCH  11  13
ATOM     13  O   UNL     1      21.425   8.103  -6.180  1.00  0.00    -0.466 OA
ATOM     14  C   UNL     1      21.589   7.267  -5.043  1.00  0.00     0.282 C 
ENDBRANCH  11  13
ENDBRANCH   3  11
BRANCH   9  15
ATOM     15  C   UNL     1      22.036  12.532 -11.125  1.00  0.00     0.187 C 
BRANCH  15  16
ATOM     16  O   UNL     1      23.112  13.363 -10.800  1.00  0.00    -0.392 OA
ATOM     17  H   UNL     1      23.828  12.771 -10.455  1.00  0.00     0.211 HD
ENDBRANCH  15  16
ENDBRANCH   9  15
ENDBRANCH   1   2
BRANCH   1  18
ATOM     18  C   UNL     1      20.184  14.373 -10.042  1.00  0.00     0.286 C 
ATOM     19  C   UNL     1      20.482  15.305  -8.850  1.00  0.00     0.202 C 
ATOM     20  O   UNL     1      19.590  15.076 -11.125  1.00  0.00    -0.341 OA
ATOM     21  C   UNL     1      19.204  15.992  -8.359  1.00  0.00     0.179 C 
ATOM     22  C   UNL     1      18.363  15.722 -10.795  1.00  0.00     0.178 C 
ATOM     23  C   UNL     1      18.455  16.640  -9.543  1.00  0.00     0.177 C 
BRANCH  19  24
ATOM     24  O   UNL     1      21.417  16.283  -9.229  1.00  0.00    -0.385 OA
ATOM     25  H   UNL     1      21.131  17.135  -8.808  1.00  0.00     0.211 HD
ENDBRANCH  19  24
BRANCH  21  26
ATOM     26  O   UNL     1      18.399  15.062  -7.680  1.00  0.00    -0.387 OA
ATOM     27  H   UNL     1      17.587  14.918  -8.232  1.00  0.00     0.211 HD
ENDBRANCH  21  26
BRANCH  22  28
ATOM     28  C   UNL     1      17.144  14.768 -10.868  1.00  0.00     0.191 C 
BRANCH  28  29
ATOM     29  O   UNL     1      15.940  15.458 -11.033  1.00  0.00    -0.394 OA
ATOM     30  H   UNL     1      15.540  15.546 -10.127  1.00  0.00     0.210 HD
ENDBRANCH  28  29
ENDBRANCH  22  28
BRANCH  23  31
ATOM     31  O   UNL     1      17.179  17.066  -9.132  1.00  0.00    -0.387 OA
ATOM     32  H   UNL     1      16.575  16.282  -9.209  1.00  0.00     0.211 HD
ENDBRANCH  23  31
ENDBRANCH   1  18
TORSDOF 11
ENDMDL
