MODEL 1
REMARK VINA RESULT:    -4.224      0.000      0.000
REMARK INTER + INTRA:         -13.056
REMARK INTER:                  -9.164
REMARK INTRA:                  -3.892
REMARK UNBOUND:                -3.892
REMARK SMILES CCCCCCCCCCCCCCCCCCCCCC(=O)[O-]
REMARK SMILES IDX 12 1 11 2 10 3 9 4 8 5 7 6 6 7 5 8 4 9 3 10 2 11 1 12 13 13
REMARK SMILES IDX 14 14 15 15 16 16 17 17 18 18 19 19 20 20 21 21 22 22 23 23
REMARK SMILES IDX 24 24
REMARK H PARENT
REMARK Flexibility Score: inf
ROOT
ATOM      1  C   UNL     1       8.632 -16.645  20.328  1.00  0.00     0.000 C 
ENDROOT
BRANCH   1   2
ATOM      2  C   UNL     1       9.570 -17.727  20.897  1.00  0.00     0.000 C 
BRANCH   2   3
ATOM      3  C   UNL     1      10.149 -17.433  22.292  1.00  0.00     0.000 C 
BRANCH   3   4
ATOM      4  C   UNL     1      10.576 -15.966  22.470  1.00  0.00    -0.000 C 
BRANCH   4   5
ATOM      5  C   UNL     1      11.064 -15.662  23.896  1.00  0.00    -0.000 C 
BRANCH   5   6
ATOM      6  C   UNL     1       9.960 -15.845  24.953  1.00  0.00    -0.000 C 
BRANCH   6   7
ATOM      7  C   UNL     1      10.417 -16.709  26.138  1.00  0.00    -0.000 C 
BRANCH   7   8
ATOM      8  C   UNL     1      10.406 -18.213  25.814  1.00  0.00    -0.000 C 
BRANCH   8   9
ATOM      9  C   UNL     1      11.383 -19.009  26.706  1.00  0.00    -0.000 C 
BRANCH   9  10
ATOM     10  C   UNL     1      12.696 -19.383  25.998  1.00  0.00    -0.000 C 
BRANCH  10  11
ATOM     11  C   UNL     1      12.767 -18.864  24.556  1.00  0.00    -0.003 C 
ATOM     12  C   UNL     1      12.966 -20.008  23.566  1.00  0.00     0.004 C 
ENDBRANCH  10  11
ENDBRANCH   9  10
ENDBRANCH   8   9
ENDBRANCH   7   8
ENDBRANCH   6   7
ENDBRANCH   5   6
ENDBRANCH   4   5
ENDBRANCH   3   4
ENDBRANCH   2   3
ENDBRANCH   1   2
BRANCH   1  13
ATOM     13  C   UNL     1       7.210 -16.717  20.910  1.00  0.00     0.000 C 
BRANCH  13  14
ATOM     14  C   UNL     1       6.852 -15.495  21.775  1.00  0.00     0.000 C 
BRANCH  14  15
ATOM     15  C   UNL     1       6.858 -15.737  23.296  1.00  0.00     0.000 C 
BRANCH  15  16
ATOM     16  C   UNL     1       6.163 -17.049  23.697  1.00  0.00     0.000 C 
BRANCH  16  17
ATOM     17  C   UNL     1       7.102 -18.021  24.433  1.00  0.00     0.000 C 
BRANCH  17  18
ATOM     18  C   UNL     1       7.297 -19.387  23.744  1.00  0.00     0.000 C 
BRANCH  18  19
ATOM     19  C   UNL     1       6.152 -19.767  22.782  1.00  0.00     0.000 C 
BRANCH  19  20
ATOM     20  C   UNL     1       6.652 -20.583  21.580  1.00  0.00     0.006 C 
BRANCH  20  21
ATOM     21  C   UNL     1       8.137 -20.924  21.726  1.00  0.00     0.053 C 
BRANCH  21  22
ATOM     22  C   UNL     1       8.561 -21.891  20.665  1.00  0.00     0.041 C 
ATOM     23  O   UNL     1       8.365 -21.623  19.451  1.00  0.00    -0.550 OA
ATOM     24  O   UNL     1       9.133 -23.106  21.020  1.00  0.00    -0.550 OA
ENDBRANCH  21  22
ENDBRANCH  20  21
ENDBRANCH  19  20
ENDBRANCH  18  19
ENDBRANCH  17  18
ENDBRANCH  16  17
ENDBRANCH  15  16
ENDBRANCH  14  15
ENDBRANCH  13  14
ENDBRANCH   1  13
TORSDOF 20
ENDMDL
MODEL 2
REMARK VINA RESULT:    -4.166      1.846      4.734
REMARK INTER + INTRA:         -12.930
REMARK INTER:                  -8.628
REMARK INTRA:                  -4.302
REMARK UNBOUND:                -3.892
REMARK SMILES CCCCCCCCCCCCCCCCCCCCCC(=O)[O-]
REMARK SMILES IDX 12 1 11 2 10 3 9 4 8 5 7 6 6 7 5 8 4 9 3 10 2 11 1 12 13 13
REMARK SMILES IDX 14 14 15 15 16 16 17 17 18 18 19 19 20 20 21 21 22 22 23 23
REMARK SMILES IDX 24 24
REMARK H PARENT
REMARK Flexibility Score: inf
ROOT
ATOM      1  C   UNL     1      10.000 -14.894  23.910  1.00  0.00     0.000 C 
ENDROOT
BRANCH   1   2
ATOM      2  C   UNL     1      10.689 -16.115  24.548  1.00  0.00     0.000 C 
BRANCH   2   3
ATOM      3  C   UNL     1      10.111 -16.569  25.900  1.00  0.00     0.000 C 
BRANCH   3   4
ATOM      4  C   UNL     1       9.728 -18.059  25.922  1.00  0.00    -0.000 C 
BRANCH   4   5
ATOM      5  C   UNL     1       8.999 -18.499  24.641  1.00  0.00    -0.000 C 
BRANCH   5   6
ATOM      6  C   UNL     1       7.519 -18.840  24.888  1.00  0.00    -0.000 C 
BRANCH   6   7
ATOM      7  C   UNL     1       7.031 -20.008  24.018  1.00  0.00    -0.000 C 
BRANCH   7   8
ATOM      8  C   UNL     1       6.362 -19.538  22.714  1.00  0.00    -0.000 C 
BRANCH   8   9
ATOM      9  C   UNL     1       6.998 -20.186  21.466  1.00  0.00    -0.000 C 
BRANCH   9  10
ATOM     10  C   UNL     1       8.372 -20.823  21.737  1.00  0.00    -0.000 C 
BRANCH  10  11
ATOM     11  C   UNL     1       9.303 -20.778  20.519  1.00  0.00    -0.003 C 
ATOM     12  C   UNL     1       8.512 -20.596  19.226  1.00  0.00     0.004 C 
ENDBRANCH  10  11
ENDBRANCH   9  10
ENDBRANCH   8   9
ENDBRANCH   7   8
ENDBRANCH   6   7
ENDBRANCH   5   6
ENDBRANCH   4   5
ENDBRANCH   3   4
ENDBRANCH   2   3
ENDBRANCH   1   2
BRANCH   1  13
ATOM     13  C   UNL     1       8.544 -14.715  24.374  1.00  0.00     0.000 C 
BRANCH  13  14
ATOM     14  C   UNL     1       7.539 -14.696  23.208  1.00  0.00     0.000 C 
BRANCH  14  15
ATOM     15  C   UNL     1       7.350 -16.038  22.477  1.00  0.00     0.000 C 
BRANCH  15  16
ATOM     16  C   UNL     1       7.467 -15.911  20.950  1.00  0.00     0.000 C 
BRANCH  16  17
ATOM     17  C   UNL     1       8.454 -16.922  20.340  1.00  0.00     0.000 C 
BRANCH  17  18
ATOM     18  C   UNL     1       9.644 -17.299  21.245  1.00  0.00     0.000 C 
BRANCH  18  19
ATOM     19  C   UNL     1      10.987 -17.409  20.494  1.00  0.00     0.000 C 
BRANCH  19  20
ATOM     20  C   UNL     1      12.162 -17.689  21.444  1.00  0.00     0.006 C 
BRANCH  20  21
ATOM     21  C   UNL     1      11.865 -18.887  22.348  1.00  0.00     0.053 C 
BRANCH  21  22
ATOM     22  C   UNL     1      12.705 -20.062  21.957  1.00  0.00     0.041 C 
ATOM     23  O   UNL     1      13.686 -19.907  21.185  1.00  0.00    -0.550 OA
ATOM     24  O   UNL     1      12.377 -21.333  22.411  1.00  0.00    -0.550 OA
ENDBRANCH  21  22
ENDBRANCH  20  21
ENDBRANCH  19  20
ENDBRANCH  18  19
ENDBRANCH  17  18
ENDBRANCH  16  17
ENDBRANCH  15  16
ENDBRANCH  14  15
ENDBRANCH  13  14
ENDBRANCH   1  13
TORSDOF 20
ENDMDL
MODEL 3
REMARK VINA RESULT:    -4.147      2.466      5.259
REMARK INTER + INTRA:         -12.887
REMARK INTER:                  -8.836
REMARK INTRA:                  -4.051
REMARK UNBOUND:                -3.892
REMARK SMILES CCCCCCCCCCCCCCCCCCCCCC(=O)[O-]
REMARK SMILES IDX 12 1 11 2 10 3 9 4 8 5 7 6 6 7 5 8 4 9 3 10 2 11 1 12 13 13
REMARK SMILES IDX 14 14 15 15 16 16 17 17 18 18 19 19 20 20 21 21 22 22 23 23
REMARK SMILES IDX 24 24
REMARK H PARENT
REMARK Flexibility Score: inf
ROOT
ATOM      1  C   UNL     1       7.464 -18.668  24.292  1.00  0.00     0.000 C 
ENDROOT
BRANCH   1   2
ATOM      2  C   UNL     1       6.891 -20.049  23.921  1.00  0.00     0.000 C 
BRANCH   2   3
ATOM      3  C   UNL     1       6.042 -20.089  22.638  1.00  0.00     0.000 C 
BRANCH   3   4
ATOM      4  C   UNL     1       6.887 -20.251  21.362  1.00  0.00    -0.000 C 
BRANCH   4   5
ATOM      5  C   UNL     1       7.814 -21.476  21.419  1.00  0.00    -0.000 C 
BRANCH   5   6
ATOM      6  C   UNL     1       9.303 -21.101  21.314  1.00  0.00    -0.000 C 
BRANCH   6   7
ATOM      7  C   UNL     1       9.519 -19.588  21.156  1.00  0.00    -0.000 C 
BRANCH   7   8
ATOM      8  C   UNL     1      10.452 -19.007  22.233  1.00  0.00    -0.000 C 
BRANCH   8   9
ATOM      9  C   UNL     1      11.802 -18.545  21.644  1.00  0.00    -0.000 C 
BRANCH   9  10
ATOM     10  C   UNL     1      11.889 -17.025  21.425  1.00  0.00    -0.000 C 
BRANCH  10  11
ATOM     11  C   UNL     1      13.328 -16.493  21.482  1.00  0.00    -0.003 C 
ATOM     12  C   UNL     1      13.636 -15.882  22.847  1.00  0.00     0.004 C 
ENDBRANCH  10  11
ENDBRANCH   9  10
ENDBRANCH   8   9
ENDBRANCH   7   8
ENDBRANCH   6   7
ENDBRANCH   5   6
ENDBRANCH   4   5
ENDBRANCH   3   4
ENDBRANCH   2   3
ENDBRANCH   1   2
BRANCH   1  13
ATOM     13  C   UNL     1       6.373 -17.605  24.515  1.00  0.00     0.000 C 
BRANCH  13  14
ATOM     14  C   UNL     1       6.486 -16.415  23.545  1.00  0.00     0.000 C 
BRANCH  14  15
ATOM     15  C   UNL     1       7.266 -16.693  22.246  1.00  0.00     0.000 C 
BRANCH  15  16
ATOM     16  C   UNL     1       8.577 -15.896  22.152  1.00  0.00     0.000 C 
BRANCH  16  17
ATOM     17  C   UNL     1       8.850 -15.044  23.404  1.00  0.00     0.000 C 
BRANCH  17  18
ATOM     18  C   UNL     1       9.997 -15.552  24.301  1.00  0.00     0.000 C 
BRANCH  18  19
ATOM     19  C   UNL     1       9.545 -15.949  25.722  1.00  0.00     0.000 C 
BRANCH  19  20
ATOM     20  C   UNL     1      10.271 -17.205  26.232  1.00  0.00     0.006 C 
BRANCH  20  21
ATOM     21  C   UNL     1      11.482 -17.534  25.355  1.00  0.00     0.053 C 
BRANCH  21  22
ATOM     22  C   UNL     1      12.046 -18.871  25.719  1.00  0.00     0.041 C 
ATOM     23  O   UNL     1      12.793 -19.483  24.911  1.00  0.00    -0.550 OA
ATOM     24  O   UNL     1      11.713 -19.459  26.933  1.00  0.00    -0.550 OA
ENDBRANCH  21  22
ENDBRANCH  20  21
ENDBRANCH  19  20
ENDBRANCH  18  19
ENDBRANCH  17  18
ENDBRANCH  16  17
ENDBRANCH  15  16
ENDBRANCH  14  15
ENDBRANCH  13  14
ENDBRANCH   1  13
TORSDOF 20
ENDMDL
MODEL 4
REMARK VINA RESULT:    -4.129      1.900      4.421
REMARK INTER + INTRA:         -12.849
REMARK INTER:                  -8.586
REMARK INTRA:                  -4.263
REMARK UNBOUND:                -3.892
REMARK SMILES CCCCCCCCCCCCCCCCCCCCCC(=O)[O-]
REMARK SMILES IDX 12 1 11 2 10 3 9 4 8 5 7 6 6 7 5 8 4 9 3 10 2 11 1 12 13 13
REMARK SMILES IDX 14 14 15 15 16 16 17 17 18 18 19 19 20 20 21 21 22 22 23 23
REMARK SMILES IDX 24 24
REMARK H PARENT
REMARK Flexibility Score: inf
ROOT
ATOM      1  C   UNL     1       6.742 -17.934  25.329  1.00  0.00     0.000 C 
ENDROOT
BRANCH   1   2
ATOM      2  C   UNL     1       7.141 -19.409  25.528  1.00  0.00     0.000 C 
BRANCH   2   3
ATOM      3  C   UNL     1       6.736 -20.363  24.390  1.00  0.00     0.000 C 
BRANCH   3   4
ATOM      4  C   UNL     1       6.110 -19.633  23.188  1.00  0.00    -0.000 C 
BRANCH   4   5
ATOM      5  C   UNL     1       7.093 -19.474  22.017  1.00  0.00    -0.000 C 
BRANCH   5   6
ATOM      6  C   UNL     1       8.011 -20.698  21.842  1.00  0.00    -0.000 C 
BRANCH   6   7
ATOM      7  C   UNL     1       9.494 -20.356  22.050  1.00  0.00    -0.000 C 
BRANCH   7   8
ATOM      8  C   UNL     1       9.705 -18.918  22.557  1.00  0.00    -0.000 C 
BRANCH   8   9
ATOM      9  C   UNL     1      10.722 -18.853  23.716  1.00  0.00    -0.000 C 
BRANCH   9  10
ATOM     10  C   UNL     1      11.318 -17.452  23.933  1.00  0.00    -0.000 C 
BRANCH  10  11
ATOM     11  C   UNL     1      11.139 -16.531  22.719  1.00  0.00    -0.003 C 
ATOM     12  C   UNL     1      11.188 -15.062  23.130  1.00  0.00     0.004 C 
ENDBRANCH  10  11
ENDBRANCH   9  10
ENDBRANCH   8   9
ENDBRANCH   7   8
ENDBRANCH   6   7
ENDBRANCH   5   6
ENDBRANCH   4   5
ENDBRANCH   3   4
ENDBRANCH   2   3
ENDBRANCH   1   2
BRANCH   1  13
ATOM     13  C   UNL     1       7.946 -16.976  25.368  1.00  0.00     0.000 C 
BRANCH  13  14
ATOM     14  C   UNL     1       7.819 -15.811  24.369  1.00  0.00     0.000 C 
BRANCH  14  15
ATOM     15  C   UNL     1       6.696 -15.956  23.325  1.00  0.00     0.000 C 
BRANCH  15  16
ATOM     16  C   UNL     1       7.016 -15.246  21.999  1.00  0.00     0.000 C 
BRANCH  16  17
ATOM     17  C   UNL     1       7.844 -16.118  21.039  1.00  0.00     0.000 C 
BRANCH  17  18
ATOM     18  C   UNL     1       7.082 -16.631  19.801  1.00  0.00     0.000 C 
BRANCH  18  19
ATOM     19  C   UNL     1       8.002 -17.089  18.650  1.00  0.00     0.000 C 
BRANCH  19  20
ATOM     20  C   UNL     1       9.087 -18.067  19.128  1.00  0.00     0.006 C 
BRANCH  20  21
ATOM     21  C   UNL     1       8.961 -19.417  18.418  1.00  0.00     0.053 C 
BRANCH  21  22
ATOM     22  C   UNL     1      10.307 -19.920  18.002  1.00  0.00     0.041 C 
ATOM     23  O   UNL     1      10.767 -19.628  16.867  1.00  0.00    -0.550 OA
ATOM     24  O   UNL     1      11.035 -20.745  18.849  1.00  0.00    -0.550 OA
ENDBRANCH  21  22
ENDBRANCH  20  21
ENDBRANCH  19  20
ENDBRANCH  18  19
ENDBRANCH  17  18
ENDBRANCH  16  17
ENDBRANCH  15  16
ENDBRANCH  14  15
ENDBRANCH  13  14
ENDBRANCH   1  13
TORSDOF 20
ENDMDL
MODEL 5
REMARK VINA RESULT:    -4.080      2.926      5.736
REMARK INTER + INTRA:         -12.743
REMARK INTER:                  -8.905
REMARK INTRA:                  -3.838
REMARK UNBOUND:                -3.892
REMARK SMILES CCCCCCCCCCCCCCCCCCCCCC(=O)[O-]
REMARK SMILES IDX 12 1 11 2 10 3 9 4 8 5 7 6 6 7 5 8 4 9 3 10 2 11 1 12 13 13
REMARK SMILES IDX 14 14 15 15 16 16 17 17 18 18 19 19 20 20 21 21 22 22 23 23
REMARK SMILES IDX 24 24
REMARK H PARENT
REMARK Flexibility Score: inf
ROOT
ATOM      1  C   UNL     1       8.957 -18.868  23.091  1.00  0.00     0.000 C 
ENDROOT
BRANCH   1   2
ATOM      2  C   UNL     1       9.513 -18.703  21.664  1.00  0.00     0.000 C 
BRANCH   2   3
ATOM      3  C   UNL     1       9.453 -17.275  21.092  1.00  0.00     0.000 C 
BRANCH   3   4
ATOM      4  C   UNL     1       8.273 -17.062  20.128  1.00  0.00    -0.000 C 
BRANCH   4   5
ATOM      5  C   UNL     1       7.626 -18.385  19.686  1.00  0.00    -0.000 C 
BRANCH   5   6
ATOM      6  C   UNL     1       8.175 -18.895  18.342  1.00  0.00    -0.000 C 
BRANCH   6   7
ATOM      7  C   UNL     1       8.558 -20.383  18.389  1.00  0.00    -0.000 C 
BRANCH   7   8
ATOM      8  C   UNL     1      10.067 -20.612  18.192  1.00  0.00    -0.000 C 
BRANCH   8   9
ATOM      9  C   UNL     1      10.802 -19.323  17.766  1.00  0.00    -0.000 C 
BRANCH   9  10
ATOM     10  C   UNL     1      11.926 -18.909  18.731  1.00  0.00    -0.000 C 
BRANCH  10  11
ATOM     11  C   UNL     1      13.105 -19.891  18.733  1.00  0.00    -0.003 C 
ATOM     12  C   UNL     1      13.599 -20.157  20.152  1.00  0.00     0.004 C 
ENDBRANCH  10  11
ENDBRANCH   9  10
ENDBRANCH   8   9
ENDBRANCH   7   8
ENDBRANCH   6   7
ENDBRANCH   5   6
ENDBRANCH   4   5
ENDBRANCH   3   4
ENDBRANCH   2   3
ENDBRANCH   1   2
BRANCH   1  13
ATOM     13  C   UNL     1       7.577 -19.549  23.124  1.00  0.00     0.000 C 
BRANCH  13  14
ATOM     14  C   UNL     1       6.417 -18.549  23.282  1.00  0.00     0.000 C 
BRANCH  14  15
ATOM     15  C   UNL     1       6.754 -17.264  24.062  1.00  0.00     0.000 C 
BRANCH  15  16
ATOM     16  C   UNL     1       6.582 -15.989  23.221  1.00  0.00     0.000 C 
BRANCH  16  17
ATOM     17  C   UNL     1       7.692 -14.954  23.470  1.00  0.00     0.000 C 
BRANCH  17  18
ATOM     18  C   UNL     1       8.724 -15.350  24.545  1.00  0.00     0.000 C 
BRANCH  18  19
ATOM     19  C   UNL     1      10.188 -15.250  24.069  1.00  0.00     0.000 C 
BRANCH  19  20
ATOM     20  C   UNL     1      11.081 -16.326  24.706  1.00  0.00     0.006 C 
BRANCH  20  21
ATOM     21  C   UNL     1      10.370 -17.006  25.879  1.00  0.00     0.053 C 
BRANCH  21  22
ATOM     22  C   UNL     1      10.966 -18.353  26.144  1.00  0.00     0.041 C 
ATOM     23  O   UNL     1      10.780 -18.918  27.254  1.00  0.00    -0.550 OA
ATOM     24  O   UNL     1      11.760 -18.965  25.183  1.00  0.00    -0.550 OA
ENDBRANCH  21  22
ENDBRANCH  20  21
ENDBRANCH  19  20
ENDBRANCH  18  19
ENDBRANCH  17  18
ENDBRANCH  16  17
ENDBRANCH  15  16
ENDBRANCH  14  15
ENDBRANCH  13  14
ENDBRANCH   1  13
TORSDOF 20
ENDMDL
MODEL 6
REMARK VINA RESULT:    -4.048      3.071      6.213
REMARK INTER + INTRA:         -12.674
REMARK INTER:                  -8.646
REMARK INTRA:                  -4.028
REMARK UNBOUND:                -3.892
REMARK SMILES CCCCCCCCCCCCCCCCCCCCCC(=O)[O-]
REMARK SMILES IDX 12 1 11 2 10 3 9 4 8 5 7 6 6 7 5 8 4 9 3 10 2 11 1 12 13 13
REMARK SMILES IDX 14 14 15 15 16 16 17 17 18 18 19 19 20 20 21 21 22 22 23 23
REMARK SMILES IDX 24 24
REMARK H PARENT
REMARK Flexibility Score: inf
ROOT
ATOM      1  C   UNL     1       9.687 -14.934  24.068  1.00  0.00     0.000 C 
ENDROOT
BRANCH   1   2
ATOM      2  C   UNL     1       8.817 -15.483  22.921  1.00  0.00     0.000 C 
BRANCH   2   3
ATOM      3  C   UNL     1       7.359 -15.803  23.294  1.00  0.00     0.000 C 
BRANCH   3   4
ATOM      4  C   UNL     1       6.937 -17.231  22.903  1.00  0.00    -0.000 C 
BRANCH   4   5
ATOM      5  C   UNL     1       6.598 -18.101  24.124  1.00  0.00    -0.000 C 
BRANCH   5   6
ATOM      6  C   UNL     1       6.850 -19.598  23.874  1.00  0.00    -0.000 C 
BRANCH   6   7
ATOM      7  C   UNL     1       6.488 -20.027  22.444  1.00  0.00    -0.000 C 
BRANCH   7   8
ATOM      8  C   UNL     1       7.520 -20.991  21.835  1.00  0.00    -0.000 C 
BRANCH   8   9
ATOM      9  C   UNL     1       8.913 -20.341  21.695  1.00  0.00    -0.000 C 
BRANCH   9  10
ATOM     10  C   UNL     1       9.075 -19.503  20.415  1.00  0.00    -0.000 C 
BRANCH  10  11
ATOM     11  C   UNL     1       9.893 -18.224  20.637  1.00  0.00    -0.003 C 
ATOM     12  C   UNL     1       9.376 -17.081  19.768  1.00  0.00     0.004 C 
ENDBRANCH  10  11
ENDBRANCH   9  10
ENDBRANCH   8   9
ENDBRANCH   7   8
ENDBRANCH   6   7
ENDBRANCH   5   6
ENDBRANCH   4   5
ENDBRANCH   3   4
ENDBRANCH   2   3
ENDBRANCH   1   2
BRANCH   1  13
ATOM     13  C   UNL     1       9.314 -15.522  25.440  1.00  0.00     0.000 C 
BRANCH  13  14
ATOM     14  C   UNL     1      10.318 -16.581  25.933  1.00  0.00     0.000 C 
BRANCH  14  15
ATOM     15  C   UNL     1      10.028 -18.025  25.485  1.00  0.00     0.000 C 
BRANCH  15  16
ATOM     16  C   UNL     1      10.815 -18.432  24.228  1.00  0.00     0.000 C 
BRANCH  16  17
ATOM     17  C   UNL     1      12.276 -17.951  24.256  1.00  0.00     0.000 C 
BRANCH  17  18
ATOM     18  C   UNL     1      12.753 -17.237  22.975  1.00  0.00     0.000 C 
BRANCH  18  19
ATOM     19  C   UNL     1      13.402 -15.862  23.235  1.00  0.00     0.000 C 
BRANCH  19  20
ATOM     20  C   UNL     1      12.761 -14.749  22.390  1.00  0.00     0.006 C 
BRANCH  20  21
ATOM     21  C   UNL     1      12.533 -15.214  20.950  1.00  0.00     0.053 C 
BRANCH  21  22
ATOM     22  C   UNL     1      13.681 -14.810  20.079  1.00  0.00     0.041 C 
ATOM     23  O   UNL     1      13.963 -13.592  19.930  1.00  0.00    -0.550 OA
ATOM     24  O   UNL     1      14.413 -15.776  19.400  1.00  0.00    -0.550 OA
ENDBRANCH  21  22
ENDBRANCH  20  21
ENDBRANCH  19  20
ENDBRANCH  18  19
ENDBRANCH  17  18
ENDBRANCH  16  17
ENDBRANCH  15  16
ENDBRANCH  14  15
ENDBRANCH  13  14
ENDBRANCH   1  13
TORSDOF 20
ENDMDL
MODEL 7
REMARK VINA RESULT:    -4.025      1.676      3.634
REMARK INTER + INTRA:         -12.624
REMARK INTER:                  -9.080
REMARK INTRA:                  -3.544
REMARK UNBOUND:                -3.892
REMARK SMILES CCCCCCCCCCCCCCCCCCCCCC(=O)[O-]
REMARK SMILES IDX 12 1 11 2 10 3 9 4 8 5 7 6 6 7 5 8 4 9 3 10 2 11 1 12 13 13
REMARK SMILES IDX 14 14 15 15 16 16 17 17 18 18 19 19 20 20 21 21 22 22 23 23
REMARK SMILES IDX 24 24
REMARK H PARENT
REMARK Flexibility Score: inf
ROOT
ATOM      1  C   UNL     1       6.775 -15.942  23.373  1.00  0.00     0.000 C 
ENDROOT
BRANCH   1   2
ATOM      2  C   UNL     1       7.899 -14.958  23.752  1.00  0.00     0.000 C 
BRANCH   2   3
ATOM      3  C   UNL     1       8.630 -15.266  25.071  1.00  0.00     0.000 C 
BRANCH   3   4
ATOM      4  C   UNL     1      10.035 -15.857  24.856  1.00  0.00    -0.000 C 
BRANCH   4   5
ATOM      5  C   UNL     1      10.339 -17.018  25.817  1.00  0.00    -0.000 C 
BRANCH   5   6
ATOM      6  C   UNL     1      11.196 -18.118  25.166  1.00  0.00    -0.000 C 
BRANCH   6   7
ATOM      7  C   UNL     1      12.695 -17.780  25.176  1.00  0.00    -0.000 C 
BRANCH   7   8
ATOM      8  C   UNL     1      13.438 -18.342  23.951  1.00  0.00    -0.000 C 
BRANCH   8   9
ATOM      9  C   UNL     1      13.658 -17.272  22.861  1.00  0.00    -0.000 C 
BRANCH   9  10
ATOM     10  C   UNL     1      13.250 -15.855  23.300  1.00  0.00    -0.000 C 
BRANCH  10  11
ATOM     11  C   UNL     1      12.774 -14.981  22.132  1.00  0.00    -0.003 C 
ATOM     12  C   UNL     1      13.639 -13.731  21.990  1.00  0.00     0.004 C 
ENDBRANCH  10  11
ENDBRANCH   9  10
ENDBRANCH   8   9
ENDBRANCH   7   8
ENDBRANCH   6   7
ENDBRANCH   5   6
ENDBRANCH   4   5
ENDBRANCH   3   4
ENDBRANCH   2   3
ENDBRANCH   1   2
BRANCH   1  13
ATOM     13  C   UNL     1       6.795 -17.230  24.214  1.00  0.00     0.000 C 
BRANCH  13  14
ATOM     14  C   UNL     1       7.506 -18.399  23.506  1.00  0.00     0.000 C 
BRANCH  14  15
ATOM     15  C   UNL     1       7.071 -18.652  22.051  1.00  0.00     0.000 C 
BRANCH  15  16
ATOM     16  C   UNL     1       8.191 -18.378  21.034  1.00  0.00     0.000 C 
BRANCH  16  17
ATOM     17  C   UNL     1       9.483 -17.865  21.692  1.00  0.00     0.000 C 
BRANCH  17  18
ATOM     18  C   UNL     1      10.725 -18.751  21.472  1.00  0.00     0.000 C 
BRANCH  18  19
ATOM     19  C   UNL     1      10.579 -20.179  22.037  1.00  0.00     0.000 C 
BRANCH  19  20
ATOM     20  C   UNL     1      10.823 -21.255  20.968  1.00  0.00     0.006 C 
BRANCH  20  21
ATOM     21  C   UNL     1       9.770 -22.363  21.052  1.00  0.00     0.053 C 
BRANCH  21  22
ATOM     22  C   UNL     1       8.514 -21.949  20.351  1.00  0.00     0.041 C 
ATOM     23  O   UNL     1       8.569 -21.473  19.187  1.00  0.00    -0.550 OA
ATOM     24  O   UNL     1       7.290 -22.050  20.999  1.00  0.00    -0.550 OA
ENDBRANCH  21  22
ENDBRANCH  20  21
ENDBRANCH  19  20
ENDBRANCH  18  19
ENDBRANCH  17  18
ENDBRANCH  16  17
ENDBRANCH  15  16
ENDBRANCH  14  15
ENDBRANCH  13  14
ENDBRANCH   1  13
TORSDOF 20
ENDMDL
MODEL 8
REMARK VINA RESULT:    -4.017      2.905      6.161
REMARK INTER + INTRA:         -12.605
REMARK INTER:                  -8.914
REMARK INTRA:                  -3.692
REMARK UNBOUND:                -3.892
REMARK SMILES CCCCCCCCCCCCCCCCCCCCCC(=O)[O-]
REMARK SMILES IDX 12 1 11 2 10 3 9 4 8 5 7 6 6 7 5 8 4 9 3 10 2 11 1 12 13 13
REMARK SMILES IDX 14 14 15 15 16 16 17 17 18 18 19 19 20 20 21 21 22 22 23 23
REMARK SMILES IDX 24 24
REMARK H PARENT
REMARK Flexibility Score: inf
ROOT
ATOM      1  C   UNL     1      10.416 -16.390  25.849  1.00  0.00     0.000 C 
ENDROOT
BRANCH   1   2
ATOM      2  C   UNL     1       8.973 -15.850  25.873  1.00  0.00     0.000 C 
BRANCH   2   3
ATOM      3  C   UNL     1       8.650 -14.780  24.816  1.00  0.00     0.000 C 
BRANCH   3   4
ATOM      4  C   UNL     1       9.047 -15.203  23.390  1.00  0.00    -0.000 C 
BRANCH   4   5
ATOM      5  C   UNL     1       8.269 -16.435  22.902  1.00  0.00    -0.000 C 
BRANCH   5   6
ATOM      6  C   UNL     1       6.754 -16.318  23.150  1.00  0.00    -0.000 C 
BRANCH   6   7
ATOM      7  C   UNL     1       6.195 -17.504  23.951  1.00  0.00    -0.000 C 
BRANCH   7   8
ATOM      8  C   UNL     1       7.253 -18.588  24.221  1.00  0.00    -0.000 C 
BRANCH   8   9
ATOM      9  C   UNL     1       6.746 -20.000  23.855  1.00  0.00    -0.000 C 
BRANCH   9  10
ATOM     10  C   UNL     1       6.439 -20.174  22.358  1.00  0.00    -0.000 C 
BRANCH  10  11
ATOM     11  C   UNL     1       7.686 -20.056  21.473  1.00  0.00    -0.003 C 
ATOM     12  C   UNL     1       7.501 -18.987  20.399  1.00  0.00     0.004 C 
ENDBRANCH  10  11
ENDBRANCH   9  10
ENDBRANCH   8   9
ENDBRANCH   7   8
ENDBRANCH   6   7
ENDBRANCH   5   6
ENDBRANCH   4   5
ENDBRANCH   3   4
ENDBRANCH   2   3
ENDBRANCH   1   2
BRANCH   1  13
ATOM     13  C   UNL     1      10.484 -17.927  25.885  1.00  0.00     0.000 C 
BRANCH  13  14
ATOM     14  C   UNL     1      11.884 -18.474  25.554  1.00  0.00     0.000 C 
BRANCH  14  15
ATOM     15  C   UNL     1      11.988 -19.276  24.243  1.00  0.00     0.000 C 
BRANCH  15  16
ATOM     16  C   UNL     1      10.841 -18.974  23.264  1.00  0.00     0.000 C 
BRANCH  16  17
ATOM     17  C   UNL     1      11.320 -18.270  21.983  1.00  0.00     0.000 C 
BRANCH  17  18
ATOM     18  C   UNL     1      12.101 -16.960  22.210  1.00  0.00     0.000 C 
BRANCH  18  19
ATOM     19  C   UNL     1      13.494 -16.944  21.548  1.00  0.00     0.000 C 
BRANCH  19  20
ATOM     20  C   UNL     1      14.590 -17.473  22.486  1.00  0.00     0.006 C 
BRANCH  20  21
ATOM     21  C   UNL     1      15.089 -18.847  22.030  1.00  0.00     0.053 C 
BRANCH  21  22
ATOM     22  C   UNL     1      15.784 -19.553  23.151  1.00  0.00     0.041 C 
ATOM     23  O   UNL     1      15.452 -19.324  24.344  1.00  0.00    -0.550 OA
ATOM     24  O   UNL     1      16.826 -20.431  22.882  1.00  0.00    -0.550 OA
ENDBRANCH  21  22
ENDBRANCH  20  21
ENDBRANCH  19  20
ENDBRANCH  18  19
ENDBRANCH  17  18
ENDBRANCH  16  17
ENDBRANCH  15  16
ENDBRANCH  14  15
ENDBRANCH  13  14
ENDBRANCH   1  13
TORSDOF 20
ENDMDL
MODEL 9
REMARK VINA RESULT:    -3.992      2.981      5.884
REMARK INTER + INTRA:         -12.552
REMARK INTER:                  -8.729
REMARK INTRA:                  -3.822
REMARK UNBOUND:                -3.892
REMARK SMILES CCCCCCCCCCCCCCCCCCCCCC(=O)[O-]
REMARK SMILES IDX 12 1 11 2 10 3 9 4 8 5 7 6 6 7 5 8 4 9 3 10 2 11 1 12 13 13
REMARK SMILES IDX 14 14 15 15 16 16 17 17 18 18 19 19 20 20 21 21 22 22 23 23
REMARK SMILES IDX 24 24
REMARK H PARENT
REMARK Flexibility Score: inf
ROOT
ATOM      1  C   UNL     1       6.461 -19.201  23.789  1.00  0.00     0.000 C 
ENDROOT
BRANCH   1   2
ATOM      2  C   UNL     1       6.661 -19.673  22.336  1.00  0.00     0.000 C 
BRANCH   2   3
ATOM      3  C   UNL     1       7.800 -20.685  22.120  1.00  0.00     0.000 C 
BRANCH   3   4
ATOM      4  C   UNL     1       7.564 -21.609  20.912  1.00  0.00    -0.000 C 
BRANCH   4   5
ATOM      5  C   UNL     1       8.747 -21.611  19.931  1.00  0.00    -0.000 C 
BRANCH   5   6
ATOM      6  C   UNL     1       8.621 -20.526  18.846  1.00  0.00    -0.000 C 
BRANCH   6   7
ATOM      7  C   UNL     1       9.869 -20.436  17.955  1.00  0.00    -0.000 C 
BRANCH   7   8
ATOM      8  C   UNL     1      10.977 -19.564  18.573  1.00  0.00    -0.000 C 
BRANCH   8   9
ATOM      9  C   UNL     1      12.033 -20.407  19.319  1.00  0.00    -0.000 C 
BRANCH   9  10
ATOM     10  C   UNL     1      12.444 -19.815  20.678  1.00  0.00    -0.000 C 
BRANCH  10  11
ATOM     11  C   UNL     1      11.668 -20.422  21.854  1.00  0.00    -0.003 C 
ATOM     12  C   UNL     1      12.268 -19.993  23.190  1.00  0.00     0.004 C 
ENDBRANCH  10  11
ENDBRANCH   9  10
ENDBRANCH   8   9
ENDBRANCH   7   8
ENDBRANCH   6   7
ENDBRANCH   5   6
ENDBRANCH   4   5
ENDBRANCH   3   4
ENDBRANCH   2   3
ENDBRANCH   1   2
BRANCH   1  13
ATOM     13  C   UNL     1       7.052 -17.805  24.053  1.00  0.00     0.000 C 
BRANCH  13  14
ATOM     14  C   UNL     1       6.361 -16.696  23.240  1.00  0.00     0.000 C 
BRANCH  14  15
ATOM     15  C   UNL     1       7.273 -15.925  22.267  1.00  0.00     0.000 C 
BRANCH  15  16
ATOM     16  C   UNL     1       7.183 -16.443  20.822  1.00  0.00     0.000 C 
BRANCH  16  17
ATOM     17  C   UNL     1       8.535 -16.941  20.281  1.00  0.00     0.000 C 
BRANCH  17  18
ATOM     18  C   UNL     1       9.506 -17.483  21.349  1.00  0.00     0.000 C 
BRANCH  18  19
ATOM     19  C   UNL     1      10.750 -16.597  21.566  1.00  0.00     0.000 C 
BRANCH  19  20
ATOM     20  C   UNL     1      11.128 -16.479  23.051  1.00  0.00     0.006 C 
BRANCH  20  21
ATOM     21  C   UNL     1      10.514 -15.223  23.676  1.00  0.00     0.053 C 
BRANCH  21  22
ATOM     22  C   UNL     1       9.880 -15.547  24.991  1.00  0.00     0.041 C 
ATOM     23  O   UNL     1       8.803 -14.988  25.328  1.00  0.00    -0.550 OA
ATOM     24  O   UNL     1      10.499 -16.433  25.863  1.00  0.00    -0.550 OA
ENDBRANCH  21  22
ENDBRANCH  20  21
ENDBRANCH  19  20
ENDBRANCH  18  19
ENDBRANCH  17  18
ENDBRANCH  16  17
ENDBRANCH  15  16
ENDBRANCH  14  15
ENDBRANCH  13  14
ENDBRANCH   1  13
TORSDOF 20
ENDMDL
