MODEL 1
REMARK VINA RESULT:    -4.465      0.000      0.000
REMARK INTER + INTRA:          -7.223
REMARK INTER:                  -6.815
REMARK INTRA:                  -0.409
REMARK UNBOUND:                -0.409
REMARK SMILES CCCCCCCCCCC(=O)[O-]
REMARK SMILES IDX 7 1 8 2 9 3 10 4 11 5 12 6 13 7 6 8 5 9 4 10 3 11 2 12 1 13
REMARK H PARENT
REMARK Flexibility Score: inf
ROOT
ATOM      1  C   UNL     1       7.802  -8.428  -1.773  1.00  0.00     0.000 C 
ENDROOT
BRANCH   1   2
ATOM      2  C   UNL     1       8.382  -9.599  -0.954  1.00  0.00     0.000 C 
BRANCH   2   3
ATOM      3  C   UNL     1       8.483  -9.349   0.565  1.00  0.00     0.006 C 
BRANCH   3   4
ATOM      4  C   UNL     1       7.774 -10.404   1.429  1.00  0.00     0.053 C 
BRANCH   4   5
ATOM      5  C   UNL     1       6.414  -9.953   1.862  1.00  0.00     0.041 C 
ATOM      6  O   UNL     1       5.507  -9.768   1.009  1.00  0.00    -0.550 OA
ATOM      7  O   UNL     1       6.138  -9.770   3.211  1.00  0.00    -0.550 OA
ENDBRANCH   4   5
ENDBRANCH   3   4
ENDBRANCH   2   3
ENDBRANCH   1   2
BRANCH   1   8
ATOM      8  C   UNL     1       7.871  -8.605  -3.300  1.00  0.00     0.000 C 
BRANCH   8   9
ATOM      9  C   UNL     1       8.294  -7.323  -4.032  1.00  0.00    -0.000 C 
BRANCH   9  10
ATOM     10  C   UNL     1       8.140  -6.096  -3.121  1.00  0.00    -0.000 C 
BRANCH  10  11
ATOM     11  C   UNL     1       8.496  -4.781  -3.833  1.00  0.00    -0.000 C 
BRANCH  11  12
ATOM     12  C   UNL     1       7.306  -4.183  -4.599  1.00  0.00    -0.003 C 
ATOM     13  C   UNL     1       7.753  -3.591  -5.932  1.00  0.00     0.004 C 
ENDBRANCH  11  12
ENDBRANCH  10  11
ENDBRANCH   9  10
ENDBRANCH   8   9
ENDBRANCH   1   8
TORSDOF 9
ENDMDL
MODEL 2
REMARK VINA RESULT:    -4.463      1.863      3.817
REMARK INTER + INTRA:          -7.219
REMARK INTER:                  -6.426
REMARK INTRA:                  -0.793
REMARK UNBOUND:                -0.409
REMARK SMILES CCCCCCCCCCC(=O)[O-]
REMARK SMILES IDX 7 1 8 2 9 3 10 4 11 5 12 6 13 7 6 8 5 9 4 10 3 11 2 12 1 13
REMARK H PARENT
REMARK Flexibility Score: inf
ROOT
ATOM      1  C   UNL     1       8.827  -5.577  -3.190  1.00  0.00     0.000 C 
ENDROOT
BRANCH   1   2
ATOM      2  C   UNL     1       8.269  -6.758  -4.010  1.00  0.00     0.000 C 
BRANCH   2   3
ATOM      3  C   UNL     1       8.253  -8.115  -3.278  1.00  0.00     0.006 C 
BRANCH   3   4
ATOM      4  C   UNL     1       7.978  -8.017  -1.769  1.00  0.00     0.053 C 
BRANCH   4   5
ATOM      5  C   UNL     1       7.728  -9.360  -1.155  1.00  0.00     0.041 C 
ATOM      6  O   UNL     1       7.085  -9.455  -0.078  1.00  0.00    -0.550 OA
ATOM      7  O   UNL     1       8.178 -10.510  -1.792  1.00  0.00    -0.550 OA
ENDBRANCH   4   5
ENDBRANCH   3   4
ENDBRANCH   2   3
ENDBRANCH   1   2
BRANCH   1   8
ATOM      8  C   UNL     1       8.737  -4.204  -3.879  1.00  0.00     0.000 C 
BRANCH   8   9
ATOM      9  C   UNL     1       7.449  -4.031  -4.698  1.00  0.00    -0.000 C 
BRANCH   9  10
ATOM     10  C   UNL     1       7.762  -3.510  -6.108  1.00  0.00    -0.000 C 
BRANCH  10  11
ATOM     11  C   UNL     1       8.784  -4.387  -6.850  1.00  0.00    -0.000 C 
BRANCH  11  12
ATOM     12  C   UNL     1       8.123  -5.541  -7.620  1.00  0.00    -0.003 C 
ATOM     13  C   UNL     1       9.023  -6.773  -7.641  1.00  0.00     0.004 C 
ENDBRANCH  11  12
ENDBRANCH  10  11
ENDBRANCH   9  10
ENDBRANCH   8   9
ENDBRANCH   1   8
TORSDOF 9
ENDMDL
MODEL 3
REMARK VINA RESULT:    -4.120      2.821      4.454
REMARK INTER + INTRA:          -6.696
REMARK INTER:                  -6.262
REMARK INTRA:                  -0.434
REMARK UNBOUND:                -0.409
REMARK SMILES CCCCCCCCCCC(=O)[O-]
REMARK SMILES IDX 7 1 8 2 9 3 10 4 11 5 12 6 13 7 6 8 5 9 4 10 3 11 2 12 1 13
REMARK H PARENT
REMARK Flexibility Score: inf
ROOT
ATOM      1  C   UNL     1       6.529  -9.690   1.650  1.00  0.00     0.000 C 
ENDROOT
BRANCH   1   2
ATOM      2  C   UNL     1       5.548 -10.749   2.194  1.00  0.00     0.000 C 
BRANCH   2   3
ATOM      3  C   UNL     1       5.491 -10.862   3.731  1.00  0.00     0.006 C 
BRANCH   3   4
ATOM      4  C   UNL     1       5.032  -9.580   4.444  1.00  0.00     0.053 C 
BRANCH   4   5
ATOM      5  C   UNL     1       3.559  -9.354   4.299  1.00  0.00     0.041 C 
ATOM      6  O   UNL     1       2.772 -10.334   4.227  1.00  0.00    -0.550 OA
ATOM      7  O   UNL     1       3.052  -8.061   4.277  1.00  0.00    -0.550 OA
ENDBRANCH   4   5
ENDBRANCH   3   4
ENDBRANCH   2   3
ENDBRANCH   1   2
BRANCH   1   8
ATOM      8  C   UNL     1       7.951 -10.204   1.367  1.00  0.00     0.000 C 
BRANCH   8   9
ATOM      9  C   UNL     1       8.638  -9.457   0.214  1.00  0.00    -0.000 C 
BRANCH   9  10
ATOM     10  C   UNL     1       7.663  -9.234  -0.952  1.00  0.00    -0.000 C 
BRANCH  10  11
ATOM     11  C   UNL     1       8.048  -8.028  -1.823  1.00  0.00    -0.000 C 
BRANCH  11  12
ATOM     12  C   UNL     1       8.240  -8.403  -3.301  1.00  0.00    -0.003 C 
ATOM     13  C   UNL     1       7.444  -9.654  -3.657  1.00  0.00     0.004 C 
ENDBRANCH  11  12
ENDBRANCH  10  11
ENDBRANCH   9  10
ENDBRANCH   8   9
ENDBRANCH   1   8
TORSDOF 9
ENDMDL
MODEL 4
REMARK VINA RESULT:    -4.084      1.678      3.277
REMARK INTER + INTRA:          -6.641
REMARK INTER:                  -6.274
REMARK INTRA:                  -0.367
REMARK UNBOUND:                -0.409
REMARK SMILES CCCCCCCCCCC(=O)[O-]
REMARK SMILES IDX 7 1 8 2 9 3 10 4 11 5 12 6 13 7 6 8 5 9 4 10 3 11 2 12 1 13
REMARK H PARENT
REMARK Flexibility Score: inf
ROOT
ATOM      1  C   UNL     1       7.036  -9.333   0.513  1.00  0.00     0.000 C 
ENDROOT
BRANCH   1   2
ATOM      2  C   UNL     1       6.601 -10.021   1.823  1.00  0.00     0.000 C 
BRANCH   2   3
ATOM      3  C   UNL     1       5.112 -10.418   1.891  1.00  0.00     0.006 C 
BRANCH   3   4
ATOM      4  C   UNL     1       4.649 -10.905   3.274  1.00  0.00     0.053 C 
BRANCH   4   5
ATOM      5  C   UNL     1       4.682  -9.810   4.294  1.00  0.00     0.041 C 
ATOM      6  O   UNL     1       5.656  -9.710   5.085  1.00  0.00    -0.550 OA
ATOM      7  O   UNL     1       3.652  -8.879   4.349  1.00  0.00    -0.550 OA
ENDBRANCH   4   5
ENDBRANCH   3   4
ENDBRANCH   2   3
ENDBRANCH   1   2
BRANCH   1   8
ATOM      8  C   UNL     1       8.557  -9.231   0.305  1.00  0.00     0.000 C 
BRANCH   8   9
ATOM      9  C   UNL     1       8.936  -8.438  -0.955  1.00  0.00    -0.000 C 
BRANCH   9  10
ATOM     10  C   UNL     1       7.949  -8.718  -2.097  1.00  0.00    -0.000 C 
BRANCH  10  11
ATOM     11  C   UNL     1       8.020  -7.665  -3.214  1.00  0.00    -0.000 C 
BRANCH  11  12
ATOM     12  C   UNL     1       8.724  -6.375  -2.765  1.00  0.00    -0.003 C 
ATOM     13  C   UNL     1       8.251  -5.178  -3.584  1.00  0.00     0.004 C 
ENDBRANCH  11  12
ENDBRANCH  10  11
ENDBRANCH   9  10
ENDBRANCH   8   9
ENDBRANCH   1   8
TORSDOF 9
ENDMDL
MODEL 5
REMARK VINA RESULT:    -4.003      3.688      7.617
REMARK INTER + INTRA:          -6.517
REMARK INTER:                  -6.315
REMARK INTRA:                  -0.202
REMARK UNBOUND:                -0.409
REMARK SMILES CCCCCCCCCCC(=O)[O-]
REMARK SMILES IDX 7 1 8 2 9 3 10 4 11 5 12 6 13 7 6 8 5 9 4 10 3 11 2 12 1 13
REMARK H PARENT
REMARK Flexibility Score: inf
ROOT
ATOM      1  C   UNL     1       8.803  -7.849  -1.637  1.00  0.00     0.000 C 
ENDROOT
BRANCH   1   2
ATOM      2  C   UNL     1       8.032  -7.208  -2.809  1.00  0.00     0.000 C 
BRANCH   2   3
ATOM      3  C   UNL     1       8.576  -5.844  -3.282  1.00  0.00     0.006 C 
BRANCH   3   4
ATOM      4  C   UNL     1       8.566  -5.653  -4.807  1.00  0.00     0.053 C 
BRANCH   4   5
ATOM      5  C   UNL     1       7.674  -4.525  -5.226  1.00  0.00     0.041 C 
ATOM      6  O   UNL     1       7.293  -3.672  -4.382  1.00  0.00    -0.550 OA
ATOM      7  O   UNL     1       7.292  -4.396  -6.555  1.00  0.00    -0.550 OA
ENDBRANCH   4   5
ENDBRANCH   3   4
ENDBRANCH   2   3
ENDBRANCH   1   2
BRANCH   1   8
ATOM      8  C   UNL     1       8.264  -9.214  -1.173  1.00  0.00     0.000 C 
BRANCH   8   9
ATOM      9  C   UNL     1       8.194  -9.340   0.356  1.00  0.00    -0.000 C 
BRANCH   9  10
ATOM     10  C   UNL     1       6.746  -9.555   0.822  1.00  0.00    -0.000 C 
BRANCH  10  11
ATOM     11  C   UNL     1       6.662 -10.149   2.238  1.00  0.00    -0.000 C 
BRANCH  11  12
ATOM     12  C   UNL     1       5.307 -10.816   2.519  1.00  0.00    -0.003 C 
ATOM     13  C   UNL     1       4.791 -10.448   3.907  1.00  0.00     0.004 C 
ENDBRANCH  11  12
ENDBRANCH  10  11
ENDBRANCH   9  10
ENDBRANCH   8   9
ENDBRANCH   1   8
TORSDOF 9
ENDMDL
MODEL 6
REMARK VINA RESULT:    -3.975      4.896      7.453
REMARK INTER + INTRA:          -6.475
REMARK INTER:                  -5.737
REMARK INTRA:                  -0.739
REMARK UNBOUND:                -0.409
REMARK SMILES CCCCCCCCCCC(=O)[O-]
REMARK SMILES IDX 7 1 8 2 9 3 10 4 11 5 12 6 13 7 6 8 5 9 4 10 3 11 2 12 1 13
REMARK H PARENT
REMARK Flexibility Score: inf
ROOT
ATOM      1  C   UNL     1       7.697  -4.331  -5.082  1.00  0.00     0.000 C 
ENDROOT
BRANCH   1   2
ATOM      2  C   UNL     1       7.909  -4.089  -6.590  1.00  0.00     0.000 C 
BRANCH   2   3
ATOM      3  C   UNL     1       8.995  -4.964  -7.248  1.00  0.00     0.006 C 
BRANCH   3   4
ATOM      4  C   UNL     1       8.830  -6.472  -7.000  1.00  0.00     0.053 C 
BRANCH   4   5
ATOM      5  C   UNL     1       8.261  -7.177  -8.193  1.00  0.00     0.041 C 
ATOM      6  O   UNL     1       7.477  -6.574  -8.970  1.00  0.00    -0.550 OA
ATOM      7  O   UNL     1       8.625  -8.490  -8.463  1.00  0.00    -0.550 OA
ENDBRANCH   4   5
ENDBRANCH   3   4
ENDBRANCH   2   3
ENDBRANCH   1   2
BRANCH   1   8
ATOM      8  C   UNL     1       8.954  -4.159  -4.211  1.00  0.00     0.000 C 
BRANCH   8   9
ATOM      9  C   UNL     1       8.965  -5.087  -2.988  1.00  0.00    -0.000 C 
BRANCH   9  10
ATOM     10  C   UNL     1       8.835  -6.557  -3.414  1.00  0.00    -0.000 C 
BRANCH  10  11
ATOM     11  C   UNL     1       8.322  -7.459  -2.280  1.00  0.00    -0.000 C 
BRANCH  11  12
ATOM     12  C   UNL     1       7.839  -8.828  -2.785  1.00  0.00    -0.003 C 
ATOM     13  C   UNL     1       7.642  -8.815  -4.298  1.00  0.00     0.004 C 
ENDBRANCH  11  12
ENDBRANCH  10  11
ENDBRANCH   9  10
ENDBRANCH   8   9
ENDBRANCH   1   8
TORSDOF 9
ENDMDL
MODEL 7
REMARK VINA RESULT:    -3.935      2.952      5.129
REMARK INTER + INTRA:          -6.414
REMARK INTER:                  -5.754
REMARK INTRA:                  -0.661
REMARK UNBOUND:                -0.409
REMARK SMILES CCCCCCCCCCC(=O)[O-]
REMARK SMILES IDX 7 1 8 2 9 3 10 4 11 5 12 6 13 7 6 8 5 9 4 10 3 11 2 12 1 13
REMARK H PARENT
REMARK Flexibility Score: inf
ROOT
ATOM      1  C   UNL     1       7.593  -4.780  -4.700  1.00  0.00     0.000 C 
ENDROOT
BRANCH   1   2
ATOM      2  C   UNL     1       8.532  -4.793  -3.477  1.00  0.00     0.000 C 
BRANCH   2   3
ATOM      3  C   UNL     1       8.857  -6.192  -2.915  1.00  0.00     0.006 C 
BRANCH   3   4
ATOM      4  C   UNL     1       8.319  -7.356  -3.763  1.00  0.00     0.053 C 
BRANCH   4   5
ATOM      5  C   UNL     1       7.833  -8.491  -2.916  1.00  0.00     0.041 C 
ATOM      6  O   UNL     1       7.704  -8.342  -1.673  1.00  0.00    -0.550 OA
ATOM      7  O   UNL     1       7.490  -9.701  -3.505  1.00  0.00    -0.550 OA
ENDBRANCH   4   5
ENDBRANCH   3   4
ENDBRANCH   2   3
ENDBRANCH   1   2
BRANCH   1   8
ATOM      8  C   UNL     1       7.844  -3.640  -5.703  1.00  0.00     0.000 C 
BRANCH   8   9
ATOM      9  C   UNL     1       8.237  -4.148  -7.098  1.00  0.00    -0.000 C 
BRANCH   9  10
ATOM     10  C   UNL     1       9.125  -5.397  -6.997  1.00  0.00    -0.000 C 
BRANCH  10  11
ATOM     11  C   UNL     1       9.125  -6.230  -8.289  1.00  0.00    -0.000 C 
BRANCH  11  12
ATOM     12  C   UNL     1       7.710  -6.629  -8.735  1.00  0.00    -0.003 C 
ATOM     13  C   UNL     1       7.740  -7.891  -9.592  1.00  0.00     0.004 C 
ENDBRANCH  11  12
ENDBRANCH  10  11
ENDBRANCH   9  10
ENDBRANCH   8   9
ENDBRANCH   1   8
TORSDOF 9
ENDMDL
MODEL 8
REMARK VINA RESULT:    -3.922      5.279      7.630
REMARK INTER + INTRA:          -6.395
REMARK INTER:                  -5.616
REMARK INTRA:                  -0.779
REMARK UNBOUND:                -0.409
REMARK SMILES CCCCCCCCCCC(=O)[O-]
REMARK SMILES IDX 7 1 8 2 9 3 10 4 11 5 12 6 13 7 6 8 5 9 4 10 3 11 2 12 1 13
REMARK H PARENT
REMARK Flexibility Score: inf
ROOT
ATOM      1  C   UNL     1       8.131  -5.458  -7.496  1.00  0.00     0.000 C 
ENDROOT
BRANCH   1   2
ATOM      2  C   UNL     1       9.122  -6.563  -7.916  1.00  0.00     0.000 C 
BRANCH   2   3
ATOM      3  C   UNL     1       8.729  -7.349  -9.183  1.00  0.00     0.006 C 
BRANCH   3   4
ATOM      4  C   UNL     1       7.215  -7.553  -9.357  1.00  0.00     0.053 C 
BRANCH   4   5
ATOM      5  C   UNL     1       6.766  -8.888  -8.847  1.00  0.00     0.041 C 
ATOM      6  O   UNL     1       7.608  -9.713  -8.406  1.00  0.00    -0.550 OA
ATOM      7  O   UNL     1       5.414  -9.206  -8.826  1.00  0.00    -0.550 OA
ENDBRANCH   4   5
ENDBRANCH   3   4
ENDBRANCH   2   3
ENDBRANCH   1   2
BRANCH   1   8
ATOM      8  C   UNL     1       8.745  -4.309  -6.676  1.00  0.00     0.000 C 
BRANCH   8   9
ATOM      9  C   UNL     1       7.703  -3.543  -5.848  1.00  0.00    -0.000 C 
BRANCH   9  10
ATOM     10  C   UNL     1       7.307  -4.337  -4.595  1.00  0.00    -0.000 C 
BRANCH  10  11
ATOM     11  C   UNL     1       8.521  -4.750  -3.747  1.00  0.00    -0.000 C 
BRANCH  11  12
ATOM     12  C   UNL     1       8.351  -6.136  -3.106  1.00  0.00    -0.003 C 
ATOM     13  C   UNL     1       8.308  -7.230  -4.168  1.00  0.00     0.004 C 
ENDBRANCH  11  12
ENDBRANCH  10  11
ENDBRANCH   9  10
ENDBRANCH   8   9
ENDBRANCH   1   8
TORSDOF 9
ENDMDL
MODEL 9
REMARK VINA RESULT:    -3.898     20.753     22.722
REMARK INTER + INTRA:          -6.357
REMARK INTER:                  -5.583
REMARK INTRA:                  -0.774
REMARK UNBOUND:                -0.409
REMARK SMILES CCCCCCCCCCC(=O)[O-]
REMARK SMILES IDX 7 1 8 2 9 3 10 4 11 5 12 6 13 7 6 8 5 9 4 10 3 11 2 12 1 13
REMARK H PARENT
REMARK Flexibility Score: inf
ROOT
ATOM      1  C   UNL     1      -6.652   7.586  -9.136  1.00  0.00     0.000 C 
ENDROOT
BRANCH   1   2
ATOM      2  C   UNL     1      -6.139   7.372 -10.575  1.00  0.00     0.000 C 
BRANCH   2   3
ATOM      3  C   UNL     1      -6.720   6.143 -11.303  1.00  0.00     0.006 C 
BRANCH   3   4
ATOM      4  C   UNL     1      -5.676   5.299 -12.051  1.00  0.00     0.053 C 
BRANCH   4   5
ATOM      5  C   UNL     1      -5.874   3.831 -11.826  1.00  0.00     0.041 C 
ATOM      6  O   UNL     1      -7.014   3.384 -11.534  1.00  0.00    -0.550 OA
ATOM      7  O   UNL     1      -4.807   2.954 -11.973  1.00  0.00    -0.550 OA
ENDBRANCH   4   5
ENDBRANCH   3   4
ENDBRANCH   2   3
ENDBRANCH   1   2
BRANCH   1   8
ATOM      8  C   UNL     1      -7.749   8.655  -8.988  1.00  0.00     0.000 C 
BRANCH   8   9
ATOM      9  C   UNL     1      -8.696   8.381  -7.811  1.00  0.00    -0.000 C 
BRANCH   9  10
ATOM     10  C   UNL     1      -8.553   6.933  -7.318  1.00  0.00    -0.000 C 
BRANCH  10  11
ATOM     11  C   UNL     1      -9.781   6.070  -7.649  1.00  0.00    -0.000 C 
BRANCH  11  12
ATOM     12  C   UNL     1      -9.860   5.701  -9.139  1.00  0.00    -0.003 C 
ATOM     13  C   UNL     1      -9.865   4.188  -9.330  1.00  0.00     0.004 C 
ENDBRANCH  11  12
ENDBRANCH  10  11
ENDBRANCH   9  10
ENDBRANCH   8   9
ENDBRANCH   1   8
TORSDOF 9
ENDMDL
