MODEL 1
REMARK VINA RESULT:    -4.877      0.000      0.000
REMARK INTER + INTRA:          -5.322
REMARK INTER:                  -5.162
REMARK INTRA:                  -0.159
REMARK UNBOUND:                -0.159
REMARK SMILES CC1=CCC(C(C)C)=CC1
REMARK SMILES IDX 1 1 2 2 3 3 4 4 5 5 9 6 10 7 6 8 7 9 8 10
REMARK H PARENT
REMARK Flexibility Score: inf
ROOT
ATOM      1  C   UNL     1     -51.594 -48.719  24.303  1.00  0.00     0.039 C 
ATOM      2  C   UNL     1     -52.434 -48.238  23.152  1.00  0.00    -0.073 C 
ATOM      3  C   UNL     1     -52.676 -49.032  22.091  1.00  0.00    -0.023 C 
ATOM      4  C   UNL     1     -53.470 -48.525  20.912  1.00  0.00     0.058 C 
ATOM      5  C   UNL     1     -54.502 -47.497  21.335  1.00  0.00    -0.068 C 
ATOM      6  C   UNL     1     -54.243 -46.698  22.395  1.00  0.00    -0.023 C 
ATOM      7  C   UNL     1     -52.944 -46.813  23.152  1.00  0.00     0.057 C 
ENDROOT
BRANCH   5   8
ATOM      8  C   UNL     1     -55.789 -47.358  20.537  1.00  0.00     0.009 C 
ATOM      9  C   UNL     1     -56.359 -45.937  20.636  1.00  0.00     0.012 C 
ATOM     10  C   UNL     1     -56.825 -48.401  20.971  1.00  0.00     0.012 C 
ENDBRANCH   5   8
TORSDOF 1
ENDMDL
MODEL 2
REMARK VINA RESULT:    -4.771      1.041      4.503
REMARK INTER + INTRA:          -5.209
REMARK INTER:                  -5.039
REMARK INTRA:                  -0.170
REMARK UNBOUND:                -0.159
REMARK SMILES CC1=CCC(C(C)C)=CC1
REMARK SMILES IDX 1 1 2 2 3 3 4 4 5 5 9 6 10 7 6 8 7 9 8 10
REMARK H PARENT
REMARK Flexibility Score: inf
ROOT
ATOM      1  C   UNL     1     -57.125 -47.777  20.975  1.00  0.00     0.039 C 
ATOM      2  C   UNL     1     -55.688 -47.606  21.385  1.00  0.00    -0.073 C 
ATOM      3  C   UNL     1     -55.239 -46.427  21.858  1.00  0.00    -0.023 C 
ATOM      4  C   UNL     1     -53.784 -46.243  22.213  1.00  0.00     0.058 C 
ATOM      5  C   UNL     1     -53.158 -47.538  22.697  1.00  0.00    -0.068 C 
ATOM      6  C   UNL     1     -53.610 -48.713  22.205  1.00  0.00    -0.023 C 
ATOM      7  C   UNL     1     -54.720 -48.751  21.184  1.00  0.00     0.057 C 
ENDROOT
BRANCH   5   8
ATOM      8  C   UNL     1     -52.010 -47.487  23.692  1.00  0.00     0.009 C 
ATOM      9  C   UNL     1     -51.711 -48.875  24.273  1.00  0.00     0.012 C 
ATOM     10  C   UNL     1     -52.285 -46.470  24.805  1.00  0.00     0.012 C 
ENDBRANCH   5   8
TORSDOF 1
ENDMDL
MODEL 3
REMARK VINA RESULT:    -4.764      1.212      2.328
REMARK INTER + INTRA:          -5.202
REMARK INTER:                  -5.042
REMARK INTRA:                  -0.160
REMARK UNBOUND:                -0.159
REMARK SMILES CC1=CCC(C(C)C)=CC1
REMARK SMILES IDX 1 1 2 2 3 3 4 4 5 5 9 6 10 7 6 8 7 9 8 10
REMARK H PARENT
REMARK Flexibility Score: inf
ROOT
ATOM      1  C   UNL     1     -50.319 -47.530  21.379  1.00  0.00     0.039 C 
ATOM      2  C   UNL     1     -51.785 -47.596  21.703  1.00  0.00    -0.073 C 
ATOM      3  C   UNL     1     -52.378 -46.630  22.432  1.00  0.00    -0.023 C 
ATOM      4  C   UNL     1     -53.837 -46.729  22.805  1.00  0.00     0.058 C 
ATOM      5  C   UNL     1     -54.634 -47.474  21.749  1.00  0.00    -0.068 C 
ATOM      6  C   UNL     1     -54.030 -48.449  21.033  1.00  0.00    -0.023 C 
ATOM      7  C   UNL     1     -52.585 -48.806  21.273  1.00  0.00     0.057 C 
ENDROOT
BRANCH   5   8
ATOM      8  C   UNL     1     -56.102 -47.137  21.545  1.00  0.00     0.009 C 
ATOM      9  C   UNL     1     -56.877 -48.331  20.975  1.00  0.00     0.012 C 
ATOM     10  C   UNL     1     -56.268 -45.896  20.661  1.00  0.00     0.012 C 
ENDBRANCH   5   8
TORSDOF 1
ENDMDL
MODEL 4
REMARK VINA RESULT:    -4.671     13.112     14.770
REMARK INTER + INTRA:          -5.103
REMARK INTER:                  -4.949
REMARK INTRA:                  -0.154
REMARK UNBOUND:                -0.159
REMARK SMILES CC1=CCC(C(C)C)=CC1
REMARK SMILES IDX 1 1 2 2 3 3 4 4 5 5 9 6 10 7 6 8 7 9 8 10
REMARK H PARENT
REMARK Flexibility Score: inf
ROOT
ATOM      1  C   UNL     1     -47.019 -49.524  33.691  1.00  0.00     0.039 C 
ATOM      2  C   UNL     1     -45.967 -50.202  32.858  1.00  0.00    -0.073 C 
ATOM      3  C   UNL     1     -45.749 -49.832  31.581  1.00  0.00    -0.023 C 
ATOM      4  C   UNL     1     -44.733 -50.555  30.730  1.00  0.00     0.058 C 
ATOM      5  C   UNL     1     -43.585 -51.091  31.566  1.00  0.00    -0.068 C 
ATOM      6  C   UNL     1     -43.819 -51.469  32.843  1.00  0.00    -0.023 C 
ATOM      7  C   UNL     1     -45.201 -51.370  33.440  1.00  0.00     0.057 C 
ENDROOT
BRANCH   5   8
ATOM      8  C   UNL     1     -42.207 -51.229  30.941  1.00  0.00     0.009 C 
ATOM      9  C   UNL     1     -41.359 -49.972  31.172  1.00  0.00     0.012 C 
ATOM     10  C   UNL     1     -42.306 -51.562  29.448  1.00  0.00     0.012 C 
ENDBRANCH   5   8
TORSDOF 1
ENDMDL
MODEL 5
REMARK VINA RESULT:    -4.659      5.639      7.187
REMARK INTER + INTRA:          -5.091
REMARK INTER:                  -4.921
REMARK INTRA:                  -0.170
REMARK UNBOUND:                -0.159
REMARK SMILES CC1=CCC(C(C)C)=CC1
REMARK SMILES IDX 1 1 2 2 3 3 4 4 5 5 9 6 10 7 6 8 7 9 8 10
REMARK H PARENT
REMARK Flexibility Score: inf
ROOT
ATOM      1  C   UNL     1     -51.981 -49.254  20.347  1.00  0.00     0.039 C 
ATOM      2  C   UNL     1     -50.638 -49.440  19.696  1.00  0.00    -0.073 C 
ATOM      3  C   UNL     1     -50.324 -50.592  19.071  1.00  0.00    -0.023 C 
ATOM      4  C   UNL     1     -48.955 -50.796  18.471  1.00  0.00     0.058 C 
ATOM      5  C   UNL     1     -48.357 -49.488  17.986  1.00  0.00    -0.068 C 
ATOM      6  C   UNL     1     -48.671 -48.341  18.628  1.00  0.00    -0.023 C 
ATOM      7  C   UNL     1     -49.599 -48.347  19.817  1.00  0.00     0.057 C 
ENDROOT
BRANCH   5   8
ATOM      8  C   UNL     1     -47.388 -49.498  16.815  1.00  0.00     0.009 C 
ATOM      9  C   UNL     1     -47.325 -48.128  16.128  1.00  0.00     0.012 C 
ATOM     10  C   UNL     1     -47.740 -50.603  15.813  1.00  0.00     0.012 C 
ENDBRANCH   5   8
TORSDOF 1
ENDMDL
MODEL 6
REMARK VINA RESULT:    -4.620     13.021     15.719
REMARK INTER + INTRA:          -5.049
REMARK INTER:                  -4.901
REMARK INTRA:                  -0.148
REMARK UNBOUND:                -0.159
REMARK SMILES CC1=CCC(C(C)C)=CC1
REMARK SMILES IDX 1 1 2 2 3 3 4 4 5 5 9 6 10 7 6 8 7 9 8 10
REMARK H PARENT
REMARK Flexibility Score: inf
ROOT
ATOM      1  C   UNL     1     -44.051 -49.017  29.821  1.00  0.00     0.039 C 
ATOM      2  C   UNL     1     -42.652 -48.863  29.292  1.00  0.00    -0.073 C 
ATOM      3  C   UNL     1     -42.407 -48.135  28.185  1.00  0.00    -0.023 C 
ATOM      4  C   UNL     1     -41.010 -48.031  27.624  1.00  0.00     0.058 C 
ATOM      5  C   UNL     1     -39.961 -48.119  28.716  1.00  0.00    -0.068 C 
ATOM      6  C   UNL     1     -40.215 -48.862  29.817  1.00  0.00    -0.023 C 
ATOM      7  C   UNL     1     -41.519 -49.604  29.967  1.00  0.00     0.057 C 
ENDROOT
BRANCH   5   8
ATOM      8  C   UNL     1     -38.632 -47.404  28.535  1.00  0.00     0.009 C 
ATOM      9  C   UNL     1     -37.450 -48.327  28.859  1.00  0.00     0.012 C 
ATOM     10  C   UNL     1     -38.575 -46.120  29.370  1.00  0.00     0.012 C 
ENDBRANCH   5   8
TORSDOF 1
ENDMDL
MODEL 7
REMARK VINA RESULT:    -4.609      6.882      8.696
REMARK INTER + INTRA:          -5.037
REMARK INTER:                  -4.868
REMARK INTRA:                  -0.169
REMARK UNBOUND:                -0.159
REMARK SMILES CC1=CCC(C(C)C)=CC1
REMARK SMILES IDX 1 1 2 2 3 3 4 4 5 5 9 6 10 7 6 8 7 9 8 10
REMARK H PARENT
REMARK Flexibility Score: inf
ROOT
ATOM      1  C   UNL     1     -49.222 -51.841  14.310  1.00  0.00     0.039 C 
ATOM      2  C   UNL     1     -48.574 -51.099  15.446  1.00  0.00    -0.073 C 
ATOM      3  C   UNL     1     -48.185 -49.817  15.304  1.00  0.00    -0.023 C 
ATOM      4  C   UNL     1     -47.482 -49.095  16.427  1.00  0.00     0.058 C 
ATOM      5  C   UNL     1     -47.932 -49.600  17.785  1.00  0.00    -0.068 C 
ATOM      6  C   UNL     1     -48.309 -50.892  17.916  1.00  0.00    -0.023 C 
ATOM      7  C   UNL     1     -48.281 -51.831  16.737  1.00  0.00     0.057 C 
ENDROOT
BRANCH   5   8
ATOM      8  C   UNL     1     -47.915 -48.657  18.976  1.00  0.00     0.009 C 
ATOM      9  C   UNL     1     -48.938 -49.078  20.039  1.00  0.00     0.012 C 
ATOM     10  C   UNL     1     -48.138 -47.205  18.538  1.00  0.00     0.012 C 
ENDBRANCH   5   8
TORSDOF 1
ENDMDL
MODEL 8
REMARK VINA RESULT:    -4.599      5.732      7.315
REMARK INTER + INTRA:          -5.027
REMARK INTER:                  -4.865
REMARK INTRA:                  -0.162
REMARK UNBOUND:                -0.159
REMARK SMILES CC1=CCC(C(C)C)=CC1
REMARK SMILES IDX 1 1 2 2 3 3 4 4 5 5 9 6 10 7 6 8 7 9 8 10
REMARK H PARENT
REMARK Flexibility Score: inf
ROOT
ATOM      1  C   UNL     1     -46.995 -48.135  15.750  1.00  0.00     0.039 C 
ATOM      2  C   UNL     1     -47.710 -48.972  16.775  1.00  0.00    -0.073 C 
ATOM      3  C   UNL     1     -47.869 -48.533  18.039  1.00  0.00    -0.023 C 
ATOM      4  C   UNL     1     -48.535 -49.400  19.079  1.00  0.00     0.058 C 
ATOM      5  C   UNL     1     -49.579 -50.312  18.461  1.00  0.00    -0.068 C 
ATOM      6  C   UNL     1     -49.402 -50.754  17.195  1.00  0.00    -0.023 C 
ATOM      7  C   UNL     1     -48.184 -50.358  16.399  1.00  0.00     0.057 C 
ENDROOT
BRANCH   5   8
ATOM      8  C   UNL     1     -50.779 -50.741  19.287  1.00  0.00     0.009 C 
ATOM      9  C   UNL     1     -52.097 -50.369  18.596  1.00  0.00     0.012 C 
ATOM     10  C   UNL     1     -50.715 -50.159  20.704  1.00  0.00     0.012 C 
ENDBRANCH   5   8
TORSDOF 1
ENDMDL
MODEL 9
REMARK VINA RESULT:    -4.554     12.696     13.700
REMARK INTER + INTRA:          -4.980
REMARK INTER:                  -4.810
REMARK INTRA:                  -0.170
REMARK UNBOUND:                -0.159
REMARK SMILES CC1=CCC(C(C)C)=CC1
REMARK SMILES IDX 1 1 2 2 3 3 4 4 5 5 9 6 10 7 6 8 7 9 8 10
REMARK H PARENT
REMARK Flexibility Score: inf
ROOT
ATOM      1  C   UNL     1     -42.289 -49.466  29.287  1.00  0.00     0.039 C 
ATOM      2  C   UNL     1     -43.562 -49.850  29.989  1.00  0.00    -0.073 C 
ATOM      3  C   UNL     1     -43.743 -51.100  30.461  1.00  0.00    -0.023 C 
ATOM      4  C   UNL     1     -45.044 -51.498  31.113  1.00  0.00     0.058 C 
ATOM      5  C   UNL     1     -45.698 -50.324  31.818  1.00  0.00    -0.068 C 
ATOM      6  C   UNL     1     -45.517 -49.077  31.328  1.00  0.00    -0.023 C 
ATOM      7  C   UNL     1     -44.684 -48.841  30.093  1.00  0.00     0.057 C 
ENDROOT
BRANCH   5   8
ATOM      8  C   UNL     1     -46.572 -50.576  33.035  1.00  0.00     0.009 C 
ATOM      9  C   UNL     1     -46.987 -49.262  33.709  1.00  0.00     0.012 C 
ATOM     10  C   UNL     1     -45.880 -51.513  34.031  1.00  0.00     0.012 C 
ENDBRANCH   5   8
TORSDOF 1
ENDMDL
