MODEL 1
REMARK VINA RESULT:    -5.702      0.000      0.000
REMARK INTER + INTRA:          -7.005
REMARK INTER:                  -6.702
REMARK INTRA:                  -0.303
REMARK UNBOUND:                -0.303
REMARK SMILES C=C(C)[C@H]1CC[C@@]2(C(=O)[O-])CC[C@@]3(C)[C@@H](CC[C@@H]4[C@]5(C)C[C@H](O)[C@H](O)C(C)(C)[C@H]5CC[C@@]43C)[C@H]12
REMARK SMILES IDX 7 1 6 2 34 3 11 4 5 5 15 6 4 7 12 8 16 9 13 10 17 11 32 12
REMARK SMILES IDX 14 13 18 14 31 15 33 16 19 17 30 18 29 19 21 20 20 21 26 22
REMARK SMILES IDX 22 23 24 24 27 25 28 26 8 27 9 28 10 29 2 30 3 31 1 32 23 33
REMARK SMILES IDX 25 35
REMARK H PARENT 23 34 25 36
REMARK Flexibility Score: inf
ROOT
ATOM      1  C   UNL     1      72.441  54.580  18.301  1.00  0.00     0.014 C 
ATOM      2  C   UNL     1      73.746  53.901  17.875  1.00  0.00     0.014 C 
ATOM      3  C   UNL     1      72.536  54.500  19.830  1.00  0.00     0.012 C 
ATOM      4  C   UNL     1      71.151  53.825  17.897  1.00  0.00     0.014 C 
ATOM      5  C   UNL     1      74.788  54.363  18.913  1.00  0.00     0.009 C 
ATOM      6  C   UNL     1      71.372  55.276  20.512  1.00  0.00     0.000 C 
ATOM      7  C   UNL     1      74.002  54.837  20.160  1.00  0.00     0.018 C 
ATOM      8  C   UNL     1      69.906  54.509  18.530  1.00  0.00     0.008 C 
ATOM      9  C   UNL     1      71.544  55.311  22.042  1.00  0.00     0.005 C 
ATOM     10  C   UNL     1      69.955  54.704  20.109  1.00  0.00    -0.024 C 
ATOM     11  C   UNL     1      70.283  55.753  22.805  1.00  0.00     0.005 C 
ATOM     12  C   UNL     1      68.795  55.734  20.680  1.00  0.00    -0.024 C 
ATOM     13  C   UNL     1      69.781  53.249  20.686  1.00  0.00     0.012 C 
ATOM     14  C   UNL     1      69.309  56.600  21.940  1.00  0.00     0.002 C 
ATOM     15  C   UNL     1      67.504  54.944  21.087  1.00  0.00     0.008 C 
ATOM     16  C   UNL     1      68.374  56.721  19.547  1.00  0.00     0.012 C 
ATOM     17  C   UNL     1      68.167  57.373  22.790  1.00  0.00    -0.023 C 
ATOM     18  C   UNL     1      66.414  55.778  21.766  1.00  0.00     0.005 C 
ATOM     19  C   UNL     1      66.959  56.402  23.072  1.00  0.00     0.004 C 
ATOM     20  C   UNL     1      68.701  57.853  24.185  1.00  0.00     0.042 C 
ATOM     21  C   UNL     1      67.750  58.666  21.996  1.00  0.00     0.012 C 
ATOM     22  C   UNL     1      65.836  56.940  24.056  1.00  0.00    -0.003 C 
ATOM     23  C   UNL     1      67.629  58.477  25.109  1.00  0.00     0.144 C 
ATOM     24  C   UNL     1      66.493  57.471  25.373  1.00  0.00     0.149 C 
ATOM     25  C   UNL     1      64.876  55.780  24.454  1.00  0.00     0.014 C 
ATOM     26  C   UNL     1      64.942  58.044  23.429  1.00  0.00     0.014 C 
ENDROOT
BRANCH   1  27
ATOM     27  C   UNL     1      72.446  56.009  17.725  1.00  0.00     0.048 C 
ATOM     28  O   UNL     1      72.739  56.207  16.514  1.00  0.00    -0.550 OA
ATOM     29  O   UNL     1      72.242  57.116  18.534  1.00  0.00    -0.550 OA
ENDBRANCH   1  27
BRANCH   7  30
ATOM     30  C   UNL     1      74.516  54.180  21.439  1.00  0.00    -0.077 C 
ATOM     31  C   UNL     1      74.052  52.807  21.864  1.00  0.00     0.039 C 
ATOM     32  C   UNL     1      75.410  54.820  22.211  1.00  0.00     0.008 C 
ENDBRANCH   7  30
BRANCH  23  33
ATOM     33  O   UNL     1      68.221  58.826  26.335  1.00  0.00    -0.390 OA
ATOM     34  H   UNL     1      68.677  59.699  26.197  1.00  0.00     0.211 HD
ENDBRANCH  23  33
BRANCH  24  35
ATOM     35  O   UNL     1      66.999  56.391  26.125  1.00  0.00    -0.390 OA
ATOM     36  H   UNL     1      67.269  55.680  25.487  1.00  0.00     0.211 HD
ENDBRANCH  24  35
TORSDOF 4
ENDMDL
MODEL 2
REMARK VINA RESULT:    -5.583      2.221      3.501
REMARK INTER + INTRA:          -6.865
REMARK INTER:                  -6.530
REMARK INTRA:                  -0.334
REMARK UNBOUND:                -0.303
REMARK SMILES C=C(C)[C@H]1CC[C@@]2(C(=O)[O-])CC[C@@]3(C)[C@@H](CC[C@@H]4[C@]5(C)C[C@H](O)[C@H](O)C(C)(C)[C@H]5CC[C@@]43C)[C@H]12
REMARK SMILES IDX 7 1 6 2 34 3 11 4 5 5 15 6 4 7 12 8 16 9 13 10 17 11 32 12
REMARK SMILES IDX 14 13 18 14 31 15 33 16 19 17 30 18 29 19 21 20 20 21 26 22
REMARK SMILES IDX 22 23 24 24 27 25 28 26 8 27 9 28 10 29 2 30 3 31 1 32 23 33
REMARK SMILES IDX 25 35
REMARK H PARENT 23 34 25 36
REMARK Flexibility Score: inf
ROOT
ATOM      1  C   UNL     1      71.211  55.447  17.509  1.00  0.00     0.014 C 
ATOM      2  C   UNL     1      71.259  54.586  16.243  1.00  0.00     0.014 C 
ATOM      3  C   UNL     1      70.279  54.625  18.408  1.00  0.00     0.012 C 
ATOM      4  C   UNL     1      70.546  56.834  17.330  1.00  0.00     0.014 C 
ATOM      5  C   UNL     1      71.264  53.133  16.755  1.00  0.00     0.009 C 
ATOM      6  C   UNL     1      70.192  55.229  19.839  1.00  0.00     0.000 C 
ATOM      7  C   UNL     1      70.707  53.161  18.200  1.00  0.00     0.018 C 
ATOM      8  C   UNL     1      70.397  57.541  18.708  1.00  0.00     0.008 C 
ATOM      9  C   UNL     1      69.366  54.329  20.777  1.00  0.00     0.005 C 
ATOM     10  C   UNL     1      69.637  56.709  19.832  1.00  0.00    -0.024 C 
ATOM     11  C   UNL     1      68.951  55.009  22.093  1.00  0.00     0.005 C 
ATOM     12  C   UNL     1      69.812  57.340  21.348  1.00  0.00    -0.024 C 
ATOM     13  C   UNL     1      68.131  56.713  19.366  1.00  0.00     0.012 C 
ATOM     14  C   UNL     1      69.870  56.198  22.486  1.00  0.00     0.002 C 
ATOM     15  C   UNL     1      68.645  58.335  21.674  1.00  0.00     0.008 C 
ATOM     16  C   UNL     1      71.133  58.166  21.417  1.00  0.00     0.012 C 
ATOM     17  C   UNL     1      69.689  56.701  24.015  1.00  0.00    -0.023 C 
ATOM     18  C   UNL     1      68.623  58.871  23.107  1.00  0.00     0.005 C 
ATOM     19  C   UNL     1      68.476  57.703  24.109  1.00  0.00     0.004 C 
ATOM     20  C   UNL     1      69.374  55.512  24.989  1.00  0.00     0.042 C 
ATOM     21  C   UNL     1      71.049  57.331  24.493  1.00  0.00     0.012 C 
ATOM     22  C   UNL     1      68.039  58.145  25.570  1.00  0.00    -0.003 C 
ATOM     23  C   UNL     1      69.052  55.932  26.442  1.00  0.00     0.144 C 
ATOM     24  C   UNL     1      67.840  56.882  26.472  1.00  0.00     0.149 C 
ATOM     25  C   UNL     1      66.673  58.891  25.513  1.00  0.00     0.014 C 
ATOM     26  C   UNL     1      69.037  59.125  26.243  1.00  0.00     0.014 C 
ENDROOT
BRANCH   1  27
ATOM     27  C   UNL     1      72.654  55.591  18.032  1.00  0.00     0.048 C 
ATOM     28  O   UNL     1      73.598  55.841  17.234  1.00  0.00    -0.550 OA
ATOM     29  O   UNL     1      72.971  55.343  19.358  1.00  0.00    -0.550 OA
ENDBRANCH   1  27
BRANCH   7  30
ATOM     30  C   UNL     1      69.578  52.151  18.392  1.00  0.00    -0.077 C 
ATOM     31  C   UNL     1      69.752  50.925  19.257  1.00  0.00     0.039 C 
ATOM     32  C   UNL     1      68.393  52.346  17.792  1.00  0.00     0.008 C 
ENDBRANCH   7  30
BRANCH  23  33
ATOM     33  O   UNL     1      68.750  54.787  27.198  1.00  0.00    -0.390 OA
ATOM     34  H   UNL     1      67.770  54.807  27.373  1.00  0.00     0.211 HD
ENDBRANCH  23  33
BRANCH  24  35
ATOM     35  O   UNL     1      66.691  56.177  26.061  1.00  0.00    -0.390 OA
ATOM     36  H   UNL     1      66.742  56.063  25.077  1.00  0.00     0.211 HD
ENDBRANCH  24  35
TORSDOF 4
ENDMDL
MODEL 3
REMARK VINA RESULT:    -5.358      3.256      7.482
REMARK INTER + INTRA:          -6.600
REMARK INTER:                  -6.256
REMARK INTRA:                  -0.344
REMARK UNBOUND:                -0.303
REMARK SMILES C=C(C)[C@H]1CC[C@@]2(C(=O)[O-])CC[C@@]3(C)[C@@H](CC[C@@H]4[C@]5(C)C[C@H](O)[C@H](O)C(C)(C)[C@H]5CC[C@@]43C)[C@H]12
REMARK SMILES IDX 7 1 6 2 34 3 11 4 5 5 15 6 4 7 12 8 16 9 13 10 17 11 32 12
REMARK SMILES IDX 14 13 18 14 31 15 33 16 19 17 30 18 29 19 21 20 20 21 26 22
REMARK SMILES IDX 22 23 24 24 27 25 28 26 8 27 9 28 10 29 2 30 3 31 1 32 23 33
REMARK SMILES IDX 25 35
REMARK H PARENT 23 34 25 36
REMARK Flexibility Score: inf
ROOT
ATOM      1  C   UNL     1      71.542  53.941  25.764  1.00  0.00     0.014 C 
ATOM      2  C   UNL     1      71.531  54.239  27.265  1.00  0.00     0.014 C 
ATOM      3  C   UNL     1      72.123  55.242  25.194  1.00  0.00     0.012 C 
ATOM      4  C   UNL     1      70.144  53.761  25.124  1.00  0.00     0.014 C 
ATOM      5  C   UNL     1      72.822  55.042  27.518  1.00  0.00     0.009 C 
ATOM      6  C   UNL     1      72.380  55.125  23.663  1.00  0.00     0.000 C 
ATOM      7  C   UNL     1      73.263  55.628  26.153  1.00  0.00     0.018 C 
ATOM      8  C   UNL     1      70.271  53.639  23.578  1.00  0.00     0.008 C 
ATOM      9  C   UNL     1      73.087  56.381  23.118  1.00  0.00     0.005 C 
ATOM     10  C   UNL     1      71.057  54.820  22.855  1.00  0.00    -0.024 C 
ATOM     11  C   UNL     1      73.070  56.493  21.584  1.00  0.00     0.005 C 
ATOM     12  C   UNL     1      71.467  54.475  21.292  1.00  0.00    -0.024 C 
ATOM     13  C   UNL     1      70.077  56.050  22.946  1.00  0.00     0.012 C 
ATOM     14  C   UNL     1      72.881  55.126  20.871  1.00  0.00     0.002 C 
ATOM     15  C   UNL     1      70.355  54.970  20.304  1.00  0.00     0.008 C 
ATOM     16  C   UNL     1      71.567  52.929  21.111  1.00  0.00     0.012 C 
ATOM     17  C   UNL     1      73.213  55.152  19.285  1.00  0.00    -0.023 C 
ATOM     18  C   UNL     1      70.694  54.835  18.818  1.00  0.00     0.005 C 
ATOM     19  C   UNL     1      71.957  55.662  18.483  1.00  0.00     0.004 C 
ATOM     20  C   UNL     1      74.395  56.129  18.951  1.00  0.00     0.042 C 
ATOM     21  C   UNL     1      73.679  53.713  18.854  1.00  0.00     0.012 C 
ATOM     22  C   UNL     1      72.171  55.931  16.934  1.00  0.00    -0.003 C 
ATOM     23  C   UNL     1      74.677  56.311  17.442  1.00  0.00     0.144 C 
ATOM     24  C   UNL     1      73.425  56.842  16.719  1.00  0.00     0.149 C 
ATOM     25  C   UNL     1      70.943  56.691  16.350  1.00  0.00     0.014 C 
ATOM     26  C   UNL     1      72.311  54.631  16.095  1.00  0.00     0.014 C 
ENDROOT
BRANCH   1  27
ATOM     27  C   UNL     1      72.415  52.690  25.541  1.00  0.00     0.048 C 
ATOM     28  O   UNL     1      72.044  51.568  25.981  1.00  0.00    -0.550 OA
ATOM     29  O   UNL     1      73.670  52.778  24.957  1.00  0.00    -0.550 OA
ENDBRANCH   1  27
BRANCH   7  30
ATOM     30  C   UNL     1      73.520  57.131  26.237  1.00  0.00    -0.077 C 
ATOM     31  C   UNL     1      74.910  57.705  26.096  1.00  0.00     0.039 C 
ATOM     32  C   UNL     1      72.496  57.978  26.433  1.00  0.00     0.008 C 
ENDBRANCH   7  30
BRANCH  23  33
ATOM     33  O   UNL     1      75.723  57.235  17.275  1.00  0.00    -0.390 OA
ATOM     34  H   UNL     1      76.345  57.108  18.042  1.00  0.00     0.211 HD
ENDBRANCH  23  33
BRANCH  24  35
ATOM     35  O   UNL     1      73.151  58.148  17.171  1.00  0.00    -0.390 OA
ATOM     36  H   UNL     1      73.913  58.437  17.737  1.00  0.00     0.211 HD
ENDBRANCH  24  35
TORSDOF 4
ENDMDL
MODEL 4
REMARK VINA RESULT:    -5.312      3.221      5.251
REMARK INTER + INTRA:          -6.547
REMARK INTER:                  -6.492
REMARK INTRA:                  -0.055
REMARK UNBOUND:                -0.303
REMARK SMILES C=C(C)[C@H]1CC[C@@]2(C(=O)[O-])CC[C@@]3(C)[C@@H](CC[C@@H]4[C@]5(C)C[C@H](O)[C@H](O)C(C)(C)[C@H]5CC[C@@]43C)[C@H]12
REMARK SMILES IDX 7 1 6 2 34 3 11 4 5 5 15 6 4 7 12 8 16 9 13 10 17 11 32 12
REMARK SMILES IDX 14 13 18 14 31 15 33 16 19 17 30 18 29 19 21 20 20 21 26 22
REMARK SMILES IDX 22 23 24 24 27 25 28 26 8 27 9 28 10 29 2 30 3 31 1 32 23 33
REMARK SMILES IDX 25 35
REMARK H PARENT 23 34 25 36
REMARK Flexibility Score: inf
ROOT
ATOM      1  C   UNL     1      72.311  55.577  17.496  1.00  0.00     0.014 C 
ATOM      2  C   UNL     1      71.825  55.354  16.061  1.00  0.00     0.014 C 
ATOM      3  C   UNL     1      71.392  54.633  18.284  1.00  0.00     0.012 C 
ATOM      4  C   UNL     1      72.069  57.000  18.053  1.00  0.00     0.014 C 
ATOM      5  C   UNL     1      71.506  53.848  15.982  1.00  0.00     0.009 C 
ATOM      6  C   UNL     1      71.801  54.566  19.784  1.00  0.00     0.000 C 
ATOM      7  C   UNL     1      71.308  53.352  17.435  1.00  0.00     0.018 C 
ATOM      8  C   UNL     1      72.439  57.057  19.564  1.00  0.00     0.008 C 
ATOM      9  C   UNL     1      70.966  53.517  20.544  1.00  0.00     0.005 C 
ATOM     10  C   UNL     1      71.725  55.977  20.490  1.00  0.00    -0.024 C 
ATOM     11  C   UNL     1      71.067  53.627  22.075  1.00  0.00     0.005 C 
ATOM     12  C   UNL     1      72.404  55.848  21.991  1.00  0.00    -0.024 C 
ATOM     13  C   UNL     1      70.227  56.459  20.564  1.00  0.00     0.012 C 
ATOM     14  C   UNL     1      72.362  54.337  22.555  1.00  0.00     0.002 C 
ATOM     15  C   UNL     1      71.687  56.801  23.008  1.00  0.00     0.008 C 
ATOM     16  C   UNL     1      73.894  56.305  21.927  1.00  0.00     0.012 C 
ATOM     17  C   UNL     1      72.673  54.155  24.135  1.00  0.00    -0.023 C 
ATOM     18  C   UNL     1      72.136  56.659  24.464  1.00  0.00     0.005 C 
ATOM     19  C   UNL     1      71.866  55.222  24.967  1.00  0.00     0.004 C 
ATOM     20  C   UNL     1      72.235  52.742  24.658  1.00  0.00     0.042 C 
ATOM     21  C   UNL     1      74.229  54.254  24.347  1.00  0.00     0.012 C 
ATOM     22  C   UNL     1      71.906  55.063  26.546  1.00  0.00    -0.003 C 
ATOM     23  C   UNL     1      72.374  52.546  26.185  1.00  0.00     0.144 C 
ATOM     24  C   UNL     1      71.538  53.595  26.943  1.00  0.00     0.149 C 
ATOM     25  C   UNL     1      70.848  55.997  27.202  1.00  0.00     0.014 C 
ATOM     26  C   UNL     1      73.273  55.453  27.171  1.00  0.00     0.014 C 
ENDROOT
BRANCH   1  27
ATOM     27  C   UNL     1      73.808  55.212  17.545  1.00  0.00     0.048 C 
ATOM     28  O   UNL     1      74.676  56.033  17.142  1.00  0.00    -0.550 OA
ATOM     29  O   UNL     1      74.233  53.948  17.923  1.00  0.00    -0.550 OA
ENDBRANCH   1  27
BRANCH   7  30
ATOM     30  C   UNL     1      69.997  52.585  17.599  1.00  0.00    -0.077 C 
ATOM     31  C   UNL     1      69.939  51.267  18.335  1.00  0.00     0.039 C 
ATOM     32  C   UNL     1      68.859  53.084  17.091  1.00  0.00     0.008 C 
ENDBRANCH   7  30
BRANCH  23  33
ATOM     33  O   UNL     1      71.914  51.263  26.530  1.00  0.00    -0.390 OA
ATOM     34  H   UNL     1      70.955  51.221  26.268  1.00  0.00     0.211 HD
ENDBRANCH  23  33
BRANCH  24  35
ATOM     35  O   UNL     1      70.170  53.360  26.695  1.00  0.00    -0.390 OA
ATOM     36  H   UNL     1      69.655  54.076  27.150  1.00  0.00     0.211 HD
ENDBRANCH  24  35
TORSDOF 4
ENDMDL
MODEL 5
REMARK VINA RESULT:    -5.206      2.835      7.328
REMARK INTER + INTRA:          -6.422
REMARK INTER:                  -6.342
REMARK INTRA:                  -0.080
REMARK UNBOUND:                -0.303
REMARK SMILES C=C(C)[C@H]1CC[C@@]2(C(=O)[O-])CC[C@@]3(C)[C@@H](CC[C@@H]4[C@]5(C)C[C@H](O)[C@H](O)C(C)(C)[C@H]5CC[C@@]43C)[C@H]12
REMARK SMILES IDX 7 1 6 2 34 3 11 4 5 5 15 6 4 7 12 8 16 9 13 10 17 11 32 12
REMARK SMILES IDX 14 13 18 14 31 15 33 16 19 17 30 18 29 19 21 20 20 21 26 22
REMARK SMILES IDX 22 23 24 24 27 25 28 26 8 27 9 28 10 29 2 30 3 31 1 32 23 33
REMARK SMILES IDX 25 35
REMARK H PARENT 23 34 25 36
REMARK Flexibility Score: inf
ROOT
ATOM      1  C   UNL     1      71.588  55.929  26.155  1.00  0.00     0.014 C 
ATOM      2  C   UNL     1      71.928  55.376  27.542  1.00  0.00     0.014 C 
ATOM      3  C   UNL     1      72.037  54.778  25.245  1.00  0.00     0.012 C 
ATOM      4  C   UNL     1      72.404  57.174  25.731  1.00  0.00     0.014 C 
ATOM      5  C   UNL     1      71.591  53.875  27.462  1.00  0.00     0.009 C 
ATOM      6  C   UNL     1      71.647  55.043  23.761  1.00  0.00     0.000 C 
ATOM      7  C   UNL     1      71.575  53.496  25.960  1.00  0.00     0.018 C 
ATOM      8  C   UNL     1      72.101  57.537  24.248  1.00  0.00     0.008 C 
ATOM      9  C   UNL     1      71.975  53.829  22.872  1.00  0.00     0.005 C 
ATOM     10  C   UNL     1      72.308  56.362  23.195  1.00  0.00    -0.024 C 
ATOM     11  C   UNL     1      71.940  54.130  21.363  1.00  0.00     0.005 C 
ATOM     12  C   UNL     1      71.647  56.683  21.715  1.00  0.00    -0.024 C 
ATOM     13  C   UNL     1      73.871  56.184  23.112  1.00  0.00     0.012 C 
ATOM     14  C   UNL     1      71.061  55.359  21.004  1.00  0.00     0.002 C 
ATOM     15  C   UNL     1      72.702  57.354  20.770  1.00  0.00     0.008 C 
ATOM     16  C   UNL     1      70.482  57.707  21.878  1.00  0.00     0.012 C 
ATOM     17  C   UNL     1      70.713  55.488  19.427  1.00  0.00    -0.023 C 
ATOM     18  C   UNL     1      72.245  57.564  19.324  1.00  0.00     0.005 C 
ATOM     19  C   UNL     1      71.896  56.205  18.674  1.00  0.00     0.004 C 
ATOM     20  C   UNL     1      70.527  54.084  18.752  1.00  0.00     0.042 C 
ATOM     21  C   UNL     1      69.341  56.245  19.284  1.00  0.00     0.012 C 
ATOM     22  C   UNL     1      71.804  56.243  17.089  1.00  0.00    -0.003 C 
ATOM     23  C   UNL     1      70.329  54.124  17.219  1.00  0.00     0.144 C 
ATOM     24  C   UNL     1      71.531  54.805  16.537  1.00  0.00     0.149 C 
ATOM     25  C   UNL     1      73.160  56.718  16.488  1.00  0.00     0.014 C 
ATOM     26  C   UNL     1      70.728  57.227  16.557  1.00  0.00     0.014 C 
ENDROOT
BRANCH   1  27
ATOM     27  C   UNL     1      70.076  56.225  26.126  1.00  0.00     0.048 C 
ATOM     28  O   UNL     1      69.643  57.363  26.455  1.00  0.00    -0.550 OA
ATOM     29  O   UNL     1      69.149  55.232  25.850  1.00  0.00    -0.550 OA
ENDBRANCH   1  27
BRANCH   7  30
ATOM     30  C   UNL     1      72.448  52.276  25.673  1.00  0.00    -0.077 C 
ATOM     31  C   UNL     1      73.904  52.418  25.296  1.00  0.00     0.039 C 
ATOM     32  C   UNL     1      71.928  51.042  25.761  1.00  0.00     0.008 C 
ENDBRANCH   7  30
BRANCH  23  33
ATOM     33  O   UNL     1      70.217  52.809  16.733  1.00  0.00    -0.390 OA
ATOM     34  H   UNL     1      70.970  52.671  16.098  1.00  0.00     0.211 HD
ENDBRANCH  23  33
BRANCH  24  35
ATOM     35  O   UNL     1      72.675  54.000  16.710  1.00  0.00    -0.390 OA
ATOM     36  H   UNL     1      72.895  53.597  15.830  1.00  0.00     0.211 HD
ENDBRANCH  24  35
TORSDOF 4
ENDMDL
MODEL 6
REMARK VINA RESULT:    -5.050      2.555      7.790
REMARK INTER + INTRA:          -6.238
REMARK INTER:                  -6.073
REMARK INTRA:                  -0.165
REMARK UNBOUND:                -0.303
REMARK SMILES C=C(C)[C@H]1CC[C@@]2(C(=O)[O-])CC[C@@]3(C)[C@@H](CC[C@@H]4[C@]5(C)C[C@H](O)[C@H](O)C(C)(C)[C@H]5CC[C@@]43C)[C@H]12
REMARK SMILES IDX 7 1 6 2 34 3 11 4 5 5 15 6 4 7 12 8 16 9 13 10 17 11 32 12
REMARK SMILES IDX 14 13 18 14 31 15 33 16 19 17 30 18 29 19 21 20 20 21 26 22
REMARK SMILES IDX 22 23 24 24 27 25 28 26 8 27 9 28 10 29 2 30 3 31 1 32 23 33
REMARK SMILES IDX 25 35
REMARK H PARENT 23 34 25 36
REMARK Flexibility Score: inf
ROOT
ATOM      1  C   UNL     1      68.881  56.834  25.006  1.00  0.00     0.014 C 
ATOM      2  C   UNL     1      68.511  56.611  26.475  1.00  0.00     0.014 C 
ATOM      3  C   UNL     1      70.203  56.063  24.899  1.00  0.00     0.012 C 
ATOM      4  C   UNL     1      69.192  58.303  24.627  1.00  0.00     0.014 C 
ATOM      5  C   UNL     1      68.937  55.160  26.773  1.00  0.00     0.009 C 
ATOM      6  C   UNL     1      70.713  56.012  23.429  1.00  0.00     0.000 C 
ATOM      7  C   UNL     1      69.977  54.765  25.695  1.00  0.00     0.018 C 
ATOM      8  C   UNL     1      69.722  58.381  23.166  1.00  0.00     0.008 C 
ATOM      9  C   UNL     1      71.965  55.124  23.302  1.00  0.00     0.005 C 
ATOM     10  C   UNL     1      70.972  57.454  22.836  1.00  0.00    -0.024 C 
ATOM     11  C   UNL     1      72.720  55.292  21.972  1.00  0.00     0.005 C 
ATOM     12  C   UNL     1      71.270  57.306  21.217  1.00  0.00    -0.024 C 
ATOM     13  C   UNL     1      72.174  58.136  23.592  1.00  0.00     0.012 C 
ATOM     14  C   UNL     1      71.828  55.844  20.826  1.00  0.00     0.002 C 
ATOM     15  C   UNL     1      72.291  58.395  20.739  1.00  0.00     0.008 C 
ATOM     16  C   UNL     1      69.951  57.554  20.422  1.00  0.00     0.012 C 
ATOM     17  C   UNL     1      72.478  55.697  19.349  1.00  0.00    -0.023 C 
ATOM     18  C   UNL     1      72.754  58.264  19.286  1.00  0.00     0.005 C 
ATOM     19  C   UNL     1      73.455  56.902  19.072  1.00  0.00     0.004 C 
ATOM     20  C   UNL     1      73.324  54.383  19.211  1.00  0.00     0.042 C 
ATOM     21  C   UNL     1      71.308  55.596  18.303  1.00  0.00     0.012 C 
ATOM     22  C   UNL     1      74.323  56.815  17.746  1.00  0.00    -0.003 C 
ATOM     23  C   UNL     1      74.088  54.243  17.873  1.00  0.00     0.144 C 
ATOM     24  C   UNL     1      75.049  55.431  17.674  1.00  0.00     0.149 C 
ATOM     25  C   UNL     1      75.425  57.914  17.758  1.00  0.00     0.014 C 
ATOM     26  C   UNL     1      73.497  57.047  16.451  1.00  0.00     0.014 C 
ENDROOT
BRANCH   1  27
ATOM     27  C   UNL     1      67.733  56.274  24.143  1.00  0.00     0.048 C 
ATOM     28  O   UNL     1      66.569  56.175  24.619  1.00  0.00    -0.550 OA
ATOM     29  O   UNL     1      67.963  55.765  22.874  1.00  0.00    -0.550 OA
ENDBRANCH   1  27
BRANCH   7  30
ATOM     30  C   UNL     1      71.248  54.190  26.318  1.00  0.00    -0.077 C 
ATOM     31  C   UNL     1      72.249  55.071  27.028  1.00  0.00     0.039 C 
ATOM     32  C   UNL     1      71.493  52.872  26.248  1.00  0.00     0.008 C 
ENDBRANCH   7  30
BRANCH  23  33
ATOM     33  O   UNL     1      74.835  53.052  17.890  1.00  0.00    -0.390 OA
ATOM     34  H   UNL     1      74.983  52.819  18.846  1.00  0.00     0.211 HD
ENDBRANCH  23  33
BRANCH  24  35
ATOM     35  O   UNL     1      76.063  55.371  18.651  1.00  0.00    -0.390 OA
ATOM     36  H   UNL     1      76.896  55.722  18.241  1.00  0.00     0.211 HD
ENDBRANCH  24  35
TORSDOF 4
ENDMDL
MODEL 7
REMARK VINA RESULT:    -5.044      1.941      7.673
REMARK INTER + INTRA:          -6.232
REMARK INTER:                  -6.393
REMARK INTRA:                   0.162
REMARK UNBOUND:                -0.303
REMARK SMILES C=C(C)[C@H]1CC[C@@]2(C(=O)[O-])CC[C@@]3(C)[C@@H](CC[C@@H]4[C@]5(C)C[C@H](O)[C@H](O)C(C)(C)[C@H]5CC[C@@]43C)[C@H]12
REMARK SMILES IDX 7 1 6 2 34 3 11 4 5 5 15 6 4 7 12 8 16 9 13 10 17 11 32 12
REMARK SMILES IDX 14 13 18 14 31 15 33 16 19 17 30 18 29 19 21 20 20 21 26 22
REMARK SMILES IDX 22 23 24 24 27 25 28 26 8 27 9 28 10 29 2 30 3 31 1 32 23 33
REMARK SMILES IDX 25 35
REMARK H PARENT 23 34 25 36
REMARK Flexibility Score: inf
ROOT
ATOM      1  C   UNL     1      66.414  57.449  23.562  1.00  0.00     0.014 C 
ATOM      2  C   UNL     1      65.971  57.964  24.934  1.00  0.00     0.014 C 
ATOM      3  C   UNL     1      67.941  57.453  23.708  1.00  0.00     0.012 C 
ATOM      4  C   UNL     1      66.079  58.384  22.375  1.00  0.00     0.014 C 
ATOM      5  C   UNL     1      66.958  57.327  25.932  1.00  0.00     0.009 C 
ATOM      6  C   UNL     1      68.631  56.812  22.468  1.00  0.00     0.000 C 
ATOM      7  C   UNL     1      68.212  56.911  25.123  1.00  0.00     0.018 C 
ATOM      8  C   UNL     1      66.726  57.846  21.066  1.00  0.00     0.008 C 
ATOM      9  C   UNL     1      70.153  56.694  22.675  1.00  0.00     0.005 C 
ATOM     10  C   UNL     1      68.295  57.583  21.131  1.00  0.00    -0.024 C 
ATOM     11  C   UNL     1      70.939  56.393  21.387  1.00  0.00     0.005 C 
ATOM     12  C   UNL     1      68.864  56.695  19.859  1.00  0.00    -0.024 C 
ATOM     13  C   UNL     1      68.929  59.025  21.169  1.00  0.00     0.012 C 
ATOM     14  C   UNL     1      70.076  55.719  20.285  1.00  0.00     0.002 C 
ATOM     15  C   UNL     1      69.340  57.633  18.696  1.00  0.00     0.008 C 
ATOM     16  C   UNL     1      67.711  55.819  19.280  1.00  0.00     0.012 C 
ATOM     17  C   UNL     1      70.933  55.071  19.073  1.00  0.00    -0.023 C 
ATOM     18  C   UNL     1      70.023  56.925  17.524  1.00  0.00     0.005 C 
ATOM     19  C   UNL     1      71.288  56.182  18.014  1.00  0.00     0.004 C 
ATOM     20  C   UNL     1      72.293  54.469  19.575  1.00  0.00     0.042 C 
ATOM     21  C   UNL     1      70.107  53.878  18.465  1.00  0.00     0.012 C 
ATOM     22  C   UNL     1      72.288  55.759  16.856  1.00  0.00    -0.003 C 
ATOM     23  C   UNL     1      73.227  53.957  18.454  1.00  0.00     0.144 C 
ATOM     24  C   UNL     1      73.563  55.094  17.471  1.00  0.00     0.149 C 
ATOM     25  C   UNL     1      72.757  57.020  16.071  1.00  0.00     0.014 C 
ATOM     26  C   UNL     1      71.650  54.810  15.805  1.00  0.00     0.014 C 
ENDROOT
BRANCH   1  27
ATOM     27  C   UNL     1      65.787  56.055  23.359  1.00  0.00     0.048 C 
ATOM     28  O   UNL     1      66.026  55.395  22.312  1.00  0.00    -0.550 OA
ATOM     29  O   UNL     1      64.864  55.539  24.257  1.00  0.00    -0.550 OA
ENDBRANCH   1  27
BRANCH   7  30
ATOM     30  C   UNL     1      69.497  57.443  25.755  1.00  0.00    -0.077 C 
ATOM     31  C   UNL     1      70.557  56.512  26.294  1.00  0.00     0.039 C 
ATOM     32  C   UNL     1      69.708  58.767  25.834  1.00  0.00     0.008 C 
ENDBRANCH   7  30
BRANCH  23  33
ATOM     33  O   UNL     1      74.420  53.484  19.027  1.00  0.00    -0.390 OA
ATOM     34  H   UNL     1      74.376  53.693  19.998  1.00  0.00     0.211 HD
ENDBRANCH  23  33
BRANCH  24  35
ATOM     35  O   UNL     1      74.337  56.066  18.137  1.00  0.00    -0.390 OA
ATOM     36  H   UNL     1      74.699  55.649  18.962  1.00  0.00     0.211 HD
ENDBRANCH  24  35
TORSDOF 4
ENDMDL
MODEL 8
REMARK VINA RESULT:    -5.002      3.085      7.373
REMARK INTER + INTRA:          -6.182
REMARK INTER:                  -6.164
REMARK INTRA:                  -0.017
REMARK UNBOUND:                -0.303
REMARK SMILES C=C(C)[C@H]1CC[C@@]2(C(=O)[O-])CC[C@@]3(C)[C@@H](CC[C@@H]4[C@]5(C)C[C@H](O)[C@H](O)C(C)(C)[C@H]5CC[C@@]43C)[C@H]12
REMARK SMILES IDX 7 1 6 2 34 3 11 4 5 5 15 6 4 7 12 8 16 9 13 10 17 11 32 12
REMARK SMILES IDX 14 13 18 14 31 15 33 16 19 17 30 18 29 19 21 20 20 21 26 22
REMARK SMILES IDX 22 23 24 24 27 25 28 26 8 27 9 28 10 29 2 30 3 31 1 32 23 33
REMARK SMILES IDX 25 35
REMARK H PARENT 23 34 25 36
REMARK Flexibility Score: inf
ROOT
ATOM      1  C   UNL     1      72.486  54.055  26.175  1.00  0.00     0.014 C 
ATOM      2  C   UNL     1      71.943  53.896  27.598  1.00  0.00     0.014 C 
ATOM      3  C   UNL     1      71.295  54.709  25.461  1.00  0.00     0.012 C 
ATOM      4  C   UNL     1      72.774  52.727  25.434  1.00  0.00     0.014 C 
ATOM      5  C   UNL     1      71.106  55.165  27.846  1.00  0.00     0.009 C 
ATOM      6  C   UNL     1      71.662  55.119  24.006  1.00  0.00     0.000 C 
ATOM      7  C   UNL     1      70.752  55.750  26.456  1.00  0.00     0.018 C 
ATOM      8  C   UNL     1      73.149  53.010  23.950  1.00  0.00     0.008 C 
ATOM      9  C   UNL     1      70.512  55.896  23.337  1.00  0.00     0.005 C 
ATOM     10  C   UNL     1      72.102  53.881  23.128  1.00  0.00    -0.024 C 
ATOM     11  C   UNL     1      70.655  56.036  21.812  1.00  0.00     0.005 C 
ATOM     12  C   UNL     1      72.699  54.443  21.693  1.00  0.00    -0.024 C 
ATOM     13  C   UNL     1      70.876  52.914  22.913  1.00  0.00     0.012 C 
ATOM     14  C   UNL     1      72.121  55.902  21.318  1.00  0.00     0.002 C 
ATOM     15  C   UNL     1      72.377  53.445  20.528  1.00  0.00     0.008 C 
ATOM     16  C   UNL     1      74.253  54.540  21.780  1.00  0.00     0.012 C 
ATOM     17  C   UNL     1      72.357  56.394  19.793  1.00  0.00    -0.023 C 
ATOM     18  C   UNL     1      72.754  53.932  19.127  1.00  0.00     0.005 C 
ATOM     19  C   UNL     1      71.990  55.234  18.793  1.00  0.00     0.004 C 
ATOM     20  C   UNL     1      71.445  57.617  19.425  1.00  0.00     0.042 C 
ATOM     21  C   UNL     1      73.846  56.882  19.655  1.00  0.00     0.012 C 
ATOM     22  C   UNL     1      71.981  55.608  17.250  1.00  0.00    -0.003 C 
ATOM     23  C   UNL     1      71.514  58.055  17.944  1.00  0.00     0.144 C 
ATOM     24  C   UNL     1      71.114  56.890  17.019  1.00  0.00     0.149 C 
ATOM     25  C   UNL     1      71.332  54.457  16.427  1.00  0.00     0.014 C 
ATOM     26  C   UNL     1      73.401  55.816  16.656  1.00  0.00     0.014 C 
ENDROOT
BRANCH   1  27
ATOM     27  C   UNL     1      73.754  54.929  26.253  1.00  0.00     0.048 C 
ATOM     28  O   UNL     1      74.895  54.408  26.125  1.00  0.00    -0.550 OA
ATOM     29  O   UNL     1      73.685  56.276  26.573  1.00  0.00    -0.550 OA
ENDBRANCH   1  27
BRANCH   7  30
ATOM     30  C   UNL     1      69.255  56.018  26.318  1.00  0.00    -0.077 C 
ATOM     31  C   UNL     1      68.717  57.414  26.112  1.00  0.00     0.039 C 
ATOM     32  C   UNL     1      68.383  54.998  26.369  1.00  0.00     0.008 C 
ENDBRANCH   7  30
BRANCH  23  33
ATOM     33  O   UNL     1      70.627  59.125  17.736  1.00  0.00    -0.390 OA
ATOM     34  H   UNL     1      70.337  59.439  18.634  1.00  0.00     0.211 HD
ENDBRANCH  23  33
BRANCH  24  35
ATOM     35  O   UNL     1      69.751  56.589  17.219  1.00  0.00    -0.390 OA
ATOM     36  H   UNL     1      69.291  57.431  17.473  1.00  0.00     0.211 HD
ENDBRANCH  24  35
TORSDOF 4
ENDMDL
MODEL 9
REMARK VINA RESULT:    -4.954      2.997      4.359
REMARK INTER + INTRA:          -6.125
REMARK INTER:                  -5.828
REMARK INTRA:                  -0.297
REMARK UNBOUND:                -0.303
REMARK SMILES C=C(C)[C@H]1CC[C@@]2(C(=O)[O-])CC[C@@]3(C)[C@@H](CC[C@@H]4[C@]5(C)C[C@H](O)[C@H](O)C(C)(C)[C@H]5CC[C@@]43C)[C@H]12
REMARK SMILES IDX 7 1 6 2 34 3 11 4 5 5 15 6 4 7 12 8 16 9 13 10 17 11 32 12
REMARK SMILES IDX 14 13 18 14 31 15 33 16 19 17 30 18 29 19 21 20 20 21 26 22
REMARK SMILES IDX 22 23 24 24 27 25 28 26 8 27 9 28 10 29 2 30 3 31 1 32 23 33
REMARK SMILES IDX 25 35
REMARK H PARENT 23 34 25 36
REMARK Flexibility Score: inf
ROOT
ATOM      1  C   UNL     1      71.256  55.963  17.318  1.00  0.00     0.014 C 
ATOM      2  C   UNL     1      71.795  56.017  15.886  1.00  0.00     0.014 C 
ATOM      3  C   UNL     1      72.554  55.959  18.137  1.00  0.00     0.012 C 
ATOM      4  C   UNL     1      70.498  54.663  17.682  1.00  0.00     0.014 C 
ATOM      5  C   UNL     1      73.023  56.945  15.960  1.00  0.00     0.009 C 
ATOM      6  C   UNL     1      72.263  56.063  19.662  1.00  0.00     0.000 C 
ATOM      7  C   UNL     1      73.472  56.982  17.442  1.00  0.00     0.018 C 
ATOM      8  C   UNL     1      70.154  54.647  19.199  1.00  0.00     0.008 C 
ATOM      9  C   UNL     1      73.566  56.196  20.472  1.00  0.00     0.005 C 
ATOM     10  C   UNL     1      71.384  54.859  20.187  1.00  0.00    -0.024 C 
ATOM     11  C   UNL     1      73.391  55.962  21.983  1.00  0.00     0.005 C 
ATOM     12  C   UNL     1      70.928  55.184  21.742  1.00  0.00    -0.024 C 
ATOM     13  C   UNL     1      72.200  53.515  20.085  1.00  0.00     0.012 C 
ATOM     14  C   UNL     1      71.938  56.205  22.477  1.00  0.00     0.002 C 
ATOM     15  C   UNL     1      70.828  53.863  22.579  1.00  0.00     0.008 C 
ATOM     16  C   UNL     1      69.504  55.820  21.743  1.00  0.00     0.012 C 
ATOM     17  C   UNL     1      71.793  56.320  24.086  1.00  0.00    -0.023 C 
ATOM     18  C   UNL     1      70.556  54.054  24.072  1.00  0.00     0.005 C 
ATOM     19  C   UNL     1      71.692  54.881  24.719  1.00  0.00     0.004 C 
ATOM     20  C   UNL     1      73.040  57.016  24.737  1.00  0.00     0.042 C 
ATOM     21  C   UNL     1      70.548  57.226  24.407  1.00  0.00     0.012 C 
ATOM     22  C   UNL     1      71.737  54.802  26.304  1.00  0.00    -0.003 C 
ATOM     23  C   UNL     1      73.036  57.037  26.283  1.00  0.00     0.144 C 
ATOM     24  C   UNL     1      72.968  55.603  26.842  1.00  0.00     0.149 C 
ATOM     25  C   UNL     1      71.914  53.324  26.759  1.00  0.00     0.014 C 
ATOM     26  C   UNL     1      70.437  55.310  26.985  1.00  0.00     0.014 C 
ENDROOT
BRANCH   1  27
ATOM     27  C   UNL     1      70.362  57.200  17.529  1.00  0.00     0.048 C 
ATOM     28  O   UNL     1      69.619  57.614  16.598  1.00  0.00    -0.550 OA
ATOM     29  O   UNL     1      70.429  57.953  18.691  1.00  0.00    -0.550 OA
ENDBRANCH   1  27
BRANCH   7  30
ATOM     30  C   UNL     1      74.961  56.680  17.592  1.00  0.00    -0.077 C 
ATOM     31  C   UNL     1      75.488  55.265  17.568  1.00  0.00     0.039 C 
ATOM     32  C   UNL     1      75.838  57.686  17.741  1.00  0.00     0.008 C 
ENDBRANCH   7  30
BRANCH  23  33
ATOM     33  O   UNL     1      74.217  57.648  26.740  1.00  0.00    -0.390 OA
ATOM     34  H   UNL     1      74.039  57.960  27.668  1.00  0.00     0.211 HD
ENDBRANCH  23  33
BRANCH  24  35
ATOM     35  O   UNL     1      74.160  54.925  26.516  1.00  0.00    -0.390 OA
ATOM     36  H   UNL     1      74.628  54.714  27.365  1.00  0.00     0.211 HD
ENDBRANCH  24  35
TORSDOF 4
ENDMDL
