MODEL 1
REMARK VINA RESULT:    -8.142      0.000      0.000
REMARK INTER + INTRA:         -12.429
REMARK INTER:                 -10.998
REMARK INTRA:                  -1.431
REMARK UNBOUND:                -1.431
REMARK SMILES O=c1c(-c2ccc(O)cc2)coc2c([C@@H]3O[C@@H](CO)[C@H](O)[C@H](O)[C@@H]3O)c(O)ccc12
REMARK SMILES IDX 3 1 11 2 12 3 13 4 30 5 2 6 1 7 29 8 28 9 26 10 14 11 4 12
REMARK SMILES IDX 5 13 6 14 7 15 10 16 9 17 8 18 15 20 24 21 16 22 22 23 17 24
REMARK SMILES IDX 20 25 25 26 23 28 18 30 19 31 21 33 27 35
REMARK H PARENT 8 19 25 27 23 29 19 32 21 34 27 36
REMARK Flexibility Score: inf
ROOT
ATOM      1  C   UNL     1     114.719 -49.417  30.186  1.00  0.00     0.065 A 
ATOM      2  C   UNL     1     113.450 -49.189  29.584  1.00  0.00     0.208 A 
ATOM      3  O   UNL     1     112.402 -48.858  30.322  1.00  0.00    -0.463 OA
ATOM      4  C   UNL     1     112.406 -48.919  31.649  1.00  0.00     0.147 A 
ATOM      5  C   UNL     1     113.497 -49.499  32.319  1.00  0.00     0.066 A 
ATOM      6  C   UNL     1     114.691 -49.683  31.594  1.00  0.00     0.200 A 
ATOM      7  O   UNL     1     115.725 -50.036  32.216  1.00  0.00    -0.288 OA
ATOM      8  C   UNL     1     113.401 -49.723  33.708  1.00  0.00     0.020 A 
ATOM      9  C   UNL     1     112.230 -49.365  34.387  1.00  0.00     0.047 A 
ATOM     10  C   UNL     1     111.206 -48.656  33.735  1.00  0.00     0.125 A 
ATOM     11  C   UNL     1     111.377 -48.283  32.374  1.00  0.00     0.069 A 
ENDROOT
BRANCH   1  12
ATOM     12  C   UNL     1     115.989 -49.129  29.386  1.00  0.00    -0.011 A 
ATOM     13  C   UNL     1     116.595 -50.096  28.535  1.00  0.00     0.013 A 
ATOM     14  C   UNL     1     117.904 -49.933  28.066  1.00  0.00     0.047 A 
ATOM     15  C   UNL     1     118.625 -48.783  28.365  1.00  0.00     0.115 A 
ATOM     16  C   UNL     1     116.739 -47.948  29.637  1.00  0.00     0.013 A 
ATOM     17  C   UNL     1     118.026 -47.766  29.105  1.00  0.00     0.047 A 
BRANCH  15  18
ATOM     18  O   UNL     1     119.961 -48.702  27.972  1.00  0.00    -0.508 OA
ATOM     19  H   UNL     1     120.653 -48.223  28.523  1.00  0.00     0.293 HD
ENDBRANCH  15  18
ENDBRANCH   1  12
BRANCH  11  20
ATOM     20  C   UNL     1     111.159 -46.814  31.981  1.00  0.00     0.188 C 
ATOM     21  C   UNL     1     109.795 -46.400  31.398  1.00  0.00     0.179 C 
ATOM     22  O   UNL     1     111.492 -46.018  33.104  1.00  0.00    -0.362 OA
ATOM     23  C   UNL     1     109.840 -44.901  30.995  1.00  0.00     0.177 C 
ATOM     24  C   UNL     1     111.733 -44.659  32.767  1.00  0.00     0.176 C 
ATOM     25  C   UNL     1     110.501 -43.990  32.079  1.00  0.00     0.177 C 
BRANCH  21  26
ATOM     26  O   UNL     1     108.694 -46.673  32.237  1.00  0.00    -0.387 OA
ATOM     27  H   UNL     1     108.172 -47.406  31.822  1.00  0.00     0.211 HD
ENDBRANCH  21  26
BRANCH  23  28
ATOM     28  O   UNL     1     108.550 -44.458  30.660  1.00  0.00    -0.387 OA
ATOM     29  H   UNL     1     108.591 -43.466  30.607  1.00  0.00     0.211 HD
ENDBRANCH  23  28
BRANCH  24  30
ATOM     30  C   UNL     1     113.092 -44.450  32.031  1.00  0.00     0.191 C 
BRANCH  30  31
ATOM     31  O   UNL     1     113.105 -43.271  31.259  1.00  0.00    -0.394 OA
ATOM     32  H   UNL     1     113.936 -42.774  31.489  1.00  0.00     0.210 HD
ENDBRANCH  30  31
ENDBRANCH  24  30
BRANCH  25  33
ATOM     33  O   UNL     1     109.550 -43.550  33.029  1.00  0.00    -0.388 OA
ATOM     34  H   UNL     1     108.863 -42.991  32.561  1.00  0.00     0.211 HD
ENDBRANCH  25  33
ENDBRANCH  11  20
BRANCH  10  35
ATOM     35  O   UNL     1     110.054 -48.323  34.437  1.00  0.00    -0.507 OA
ATOM     36  H   UNL     1     109.148 -48.645  34.135  1.00  0.00     0.293 HD
ENDBRANCH  10  35
TORSDOF 9
ENDMDL
MODEL 2
REMARK VINA RESULT:    -7.992      1.329      1.817
REMARK INTER + INTRA:         -12.227
REMARK INTER:                 -10.876
REMARK INTRA:                  -1.351
REMARK UNBOUND:                -1.431
REMARK SMILES O=c1c(-c2ccc(O)cc2)coc2c([C@@H]3O[C@@H](CO)[C@H](O)[C@H](O)[C@@H]3O)c(O)ccc12
REMARK SMILES IDX 3 1 11 2 12 3 13 4 30 5 2 6 1 7 29 8 28 9 26 10 14 11 4 12
REMARK SMILES IDX 5 13 6 14 7 15 10 16 9 17 8 18 15 20 24 21 16 22 22 23 17 24
REMARK SMILES IDX 20 25 25 26 23 28 18 30 19 31 21 33 27 35
REMARK H PARENT 8 19 25 27 23 29 19 32 21 34 27 36
REMARK Flexibility Score: inf
ROOT
ATOM      1  C   UNL     1     115.138 -48.806  30.139  1.00  0.00     0.065 A 
ATOM      2  C   UNL     1     114.098 -48.002  29.594  1.00  0.00     0.208 A 
ATOM      3  O   UNL     1     113.109 -47.566  30.359  1.00  0.00    -0.463 OA
ATOM      4  C   UNL     1     112.908 -48.005  31.597  1.00  0.00     0.147 A 
ATOM      5  C   UNL     1     113.662 -49.084  32.088  1.00  0.00     0.066 A 
ATOM      6  C   UNL     1     114.831 -49.440  31.387  1.00  0.00     0.200 A 
ATOM      7  O   UNL     1     115.609 -50.284  31.902  1.00  0.00    -0.288 OA
ATOM      8  C   UNL     1     113.308 -49.653  33.329  1.00  0.00     0.020 A 
ATOM      9  C   UNL     1     112.220 -49.135  34.042  1.00  0.00     0.047 A 
ATOM     10  C   UNL     1     111.566 -47.967  33.611  1.00  0.00     0.125 A 
ATOM     11  C   UNL     1     112.033 -47.298  32.448  1.00  0.00     0.069 A 
ENDROOT
BRANCH   1  12
ATOM     12  C   UNL     1     116.533 -48.743  29.520  1.00  0.00    -0.011 A 
ATOM     13  C   UNL     1     117.332 -47.565  29.545  1.00  0.00     0.013 A 
ATOM     14  C   UNL     1     118.450 -47.428  28.715  1.00  0.00     0.047 A 
ATOM     15  C   UNL     1     118.853 -48.472  27.889  1.00  0.00     0.115 A 
ATOM     16  C   UNL     1     116.996 -49.805  28.695  1.00  0.00     0.013 A 
ATOM     17  C   UNL     1     118.160 -49.679  27.918  1.00  0.00     0.047 A 
BRANCH  15  18
ATOM     18  O   UNL     1     119.905 -48.262  26.999  1.00  0.00    -0.508 OA
ATOM     19  H   UNL     1     119.771 -47.815  26.108  1.00  0.00     0.293 HD
ENDBRANCH  15  18
ENDBRANCH   1  12
BRANCH  11  20
ATOM     20  C   UNL     1     112.333 -45.794  32.534  1.00  0.00     0.188 C 
ATOM     21  C   UNL     1     111.307 -44.801  31.957  1.00  0.00     0.179 C 
ATOM     22  O   UNL     1     112.621 -45.495  33.888  1.00  0.00    -0.362 OA
ATOM     23  C   UNL     1     111.865 -43.356  32.077  1.00  0.00     0.177 C 
ATOM     24  C   UNL     1     113.307 -44.260  34.048  1.00  0.00     0.176 C 
ATOM     25  C   UNL     1     112.500 -43.054  33.473  1.00  0.00     0.177 C 
BRANCH  21  26
ATOM     26  O   UNL     1     110.017 -44.901  32.519  1.00  0.00    -0.387 OA
ATOM     27  H   UNL     1     109.536 -44.057  32.321  1.00  0.00     0.211 HD
ENDBRANCH  21  26
BRANCH  23  28
ATOM     28  O   UNL     1     110.861 -42.428  31.750  1.00  0.00    -0.387 OA
ATOM     29  H   UNL     1     110.630 -42.579  30.795  1.00  0.00     0.211 HD
ENDBRANCH  23  28
BRANCH  24  30
ATOM     30  C   UNL     1     114.797 -44.333  33.593  1.00  0.00     0.191 C 
BRANCH  30  31
ATOM     31  O   UNL     1     115.172 -43.220  32.814  1.00  0.00    -0.394 OA
ATOM     32  H   UNL     1     114.704 -43.298  31.939  1.00  0.00     0.210 HD
ENDBRANCH  30  31
ENDBRANCH  24  30
BRANCH  25  33
ATOM     33  O   UNL     1     111.527 -42.592  34.390  1.00  0.00    -0.388 OA
ATOM     34  H   UNL     1     111.564 -43.162  35.212  1.00  0.00     0.211 HD
ENDBRANCH  25  33
ENDBRANCH  11  20
BRANCH  10  35
ATOM     35  O   UNL     1     110.485 -47.484  34.339  1.00  0.00    -0.507 OA
ATOM     36  H   UNL     1     110.483 -47.505  35.346  1.00  0.00     0.293 HD
ENDBRANCH  10  35
TORSDOF 9
ENDMDL
MODEL 3
REMARK VINA RESULT:    -7.518      3.177      6.773
REMARK INTER + INTRA:         -11.587
REMARK INTER:                 -10.267
REMARK INTRA:                  -1.320
REMARK UNBOUND:                -1.431
REMARK SMILES O=c1c(-c2ccc(O)cc2)coc2c([C@@H]3O[C@@H](CO)[C@H](O)[C@H](O)[C@@H]3O)c(O)ccc12
REMARK SMILES IDX 3 1 11 2 12 3 13 4 30 5 2 6 1 7 29 8 28 9 26 10 14 11 4 12
REMARK SMILES IDX 5 13 6 14 7 15 10 16 9 17 8 18 15 20 24 21 16 22 22 23 17 24
REMARK SMILES IDX 20 25 25 26 23 28 18 30 19 31 21 33 27 35
REMARK H PARENT 8 19 25 27 23 29 19 32 21 34 27 36
REMARK Flexibility Score: inf
ROOT
ATOM      1  C   UNL     1     113.974 -45.176  33.132  1.00  0.00     0.065 A 
ATOM      2  C   UNL     1     112.625 -45.523  32.838  1.00  0.00     0.208 A 
ATOM      3  O   UNL     1     112.345 -46.611  32.137  1.00  0.00    -0.463 OA
ATOM      4  C   UNL     1     113.274 -47.318  31.501  1.00  0.00     0.147 A 
ATOM      5  C   UNL     1     114.590 -46.833  31.421  1.00  0.00     0.066 A 
ATOM      6  C   UNL     1     114.962 -45.796  32.300  1.00  0.00     0.200 A 
ATOM      7  O   UNL     1     116.174 -45.468  32.366  1.00  0.00    -0.288 OA
ATOM      8  C   UNL     1     115.512 -47.499  30.588  1.00  0.00     0.020 A 
ATOM      9  C   UNL     1     115.100 -48.624  29.862  1.00  0.00     0.047 A 
ATOM     10  C   UNL     1     113.826 -49.184  30.062  1.00  0.00     0.125 A 
ATOM     11  C   UNL     1     112.957 -48.608  31.027  1.00  0.00     0.069 A 
ENDROOT
BRANCH   1  12
ATOM     12  C   UNL     1     114.283 -44.402  34.412  1.00  0.00    -0.011 A 
ATOM     13  C   UNL     1     114.808 -43.079  34.401  1.00  0.00     0.013 A 
ATOM     14  C   UNL     1     115.374 -42.512  35.548  1.00  0.00     0.047 A 
ATOM     15  C   UNL     1     115.378 -43.204  36.754  1.00  0.00     0.115 A 
ATOM     16  C   UNL     1     114.266 -45.065  35.670  1.00  0.00     0.013 A 
ATOM     17  C   UNL     1     114.777 -44.458  36.829  1.00  0.00     0.047 A 
BRANCH  15  18
ATOM     18  O   UNL     1     116.046 -42.654  37.847  1.00  0.00    -0.508 OA
ATOM     19  H   UNL     1     115.925 -43.006  38.781  1.00  0.00     0.293 HD
ENDBRANCH  15  18
ENDBRANCH   1  12
BRANCH  11  20
ATOM     20  C   UNL     1     112.330 -49.522  32.091  1.00  0.00     0.188 C 
ATOM     21  C   UNL     1     110.984 -50.203  31.780  1.00  0.00     0.179 C 
ATOM     22  O   UNL     1     113.308 -50.478  32.461  1.00  0.00    -0.362 OA
ATOM     23  C   UNL     1     110.508 -50.998  33.027  1.00  0.00     0.177 C 
ATOM     24  C   UNL     1     113.021 -51.110  33.701  1.00  0.00     0.176 C 
ATOM     25  C   UNL     1     111.643 -51.844  33.689  1.00  0.00     0.177 C 
BRANCH  21  26
ATOM     26  O   UNL     1     110.994 -51.017  30.627  1.00  0.00    -0.387 OA
ATOM     27  H   UNL     1     110.094 -50.965  30.214  1.00  0.00     0.211 HD
ENDBRANCH  21  26
BRANCH  23  28
ATOM     28  O   UNL     1     109.397 -51.790  32.692  1.00  0.00    -0.387 OA
ATOM     29  H   UNL     1     109.398 -51.884  31.703  1.00  0.00     0.211 HD
ENDBRANCH  23  28
BRANCH  24  30
ATOM     30  C   UNL     1     113.259 -50.174  34.926  1.00  0.00     0.191 C 
BRANCH  30  31
ATOM     31  O   UNL     1     113.870 -50.849  36.002  1.00  0.00    -0.394 OA
ATOM     32  H   UNL     1     113.197 -51.476  36.383  1.00  0.00     0.210 HD
ENDBRANCH  30  31
ENDBRANCH  24  30
BRANCH  25  33
ATOM     33  O   UNL     1     111.740 -53.125  33.098  1.00  0.00    -0.388 OA
ATOM     34  H   UNL     1     112.020 -53.019  32.143  1.00  0.00     0.211 HD
ENDBRANCH  25  33
ENDBRANCH  11  20
BRANCH  10  35
ATOM     35  O   UNL     1     113.447 -50.297  29.320  1.00  0.00    -0.507 OA
ATOM     36  H   UNL     1     113.658 -51.230  29.634  1.00  0.00     0.293 HD
ENDBRANCH  10  35
TORSDOF 9
ENDMDL
MODEL 4
REMARK VINA RESULT:    -7.489      3.719      5.559
REMARK INTER + INTRA:         -11.548
REMARK INTER:                 -10.611
REMARK INTRA:                  -0.937
REMARK UNBOUND:                -1.431
REMARK SMILES O=c1c(-c2ccc(O)cc2)coc2c([C@@H]3O[C@@H](CO)[C@H](O)[C@H](O)[C@@H]3O)c(O)ccc12
REMARK SMILES IDX 3 1 11 2 12 3 13 4 30 5 2 6 1 7 29 8 28 9 26 10 14 11 4 12
REMARK SMILES IDX 5 13 6 14 7 15 10 16 9 17 8 18 15 20 24 21 16 22 22 23 17 24
REMARK SMILES IDX 20 25 25 26 23 28 18 30 19 31 21 33 27 35
REMARK H PARENT 8 19 25 27 23 29 19 32 21 34 27 36
REMARK Flexibility Score: inf
ROOT
ATOM      1  C   UNL     1     112.799 -46.946  32.897  1.00  0.00     0.065 A 
ATOM      2  C   UNL     1     111.747 -46.289  33.594  1.00  0.00     0.208 A 
ATOM      3  O   UNL     1     112.011 -45.459  34.591  1.00  0.00    -0.463 OA
ATOM      4  C   UNL     1     113.220 -45.345  35.133  1.00  0.00     0.147 A 
ATOM      5  C   UNL     1     114.240 -46.235  34.760  1.00  0.00     0.066 A 
ATOM      6  C   UNL     1     114.055 -46.992  33.586  1.00  0.00     0.200 A 
ATOM      7  O   UNL     1     115.022 -47.662  33.142  1.00  0.00    -0.288 OA
ATOM      8  C   UNL     1     115.455 -46.218  35.477  1.00  0.00     0.020 A 
ATOM      9  C   UNL     1     115.617 -45.320  36.539  1.00  0.00     0.047 A 
ATOM     10  C   UNL     1     114.647 -44.338  36.809  1.00  0.00     0.125 A 
ATOM     11  C   UNL     1     113.498 -44.250  35.977  1.00  0.00     0.069 A 
ENDROOT
BRANCH   1  12
ATOM     12  C   UNL     1     112.604 -47.321  31.429  1.00  0.00    -0.011 A 
ATOM     13  C   UNL     1     111.478 -48.061  30.969  1.00  0.00     0.013 A 
ATOM     14  C   UNL     1     111.470 -48.660  29.704  1.00  0.00     0.047 A 
ATOM     15  C   UNL     1     112.539 -48.489  28.832  1.00  0.00     0.115 A 
ATOM     16  C   UNL     1     113.661 -47.132  30.497  1.00  0.00     0.013 A 
ATOM     17  C   UNL     1     113.610 -47.681  29.205  1.00  0.00     0.047 A 
BRANCH  15  18
ATOM     18  O   UNL     1     112.545 -49.187  27.625  1.00  0.00    -0.508 OA
ATOM     19  H   UNL     1     111.744 -49.212  27.017  1.00  0.00     0.293 HD
ENDBRANCH  15  18
ENDBRANCH   1  12
BRANCH  11  20
ATOM     20  C   UNL     1     113.136 -42.888  35.365  1.00  0.00     0.188 C 
ATOM     21  C   UNL     1     112.337 -41.884  36.216  1.00  0.00     0.179 C 
ATOM     22  O   UNL     1     114.335 -42.304  34.886  1.00  0.00    -0.362 OA
ATOM     23  C   UNL     1     112.014 -40.627  35.363  1.00  0.00     0.177 C 
ATOM     24  C   UNL     1     114.106 -41.262  33.947  1.00  0.00     0.176 C 
ATOM     25  C   UNL     1     113.238 -40.108  34.541  1.00  0.00     0.177 C 
BRANCH  21  26
ATOM     26  O   UNL     1     112.953 -41.532  37.436  1.00  0.00    -0.387 OA
ATOM     27  H   UNL     1     112.646 -42.175  38.125  1.00  0.00     0.211 HD
ENDBRANCH  21  26
BRANCH  23  28
ATOM     28  O   UNL     1     111.473 -39.621  36.181  1.00  0.00    -0.387 OA
ATOM     29  H   UNL     1     111.617 -39.907  37.122  1.00  0.00     0.211 HD
ENDBRANCH  23  28
BRANCH  24  30
ATOM     30  C   UNL     1     113.635 -41.792  32.558  1.00  0.00     0.191 C 
BRANCH  30  31
ATOM     31  O   UNL     1     114.350 -42.937  32.153  1.00  0.00    -0.394 OA
ATOM     32  H   UNL     1     114.459 -42.887  31.165  1.00  0.00     0.210 HD
ENDBRANCH  30  31
ENDBRANCH  24  30
BRANCH  25  33
ATOM     33  O   UNL     1     114.020 -39.206  35.300  1.00  0.00    -0.388 OA
ATOM     34  H   UNL     1     113.674 -38.278  35.153  1.00  0.00     0.211 HD
ENDBRANCH  25  33
ENDBRANCH  11  20
BRANCH  10  35
ATOM     35  O   UNL     1     114.836 -43.467  37.875  1.00  0.00    -0.507 OA
ATOM     36  H   UNL     1     114.182 -43.429  38.640  1.00  0.00     0.293 HD
ENDBRANCH  10  35
TORSDOF 9
ENDMDL
MODEL 5
REMARK VINA RESULT:    -7.487      3.208      6.650
REMARK INTER + INTRA:         -11.545
REMARK INTER:                 -10.284
REMARK INTRA:                  -1.261
REMARK UNBOUND:                -1.431
REMARK SMILES O=c1c(-c2ccc(O)cc2)coc2c([C@@H]3O[C@@H](CO)[C@H](O)[C@H](O)[C@@H]3O)c(O)ccc12
REMARK SMILES IDX 3 1 11 2 12 3 13 4 30 5 2 6 1 7 29 8 28 9 26 10 14 11 4 12
REMARK SMILES IDX 5 13 6 14 7 15 10 16 9 17 8 18 15 20 24 21 16 22 22 23 17 24
REMARK SMILES IDX 20 25 25 26 23 28 18 30 19 31 21 33 27 35
REMARK H PARENT 8 19 25 27 23 29 19 32 21 34 27 36
REMARK Flexibility Score: inf
ROOT
ATOM      1  C   UNL     1     114.880 -45.462  32.846  1.00  0.00     0.065 A 
ATOM      2  C   UNL     1     113.484 -45.659  32.651  1.00  0.00     0.208 A 
ATOM      3  O   UNL     1     113.037 -46.712  31.985  1.00  0.00    -0.463 OA
ATOM      4  C   UNL     1     113.834 -47.521  31.295  1.00  0.00     0.147 A 
ATOM      5  C   UNL     1     115.186 -47.184  31.117  1.00  0.00     0.066 A 
ATOM      6  C   UNL     1     115.732 -46.191  31.955  1.00  0.00     0.200 A 
ATOM      7  O   UNL     1     116.975 -45.999  31.931  1.00  0.00    -0.288 OA
ATOM      8  C   UNL     1     115.968 -47.953  30.229  1.00  0.00     0.020 A 
ATOM      9  C   UNL     1     115.384 -49.029  29.549  1.00  0.00     0.047 A 
ATOM     10  C   UNL     1     114.074 -49.443  29.844  1.00  0.00     0.125 A 
ATOM     11  C   UNL     1     113.344 -48.770  30.860  1.00  0.00     0.069 A 
ENDROOT
BRANCH   1  12
ATOM     12  C   UNL     1     115.363 -44.720  34.091  1.00  0.00    -0.011 A 
ATOM     13  C   UNL     1     115.601 -45.377  35.332  1.00  0.00     0.013 A 
ATOM     14  C   UNL     1     115.733 -44.655  36.523  1.00  0.00     0.047 A 
ATOM     15  C   UNL     1     115.703 -43.265  36.516  1.00  0.00     0.115 A 
ATOM     16  C   UNL     1     115.378 -43.298  34.115  1.00  0.00     0.013 A 
ATOM     17  C   UNL     1     115.579 -42.584  35.308  1.00  0.00     0.047 A 
BRANCH  15  18
ATOM     18  O   UNL     1     115.729 -42.583  37.732  1.00  0.00    -0.508 OA
ATOM     19  H   UNL     1     116.486 -41.972  37.988  1.00  0.00     0.293 HD
ENDBRANCH  15  18
ENDBRANCH   1  12
BRANCH  11  20
ATOM     20  C   UNL     1     112.698 -49.603  31.977  1.00  0.00     0.188 C 
ATOM     21  C   UNL     1     111.309 -50.221  31.728  1.00  0.00     0.179 C 
ATOM     22  O   UNL     1     113.632 -50.596  32.363  1.00  0.00    -0.362 OA
ATOM     23  C   UNL     1     110.824 -50.937  33.019  1.00  0.00     0.177 C 
ATOM     24  C   UNL     1     113.345 -51.161  33.635  1.00  0.00     0.176 C 
ATOM     25  C   UNL     1     111.929 -51.817  33.688  1.00  0.00     0.177 C 
BRANCH  21  26
ATOM     26  O   UNL     1     111.243 -51.080  30.611  1.00  0.00    -0.387 OA
ATOM     27  H   UNL     1     111.683 -51.932  30.859  1.00  0.00     0.211 HD
ENDBRANCH  21  26
BRANCH  23  28
ATOM     28  O   UNL     1     109.663 -51.679  32.747  1.00  0.00    -0.387 OA
ATOM     29  H   UNL     1     109.733 -51.986  31.804  1.00  0.00     0.211 HD
ENDBRANCH  23  28
BRANCH  24  30
ATOM     30  C   UNL     1     113.667 -50.191  34.813  1.00  0.00     0.191 C 
BRANCH  30  31
ATOM     31  O   UNL     1     113.812 -50.871  36.039  1.00  0.00    -0.394 OA
ATOM     32  H   UNL     1     113.106 -51.572  36.078  1.00  0.00     0.210 HD
ENDBRANCH  30  31
ENDBRANCH  24  30
BRANCH  25  33
ATOM     33  O   UNL     1     111.940 -53.124  33.149  1.00  0.00    -0.388 OA
ATOM     34  H   UNL     1     112.395 -53.102  32.258  1.00  0.00     0.211 HD
ENDBRANCH  25  33
ENDBRANCH  11  20
BRANCH  10  35
ATOM     35  O   UNL     1     113.522 -50.510  29.144  1.00  0.00    -0.507 OA
ATOM     36  H   UNL     1     113.293 -50.430  28.166  1.00  0.00     0.293 HD
ENDBRANCH  10  35
TORSDOF 9
ENDMDL
MODEL 6
REMARK VINA RESULT:    -7.458      4.005      7.273
REMARK INTER + INTRA:         -11.506
REMARK INTER:                 -10.484
REMARK INTRA:                  -1.022
REMARK UNBOUND:                -1.431
REMARK SMILES O=c1c(-c2ccc(O)cc2)coc2c([C@@H]3O[C@@H](CO)[C@H](O)[C@H](O)[C@@H]3O)c(O)ccc12
REMARK SMILES IDX 3 1 11 2 12 3 13 4 30 5 2 6 1 7 29 8 28 9 26 10 14 11 4 12
REMARK SMILES IDX 5 13 6 14 7 15 10 16 9 17 8 18 15 20 24 21 16 22 22 23 17 24
REMARK SMILES IDX 20 25 25 26 23 28 18 30 19 31 21 33 27 35
REMARK H PARENT 8 19 25 27 23 29 19 32 21 34 27 36
REMARK Flexibility Score: inf
ROOT
ATOM      1  C   UNL     1     112.994 -46.099  31.621  1.00  0.00     0.065 A 
ATOM      2  C   UNL     1     114.408 -46.085  31.777  1.00  0.00     0.208 A 
ATOM      3  O   UNL     1     115.016 -45.050  32.336  1.00  0.00    -0.463 OA
ATOM      4  C   UNL     1     114.398 -43.901  32.591  1.00  0.00     0.147 A 
ATOM      5  C   UNL     1     113.091 -43.692  32.121  1.00  0.00     0.066 A 
ATOM      6  C   UNL     1     112.356 -44.818  31.698  1.00  0.00     0.200 A 
ATOM      7  O   UNL     1     111.134 -44.677  31.439  1.00  0.00    -0.288 OA
ATOM      8  C   UNL     1     112.523 -42.406  32.238  1.00  0.00     0.020 A 
ATOM      9  C   UNL     1     113.269 -41.372  32.817  1.00  0.00     0.047 A 
ATOM     10  C   UNL     1     114.516 -41.628  33.413  1.00  0.00     0.125 A 
ATOM     11  C   UNL     1     115.012 -42.959  33.442  1.00  0.00     0.069 A 
ENDROOT
BRANCH   1  12
ATOM     12  C   UNL     1     112.254 -47.435  31.633  1.00  0.00    -0.011 A 
ATOM     13  C   UNL     1     112.608 -48.500  32.509  1.00  0.00     0.013 A 
ATOM     14  C   UNL     1     112.141 -49.802  32.295  1.00  0.00     0.047 A 
ATOM     15  C   UNL     1     111.259 -50.078  31.255  1.00  0.00     0.115 A 
ATOM     16  C   UNL     1     111.320 -47.744  30.606  1.00  0.00     0.013 A 
ATOM     17  C   UNL     1     110.806 -49.041  30.444  1.00  0.00     0.047 A 
BRANCH  15  18
ATOM     18  O   UNL     1     110.901 -51.402  31.007  1.00  0.00    -0.508 OA
ATOM     19  H   UNL     1     111.578 -52.104  30.763  1.00  0.00     0.293 HD
ENDBRANCH  15  18
ENDBRANCH   1  12
BRANCH  11  20
ATOM     20  C   UNL     1     115.470 -43.545  34.786  1.00  0.00     0.188 C 
ATOM     21  C   UNL     1     116.972 -43.805  35.006  1.00  0.00     0.179 C 
ATOM     22  O   UNL     1     114.944 -42.720  35.811  1.00  0.00    -0.362 OA
ATOM     23  C   UNL     1     117.182 -44.476  36.391  1.00  0.00     0.177 C 
ATOM     24  C   UNL     1     114.935 -43.355  37.083  1.00  0.00     0.176 C 
ATOM     25  C   UNL     1     116.362 -43.798  37.535  1.00  0.00     0.177 C 
BRANCH  21  26
ATOM     26  O   UNL     1     117.790 -42.665  34.859  1.00  0.00    -0.387 OA
ATOM     27  H   UNL     1     118.499 -42.886  34.202  1.00  0.00     0.211 HD
ENDBRANCH  21  26
BRANCH  23  28
ATOM     28  O   UNL     1     118.553 -44.528  36.693  1.00  0.00    -0.387 OA
ATOM     29  H   UNL     1     119.024 -44.772  35.852  1.00  0.00     0.211 HD
ENDBRANCH  23  28
BRANCH  24  30
ATOM     30  C   UNL     1     113.836 -44.456  37.200  1.00  0.00     0.191 C 
BRANCH  30  31
ATOM     31  O   UNL     1     112.794 -44.078  38.070  1.00  0.00    -0.394 OA
ATOM     32  H   UNL     1     112.186 -44.860  38.166  1.00  0.00     0.210 HD
ENDBRANCH  30  31
ENDBRANCH  24  30
BRANCH  25  33
ATOM     33  O   UNL     1     117.081 -42.726  38.115  1.00  0.00    -0.388 OA
ATOM     34  H   UNL     1     117.586 -42.250  37.394  1.00  0.00     0.211 HD
ENDBRANCH  25  33
ENDBRANCH  11  20
BRANCH  10  35
ATOM     35  O   UNL     1     115.233 -40.577  33.972  1.00  0.00    -0.507 OA
ATOM     36  H   UNL     1     115.301 -40.465  34.971  1.00  0.00     0.293 HD
ENDBRANCH  10  35
TORSDOF 9
ENDMDL
MODEL 7
REMARK VINA RESULT:    -7.383      1.222      2.669
REMARK INTER + INTRA:         -11.404
REMARK INTER:                 -10.810
REMARK INTRA:                  -0.594
REMARK UNBOUND:                -1.431
REMARK SMILES O=c1c(-c2ccc(O)cc2)coc2c([C@@H]3O[C@@H](CO)[C@H](O)[C@H](O)[C@@H]3O)c(O)ccc12
REMARK SMILES IDX 3 1 11 2 12 3 13 4 30 5 2 6 1 7 29 8 28 9 26 10 14 11 4 12
REMARK SMILES IDX 5 13 6 14 7 15 10 16 9 17 8 18 15 20 24 21 16 22 22 23 17 24
REMARK SMILES IDX 20 25 25 26 23 28 18 30 19 31 21 33 27 35
REMARK H PARENT 8 19 25 27 23 29 19 32 21 34 27 36
REMARK Flexibility Score: inf
ROOT
ATOM      1  C   UNL     1     114.972 -48.912  30.283  1.00  0.00     0.065 A 
ATOM      2  C   UNL     1     113.974 -48.048  29.750  1.00  0.00     0.208 A 
ATOM      3  O   UNL     1     112.950 -47.660  30.494  1.00  0.00    -0.463 OA
ATOM      4  C   UNL     1     112.675 -48.194  31.679  1.00  0.00     0.147 A 
ATOM      5  C   UNL     1     113.386 -49.323  32.119  1.00  0.00     0.066 A 
ATOM      6  C   UNL     1     114.588 -49.641  31.456  1.00  0.00     0.200 A 
ATOM      7  O   UNL     1     115.325 -50.537  31.941  1.00  0.00    -0.288 OA
ATOM      8  C   UNL     1     112.956 -49.986  33.288  1.00  0.00     0.020 A 
ATOM      9  C   UNL     1     111.837 -49.508  33.981  1.00  0.00     0.047 A 
ATOM     10  C   UNL     1     111.224 -48.298  33.613  1.00  0.00     0.125 A 
ATOM     11  C   UNL     1     111.763 -47.544  32.536  1.00  0.00     0.069 A 
ENDROOT
BRANCH   1  12
ATOM     12  C   UNL     1     116.400 -48.823  29.749  1.00  0.00    -0.011 A 
ATOM     13  C   UNL     1     117.160 -47.621  29.786  1.00  0.00     0.013 A 
ATOM     14  C   UNL     1     118.323 -47.472  29.021  1.00  0.00     0.047 A 
ATOM     15  C   UNL     1     118.807 -48.526  28.254  1.00  0.00     0.115 A 
ATOM     16  C   UNL     1     116.945 -49.893  28.986  1.00  0.00     0.013 A 
ATOM     17  C   UNL     1     118.150 -49.753  28.277  1.00  0.00     0.047 A 
BRANCH  15  18
ATOM     18  O   UNL     1     119.905 -48.308  27.423  1.00  0.00    -0.508 OA
ATOM     19  H   UNL     1     120.409 -47.438  27.418  1.00  0.00     0.293 HD
ENDBRANCH  15  18
ENDBRANCH   1  12
BRANCH  11  20
ATOM     20  C   UNL     1     112.077 -46.058  32.763  1.00  0.00     0.188 C 
ATOM     21  C   UNL     1     113.465 -45.671  33.308  1.00  0.00     0.179 C 
ATOM     22  O   UNL     1     111.801 -45.375  31.553  1.00  0.00    -0.362 OA
ATOM     23  C   UNL     1     113.519 -44.135  33.538  1.00  0.00     0.177 C 
ATOM     24  C   UNL     1     111.650 -43.973  31.731  1.00  0.00     0.176 C 
ATOM     25  C   UNL     1     112.922 -43.313  32.350  1.00  0.00     0.177 C 
BRANCH  21  26
ATOM     26  O   UNL     1     114.547 -46.109  32.516  1.00  0.00    -0.387 OA
ATOM     27  H   UNL     1     114.402 -47.068  32.313  1.00  0.00     0.211 HD
ENDBRANCH  21  26
BRANCH  23  28
ATOM     28  O   UNL     1     114.835 -43.743  33.834  1.00  0.00    -0.387 OA
ATOM     29  H   UNL     1     114.991 -42.882  33.361  1.00  0.00     0.211 HD
ENDBRANCH  23  28
BRANCH  24  30
ATOM     30  C   UNL     1     110.306 -43.593  32.425  1.00  0.00     0.191 C 
BRANCH  30  31
ATOM     31  O   UNL     1     109.213 -43.645  31.537  1.00  0.00    -0.394 OA
ATOM     32  H   UNL     1     109.562 -43.457  30.623  1.00  0.00     0.210 HD
ENDBRANCH  30  31
ENDBRANCH  24  30
BRANCH  25  33
ATOM     33  O   UNL     1     113.903 -43.047  31.367  1.00  0.00    -0.388 OA
ATOM     34  H   UNL     1     114.104 -43.896  30.874  1.00  0.00     0.211 HD
ENDBRANCH  25  33
ENDBRANCH  11  20
BRANCH  10  35
ATOM     35  O   UNL     1     110.110 -47.857  34.318  1.00  0.00    -0.507 OA
ATOM     36  H   UNL     1     110.028 -48.007  35.311  1.00  0.00     0.293 HD
ENDBRANCH  10  35
TORSDOF 9
ENDMDL
MODEL 8
REMARK VINA RESULT:    -7.346      1.906      7.644
REMARK INTER + INTRA:         -11.354
REMARK INTER:                 -10.634
REMARK INTRA:                  -0.720
REMARK UNBOUND:                -1.431
REMARK SMILES O=c1c(-c2ccc(O)cc2)coc2c([C@@H]3O[C@@H](CO)[C@H](O)[C@H](O)[C@@H]3O)c(O)ccc12
REMARK SMILES IDX 3 1 11 2 12 3 13 4 30 5 2 6 1 7 29 8 28 9 26 10 14 11 4 12
REMARK SMILES IDX 5 13 6 14 7 15 10 16 9 17 8 18 15 20 24 21 16 22 22 23 17 24
REMARK SMILES IDX 20 25 25 26 23 28 18 30 19 31 21 33 27 35
REMARK H PARENT 8 19 25 27 23 29 19 32 21 34 27 36
REMARK Flexibility Score: inf
ROOT
ATOM      1  C   UNL     1     112.315 -46.995  32.326  1.00  0.00     0.065 A 
ATOM      2  C   UNL     1     113.515 -46.232  32.266  1.00  0.00     0.208 A 
ATOM      3  O   UNL     1     114.696 -46.829  32.284  1.00  0.00    -0.463 OA
ATOM      4  C   UNL     1     114.848 -48.120  32.560  1.00  0.00     0.147 A 
ATOM      5  C   UNL     1     113.750 -48.874  33.007  1.00  0.00     0.066 A 
ATOM      6  C   UNL     1     112.462 -48.332  32.820  1.00  0.00     0.200 A 
ATOM      7  O   UNL     1     111.463 -49.060  33.052  1.00  0.00    -0.288 OA
ATOM      8  C   UNL     1     113.969 -50.187  33.472  1.00  0.00     0.020 A 
ATOM      9  C   UNL     1     115.268 -50.710  33.478  1.00  0.00     0.047 A 
ATOM     10  C   UNL     1     116.333 -50.002  32.896  1.00  0.00     0.125 A 
ATOM     11  C   UNL     1     116.079 -48.748  32.277  1.00  0.00     0.069 A 
ENDROOT
BRANCH   1  12
ATOM     12  C   UNL     1     111.052 -46.455  31.656  1.00  0.00    -0.011 A 
ATOM     13  C   UNL     1     110.643 -45.097  31.772  1.00  0.00     0.013 A 
ATOM     14  C   UNL     1     109.347 -44.696  31.428  1.00  0.00     0.047 A 
ATOM     15  C   UNL     1     108.441 -45.607  30.898  1.00  0.00     0.115 A 
ATOM     16  C   UNL     1     110.114 -47.351  31.073  1.00  0.00     0.013 A 
ATOM     17  C   UNL     1     108.839 -46.922  30.670  1.00  0.00     0.047 A 
BRANCH  15  18
ATOM     18  O   UNL     1     107.127 -45.198  30.669  1.00  0.00    -0.508 OA
ATOM     19  H   UNL     1     106.888 -44.549  29.939  1.00  0.00     0.293 HD
ENDBRANCH  15  18
ENDBRANCH   1  12
BRANCH  11  20
ATOM     20  C   UNL     1     116.572 -48.523  30.840  1.00  0.00     0.188 C 
ATOM     21  C   UNL     1     117.551 -47.365  30.567  1.00  0.00     0.179 C 
ATOM     22  O   UNL     1     117.100 -49.752  30.374  1.00  0.00    -0.362 OA
ATOM     23  C   UNL     1     117.836 -47.280  29.043  1.00  0.00     0.177 C 
ATOM     24  C   UNL     1     117.210 -49.806  28.957  1.00  0.00     0.176 C 
ATOM     25  C   UNL     1     118.118 -48.670  28.388  1.00  0.00     0.177 C 
BRANCH  21  26
ATOM     26  O   UNL     1     118.749 -47.425  31.310  1.00  0.00    -0.387 OA
ATOM     27  H   UNL     1     119.394 -46.800  30.891  1.00  0.00     0.211 HD
ENDBRANCH  21  26
BRANCH  23  28
ATOM     28  O   UNL     1     118.880 -46.371  28.803  1.00  0.00    -0.387 OA
ATOM     29  H   UNL     1     119.614 -46.604  29.432  1.00  0.00     0.211 HD
ENDBRANCH  23  28
BRANCH  24  30
ATOM     30  C   UNL     1     115.828 -49.961  28.250  1.00  0.00     0.191 C 
BRANCH  30  31
ATOM     31  O   UNL     1     115.906 -50.769  27.098  1.00  0.00    -0.394 OA
ATOM     32  H   UNL     1     116.831 -51.135  27.052  1.00  0.00     0.210 HD
ENDBRANCH  30  31
ENDBRANCH  24  30
BRANCH  25  33
ATOM     33  O   UNL     1     119.488 -49.008  28.472  1.00  0.00    -0.388 OA
ATOM     34  H   UNL     1     120.022 -48.310  27.993  1.00  0.00     0.211 HD
ENDBRANCH  25  33
ENDBRANCH  11  20
BRANCH  10  35
ATOM     35  O   UNL     1     117.612 -50.547  32.926  1.00  0.00    -0.507 OA
ATOM     36  H   UNL     1     117.792 -51.473  32.575  1.00  0.00     0.293 HD
ENDBRANCH  10  35
TORSDOF 9
ENDMDL
MODEL 9
REMARK VINA RESULT:    -7.306      3.731      6.644
REMARK INTER + INTRA:         -11.300
REMARK INTER:                  -9.893
REMARK INTRA:                  -1.407
REMARK UNBOUND:                -1.431
REMARK SMILES O=c1c(-c2ccc(O)cc2)coc2c([C@@H]3O[C@@H](CO)[C@H](O)[C@H](O)[C@@H]3O)c(O)ccc12
REMARK SMILES IDX 3 1 11 2 12 3 13 4 30 5 2 6 1 7 29 8 28 9 26 10 14 11 4 12
REMARK SMILES IDX 5 13 6 14 7 15 10 16 9 17 8 18 15 20 24 21 16 22 22 23 17 24
REMARK SMILES IDX 20 25 25 26 23 28 18 30 19 31 21 33 27 35
REMARK H PARENT 8 19 25 27 23 29 19 32 21 34 27 36
REMARK Flexibility Score: inf
ROOT
ATOM      1  C   UNL     1     111.309 -47.036  31.691  1.00  0.00     0.065 A 
ATOM      2  C   UNL     1     112.582 -46.533  31.302  1.00  0.00     0.208 A 
ATOM      3  O   UNL     1     112.901 -45.265  31.513  1.00  0.00    -0.463 OA
ATOM      4  C   UNL     1     112.014 -44.353  31.895  1.00  0.00     0.147 A 
ATOM      5  C   UNL     1     110.648 -44.679  31.937  1.00  0.00     0.066 A 
ATOM      6  C   UNL     1     110.298 -46.044  31.907  1.00  0.00     0.200 A 
ATOM      7  O   UNL     1     109.100 -46.363  32.117  1.00  0.00    -0.288 OA
ATOM      8  C   UNL     1     109.709 -43.651  32.163  1.00  0.00     0.020 A 
ATOM      9  C   UNL     1     110.154 -42.335  32.340  1.00  0.00     0.047 A 
ATOM     10  C   UNL     1     111.526 -42.046  32.441  1.00  0.00     0.125 A 
ATOM     11  C   UNL     1     112.467 -43.108  32.380  1.00  0.00     0.069 A 
ENDROOT
BRANCH   1  12
ATOM     12  C   UNL     1     111.174 -48.507  32.080  1.00  0.00    -0.011 A 
ATOM     13  C   UNL     1     111.535 -48.997  33.367  1.00  0.00     0.013 A 
ATOM     14  C   UNL     1     111.704 -50.367  33.601  1.00  0.00     0.047 A 
ATOM     15  C   UNL     1     111.456 -51.294  32.596  1.00  0.00     0.115 A 
ATOM     16  C   UNL     1     110.889 -49.485  31.087  1.00  0.00     0.013 A 
ATOM     17  C   UNL     1     110.997 -50.860  31.355  1.00  0.00     0.047 A 
BRANCH  15  18
ATOM     18  O   UNL     1     111.739 -52.639  32.833  1.00  0.00    -0.508 OA
ATOM     19  H   UNL     1     112.651 -52.953  33.115  1.00  0.00     0.293 HD
ENDBRANCH  15  18
ENDBRANCH   1  12
BRANCH  11  20
ATOM     20  C   UNL     1     113.520 -43.224  33.493  1.00  0.00     0.188 C 
ATOM     21  C   UNL     1     114.927 -42.651  33.241  1.00  0.00     0.179 C 
ATOM     22  O   UNL     1     112.955 -42.678  34.672  1.00  0.00    -0.362 OA
ATOM     23  C   UNL     1     115.836 -42.962  34.463  1.00  0.00     0.177 C 
ATOM     24  C   UNL     1     113.637 -43.083  35.851  1.00  0.00     0.176 C 
ATOM     25  C   UNL     1     115.144 -42.678  35.835  1.00  0.00     0.177 C 
BRANCH  21  26
ATOM     26  O   UNL     1     114.951 -41.277  32.921  1.00  0.00    -0.387 OA
ATOM     27  H   UNL     1     114.187 -41.096  32.316  1.00  0.00     0.211 HD
ENDBRANCH  21  26
BRANCH  23  28
ATOM     28  O   UNL     1     117.053 -42.270  34.340  1.00  0.00    -0.387 OA
ATOM     29  H   UNL     1     117.006 -41.754  33.491  1.00  0.00     0.211 HD
ENDBRANCH  23  28
BRANCH  24  30
ATOM     30  C   UNL     1     113.358 -44.570  36.230  1.00  0.00     0.191 C 
BRANCH  30  31
ATOM     31  O   UNL     1     113.883 -44.907  37.493  1.00  0.00    -0.394 OA
ATOM     32  H   UNL     1     114.284 -44.081  37.879  1.00  0.00     0.210 HD
ENDBRANCH  30  31
ENDBRANCH  24  30
BRANCH  25  33
ATOM     33  O   UNL     1     115.327 -41.333  36.233  1.00  0.00    -0.388 OA
ATOM     34  H   UNL     1     114.532 -40.800  35.941  1.00  0.00     0.211 HD
ENDBRANCH  25  33
ENDBRANCH  11  20
BRANCH  10  35
ATOM     35  O   UNL     1     111.934 -40.727  32.610  1.00  0.00    -0.507 OA
ATOM     36  H   UNL     1     112.140 -40.358  33.524  1.00  0.00     0.293 HD
ENDBRANCH  10  35
TORSDOF 9
ENDMDL
