MODEL 1
REMARK VINA RESULT:    -3.980      0.000      0.000
REMARK INTER + INTRA:          -4.721
REMARK INTER:                  -4.678
REMARK INTRA:                  -0.043
REMARK UNBOUND:                -0.043
REMARK SMILES O=C([O-])CCC(=O)[O-]
REMARK SMILES IDX 4 1 2 2 1 3 3 4 5 5 6 6 7 7 8 8
REMARK H PARENT
REMARK Flexibility Score: inf
ROOT
ATOM      1  C   UNL     1       0.742   8.349  19.539  1.00  0.00     0.059 C 
ENDROOT
BRANCH   1   2
ATOM      2  C   UNL     1       1.181   8.267  18.111  1.00  0.00     0.042 C 
ATOM      3  O   UNL     1       2.095   9.021  17.686  1.00  0.00    -0.550 OA
ATOM      4  O   UNL     1       0.613   7.326  17.263  1.00  0.00    -0.550 OA
ENDBRANCH   1   2
BRANCH   1   5
ATOM      5  C   UNL     1       0.165   7.009  19.999  1.00  0.00     0.059 C 
BRANCH   5   6
ATOM      6  C   UNL     1       0.442   6.791  21.453  1.00  0.00     0.042 C 
ATOM      7  O   UNL     1       1.626   6.794  21.880  1.00  0.00    -0.550 OA
ATOM      8  O   UNL     1      -0.611   6.634  22.345  1.00  0.00    -0.550 OA
ENDBRANCH   5   6
ENDBRANCH   1   5
TORSDOF 3
ENDMDL
MODEL 2
REMARK VINA RESULT:    -3.951      0.168      4.199
REMARK INTER + INTRA:          -4.687
REMARK INTER:                  -4.649
REMARK INTRA:                  -0.037
REMARK UNBOUND:                -0.043
REMARK SMILES O=C([O-])CCC(=O)[O-]
REMARK SMILES IDX 4 1 2 2 1 3 3 4 5 5 6 6 7 7 8 8
REMARK H PARENT
REMARK Flexibility Score: inf
ROOT
ATOM      1  C   UNL     1       0.194   6.996  19.886  1.00  0.00     0.059 C 
ENDROOT
BRANCH   1   2
ATOM      2  C   UNL     1       0.393   6.858  21.362  1.00  0.00     0.042 C 
ATOM      3  O   UNL     1      -0.596   6.687  22.121  1.00  0.00    -0.550 OA
ATOM      4  O   UNL     1       1.676   6.872  21.894  1.00  0.00    -0.550 OA
ENDBRANCH   1   2
BRANCH   1   5
ATOM      5  C   UNL     1       0.790   8.314  19.386  1.00  0.00     0.059 C 
BRANCH   5   6
ATOM      6  C   UNL     1       1.184   8.199  17.949  1.00  0.00     0.042 C 
ATOM      7  O   UNL     1       2.065   8.961  17.470  1.00  0.00    -0.550 OA
ATOM      8  O   UNL     1       0.616   7.216  17.148  1.00  0.00    -0.550 OA
ENDBRANCH   5   6
ENDBRANCH   1   5
TORSDOF 3
ENDMDL
MODEL 3
REMARK VINA RESULT:    -3.950      0.075      4.076
REMARK INTER + INTRA:          -4.686
REMARK INTER:                  -4.643
REMARK INTRA:                  -0.043
REMARK UNBOUND:                -0.043
REMARK SMILES O=C([O-])CCC(=O)[O-]
REMARK SMILES IDX 4 1 2 2 1 3 3 4 5 5 6 6 7 7 8 8
REMARK H PARENT
REMARK Flexibility Score: inf
ROOT
ATOM      1  C   UNL     1       0.177   6.964  19.960  1.00  0.00     0.059 C 
ENDROOT
BRANCH   1   2
ATOM      2  C   UNL     1       0.456   6.807  21.421  1.00  0.00     0.042 C 
ATOM      3  O   UNL     1       1.636   6.882  21.852  1.00  0.00    -0.550 OA
ATOM      4  O   UNL     1      -0.593   6.625  22.313  1.00  0.00    -0.550 OA
ENDBRANCH   1   2
BRANCH   1   5
ATOM      5  C   UNL     1       0.641   8.338  19.472  1.00  0.00     0.059 C 
BRANCH   5   6
ATOM      6  C   UNL     1       1.167   8.247  18.075  1.00  0.00     0.042 C 
ATOM      7  O   UNL     1       2.140   8.963  17.716  1.00  0.00    -0.550 OA
ATOM      8  O   UNL     1       0.617   7.337  17.182  1.00  0.00    -0.550 OA
ENDBRANCH   5   6
ENDBRANCH   1   5
TORSDOF 3
ENDMDL
MODEL 4
REMARK VINA RESULT:    -3.946      0.196      4.310
REMARK INTER + INTRA:          -4.682
REMARK INTER:                  -4.639
REMARK INTRA:                  -0.042
REMARK UNBOUND:                -0.043
REMARK SMILES O=C([O-])CCC(=O)[O-]
REMARK SMILES IDX 4 1 2 2 1 3 3 4 5 5 6 6 7 7 8 8
REMARK H PARENT
REMARK Flexibility Score: inf
ROOT
ATOM      1  C   UNL     1       0.173   7.112  19.904  1.00  0.00     0.059 C 
ENDROOT
BRANCH   1   2
ATOM      2  C   UNL     1       0.419   6.875  21.360  1.00  0.00     0.042 C 
ATOM      3  O   UNL     1      -0.549   6.682  22.143  1.00  0.00    -0.550 OA
ATOM      4  O   UNL     1       1.719   6.820  21.846  1.00  0.00    -0.550 OA
ENDBRANCH   1   2
BRANCH   1   5
ATOM      5  C   UNL     1       0.928   8.355  19.429  1.00  0.00     0.059 C 
BRANCH   5   6
ATOM      6  C   UNL     1       1.213   8.266  17.964  1.00  0.00     0.042 C 
ATOM      7  O   UNL     1       0.662   7.376  17.264  1.00  0.00    -0.550 OA
ATOM      8  O   UNL     1       2.050   9.196  17.361  1.00  0.00    -0.550 OA
ENDBRANCH   5   6
ENDBRANCH   1   5
TORSDOF 3
ENDMDL
MODEL 5
REMARK VINA RESULT:    -3.935      0.126      1.623
REMARK INTER + INTRA:          -4.668
REMARK INTER:                  -4.631
REMARK INTRA:                  -0.038
REMARK UNBOUND:                -0.043
REMARK SMILES O=C([O-])CCC(=O)[O-]
REMARK SMILES IDX 4 1 2 2 1 3 3 4 5 5 6 6 7 7 8 8
REMARK H PARENT
REMARK Flexibility Score: inf
ROOT
ATOM      1  C   UNL     1       0.596   8.288  19.582  1.00  0.00     0.059 C 
ENDROOT
BRANCH   1   2
ATOM      2  C   UNL     1       1.105   8.209  18.177  1.00  0.00     0.042 C 
ATOM      3  O   UNL     1       0.586   7.405  17.360  1.00  0.00    -0.550 OA
ATOM      4  O   UNL     1       2.123   9.057  17.758  1.00  0.00    -0.550 OA
ENDBRANCH   1   2
BRANCH   1   5
ATOM      5  C   UNL     1       0.153   6.907  20.069  1.00  0.00     0.059 C 
BRANCH   5   6
ATOM      6  C   UNL     1       0.373   6.776  21.542  1.00  0.00     0.042 C 
ATOM      7  O   UNL     1      -0.609   6.649  22.320  1.00  0.00    -0.550 OA
ATOM      8  O   UNL     1       1.664   6.744  22.052  1.00  0.00    -0.550 OA
ENDBRANCH   5   6
ENDBRANCH   1   5
TORSDOF 3
ENDMDL
MODEL 6
REMARK VINA RESULT:    -3.768      1.383      4.116
REMARK INTER + INTRA:          -4.472
REMARK INTER:                  -4.434
REMARK INTRA:                  -0.038
REMARK UNBOUND:                -0.043
REMARK SMILES O=C([O-])CCC(=O)[O-]
REMARK SMILES IDX 4 1 2 2 1 3 3 4 5 5 6 6 7 7 8 8
REMARK H PARENT
REMARK Flexibility Score: inf
ROOT
ATOM      1  C   UNL     1       0.250   7.245  19.655  1.00  0.00     0.059 C 
ENDROOT
BRANCH   1   2
ATOM      2  C   UNL     1       0.521   6.932  21.093  1.00  0.00     0.042 C 
ATOM      3  O   UNL     1       1.702   6.928  21.528  1.00  0.00    -0.550 OA
ATOM      4  O   UNL     1      -0.535   6.691  21.963  1.00  0.00    -0.550 OA
ENDBRANCH   1   2
BRANCH   1   5
ATOM      5  C   UNL     1      -0.142   5.975  18.896  1.00  0.00     0.059 C 
BRANCH   5   6
ATOM      6  C   UNL     1       0.105   6.144  17.431  1.00  0.00     0.042 C 
ATOM      7  O   UNL     1       0.710   7.162  17.004  1.00  0.00    -0.550 OA
ATOM      8  O   UNL     1      -0.289   5.153  16.540  1.00  0.00    -0.550 OA
ENDBRANCH   5   6
ENDBRANCH   1   5
TORSDOF 3
ENDMDL
MODEL 7
REMARK VINA RESULT:    -3.510      1.558      2.198
REMARK INTER + INTRA:          -4.168
REMARK INTER:                  -4.133
REMARK INTRA:                  -0.035
REMARK UNBOUND:                -0.043
REMARK SMILES O=C([O-])CCC(=O)[O-]
REMARK SMILES IDX 4 1 2 2 1 3 3 4 5 5 6 6 7 7 8 8
REMARK H PARENT
REMARK Flexibility Score: inf
ROOT
ATOM      1  C   UNL     1       1.003   7.977  17.472  1.00  0.00     0.059 C 
ENDROOT
BRANCH   1   2
ATOM      2  C   UNL     1       1.338   9.240  16.743  1.00  0.00     0.042 C 
ATOM      3  O   UNL     1       2.539   9.536  16.509  1.00  0.00    -0.550 OA
ATOM      4  O   UNL     1       0.322  10.067  16.281  1.00  0.00    -0.550 OA
ENDBRANCH   1   2
BRANCH   1   5
ATOM      5  C   UNL     1       0.838   8.251  18.968  1.00  0.00     0.059 C 
BRANCH   5   6
ATOM      6  C   UNL     1       0.227   7.070  19.652  1.00  0.00     0.042 C 
ATOM      7  O   UNL     1      -0.147   6.072  18.981  1.00  0.00    -0.550 OA
ATOM      8  O   UNL     1       0.114   7.050  21.036  1.00  0.00    -0.550 OA
ENDBRANCH   5   6
ENDBRANCH   1   5
TORSDOF 3
ENDMDL
MODEL 8
REMARK VINA RESULT:    -3.481      6.308      7.312
REMARK INTER + INTRA:          -4.135
REMARK INTER:                  -4.034
REMARK INTRA:                  -0.101
REMARK UNBOUND:                -0.043
REMARK SMILES O=C([O-])CCC(=O)[O-]
REMARK SMILES IDX 4 1 2 2 1 3 3 4 5 5 6 6 7 7 8 8
REMARK H PARENT
REMARK Flexibility Score: inf
ROOT
ATOM      1  C   UNL     1      -3.717   4.264  16.231  1.00  0.00     0.059 C 
ENDROOT
BRANCH   1   2
ATOM      2  C   UNL     1      -4.999   3.496  16.301  1.00  0.00     0.042 C 
ATOM      3  O   UNL     1      -6.073   4.019  15.905  1.00  0.00    -0.550 OA
ATOM      4  O   UNL     1      -4.998   2.185  16.760  1.00  0.00    -0.550 OA
ENDBRANCH   1   2
BRANCH   1   5
ATOM      5  C   UNL     1      -2.596   3.385  15.675  1.00  0.00     0.059 C 
BRANCH   5   6
ATOM      6  C   UNL     1      -1.534   3.175  16.707  1.00  0.00     0.042 C 
ATOM      7  O   UNL     1      -0.772   4.122  17.034  1.00  0.00    -0.550 OA
ATOM      8  O   UNL     1      -1.417   1.946  17.344  1.00  0.00    -0.550 OA
ENDBRANCH   5   6
ENDBRANCH   1   5
TORSDOF 3
ENDMDL
MODEL 9
REMARK VINA RESULT:    -3.461      6.294      7.314
REMARK INTER + INTRA:          -4.111
REMARK INTER:                  -4.011
REMARK INTRA:                  -0.100
REMARK UNBOUND:                -0.043
REMARK SMILES O=C([O-])CCC(=O)[O-]
REMARK SMILES IDX 4 1 2 2 1 3 3 4 5 5 6 6 7 7 8 8
REMARK H PARENT
REMARK Flexibility Score: inf
ROOT
ATOM      1  C   UNL     1      -2.637   3.548  15.659  1.00  0.00     0.059 C 
ENDROOT
BRANCH   1   2
ATOM      2  C   UNL     1      -1.547   3.276  16.647  1.00  0.00     0.042 C 
ATOM      3  O   UNL     1      -0.720   4.178  16.943  1.00  0.00    -0.550 OA
ATOM      4  O   UNL     1      -1.473   2.040  17.277  1.00  0.00    -0.550 OA
ENDBRANCH   1   2
BRANCH   1   5
ATOM      5  C   UNL     1      -3.778   4.322  16.322  1.00  0.00     0.059 C 
BRANCH   5   6
ATOM      6  C   UNL     1      -5.048   3.536  16.261  1.00  0.00     0.042 C 
ATOM      7  O   UNL     1      -6.096   4.059  15.798  1.00  0.00    -0.550 OA
ATOM      8  O   UNL     1      -5.065   2.208  16.669  1.00  0.00    -0.550 OA
ENDBRANCH   5   6
ENDBRANCH   1   5
TORSDOF 3
ENDMDL
