MODEL 1
REMARK VINA RESULT:     1.777      0.000      0.000
REMARK INTER + INTRA:           3.914
REMARK INTER:                   2.712
REMARK INTRA:                   1.203
REMARK UNBOUND:                 1.203
REMARK SMILES CC1=CCC[C@@H](C)C(=O)C[C@@H](C(C)C)C(=O)C1
REMARK SMILES IDX 8 1 9 2 6 3 7 4 5 5 4 6 3 7 2 8 1 9 10 11 11 12 15 13 16 14
REMARK SMILES IDX 17 15 12 17 13 18 14 19
REMARK H PARENT
REMARK Flexibility Score: 70.00
ROOT
ATOM      1  C   UNL     1      -6.131  13.338   6.943  1.00  0.00     0.136 C 
ATOM      2  O   UNL     1      -6.628  12.560   6.142  1.00  0.00    -0.299 OA
ENDROOT
BRANCH   1   3
ATOM      3  C   UNL     1      -6.440  13.164   8.420  1.00  0.00     0.053 C 
ATOM      4  C   UNL     1      -6.449  14.525   9.125  1.00  0.00     0.016 C 
BRANCH   3   5
ATOM      5  C   UNL     1      -5.463  12.192   9.114  1.00  0.00     0.015 C 
BRANCH   5   6
ATOM      6  C   UNL     1      -4.024  12.736   9.125  1.00  0.00     0.028 C 
BRANCH   6   7
ATOM      7  C   UNL     1      -2.991  11.650   8.963  1.00  0.00    -0.028 C 
ATOM      8  C   UNL     1      -2.499  11.188   7.785  1.00  0.00    -0.070 CG0
ATOM      9  C   UNL     1      -1.547  10.018   7.851  1.00  0.00     0.039 C 
ATOM     10  G   UNL     1      -2.796  11.807   6.421  1.00  0.00     0.000 G0
ENDBRANCH   6   7
ENDBRANCH   5   6
ENDBRANCH   3   5
ENDBRANCH   1   3
BRANCH   1  11
ATOM     11  C   UNL     1      -5.289  14.483   6.424  1.00  0.00     0.087 C 
BRANCH  11  12
ATOM     12  C   UNL     1      -4.079  14.007   5.575  1.00  0.00     0.066 C 
BRANCH  12  13
ATOM     13  C   UNL     1      -2.978  13.324   6.386  1.00  0.00     0.140 C 
ATOM     14  O   UNL     1      -2.314  14.005   7.154  1.00  0.00    -0.299 OA
BRANCH  13  15
ATOM     15  C   UNL     1      -2.764  11.827   6.382  1.00  0.00     0.106 CG0
ATOM     16  G   UNL     1      -2.484  11.226   7.758  1.00  0.00     0.000 G0
ENDBRANCH  13  15
ENDBRANCH  12  13
BRANCH  12  17
ATOM     17  C   UNL     1      -3.545  15.132   4.634  1.00  0.00    -0.006 C 
ATOM     18  C   UNL     1      -3.152  14.656   3.225  1.00  0.00     0.008 C 
ATOM     19  C   UNL     1      -4.526  16.311   4.540  1.00  0.00     0.008 C 
ENDBRANCH  12  17
ENDBRANCH  11  12
ENDBRANCH   1  11
TORSDOF 1
ENDMDL
MODEL 2
REMARK VINA RESULT:     2.059      1.537      3.588
REMARK INTER + INTRA:           4.345
REMARK INTER:                   3.317
REMARK INTRA:                   1.028
REMARK UNBOUND:                 1.203
REMARK SMILES CC1=CCC[C@@H](C)C(=O)C[C@@H](C(C)C)C(=O)C1
REMARK SMILES IDX 8 1 9 2 6 3 7 4 5 5 4 6 3 7 2 8 1 9 10 11 11 12 15 13 16 14
REMARK SMILES IDX 17 15 12 17 13 18 14 19
REMARK H PARENT
REMARK Flexibility Score: 70.00
ROOT
ATOM      1  C   UNL     1      -2.700  13.121   7.376  1.00  0.00     0.136 C 
ATOM      2  O   UNL     1      -2.629  14.003   8.220  1.00  0.00    -0.299 OA
ENDROOT
BRANCH   1   3
ATOM      3  C   UNL     1      -2.327  11.702   7.769  1.00  0.00     0.053 C 
ATOM      4  C   UNL     1      -2.607  10.740   6.609  1.00  0.00     0.016 C 
BRANCH   3   5
ATOM      5  C   UNL     1      -3.045  11.238   9.052  1.00  0.00     0.015 C 
BRANCH   5   6
ATOM      6  C   UNL     1      -4.557  11.057   8.830  1.00  0.00     0.028 C 
BRANCH   6   7
ATOM      7  C   UNL     1      -5.342  12.310   9.125  1.00  0.00    -0.028 C 
ATOM      8  C   UNL     1      -5.975  13.086   8.209  1.00  0.00    -0.070 CG0
ATOM      9  C   UNL     1      -6.615  14.358   8.713  1.00  0.00     0.039 C 
ATOM     10  G   UNL     1      -6.133  12.730   6.732  1.00  0.00     0.000 G0
ENDBRANCH   6   7
ENDBRANCH   5   6
ENDBRANCH   3   5
ENDBRANCH   1   3
BRANCH   1  11
ATOM     11  C   UNL     1      -3.088  13.492   5.961  1.00  0.00     0.087 C 
BRANCH  11  12
ATOM     12  C   UNL     1      -4.277  14.488   5.901  1.00  0.00     0.066 C 
BRANCH  12  13
ATOM     13  C   UNL     1      -5.646  13.818   5.786  1.00  0.00     0.140 C 
ATOM     14  O   UNL     1      -6.346  14.089   4.821  1.00  0.00    -0.299 OA
BRANCH  13  15
ATOM     15  C   UNL     1      -6.114  12.736   6.733  1.00  0.00     0.106 CG0
ATOM     16  G   UNL     1      -5.967  13.086   8.213  1.00  0.00     0.000 G0
ENDBRANCH  13  15
ENDBRANCH  12  13
BRANCH  12  17
ATOM     17  C   UNL     1      -4.048  15.612   4.842  1.00  0.00    -0.006 C 
ATOM     18  C   UNL     1      -4.053  15.127   3.382  1.00  0.00     0.008 C 
ATOM     19  C   UNL     1      -5.039  16.773   5.018  1.00  0.00     0.008 C 
ENDBRANCH  12  17
ENDBRANCH  11  12
ENDBRANCH   1  11
TORSDOF 1
ENDMDL
MODEL 3
REMARK VINA RESULT:     2.564      1.548      4.130
REMARK INTER + INTRA:           5.115
REMARK INTER:                   3.695
REMARK INTRA:                   1.420
REMARK UNBOUND:                 1.203
REMARK SMILES CC1=CCC[C@@H](C)C(=O)C[C@@H](C(C)C)C(=O)C1
REMARK SMILES IDX 8 1 9 2 6 3 7 4 5 5 4 6 3 7 2 8 1 9 10 11 11 12 15 13 16 14
REMARK SMILES IDX 17 15 12 17 13 18 14 19
REMARK H PARENT
REMARK Flexibility Score: 70.00
ROOT
ATOM      1  C   UNL     1      -4.669  12.184   9.076  1.00  0.00     0.136 C 
ATOM      2  O   UNL     1      -4.720  10.964   9.125  1.00  0.00    -0.299 OA
ENDROOT
BRANCH   1   3
ATOM      3  C   UNL     1      -5.963  12.963   8.912  1.00  0.00     0.053 C 
ATOM      4  C   UNL     1      -6.889  12.251   7.919  1.00  0.00     0.016 C 
BRANCH   3   5
ATOM      5  C   UNL     1      -5.720  14.425   8.484  1.00  0.00     0.015 C 
BRANCH   5   6
ATOM      6  C   UNL     1      -6.320  14.725   7.100  1.00  0.00     0.028 C 
BRANCH   6   7
ATOM      7  C   UNL     1      -5.278  15.128   6.089  1.00  0.00    -0.028 C 
ATOM      8  C   UNL     1      -4.209  14.383   5.708  1.00  0.00    -0.070 CG0
ATOM      9  C   UNL     1      -3.229  15.027   4.756  1.00  0.00     0.039 C 
ATOM     10  G   UNL     1      -3.969  12.934   6.126  1.00  0.00     0.000 G0
ENDBRANCH   6   7
ENDBRANCH   5   6
ENDBRANCH   3   5
ENDBRANCH   1   3
BRANCH   1  11
ATOM     11  C   UNL     1      -3.317  12.862   9.108  1.00  0.00     0.087 C 
BRANCH  11  12
ATOM     12  C   UNL     1      -2.310  12.252   8.096  1.00  0.00     0.066 C 
BRANCH  12  13
ATOM     13  C   UNL     1      -2.557  12.666   6.645  1.00  0.00     0.140 C 
ATOM     14  O   UNL     1      -1.609  12.671   5.873  1.00  0.00    -0.299 OA
BRANCH  13  15
ATOM     15  C   UNL     1      -3.937  12.936   6.091  1.00  0.00     0.106 CG0
ATOM     16  G   UNL     1      -4.201  14.399   5.738  1.00  0.00     0.000 G0
ENDBRANCH  13  15
ENDBRANCH  12  13
BRANCH  12  17
ATOM     17  C   UNL     1      -2.155  10.710   8.281  1.00  0.00    -0.006 C 
ATOM     18  C   UNL     1      -2.422   9.882   7.012  1.00  0.00     0.008 C 
ATOM     19  C   UNL     1      -0.788  10.341   8.877  1.00  0.00     0.008 C 
ENDBRANCH  12  17
ENDBRANCH  11  12
ENDBRANCH   1  11
TORSDOF 1
ENDMDL
MODEL 4
REMARK VINA RESULT:     3.868      1.865      3.647
REMARK INTER + INTRA:           7.106
REMARK INTER:                   5.810
REMARK INTRA:                   1.295
REMARK UNBOUND:                 1.203
REMARK SMILES CC1=CCC[C@@H](C)C(=O)C[C@@H](C(C)C)C(=O)C1
REMARK SMILES IDX 8 1 9 2 6 3 7 4 5 5 4 6 3 7 2 8 1 9 10 11 11 12 15 13 16 14
REMARK SMILES IDX 17 15 12 17 13 18 14 19
REMARK H PARENT
REMARK Flexibility Score: 70.00
ROOT
ATOM      1  C   UNL     1      -2.643  12.719   8.018  1.00  0.00     0.136 C 
ATOM      2  O   UNL     1      -2.542  13.511   8.944  1.00  0.00    -0.299 OA
ENDROOT
BRANCH   1   3
ATOM      3  C   UNL     1      -2.424  11.241   8.293  1.00  0.00     0.053 C 
ATOM      4  C   UNL     1      -2.231  10.479   6.977  1.00  0.00     0.016 C 
BRANCH   3   5
ATOM      5  C   UNL     1      -3.567  10.622   9.123  1.00  0.00     0.015 C 
BRANCH   5   6
ATOM      6  C   UNL     1      -4.916  11.307   8.843  1.00  0.00     0.028 C 
BRANCH   6   7
ATOM      7  C   UNL     1      -5.452  10.995   7.469  1.00  0.00    -0.028 C 
ATOM      8  C   UNL     1      -6.181  11.835   6.690  1.00  0.00    -0.070 CG0
ATOM      9  C   UNL     1      -6.707  11.278   5.388  1.00  0.00     0.039 C 
ATOM     10  G   UNL     1      -6.448  13.304   7.012  1.00  0.00     0.000 G0
ENDBRANCH   6   7
ENDBRANCH   5   6
ENDBRANCH   3   5
ENDBRANCH   1   3
BRANCH   1  11
ATOM     11  C   UNL     1      -2.909  13.250   6.627  1.00  0.00     0.087 C 
BRANCH  11  12
ATOM     12  C   UNL     1      -3.997  14.358   6.601  1.00  0.00     0.066 C 
BRANCH  12  13
ATOM     13  C   UNL     1      -5.208  14.063   7.485  1.00  0.00     0.140 C 
ATOM     14  O   UNL     1      -5.244  14.555   8.604  1.00  0.00    -0.299 OA
BRANCH  13  15
ATOM     15  C   UNL     1      -6.421  13.307   6.992  1.00  0.00     0.106 CG0
ATOM     16  G   UNL     1      -6.162  11.836   6.674  1.00  0.00     0.000 G0
ENDBRANCH  13  15
ENDBRANCH  12  13
BRANCH  12  17
ATOM     17  C   UNL     1      -4.381  14.768   5.144  1.00  0.00    -0.006 C 
ATOM     18  C   UNL     1      -5.124  16.111   5.031  1.00  0.00     0.008 C 
ATOM     19  C   UNL     1      -3.163  14.757   4.208  1.00  0.00     0.008 C 
ENDBRANCH  12  17
ENDBRANCH  11  12
ENDBRANCH   1  11
TORSDOF 1
ENDMDL
MODEL 5
REMARK VINA RESULT:     3.934      2.080      4.434
REMARK INTER + INTRA:           7.207
REMARK INTER:                   5.415
REMARK INTRA:                   1.792
REMARK UNBOUND:                 1.203
REMARK SMILES CC1=CCC[C@@H](C)C(=O)C[C@@H](C(C)C)C(=O)C1
REMARK SMILES IDX 8 1 9 2 6 3 7 4 5 5 4 6 3 7 2 8 1 9 10 11 11 12 15 13 16 14
REMARK SMILES IDX 17 15 12 17 13 18 14 19
REMARK H PARENT
REMARK Flexibility Score: 70.00
ROOT
ATOM      1  C   UNL     1      -4.063  11.416   7.993  1.00  0.00     0.136 C 
ATOM      2  O   UNL     1      -3.841  11.822   9.125  1.00  0.00    -0.299 OA
ENDROOT
BRANCH   1   3
ATOM      3  C   UNL     1      -2.904  10.885   7.167  1.00  0.00     0.053 C 
ATOM      4  C   UNL     1      -1.901  10.155   8.067  1.00  0.00     0.016 C 
BRANCH   3   5
ATOM      5  C   UNL     1      -2.205  11.994   6.354  1.00  0.00     0.015 C 
BRANCH   5   6
ATOM      6  C   UNL     1      -2.677  13.397   6.773  1.00  0.00     0.028 C 
BRANCH   6   7
ATOM      7  C   UNL     1      -2.963  14.291   5.593  1.00  0.00    -0.028 C 
ATOM      8  C   UNL     1      -4.049  15.092   5.447  1.00  0.00    -0.070 CG0
ATOM      9  C   UNL     1      -4.189  15.824   4.134  1.00  0.00     0.039 C 
ATOM     10  G   UNL     1      -5.093  15.343   6.533  1.00  0.00     0.000 G0
ENDBRANCH   6   7
ENDBRANCH   5   6
ENDBRANCH   3   5
ENDBRANCH   1   3
BRANCH   1  11
ATOM     11  C   UNL     1      -5.467  11.524   7.439  1.00  0.00     0.087 C 
BRANCH  11  12
ATOM     12  C   UNL     1      -5.645  12.729   6.476  1.00  0.00     0.066 C 
BRANCH  12  13
ATOM     13  C   UNL     1      -5.673  14.087   7.175  1.00  0.00     0.140 C 
ATOM     14  O   UNL     1      -6.058  14.137   8.335  1.00  0.00    -0.299 OA
BRANCH  13  15
ATOM     15  C   UNL     1      -5.120  15.347   6.547  1.00  0.00     0.106 CG0
ATOM     16  G   UNL     1      -4.062  15.104   5.472  1.00  0.00     0.000 G0
ENDBRANCH  13  15
ENDBRANCH  12  13
BRANCH  12  17
ATOM     17  C   UNL     1      -6.836  12.518   5.488  1.00  0.00    -0.006 C 
ATOM     18  C   UNL     1      -6.872  13.503   4.308  1.00  0.00     0.008 C 
ATOM     19  C   UNL     1      -6.901  11.072   4.973  1.00  0.00     0.008 C 
ENDBRANCH  12  17
ENDBRANCH  11  12
ENDBRANCH   1  11
TORSDOF 1
ENDMDL
