MODEL 1
REMARK VINA RESULT:    -3.581      0.000      0.000
REMARK INTER + INTRA:          -3.885
REMARK INTER:                  -3.790
REMARK INTRA:                  -0.095
REMARK UNBOUND:                -0.095
REMARK SMILES C=C(C)[C@H]1CC=C(C)C(=O)C1
REMARK SMILES IDX 8 1 7 2 6 3 5 4 4 5 11 6 9 7 10 8 2 9 1 10 3 11
REMARK H PARENT
REMARK Flexibility Score: inf
ROOT
ATOM      1  C   UNL     1       9.203 -31.588  18.502  1.00  0.00     0.048 C 
ATOM      2  C   UNL     1       8.547 -32.525  17.526  1.00  0.00    -0.012 C 
ATOM      3  C   UNL     1       8.910 -32.504  16.232  1.00  0.00    -0.019 C 
ATOM      4  C   UNL     1       8.273 -33.408  15.210  1.00  0.00     0.036 C 
ATOM      5  C   UNL     1       7.867 -34.755  15.837  1.00  0.00     0.025 C 
ATOM      6  C   UNL     1       6.957 -34.523  17.057  1.00  0.00     0.089 C 
ATOM      7  C   UNL     1       7.593 -33.552  18.014  1.00  0.00     0.158 C 
ATOM      8  O   UNL     1       7.279 -33.597  19.234  1.00  0.00    -0.295 OA
ENDROOT
BRANCH   5   9
ATOM      9  C   UNL     1       7.213 -35.677  14.816  1.00  0.00    -0.077 C 
ATOM     10  C   UNL     1       5.875 -35.751  14.697  1.00  0.00     0.008 C 
ATOM     11  C   UNL     1       8.065 -36.529  13.911  1.00  0.00     0.039 C 
ENDBRANCH   5   9
TORSDOF 1
ENDMDL
MODEL 2
REMARK VINA RESULT:    -3.464      2.863      4.431
REMARK INTER + INTRA:          -3.761
REMARK INTER:                  -3.670
REMARK INTRA:                  -0.091
REMARK UNBOUND:                -0.095
REMARK SMILES C=C(C)[C@H]1CC=C(C)C(=O)C1
REMARK SMILES IDX 8 1 7 2 6 3 5 4 4 5 11 6 9 7 10 8 2 9 1 10 3 11
REMARK H PARENT
REMARK Flexibility Score: inf
ROOT
ATOM      1  C   UNL     1      11.653 -34.867  12.875  1.00  0.00     0.048 C 
ATOM      2  C   UNL     1      10.416 -34.500  13.647  1.00  0.00    -0.012 C 
ATOM      3  C   UNL     1       9.660 -35.467  14.198  1.00  0.00    -0.019 C 
ATOM      4  C   UNL     1       8.404 -35.156  14.966  1.00  0.00     0.036 C 
ATOM      5  C   UNL     1       8.521 -33.808  15.702  1.00  0.00     0.025 C 
ATOM      6  C   UNL     1       8.890 -32.689  14.710  1.00  0.00     0.089 C 
ATOM      7  C   UNL     1      10.102 -33.073  13.906  1.00  0.00     0.158 C 
ATOM      8  O   UNL     1      10.830 -32.166  13.421  1.00  0.00    -0.295 OA
ENDROOT
BRANCH   5   9
ATOM      9  C   UNL     1       7.252 -33.477  16.476  1.00  0.00    -0.077 C 
ATOM     10  C   UNL     1       7.301 -32.823  17.651  1.00  0.00     0.008 C 
ATOM     11  C   UNL     1       5.907 -33.880  15.930  1.00  0.00     0.039 C 
ENDBRANCH   5   9
TORSDOF 1
ENDMDL
MODEL 3
REMARK VINA RESULT:    -3.452      1.486      1.969
REMARK INTER + INTRA:          -3.749
REMARK INTER:                  -3.655
REMARK INTRA:                  -0.094
REMARK UNBOUND:                -0.095
REMARK SMILES C=C(C)[C@H]1CC=C(C)C(=O)C1
REMARK SMILES IDX 8 1 7 2 6 3 5 4 4 5 11 6 9 7 10 8 2 9 1 10 3 11
REMARK H PARENT
REMARK Flexibility Score: inf
ROOT
ATOM      1  C   UNL     1       7.872 -32.435  18.305  1.00  0.00     0.048 C 
ATOM      2  C   UNL     1       8.107 -33.199  17.031  1.00  0.00    -0.012 C 
ATOM      3  C   UNL     1       8.726 -32.602  15.997  1.00  0.00    -0.019 C 
ATOM      4  C   UNL     1       8.970 -33.315  14.694  1.00  0.00     0.036 C 
ATOM      5  C   UNL     1       9.205 -34.820  14.920  1.00  0.00     0.025 C 
ATOM      6  C   UNL     1       8.032 -35.431  15.708  1.00  0.00     0.089 C 
ATOM      7  C   UNL     1       7.768 -34.642  16.961  1.00  0.00     0.158 C 
ATOM      8  O   UNL     1       7.220 -35.213  17.943  1.00  0.00    -0.295 OA
ENDROOT
BRANCH   5   9
ATOM      9  C   UNL     1       9.445 -35.556  13.608  1.00  0.00    -0.077 C 
ATOM     10  C   UNL     1       8.422 -36.033  12.878  1.00  0.00     0.008 C 
ATOM     11  C   UNL     1      10.850 -35.762  13.103  1.00  0.00     0.039 C 
ENDBRANCH   5   9
TORSDOF 1
ENDMDL
MODEL 4
REMARK VINA RESULT:    -3.377      1.762      2.338
REMARK INTER + INTRA:          -3.669
REMARK INTER:                  -3.574
REMARK INTRA:                  -0.095
REMARK UNBOUND:                -0.095
REMARK SMILES C=C(C)[C@H]1CC=C(C)C(=O)C1
REMARK SMILES IDX 8 1 7 2 6 3 5 4 4 5 11 6 9 7 10 8 2 9 1 10 3 11
REMARK H PARENT
REMARK Flexibility Score: inf
ROOT
ATOM      1  C   UNL     1       9.254 -31.386  18.856  1.00  0.00     0.048 C 
ATOM      2  C   UNL     1       8.604 -32.432  17.993  1.00  0.00    -0.012 C 
ATOM      3  C   UNL     1       7.653 -33.229  18.510  1.00  0.00    -0.019 C 
ATOM      4  C   UNL     1       6.983 -34.303  17.696  1.00  0.00     0.036 C 
ATOM      5  C   UNL     1       6.868 -33.889  16.217  1.00  0.00     0.025 C 
ATOM      6  C   UNL     1       8.253 -33.514  15.659  1.00  0.00     0.089 C 
ATOM      7  C   UNL     1       8.923 -32.499  16.545  1.00  0.00     0.158 C 
ATOM      8  O   UNL     1       9.789 -31.727  16.050  1.00  0.00    -0.295 OA
ENDROOT
BRANCH   5   9
ATOM      9  C   UNL     1       6.200 -34.971  15.379  1.00  0.00    -0.077 C 
ATOM     10  C   UNL     1       5.875 -34.758  14.092  1.00  0.00     0.008 C 
ATOM     11  C   UNL     1       5.890 -36.315  15.988  1.00  0.00     0.039 C 
ENDBRANCH   5   9
TORSDOF 1
ENDMDL
MODEL 5
REMARK VINA RESULT:    -3.292      2.695      3.743
REMARK INTER + INTRA:          -3.580
REMARK INTER:                  -3.484
REMARK INTRA:                  -0.095
REMARK UNBOUND:                -0.095
REMARK SMILES C=C(C)[C@H]1CC=C(C)C(=O)C1
REMARK SMILES IDX 8 1 7 2 6 3 5 4 4 5 11 6 9 7 10 8 2 9 1 10 3 11
REMARK H PARENT
REMARK Flexibility Score: inf
ROOT
ATOM      1  C   UNL     1      10.638 -32.284  13.144  1.00  0.00     0.048 C 
ATOM      2  C   UNL     1       9.857 -33.105  14.132  1.00  0.00    -0.012 C 
ATOM      3  C   UNL     1       9.193 -32.496  15.130  1.00  0.00    -0.019 C 
ATOM      4  C   UNL     1       8.410 -33.271  16.157  1.00  0.00     0.036 C 
ATOM      5  C   UNL     1       7.806 -34.549  15.546  1.00  0.00     0.025 C 
ATOM      6  C   UNL     1       8.909 -35.400  14.890  1.00  0.00     0.089 C 
ATOM      7  C   UNL     1       9.719 -34.569  13.933  1.00  0.00     0.158 C 
ATOM      8  O   UNL     1      10.312 -35.137  12.976  1.00  0.00    -0.295 OA
ENDROOT
BRANCH   5   9
ATOM      9  C   UNL     1       7.019 -35.348  16.577  1.00  0.00    -0.077 C 
ATOM     10  C   UNL     1       7.193 -35.151  17.895  1.00  0.00     0.008 C 
ATOM     11  C   UNL     1       6.020 -36.383  16.128  1.00  0.00     0.039 C 
ENDBRANCH   5   9
TORSDOF 1
ENDMDL
MODEL 6
REMARK VINA RESULT:    -3.138      1.830      4.272
REMARK INTER + INTRA:          -3.416
REMARK INTER:                  -3.320
REMARK INTRA:                  -0.096
REMARK UNBOUND:                -0.095
REMARK SMILES C=C(C)[C@H]1CC=C(C)C(=O)C1
REMARK SMILES IDX 8 1 7 2 6 3 5 4 4 5 11 6 9 7 10 8 2 9 1 10 3 11
REMARK H PARENT
REMARK Flexibility Score: inf
ROOT
ATOM      1  C   UNL     1       7.877 -34.783  12.875  1.00  0.00     0.048 C 
ATOM      2  C   UNL     1       8.116 -34.303  14.280  1.00  0.00    -0.012 C 
ATOM      3  C   UNL     1       8.597 -33.065  14.490  1.00  0.00    -0.019 C 
ATOM      4  C   UNL     1       8.871 -32.540  15.874  1.00  0.00     0.036 C 
ATOM      5  C   UNL     1       7.879 -33.126  16.897  1.00  0.00     0.025 C 
ATOM      6  C   UNL     1       7.902 -34.664  16.842  1.00  0.00     0.089 C 
ATOM      7  C   UNL     1       7.706 -35.146  15.430  1.00  0.00     0.158 C 
ATOM      8  O   UNL     1       7.221 -36.293  15.234  1.00  0.00    -0.295 OA
ENDROOT
BRANCH   5   9
ATOM      9  C   UNL     1       8.152 -32.610  18.304  1.00  0.00    -0.077 C 
ATOM     10  C   UNL     1       7.428 -33.033  19.355  1.00  0.00     0.008 C 
ATOM     11  C   UNL     1       9.251 -31.607  18.542  1.00  0.00     0.039 C 
ENDBRANCH   5   9
TORSDOF 1
ENDMDL
MODEL 7
REMARK VINA RESULT:    -3.111      2.091      4.636
REMARK INTER + INTRA:          -3.388
REMARK INTER:                  -3.292
REMARK INTRA:                  -0.096
REMARK UNBOUND:                -0.095
REMARK SMILES C=C(C)[C@H]1CC=C(C)C(=O)C1
REMARK SMILES IDX 8 1 7 2 6 3 5 4 4 5 11 6 9 7 10 8 2 9 1 10 3 11
REMARK H PARENT
REMARK Flexibility Score: inf
ROOT
ATOM      1  C   UNL     1       7.419 -35.966  13.097  1.00  0.00     0.048 C 
ATOM      2  C   UNL     1       7.444 -35.154  14.362  1.00  0.00    -0.012 C 
ATOM      3  C   UNL     1       7.453 -35.774  15.555  1.00  0.00    -0.019 C 
ATOM      4  C   UNL     1       7.460 -35.010  16.852  1.00  0.00     0.036 C 
ATOM      5  C   UNL     1       8.228 -33.682  16.709  1.00  0.00     0.025 C 
ATOM      6  C   UNL     1       7.650 -32.853  15.547  1.00  0.00     0.089 C 
ATOM      7  C   UNL     1       7.584 -33.678  14.291  1.00  0.00     0.158 C 
ATOM      8  O   UNL     1       7.612 -33.097  13.172  1.00  0.00    -0.295 OA
ENDROOT
BRANCH   5   9
ATOM      9  C   UNL     1       8.235 -32.893  18.012  1.00  0.00    -0.077 C 
ATOM     10  C   UNL     1       7.376 -33.178  19.006  1.00  0.00     0.008 C 
ATOM     11  C   UNL     1       9.219 -31.769  18.209  1.00  0.00     0.039 C 
ENDBRANCH   5   9
TORSDOF 1
ENDMDL
MODEL 8
REMARK VINA RESULT:    -3.061      2.247      3.208
REMARK INTER + INTRA:          -3.335
REMARK INTER:                  -3.239
REMARK INTRA:                  -0.096
REMARK UNBOUND:                -0.095
REMARK SMILES C=C(C)[C@H]1CC=C(C)C(=O)C1
REMARK SMILES IDX 8 1 7 2 6 3 5 4 4 5 11 6 9 7 10 8 2 9 1 10 3 11
REMARK H PARENT
REMARK Flexibility Score: inf
ROOT
ATOM      1  C   UNL     1       7.754 -36.359  18.615  1.00  0.00     0.048 C 
ATOM      2  C   UNL     1       7.423 -35.574  17.376  1.00  0.00    -0.012 C 
ATOM      3  C   UNL     1       7.936 -34.342  17.208  1.00  0.00    -0.019 C 
ATOM      4  C   UNL     1       7.625 -33.507  15.994  1.00  0.00     0.036 C 
ATOM      5  C   UNL     1       7.416 -34.391  14.751  1.00  0.00     0.025 C 
ATOM      6  C   UNL     1       6.331 -35.449  15.024  1.00  0.00     0.089 C 
ATOM      7  C   UNL     1       6.637 -36.206  16.287  1.00  0.00     0.158 C 
ATOM      8  O   UNL     1       6.186 -37.375  16.428  1.00  0.00    -0.295 OA
ENDROOT
BRANCH   5   9
ATOM      9  C   UNL     1       7.090 -33.559  13.517  1.00  0.00    -0.077 C 
ATOM     10  C   UNL     1       5.905 -33.670  12.892  1.00  0.00     0.008 C 
ATOM     11  C   UNL     1       8.104 -32.586  12.972  1.00  0.00     0.039 C 
ENDBRANCH   5   9
TORSDOF 1
ENDMDL
MODEL 9
REMARK VINA RESULT:    -3.037      1.824      4.490
REMARK INTER + INTRA:          -3.309
REMARK INTER:                  -3.213
REMARK INTRA:                  -0.096
REMARK UNBOUND:                -0.095
REMARK SMILES C=C(C)[C@H]1CC=C(C)C(=O)C1
REMARK SMILES IDX 8 1 7 2 6 3 5 4 4 5 11 6 9 7 10 8 2 9 1 10 3 11
REMARK H PARENT
REMARK Flexibility Score: inf
ROOT
ATOM      1  C   UNL     1       6.525 -37.833  13.839  1.00  0.00     0.048 C 
ATOM      2  C   UNL     1       7.053 -36.691  14.663  1.00  0.00    -0.012 C 
ATOM      3  C   UNL     1       7.817 -35.747  14.086  1.00  0.00    -0.019 C 
ATOM      4  C   UNL     1       8.385 -34.592  14.868  1.00  0.00     0.036 C 
ATOM      5  C   UNL     1       7.437 -34.174  16.007  1.00  0.00     0.025 C 
ATOM      6  C   UNL     1       7.115 -35.383  16.905  1.00  0.00     0.089 C 
ATOM      7  C   UNL     1       6.628 -36.541  16.077  1.00  0.00     0.158 C 
ATOM      8  O   UNL     1       5.882 -37.406  16.610  1.00  0.00    -0.295 OA
ENDROOT
BRANCH   5   9
ATOM      9  C   UNL     1       8.004 -33.012  16.813  1.00  0.00    -0.077 C 
ATOM     10  C   UNL     1       9.045 -32.291  16.361  1.00  0.00     0.008 C 
ATOM     11  C   UNL     1       7.398 -32.648  18.144  1.00  0.00     0.039 C 
ENDBRANCH   5   9
TORSDOF 1
ENDMDL
