MODEL 1
REMARK VINA RESULT:    -4.757      0.000      0.000
REMARK INTER + INTRA:          -5.699
REMARK INTER:                  -5.453
REMARK INTRA:                  -0.246
REMARK UNBOUND:                -0.246
REMARK SMILES O=C([O-])C=Cc1ccc(O)cc1
REMARK SMILES IDX 6 1 7 2 12 3 8 4 11 5 9 6 5 7 4 8 2 9 1 10 3 11 10 12
REMARK H PARENT 10 13
REMARK Flexibility Score: inf
ROOT
ATOM      1  C   UNL     1       6.527  -2.800 -12.769  1.00  0.00    -0.025 A 
ATOM      2  C   UNL     1       6.382  -2.866 -11.371  1.00  0.00     0.012 A 
ATOM      3  C   UNL     1       7.508  -3.584 -13.394  1.00  0.00     0.012 A 
ATOM      4  C   UNL     1       7.240  -3.665 -10.610  1.00  0.00     0.047 A 
ATOM      5  C   UNL     1       8.365  -4.383 -12.632  1.00  0.00     0.047 A 
ATOM      6  C   UNL     1       8.238  -4.423 -11.239  1.00  0.00     0.115 A 
ENDROOT
BRANCH   1   7
ATOM      7  C   UNL     1       5.598  -2.005 -13.598  1.00  0.00     0.010 C 
ATOM      8  C   UNL     1       5.731  -0.700 -13.882  1.00  0.00     0.025 C 
BRANCH   8   9
ATOM      9  C   UNL     1       6.917   0.123 -13.580  1.00  0.00     0.064 C 
ATOM     10  O   UNL     1       6.793   1.131 -12.837  1.00  0.00    -0.545 OA
ATOM     11  O   UNL     1       8.154  -0.145 -14.155  1.00  0.00    -0.545 OA
ENDBRANCH   8   9
ENDBRANCH   1   7
BRANCH   6  12
ATOM     12  O   UNL     1       9.100  -5.223 -10.492  1.00  0.00    -0.508 OA
ATOM     13  H   UNL     1       9.954  -5.595 -10.889  1.00  0.00     0.293 HD
ENDBRANCH   6  12
TORSDOF 3
ENDMDL
MODEL 2
REMARK VINA RESULT:    -4.583     14.811     16.424
REMARK INTER + INTRA:          -5.499
REMARK INTER:                  -5.318
REMARK INTRA:                  -0.181
REMARK UNBOUND:                -0.246
REMARK SMILES O=C([O-])C=Cc1ccc(O)cc1
REMARK SMILES IDX 6 1 7 2 12 3 8 4 11 5 9 6 5 7 4 8 2 9 1 10 3 11 10 12
REMARK H PARENT 10 13
REMARK Flexibility Score: inf
ROOT
ATOM      1  C   UNL     1      -4.906   6.622  -6.146  1.00  0.00    -0.025 A 
ATOM      2  C   UNL     1      -4.965   5.726  -7.230  1.00  0.00     0.012 A 
ATOM      3  C   UNL     1      -3.681   7.223  -5.819  1.00  0.00     0.012 A 
ATOM      4  C   UNL     1      -3.805   5.400  -7.938  1.00  0.00     0.047 A 
ATOM      5  C   UNL     1      -2.522   6.895  -6.529  1.00  0.00     0.047 A 
ATOM      6  C   UNL     1      -2.579   5.982  -7.587  1.00  0.00     0.115 A 
ENDROOT
BRANCH   1   7
ATOM      7  C   UNL     1      -6.127   7.023  -5.418  1.00  0.00     0.010 C 
ATOM      8  C   UNL     1      -6.453   6.636  -4.174  1.00  0.00     0.025 C 
BRANCH   8   9
ATOM      9  C   UNL     1      -5.569   5.904  -3.248  1.00  0.00     0.064 C 
ATOM     10  O   UNL     1      -5.639   4.649  -3.193  1.00  0.00    -0.545 OA
ATOM     11  O   UNL     1      -4.710   6.571  -2.382  1.00  0.00    -0.545 OA
ENDBRANCH   8   9
ENDBRANCH   1   7
BRANCH   6  12
ATOM     12  O   UNL     1      -1.416   5.664  -8.285  1.00  0.00    -0.508 OA
ATOM     13  H   UNL     1      -0.760   6.380  -8.575  1.00  0.00     0.293 HD
ENDBRANCH   6  12
TORSDOF 3
ENDMDL
MODEL 3
REMARK VINA RESULT:    -4.575      1.624      4.812
REMARK INTER + INTRA:          -5.489
REMARK INTER:                  -5.204
REMARK INTRA:                  -0.285
REMARK UNBOUND:                -0.246
REMARK SMILES O=C([O-])C=Cc1ccc(O)cc1
REMARK SMILES IDX 6 1 7 2 12 3 8 4 11 5 9 6 5 7 4 8 2 9 1 10 3 11 10 12
REMARK H PARENT 10 13
REMARK Flexibility Score: inf
ROOT
ATOM      1  C   UNL     1       7.494  -2.180 -11.469  1.00  0.00    -0.025 A 
ATOM      2  C   UNL     1       8.338  -1.137 -11.891  1.00  0.00     0.012 A 
ATOM      3  C   UNL     1       6.188  -2.253 -11.976  1.00  0.00     0.012 A 
ATOM      4  C   UNL     1       7.863  -0.156 -12.766  1.00  0.00     0.047 A 
ATOM      5  C   UNL     1       5.715  -1.271 -12.852  1.00  0.00     0.047 A 
ATOM      6  C   UNL     1       6.548  -0.218 -13.246  1.00  0.00     0.115 A 
ENDROOT
BRANCH   1   7
ATOM      7  C   UNL     1       7.990  -3.257 -10.588  1.00  0.00     0.010 C 
ATOM      8  C   UNL     1       8.456  -4.446 -11.001  1.00  0.00     0.025 C 
BRANCH   8   9
ATOM      9  C   UNL     1       8.734  -4.815 -12.401  1.00  0.00     0.064 C 
ATOM     10  O   UNL     1       9.889  -4.637 -12.867  1.00  0.00    -0.545 OA
ATOM     11  O   UNL     1       7.732  -5.288 -13.241  1.00  0.00    -0.545 OA
ENDBRANCH   8   9
ENDBRANCH   1   7
BRANCH   6  12
ATOM     12  O   UNL     1       6.062   0.754 -14.118  1.00  0.00    -0.508 OA
ATOM     13  H   UNL     1       5.638   0.506 -15.004  1.00  0.00     0.293 HD
ENDBRANCH   6  12
TORSDOF 3
ENDMDL
MODEL 4
REMARK VINA RESULT:    -4.562     14.717     16.384
REMARK INTER + INTRA:          -5.475
REMARK INTER:                  -5.268
REMARK INTRA:                  -0.206
REMARK UNBOUND:                -0.246
REMARK SMILES O=C([O-])C=Cc1ccc(O)cc1
REMARK SMILES IDX 6 1 7 2 12 3 8 4 11 5 9 6 5 7 4 8 2 9 1 10 3 11 10 12
REMARK H PARENT 10 13
REMARK Flexibility Score: inf
ROOT
ATOM      1  C   UNL     1       7.897  -4.362   3.870  1.00  0.00    -0.025 A 
ATOM      2  C   UNL     1       6.906  -5.205   4.405  1.00  0.00     0.012 A 
ATOM      3  C   UNL     1       7.976  -4.193   2.480  1.00  0.00     0.012 A 
ATOM      4  C   UNL     1       6.044  -5.906   3.556  1.00  0.00     0.047 A 
ATOM      5  C   UNL     1       7.113  -4.895   1.633  1.00  0.00     0.047 A 
ATOM      6  C   UNL     1       6.148  -5.755   2.167  1.00  0.00     0.115 A 
ENDROOT
BRANCH   1   7
ATOM      7  C   UNL     1       8.783  -3.570   4.748  1.00  0.00     0.010 C 
ATOM      8  C   UNL     1       8.695  -2.246   4.950  1.00  0.00     0.025 C 
BRANCH   8   9
ATOM      9  C   UNL     1       7.593  -1.382   4.488  1.00  0.00     0.064 C 
ATOM     10  O   UNL     1       6.484  -1.431   5.081  1.00  0.00    -0.545 OA
ATOM     11  O   UNL     1       7.726  -0.569   3.369  1.00  0.00    -0.545 OA
ENDBRANCH   8   9
ENDBRANCH   1   7
BRANCH   6  12
ATOM     12  O   UNL     1       5.295  -6.449   1.311  1.00  0.00    -0.508 OA
ATOM     13  H   UNL     1       5.443  -7.428   1.095  1.00  0.00     0.293 HD
ENDBRANCH   6  12
TORSDOF 3
ENDMDL
MODEL 5
REMARK VINA RESULT:    -4.549      1.497      1.706
REMARK INTER + INTRA:          -5.460
REMARK INTER:                  -5.235
REMARK INTRA:                  -0.225
REMARK UNBOUND:                -0.246
REMARK SMILES O=C([O-])C=Cc1ccc(O)cc1
REMARK SMILES IDX 6 1 7 2 12 3 8 4 11 5 9 6 5 7 4 8 2 9 1 10 3 11 10 12
REMARK H PARENT 10 13
REMARK Flexibility Score: inf
ROOT
ATOM      1  C   UNL     1       7.187  -1.987 -13.080  1.00  0.00    -0.025 A 
ATOM      2  C   UNL     1       6.317  -2.714 -12.247  1.00  0.00     0.012 A 
ATOM      3  C   UNL     1       8.522  -1.809 -12.687  1.00  0.00     0.012 A 
ATOM      4  C   UNL     1       6.765  -3.208 -11.019  1.00  0.00     0.047 A 
ATOM      5  C   UNL     1       8.969  -2.305 -11.458  1.00  0.00     0.047 A 
ATOM      6  C   UNL     1       8.093  -3.001 -10.619  1.00  0.00     0.115 A 
ENDROOT
BRANCH   1   7
ATOM      7  C   UNL     1       6.751  -1.503 -14.406  1.00  0.00     0.010 C 
ATOM      8  C   UNL     1       6.083  -0.362 -14.635  1.00  0.00     0.025 C 
BRANCH   8   9
ATOM      9  C   UNL     1       5.834   0.698 -13.640  1.00  0.00     0.064 C 
ATOM     10  O   UNL     1       4.651   1.057 -13.406  1.00  0.00    -0.545 OA
ATOM     11  O   UNL     1       6.879   1.360 -13.006  1.00  0.00    -0.545 OA
ENDBRANCH   8   9
ENDBRANCH   1   7
BRANCH   6  12
ATOM     12  O   UNL     1       8.551  -3.488  -9.397  1.00  0.00    -0.508 OA
ATOM     13  H   UNL     1       9.530  -3.440  -9.142  1.00  0.00     0.293 HD
ENDBRANCH   6  12
TORSDOF 3
ENDMDL
MODEL 6
REMARK VINA RESULT:    -4.447     15.386     17.027
REMARK INTER + INTRA:          -5.343
REMARK INTER:                  -5.058
REMARK INTRA:                  -0.285
REMARK UNBOUND:                -0.246
REMARK SMILES O=C([O-])C=Cc1ccc(O)cc1
REMARK SMILES IDX 6 1 7 2 12 3 8 4 11 5 9 6 5 7 4 8 2 9 1 10 3 11 10 12
REMARK H PARENT 10 13
REMARK Flexibility Score: inf
ROOT
ATOM      1  C   UNL     1      -5.365   4.956  -5.514  1.00  0.00    -0.025 A 
ATOM      2  C   UNL     1      -4.006   5.210  -5.774  1.00  0.00     0.012 A 
ATOM      3  C   UNL     1      -6.326   5.317  -6.471  1.00  0.00     0.012 A 
ATOM      4  C   UNL     1      -3.624   5.863  -6.950  1.00  0.00     0.047 A 
ATOM      5  C   UNL     1      -5.941   5.969  -7.647  1.00  0.00     0.047 A 
ATOM      6  C   UNL     1      -4.592   6.247  -7.888  1.00  0.00     0.115 A 
ENDROOT
BRANCH   1   7
ATOM      7  C   UNL     1      -5.789   4.221  -4.305  1.00  0.00     0.010 C 
ATOM      8  C   UNL     1      -5.932   4.753  -3.082  1.00  0.00     0.025 C 
BRANCH   8   9
ATOM      9  C   UNL     1      -5.880   6.193  -2.765  1.00  0.00     0.064 C 
ATOM     10  O   UNL     1      -6.891   6.908  -2.985  1.00  0.00    -0.545 OA
ATOM     11  O   UNL     1      -4.717   6.792  -2.296  1.00  0.00    -0.545 OA
ENDBRANCH   8   9
ENDBRANCH   1   7
BRANCH   6  12
ATOM     12  O   UNL     1      -4.222   6.898  -9.063  1.00  0.00    -0.508 OA
ATOM     13  H   UNL     1      -4.884   7.047  -9.816  1.00  0.00     0.293 HD
ENDBRANCH   6  12
TORSDOF 3
ENDMDL
MODEL 7
REMARK VINA RESULT:    -4.401      2.826      4.159
REMARK INTER + INTRA:          -5.290
REMARK INTER:                  -5.157
REMARK INTRA:                  -0.133
REMARK UNBOUND:                -0.246
REMARK SMILES O=C([O-])C=Cc1ccc(O)cc1
REMARK SMILES IDX 6 1 7 2 12 3 8 4 11 5 9 6 5 7 4 8 2 9 1 10 3 11 10 12
REMARK H PARENT 10 13
REMARK Flexibility Score: inf
ROOT
ATOM      1  C   UNL     1       8.969  -4.559 -12.882  1.00  0.00    -0.025 A 
ATOM      2  C   UNL     1       9.671  -5.721 -12.514  1.00  0.00     0.012 A 
ATOM      3  C   UNL     1       7.952  -4.649 -13.845  1.00  0.00     0.012 A 
ATOM      4  C   UNL     1       9.394  -6.941 -13.138  1.00  0.00     0.047 A 
ATOM      5  C   UNL     1       7.676  -5.870 -14.469  1.00  0.00     0.047 A 
ATOM      6  C   UNL     1       8.398  -7.017 -14.121  1.00  0.00     0.115 A 
ENDROOT
BRANCH   1   7
ATOM      7  C   UNL     1       9.207  -3.272 -12.198  1.00  0.00     0.010 C 
ATOM      8  C   UNL     1       8.340  -2.654 -11.381  1.00  0.00     0.025 C 
BRANCH   8   9
ATOM      9  C   UNL     1       7.083  -3.234 -10.872  1.00  0.00     0.064 C 
ATOM     10  O   UNL     1       5.995  -2.649 -11.108  1.00  0.00    -0.545 OA
ATOM     11  O   UNL     1       7.079  -4.373 -10.075  1.00  0.00    -0.545 OA
ENDBRANCH   8   9
ENDBRANCH   1   7
BRANCH   6  12
ATOM     12  O   UNL     1       8.113  -8.226 -14.751  1.00  0.00    -0.508 OA
ATOM     13  H   UNL     1       7.562  -8.264 -15.601  1.00  0.00     0.293 HD
ENDBRANCH   6  12
TORSDOF 3
ENDMDL
MODEL 8
REMARK VINA RESULT:    -4.398      1.649      2.325
REMARK INTER + INTRA:          -5.287
REMARK INTER:                  -5.022
REMARK INTRA:                  -0.265
REMARK UNBOUND:                -0.246
REMARK SMILES O=C([O-])C=Cc1ccc(O)cc1
REMARK SMILES IDX 6 1 7 2 12 3 8 4 11 5 9 6 5 7 4 8 2 9 1 10 3 11 10 12
REMARK H PARENT 10 13
REMARK Flexibility Score: inf
ROOT
ATOM      1  C   UNL     1       8.190  -1.924 -12.727  1.00  0.00    -0.025 A 
ATOM      2  C   UNL     1       8.647  -3.089 -13.368  1.00  0.00     0.012 A 
ATOM      3  C   UNL     1       8.037  -1.923 -11.332  1.00  0.00     0.012 A 
ATOM      4  C   UNL     1       8.897  -4.249 -12.628  1.00  0.00     0.047 A 
ATOM      5  C   UNL     1       8.288  -3.083 -10.594  1.00  0.00     0.047 A 
ATOM      6  C   UNL     1       8.714  -4.249 -11.238  1.00  0.00     0.115 A 
ENDROOT
BRANCH   1   7
ATOM      7  C   UNL     1       7.971  -0.672 -13.480  1.00  0.00     0.010 C 
ATOM      8  C   UNL     1       6.802  -0.273 -14.004  1.00  0.00     0.025 C 
BRANCH   8   9
ATOM      9  C   UNL     1       5.495  -0.912 -13.761  1.00  0.00     0.064 C 
ATOM     10  O   UNL     1       4.702  -0.396 -12.931  1.00  0.00    -0.545 OA
ATOM     11  O   UNL     1       5.146  -2.112 -14.371  1.00  0.00    -0.545 OA
ENDBRANCH   8   9
ENDBRANCH   1   7
BRANCH   6  12
ATOM     12  O   UNL     1       8.959  -5.399 -10.490  1.00  0.00    -0.508 OA
ATOM     13  H   UNL     1       8.787  -5.427  -9.492  1.00  0.00     0.293 HD
ENDBRANCH   6  12
TORSDOF 3
ENDMDL
MODEL 9
REMARK VINA RESULT:    -4.303     15.094     16.434
REMARK INTER + INTRA:          -5.178
REMARK INTER:                  -4.902
REMARK INTRA:                  -0.276
REMARK UNBOUND:                -0.246
REMARK SMILES O=C([O-])C=Cc1ccc(O)cc1
REMARK SMILES IDX 6 1 7 2 12 3 8 4 11 5 9 6 5 7 4 8 2 9 1 10 3 11 10 12
REMARK H PARENT 10 13
REMARK Flexibility Score: inf
ROOT
ATOM      1  C   UNL     1      -4.130   5.469  -5.470  1.00  0.00    -0.025 A 
ATOM      2  C   UNL     1      -4.246   6.550  -4.577  1.00  0.00     0.012 A 
ATOM      3  C   UNL     1      -4.875   4.304  -5.236  1.00  0.00     0.012 A 
ATOM      4  C   UNL     1      -5.055   6.443  -3.442  1.00  0.00     0.047 A 
ATOM      5  C   UNL     1      -5.684   4.198  -4.100  1.00  0.00     0.047 A 
ATOM      6  C   UNL     1      -5.774   5.264  -3.199  1.00  0.00     0.115 A 
ENDROOT
BRANCH   1   7
ATOM      7  C   UNL     1      -3.324   5.579  -6.703  1.00  0.00     0.010 C 
ATOM      8  C   UNL     1      -3.806   5.857  -7.924  1.00  0.00     0.025 C 
BRANCH   8   9
ATOM      9  C   UNL     1      -5.185   6.289  -8.221  1.00  0.00     0.064 C 
ATOM     10  O   UNL     1      -5.506   7.492  -8.037  1.00  0.00    -0.545 OA
ATOM     11  O   UNL     1      -6.158   5.384  -8.629  1.00  0.00    -0.545 OA
ENDBRANCH   8   9
ENDBRANCH   1   7
BRANCH   6  12
ATOM     12  O   UNL     1      -6.583   5.145  -2.071  1.00  0.00    -0.508 OA
ATOM     13  H   UNL     1      -6.197   5.191  -1.135  1.00  0.00     0.293 HD
ENDBRANCH   6  12
TORSDOF 3
ENDMDL
