MODEL 1
REMARK VINA RESULT:    -3.455      0.000      0.000
REMARK INTER + INTRA:          -4.146
REMARK INTER:                  -4.061
REMARK INTRA:                  -0.085
REMARK UNBOUND:                -0.085
REMARK SMILES O=C([O-])CCC(=O)[O-]
REMARK SMILES IDX 4 1 2 2 1 3 3 4 5 5 6 6 7 7 8 8
REMARK H PARENT
REMARK Flexibility Score: inf
ROOT
ATOM      1  C   UNL     1      26.639  35.389  31.918  1.00  0.00     0.059 C 
ENDROOT
BRANCH   1   2
ATOM      2  C   UNL     1      26.619  34.482  30.728  1.00  0.00     0.042 C 
ATOM      3  O   UNL     1      27.647  33.828  30.412  1.00  0.00    -0.550 OA
ATOM      4  O   UNL     1      25.448  34.322  29.997  1.00  0.00    -0.550 OA
ENDBRANCH   1   2
BRANCH   1   5
ATOM      5  C   UNL     1      27.853  35.089  32.799  1.00  0.00     0.059 C 
BRANCH   5   6
ATOM      6  C   UNL     1      27.431  34.381  34.048  1.00  0.00     0.042 C 
ATOM      7  O   UNL     1      26.272  34.547  34.510  1.00  0.00    -0.550 OA
ATOM      8  O   UNL     1      28.335  33.575  34.729  1.00  0.00    -0.550 OA
ENDBRANCH   5   6
ENDBRANCH   1   5
TORSDOF 3
ENDMDL
MODEL 2
REMARK VINA RESULT:    -3.439      0.084      1.148
REMARK INTER + INTRA:          -4.127
REMARK INTER:                  -4.041
REMARK INTRA:                  -0.086
REMARK UNBOUND:                -0.085
REMARK SMILES O=C([O-])CCC(=O)[O-]
REMARK SMILES IDX 4 1 2 2 1 3 3 4 5 5 6 6 7 7 8 8
REMARK H PARENT
REMARK Flexibility Score: inf
ROOT
ATOM      1  C   UNL     1      26.639  35.387  31.917  1.00  0.00     0.059 C 
ENDROOT
BRANCH   1   2
ATOM      2  C   UNL     1      26.625  34.443  30.757  1.00  0.00     0.042 C 
ATOM      3  O   UNL     1      25.573  34.281  30.084  1.00  0.00    -0.550 OA
ATOM      4  O   UNL     1      27.788  33.780  30.387  1.00  0.00    -0.550 OA
ENDBRANCH   1   2
BRANCH   1   5
ATOM      5  C   UNL     1      27.836  35.102  32.825  1.00  0.00     0.059 C 
BRANCH   5   6
ATOM      6  C   UNL     1      27.398  34.377  34.058  1.00  0.00     0.042 C 
ATOM      7  O   UNL     1      26.238  34.550  34.517  1.00  0.00    -0.550 OA
ATOM      8  O   UNL     1      28.287  33.547  34.729  1.00  0.00    -0.550 OA
ENDBRANCH   5   6
ENDBRANCH   1   5
TORSDOF 3
ENDMDL
MODEL 3
REMARK VINA RESULT:    -3.422      0.889      3.608
REMARK INTER + INTRA:          -4.108
REMARK INTER:                  -3.936
REMARK INTRA:                  -0.172
REMARK UNBOUND:                -0.085
REMARK SMILES O=C([O-])CCC(=O)[O-]
REMARK SMILES IDX 4 1 2 2 1 3 3 4 5 5 6 6 7 7 8 8
REMARK H PARENT
REMARK Flexibility Score: inf
ROOT
ATOM      1  C   UNL     1      26.642  35.291  33.529  1.00  0.00     0.059 C 
ENDROOT
BRANCH   1   2
ATOM      2  C   UNL     1      27.161  34.030  34.145  1.00  0.00     0.042 C 
ATOM      3  O   UNL     1      28.387  33.909  34.403  1.00  0.00    -0.550 OA
ATOM      4  O   UNL     1      26.282  33.008  34.480  1.00  0.00    -0.550 OA
ENDBRANCH   1   2
BRANCH   1   5
ATOM      5  C   UNL     1      27.358  35.577  32.208  1.00  0.00     0.059 C 
BRANCH   5   6
ATOM      6  C   UNL     1      27.018  34.531  31.192  1.00  0.00     0.042 C 
ATOM      7  O   UNL     1      27.920  33.795  30.715  1.00  0.00    -0.550 OA
ATOM      8  O   UNL     1      25.712  34.404  30.738  1.00  0.00    -0.550 OA
ENDBRANCH   5   6
ENDBRANCH   1   5
TORSDOF 3
ENDMDL
MODEL 4
REMARK VINA RESULT:    -3.419      0.876      3.726
REMARK INTER + INTRA:          -4.103
REMARK INTER:                  -3.917
REMARK INTRA:                  -0.186
REMARK UNBOUND:                -0.085
REMARK SMILES O=C([O-])CCC(=O)[O-]
REMARK SMILES IDX 4 1 2 2 1 3 3 4 5 5 6 6 7 7 8 8
REMARK H PARENT
REMARK Flexibility Score: inf
ROOT
ATOM      1  C   UNL     1      26.697  35.354  33.467  1.00  0.00     0.059 C 
ENDROOT
BRANCH   1   2
ATOM      2  C   UNL     1      26.896  34.001  34.072  1.00  0.00     0.042 C 
ATOM      3  O   UNL     1      25.921  33.216  34.204  1.00  0.00    -0.550 OA
ATOM      4  O   UNL     1      28.169  33.586  34.445  1.00  0.00    -0.550 OA
ENDBRANCH   1   2
BRANCH   1   5
ATOM      5  C   UNL     1      27.551  35.508  32.207  1.00  0.00     0.059 C 
BRANCH   5   6
ATOM      6  C   UNL     1      27.079  34.573  31.138  1.00  0.00     0.042 C 
ATOM      7  O   UNL     1      27.873  33.740  30.628  1.00  0.00    -0.550 OA
ATOM      8  O   UNL     1      25.773  34.655  30.671  1.00  0.00    -0.550 OA
ENDBRANCH   5   6
ENDBRANCH   1   5
TORSDOF 3
ENDMDL
MODEL 5
REMARK VINA RESULT:    -3.333      1.387      3.833
REMARK INTER + INTRA:          -4.003
REMARK INTER:                  -3.896
REMARK INTRA:                  -0.107
REMARK UNBOUND:                -0.085
REMARK SMILES O=C([O-])CCC(=O)[O-]
REMARK SMILES IDX 4 1 2 2 1 3 3 4 5 5 6 6 7 7 8 8
REMARK H PARENT
REMARK Flexibility Score: inf
ROOT
ATOM      1  C   UNL     1      27.262  34.434  33.938  1.00  0.00     0.059 C 
ENDROOT
BRANCH   1   2
ATOM      2  C   UNL     1      25.982  33.980  34.566  1.00  0.00     0.042 C 
ATOM      3  O   UNL     1      25.468  34.640  35.507  1.00  0.00    -0.550 OA
ATOM      4  O   UNL     1      25.330  32.854  34.078  1.00  0.00    -0.550 OA
ENDBRANCH   1   2
BRANCH   1   5
ATOM      5  C   UNL     1      26.979  35.387  32.775  1.00  0.00     0.059 C 
BRANCH   5   6
ATOM      6  C   UNL     1      26.947  34.637  31.481  1.00  0.00     0.042 C 
ATOM      7  O   UNL     1      27.946  33.966  31.111  1.00  0.00    -0.550 OA
ATOM      8  O   UNL     1      25.830  34.720  30.659  1.00  0.00    -0.550 OA
ENDBRANCH   5   6
ENDBRANCH   1   5
TORSDOF 3
ENDMDL
MODEL 6
REMARK VINA RESULT:    -3.264      1.460      2.088
REMARK INTER + INTRA:          -3.922
REMARK INTER:                  -3.824
REMARK INTRA:                  -0.098
REMARK UNBOUND:                -0.085
REMARK SMILES O=C([O-])CCC(=O)[O-]
REMARK SMILES IDX 4 1 2 2 1 3 3 4 5 5 6 6 7 7 8 8
REMARK H PARENT
REMARK Flexibility Score: inf
ROOT
ATOM      1  C   UNL     1      26.716  35.130  32.533  1.00  0.00     0.059 C 
ENDROOT
BRANCH   1   2
ATOM      2  C   UNL     1      27.387  34.281  31.500  1.00  0.00     0.042 C 
ATOM      3  O   UNL     1      26.994  34.308  30.304  1.00  0.00    -0.550 OA
ATOM      4  O   UNL     1      28.481  33.498  31.848  1.00  0.00    -0.550 OA
ENDBRANCH   1   2
BRANCH   1   5
ATOM      5  C   UNL     1      27.096  34.665  33.939  1.00  0.00     0.059 C 
BRANCH   5   6
ATOM      6  C   UNL     1      25.921  34.034  34.617  1.00  0.00     0.042 C 
ATOM      7  O   UNL     1      25.430  32.964  34.171  1.00  0.00    -0.550 OA
ATOM      8  O   UNL     1      25.338  34.654  35.715  1.00  0.00    -0.550 OA
ENDBRANCH   5   6
ENDBRANCH   1   5
TORSDOF 3
ENDMDL
MODEL 7
REMARK VINA RESULT:    -3.077      1.969      2.681
REMARK INTER + INTRA:          -3.701
REMARK INTER:                  -3.620
REMARK INTRA:                  -0.082
REMARK UNBOUND:                -0.085
REMARK SMILES O=C([O-])CCC(=O)[O-]
REMARK SMILES IDX 4 1 2 2 1 3 3 4 5 5 6 6 7 7 8 8
REMARK H PARENT
REMARK Flexibility Score: inf
ROOT
ATOM      1  C   UNL     1      27.350  34.040  33.626  1.00  0.00     0.059 C 
ENDROOT
BRANCH   1   2
ATOM      2  C   UNL     1      27.195  34.853  32.379  1.00  0.00     0.042 C 
ATOM      3  O   UNL     1      26.681  36.001  32.430  1.00  0.00    -0.550 OA
ATOM      4  O   UNL     1      27.665  34.362  31.167  1.00  0.00    -0.550 OA
ENDBRANCH   1   2
BRANCH   1   5
ATOM      5  C   UNL     1      26.289  34.431  34.656  1.00  0.00     0.059 C 
BRANCH   5   6
ATOM      6  C   UNL     1      25.344  33.295  34.890  1.00  0.00     0.042 C 
ATOM      7  O   UNL     1      24.968  32.574  33.929  1.00  0.00    -0.550 OA
ATOM      8  O   UNL     1      24.841  33.062  36.164  1.00  0.00    -0.550 OA
ENDBRANCH   5   6
ENDBRANCH   1   5
TORSDOF 3
ENDMDL
MODEL 8
REMARK VINA RESULT:    -3.039      1.965      3.872
REMARK INTER + INTRA:          -3.658
REMARK INTER:                  -3.577
REMARK INTRA:                  -0.080
REMARK UNBOUND:                -0.085
REMARK SMILES O=C([O-])CCC(=O)[O-]
REMARK SMILES IDX 4 1 2 2 1 3 3 4 5 5 6 6 7 7 8 8
REMARK H PARENT
REMARK Flexibility Score: inf
ROOT
ATOM      1  C   UNL     1      26.437  34.380  34.654  1.00  0.00     0.059 C 
ENDROOT
BRANCH   1   2
ATOM      2  C   UNL     1      25.318  33.419  34.909  1.00  0.00     0.042 C 
ATOM      3  O   UNL     1      24.711  33.431  36.012  1.00  0.00    -0.550 OA
ATOM      4  O   UNL     1      24.911  32.545  33.909  1.00  0.00    -0.550 OA
ENDBRANCH   1   2
BRANCH   1   5
ATOM      5  C   UNL     1      27.231  33.960  33.417  1.00  0.00     0.059 C 
BRANCH   5   6
ATOM      6  C   UNL     1      27.099  34.987  32.337  1.00  0.00     0.042 C 
ATOM      7  O   UNL     1      27.359  34.687  31.142  1.00  0.00    -0.550 OA
ATOM      8  O   UNL     1      26.734  36.288  32.657  1.00  0.00    -0.550 OA
ENDBRANCH   5   6
ENDBRANCH   1   5
TORSDOF 3
ENDMDL
MODEL 9
REMARK VINA RESULT:    -2.848      1.464      1.994
REMARK INTER + INTRA:          -3.432
REMARK INTER:                  -3.399
REMARK INTRA:                  -0.033
REMARK UNBOUND:                -0.085
REMARK SMILES O=C([O-])CCC(=O)[O-]
REMARK SMILES IDX 4 1 2 2 1 3 3 4 5 5 6 6 7 7 8 8
REMARK H PARENT
REMARK Flexibility Score: inf
ROOT
ATOM      1  C   UNL     1      28.034  34.018  32.800  1.00  0.00     0.059 C 
ENDROOT
BRANCH   1   2
ATOM      2  C   UNL     1      27.220  34.680  31.733  1.00  0.00     0.042 C 
ATOM      3  O   UNL     1      26.544  35.709  31.998  1.00  0.00    -0.550 OA
ATOM      4  O   UNL     1      27.248  34.190  30.433  1.00  0.00    -0.550 OA
ENDBRANCH   1   2
BRANCH   1   5
ATOM      5  C   UNL     1      27.314  34.091  34.147  1.00  0.00     0.059 C 
BRANCH   5   6
ATOM      6  C   UNL     1      28.129  33.428  35.212  1.00  0.00     0.042 C 
ATOM      7  O   UNL     1      27.573  32.690  36.068  1.00  0.00    -0.550 OA
ATOM      8  O   UNL     1      29.496  33.662  35.288  1.00  0.00    -0.550 OA
ENDBRANCH   5   6
ENDBRANCH   1   5
TORSDOF 3
ENDMDL
