MODEL 1
REMARK VINA RESULT:    -4.485      0.000      0.000
REMARK INTER + INTRA:          -6.439
REMARK INTER:                  -6.059
REMARK INTRA:                  -0.380
REMARK UNBOUND:                -0.380
REMARK SMILES CCCCCCCC(=O)[O-]
REMARK SMILES IDX 5 1 6 2 7 3 8 4 9 5 10 6 4 7 3 8 2 9 1 10
REMARK H PARENT
REMARK Flexibility Score: inf
ROOT
ATOM      1  C   UNL     1      16.084  18.123  37.635  1.00  0.00     0.000 C 
ENDROOT
BRANCH   1   2
ATOM      2  C   UNL     1      15.341  16.988  38.357  1.00  0.00     0.006 C 
BRANCH   2   3
ATOM      3  C   UNL     1      15.881  15.600  37.988  1.00  0.00     0.053 C 
BRANCH   3   4
ATOM      4  C   UNL     1      14.755  14.629  37.822  1.00  0.00     0.041 C 
ATOM      5  O   UNL     1      13.969  14.733  36.844  1.00  0.00    -0.550 OA
ATOM      6  O   UNL     1      14.603  13.581  38.719  1.00  0.00    -0.550 OA
ENDBRANCH   3   4
ENDBRANCH   2   3
ENDBRANCH   1   2
BRANCH   1   7
ATOM      7  C   UNL     1      17.230  17.607  36.746  1.00  0.00     0.000 C 
BRANCH   7   8
ATOM      8  C   UNL     1      17.120  18.103  35.295  1.00  0.00    -0.000 C 
BRANCH   8   9
ATOM      9  C   UNL     1      17.621  17.067  34.278  1.00  0.00    -0.003 C 
ATOM     10  C   UNL     1      18.379  15.938  34.972  1.00  0.00     0.004 C 
ENDBRANCH   8   9
ENDBRANCH   7   8
ENDBRANCH   1   7
TORSDOF 6
ENDMDL
MODEL 2
REMARK VINA RESULT:    -4.363      1.074      1.682
REMARK INTER + INTRA:          -6.274
REMARK INTER:                  -5.988
REMARK INTRA:                  -0.286
REMARK UNBOUND:                -0.380
REMARK SMILES CCCCCCCC(=O)[O-]
REMARK SMILES IDX 5 1 6 2 7 3 8 4 9 5 10 6 4 7 3 8 2 9 1 10
REMARK H PARENT
REMARK Flexibility Score: inf
ROOT
ATOM      1  C   UNL     1      16.251  17.830  36.905  1.00  0.00     0.000 C 
ENDROOT
BRANCH   1   2
ATOM      2  C   UNL     1      16.507  16.320  37.032  1.00  0.00     0.006 C 
BRANCH   2   3
ATOM      3  C   UNL     1      15.794  15.701  38.241  1.00  0.00     0.053 C 
BRANCH   3   4
ATOM      4  C   UNL     1      14.845  14.633  37.797  1.00  0.00     0.041 C 
ATOM      5  O   UNL     1      14.838  13.513  38.372  1.00  0.00    -0.550 OA
ATOM      6  O   UNL     1      13.935  14.890  36.780  1.00  0.00    -0.550 OA
ENDBRANCH   3   4
ENDBRANCH   2   3
ENDBRANCH   1   2
BRANCH   1   7
ATOM      7  C   UNL     1      17.053  18.471  35.758  1.00  0.00     0.000 C 
BRANCH   7   8
ATOM      8  C   UNL     1      17.269  17.508  34.580  1.00  0.00    -0.000 C 
BRANCH   8   9
ATOM      9  C   UNL     1      18.505  17.870  33.742  1.00  0.00    -0.003 C 
ATOM     10  C   UNL     1      19.484  18.720  34.547  1.00  0.00     0.004 C 
ENDBRANCH   8   9
ENDBRANCH   7   8
ENDBRANCH   1   7
TORSDOF 6
ENDMDL
MODEL 3
REMARK VINA RESULT:    -4.216      2.853      4.560
REMARK INTER + INTRA:          -6.075
REMARK INTER:                  -5.658
REMARK INTRA:                  -0.417
REMARK UNBOUND:                -0.380
REMARK SMILES CCCCCCCC(=O)[O-]
REMARK SMILES IDX 5 1 6 2 7 3 8 4 9 5 10 6 4 7 3 8 2 9 1 10
REMARK H PARENT
REMARK Flexibility Score: inf
ROOT
ATOM      1  C   UNL     1      15.710  18.189  36.166  1.00  0.00     0.000 C 
ENDROOT
BRANCH   1   2
ATOM      2  C   UNL     1      16.699  17.656  35.117  1.00  0.00     0.006 C 
BRANCH   2   3
ATOM      3  C   UNL     1      17.665  16.613  35.693  1.00  0.00     0.053 C 
BRANCH   3   4
ATOM      4  C   UNL     1      18.697  16.240  34.676  1.00  0.00     0.041 C 
ATOM      5  O   UNL     1      18.999  15.031  34.495  1.00  0.00    -0.550 OA
ATOM      6  O   UNL     1      19.289  17.222  33.893  1.00  0.00    -0.550 OA
ENDBRANCH   3   4
ENDBRANCH   2   3
ENDBRANCH   1   2
BRANCH   1   7
ATOM      7  C   UNL     1      16.134  17.847  37.605  1.00  0.00     0.000 C 
BRANCH   7   8
ATOM      8  C   UNL     1      14.933  17.598  38.531  1.00  0.00    -0.000 C 
BRANCH   8   9
ATOM      9  C   UNL     1      14.319  16.203  38.340  1.00  0.00    -0.003 C 
ATOM     10  C   UNL     1      15.404  15.133  38.256  1.00  0.00     0.004 C 
ENDBRANCH   8   9
ENDBRANCH   7   8
ENDBRANCH   1   7
TORSDOF 6
ENDMDL
MODEL 4
REMARK VINA RESULT:    -4.199      1.392      1.907
REMARK INTER + INTRA:          -6.052
REMARK INTER:                  -5.595
REMARK INTRA:                  -0.457
REMARK UNBOUND:                -0.380
REMARK SMILES CCCCCCCC(=O)[O-]
REMARK SMILES IDX 5 1 6 2 7 3 8 4 9 5 10 6 4 7 3 8 2 9 1 10
REMARK H PARENT
REMARK Flexibility Score: inf
ROOT
ATOM      1  C   UNL     1      16.840  18.494  35.798  1.00  0.00     0.000 C 
ENDROOT
BRANCH   1   2
ATOM      2  C   UNL     1      16.858  17.721  37.127  1.00  0.00     0.006 C 
BRANCH   2   3
ATOM      3  C   UNL     1      16.458  16.249  36.958  1.00  0.00     0.053 C 
BRANCH   3   4
ATOM      4  C   UNL     1      15.522  15.836  38.050  1.00  0.00     0.041 C 
ATOM      5  O   UNL     1      14.854  16.703  38.673  1.00  0.00    -0.550 OA
ATOM      6  O   UNL     1      15.348  14.491  38.345  1.00  0.00    -0.550 OA
ENDBRANCH   3   4
ENDBRANCH   2   3
ENDBRANCH   1   2
BRANCH   1   7
ATOM      7  C   UNL     1      17.410  17.673  34.628  1.00  0.00     0.000 C 
BRANCH   7   8
ATOM      8  C   UNL     1      18.872  18.029  34.314  1.00  0.00    -0.000 C 
BRANCH   8   9
ATOM      9  C   UNL     1      19.832  16.859  34.571  1.00  0.00    -0.003 C 
ATOM     10  C   UNL     1      19.097  15.522  34.514  1.00  0.00     0.004 C 
ENDBRANCH   8   9
ENDBRANCH   7   8
ENDBRANCH   1   7
TORSDOF 6
ENDMDL
MODEL 5
REMARK VINA RESULT:    -4.189      2.976      4.824
REMARK INTER + INTRA:          -6.039
REMARK INTER:                  -5.765
REMARK INTRA:                  -0.273
REMARK UNBOUND:                -0.380
REMARK SMILES CCCCCCCC(=O)[O-]
REMARK SMILES IDX 5 1 6 2 7 3 8 4 9 5 10 6 4 7 3 8 2 9 1 10
REMARK H PARENT
REMARK Flexibility Score: inf
ROOT
ATOM      1  C   UNL     1      16.926  17.336  36.876  1.00  0.00     0.000 C 
ENDROOT
BRANCH   1   2
ATOM      2  C   UNL     1      17.190  18.347  35.748  1.00  0.00     0.006 C 
BRANCH   2   3
ATOM      3  C   UNL     1      17.676  17.676  34.457  1.00  0.00     0.053 C 
BRANCH   3   4
ATOM      4  C   UNL     1      19.049  17.113  34.646  1.00  0.00     0.041 C 
ATOM      5  O   UNL     1      19.991  17.856  35.025  1.00  0.00    -0.550 OA
ATOM      6  O   UNL     1      19.277  15.757  34.451  1.00  0.00    -0.550 OA
ENDBRANCH   3   4
ENDBRANCH   2   3
ENDBRANCH   1   2
BRANCH   1   7
ATOM      7  C   UNL     1      15.779  17.772  37.804  1.00  0.00     0.000 C 
BRANCH   7   8
ATOM      8  C   UNL     1      14.982  16.580  38.357  1.00  0.00    -0.000 C 
BRANCH   8   9
ATOM      9  C   UNL     1      15.656  15.232  38.063  1.00  0.00    -0.003 C 
ATOM     10  C   UNL     1      14.753  14.068  38.461  1.00  0.00     0.004 C 
ENDBRANCH   8   9
ENDBRANCH   7   8
ENDBRANCH   1   7
TORSDOF 6
ENDMDL
MODEL 6
REMARK VINA RESULT:    -4.150      7.491      7.944
REMARK INTER + INTRA:          -5.985
REMARK INTER:                  -5.638
REMARK INTRA:                  -0.348
REMARK UNBOUND:                -0.380
REMARK SMILES CCCCCCCC(=O)[O-]
REMARK SMILES IDX 5 1 6 2 7 3 8 4 9 5 10 6 4 7 3 8 2 9 1 10
REMARK H PARENT
REMARK Flexibility Score: inf
ROOT
ATOM      1  C   UNL     1       8.230  18.277  33.856  1.00  0.00     0.000 C 
ENDROOT
BRANCH   1   2
ATOM      2  C   UNL     1       9.357  17.454  34.500  1.00  0.00     0.006 C 
BRANCH   2   3
ATOM      3  C   UNL     1       8.922  16.782  35.809  1.00  0.00     0.053 C 
BRANCH   3   4
ATOM      4  C   UNL     1       9.392  17.579  36.985  1.00  0.00     0.041 C 
ATOM      5  O   UNL     1       8.614  18.393  37.550  1.00  0.00    -0.550 OA
ATOM      6  O   UNL     1      10.672  17.389  37.488  1.00  0.00    -0.550 OA
ENDBRANCH   3   4
ENDBRANCH   2   3
ENDBRANCH   1   2
BRANCH   1   7
ATOM      7  C   UNL     1       8.697  19.675  33.414  1.00  0.00     0.000 C 
BRANCH   7   8
ATOM      8  C   UNL     1       9.625  19.627  32.190  1.00  0.00    -0.000 C 
BRANCH   8   9
ATOM      9  C   UNL     1       9.021  18.833  31.022  1.00  0.00    -0.003 C 
ATOM     10  C   UNL     1       9.969  17.731  30.558  1.00  0.00     0.004 C 
ENDBRANCH   8   9
ENDBRANCH   7   8
ENDBRANCH   1   7
TORSDOF 6
ENDMDL
MODEL 7
REMARK VINA RESULT:    -4.081      1.845      2.283
REMARK INTER + INTRA:          -5.893
REMARK INTER:                  -5.595
REMARK INTRA:                  -0.298
REMARK UNBOUND:                -0.380
REMARK SMILES CCCCCCCC(=O)[O-]
REMARK SMILES IDX 5 1 6 2 7 3 8 4 9 5 10 6 4 7 3 8 2 9 1 10
REMARK H PARENT
REMARK Flexibility Score: inf
ROOT
ATOM      1  C   UNL     1      16.502  17.750  37.216  1.00  0.00     0.000 C 
ENDROOT
BRANCH   1   2
ATOM      2  C   UNL     1      15.511  17.731  38.391  1.00  0.00     0.006 C 
BRANCH   2   3
ATOM      3  C   UNL     1      14.599  16.498  38.373  1.00  0.00     0.053 C 
BRANCH   3   4
ATOM      4  C   UNL     1      13.227  16.870  37.906  1.00  0.00     0.041 C 
ATOM      5  O   UNL     1      12.583  17.779  38.493  1.00  0.00    -0.550 OA
ATOM      6  O   UNL     1      12.680  16.249  36.791  1.00  0.00    -0.550 OA
ENDBRANCH   3   4
ENDBRANCH   2   3
ENDBRANCH   1   2
BRANCH   1   7
ATOM      7  C   UNL     1      16.822  16.339  36.690  1.00  0.00     0.000 C 
BRANCH   7   8
ATOM      8  C   UNL     1      17.811  16.359  35.514  1.00  0.00    -0.000 C 
BRANCH   8   9
ATOM      9  C   UNL     1      18.281  17.778  35.162  1.00  0.00    -0.003 C 
ATOM     10  C   UNL     1      19.796  17.827  34.984  1.00  0.00     0.004 C 
ENDBRANCH   8   9
ENDBRANCH   7   8
ENDBRANCH   1   7
TORSDOF 6
ENDMDL
MODEL 8
REMARK VINA RESULT:    -4.072     10.125     11.078
REMARK INTER + INTRA:          -5.880
REMARK INTER:                  -5.618
REMARK INTRA:                  -0.262
REMARK UNBOUND:                -0.380
REMARK SMILES CCCCCCCC(=O)[O-]
REMARK SMILES IDX 5 1 6 2 7 3 8 4 9 5 10 6 4 7 3 8 2 9 1 10
REMARK H PARENT
REMARK Flexibility Score: inf
ROOT
ATOM      1  C   UNL     1       8.225  21.837  30.485  1.00  0.00     0.000 C 
ENDROOT
BRANCH   1   2
ATOM      2  C   UNL     1       8.422  22.475  31.870  1.00  0.00     0.006 C 
BRANCH   2   3
ATOM      3  C   UNL     1       9.669  23.367  31.935  1.00  0.00     0.053 C 
BRANCH   3   4
ATOM      4  C   UNL     1       9.578  24.306  33.097  1.00  0.00     0.041 C 
ATOM      5  O   UNL     1       8.899  23.994  34.111  1.00  0.00    -0.550 OA
ATOM      6  O   UNL     1      10.282  25.502  33.082  1.00  0.00    -0.550 OA
ENDBRANCH   3   4
ENDBRANCH   2   3
ENDBRANCH   1   2
BRANCH   1   7
ATOM      7  C   UNL     1       8.249  20.299  30.534  1.00  0.00     0.000 C 
BRANCH   7   8
ATOM      8  C   UNL     1       8.670  19.760  31.911  1.00  0.00    -0.000 C 
BRANCH   8   9
ATOM      9  C   UNL     1       9.106  18.288  31.859  1.00  0.00    -0.003 C 
ATOM     10  C   UNL     1       9.738  17.949  30.512  1.00  0.00     0.004 C 
ENDBRANCH   8   9
ENDBRANCH   7   8
ENDBRANCH   1   7
TORSDOF 6
ENDMDL
MODEL 9
REMARK VINA RESULT:    -4.065      4.065      5.805
REMARK INTER + INTRA:          -5.870
REMARK INTER:                  -5.550
REMARK INTRA:                  -0.320
REMARK UNBOUND:                -0.380
REMARK SMILES CCCCCCCC(=O)[O-]
REMARK SMILES IDX 5 1 6 2 7 3 8 4 9 5 10 6 4 7 3 8 2 9 1 10
REMARK H PARENT
REMARK Flexibility Score: inf
ROOT
ATOM      1  C   UNL     1      18.305  16.243  35.026  1.00  0.00     0.000 C 
ENDROOT
BRANCH   1   2
ATOM      2  C   UNL     1      18.841  17.617  34.594  1.00  0.00     0.006 C 
BRANCH   2   3
ATOM      3  C   UNL     1      20.341  17.780  34.874  1.00  0.00     0.053 C 
BRANCH   3   4
ATOM      4  C   UNL     1      21.141  16.929  33.940  1.00  0.00     0.041 C 
ATOM      5  O   UNL     1      22.009  16.136  34.393  1.00  0.00    -0.550 OA
ATOM      6  O   UNL     1      20.896  16.974  32.575  1.00  0.00    -0.550 OA
ENDBRANCH   3   4
ENDBRANCH   2   3
ENDBRANCH   1   2
BRANCH   1   7
ATOM      7  C   UNL     1      17.269  16.343  36.160  1.00  0.00     0.000 C 
BRANCH   7   8
ATOM      8  C   UNL     1      16.888  17.796  36.485  1.00  0.00    -0.000 C 
BRANCH   8   9
ATOM      9  C   UNL     1      16.084  17.918  37.788  1.00  0.00    -0.003 C 
ATOM     10  C   UNL     1      15.539  16.561  38.226  1.00  0.00     0.004 C 
ENDBRANCH   8   9
ENDBRANCH   7   8
ENDBRANCH   1   7
TORSDOF 6
ENDMDL
