MODEL 1
REMARK VINA RESULT:    -1.608      0.000      0.000
REMARK INTER + INTRA:          -2.139
REMARK INTER:                  -1.984
REMARK INTRA:                  -0.155
REMARK UNBOUND:                -0.155
REMARK SMILES CCCCCC(=O)[O-]
REMARK SMILES IDX 4 1 5 2 6 3 7 4 8 5 3 6 2 7 1 8
REMARK H PARENT
REMARK Flexibility Score: inf
ROOT
ATOM      1  C   UNL     1     139.526  55.026 -11.865  1.00  0.00     0.006 C 
ENDROOT
BRANCH   1   2
ATOM      2  C   UNL     1     139.877  56.266 -12.693  1.00  0.00     0.053 C 
BRANCH   2   3
ATOM      3  C   UNL     1     141.246  56.134 -13.280  1.00  0.00     0.041 C 
ATOM      4  O   UNL     1     141.973  55.150 -12.980  1.00  0.00    -0.550 OA
ATOM      5  O   UNL     1     141.741  57.124 -14.119  1.00  0.00    -0.550 OA
ENDBRANCH   2   3
ENDBRANCH   1   2
BRANCH   1   6
ATOM      6  C   UNL     1     139.270  55.398 -10.400  1.00  0.00     0.000 C 
BRANCH   6   7
ATOM      7  C   UNL     1     138.964  56.894 -10.257  1.00  0.00    -0.003 C 
ATOM      8  C   UNL     1     137.717  57.123  -9.409  1.00  0.00     0.004 C 
ENDBRANCH   6   7
ENDBRANCH   1   6
TORSDOF 4
ENDMDL
MODEL 2
REMARK VINA RESULT:    -1.589      1.294      1.952
REMARK INTER + INTRA:          -2.116
REMARK INTER:                  -1.944
REMARK INTRA:                  -0.172
REMARK UNBOUND:                -0.155
REMARK SMILES CCCCCC(=O)[O-]
REMARK SMILES IDX 4 1 5 2 6 3 7 4 8 5 3 6 2 7 1 8
REMARK H PARENT
REMARK Flexibility Score: inf
ROOT
ATOM      1  C   UNL     1     139.706  56.730 -10.794  1.00  0.00     0.006 C 
ENDROOT
BRANCH   1   2
ATOM      2  C   UNL     1     139.576  56.752 -12.319  1.00  0.00     0.053 C 
BRANCH   2   3
ATOM      3  C   UNL     1     140.108  55.485 -12.910  1.00  0.00     0.041 C 
ATOM      4  O   UNL     1     139.395  54.449 -12.936  1.00  0.00    -0.550 OA
ATOM      5  O   UNL     1     141.413  55.435 -13.386  1.00  0.00    -0.550 OA
ENDBRANCH   2   3
ENDBRANCH   1   2
BRANCH   1   6
ATOM      6  C   UNL     1     138.386  57.125 -10.123  1.00  0.00     0.000 C 
BRANCH   6   7
ATOM      7  C   UNL     1     137.973  56.090  -9.070  1.00  0.00    -0.003 C 
ATOM      8  C   UNL     1     138.792  54.810  -9.203  1.00  0.00     0.004 C 
ENDBRANCH   6   7
ENDBRANCH   1   6
TORSDOF 4
ENDMDL
MODEL 3
REMARK VINA RESULT:    -1.552      2.410      2.885
REMARK INTER + INTRA:          -2.071
REMARK INTER:                  -1.829
REMARK INTRA:                  -0.242
REMARK UNBOUND:                -0.155
REMARK SMILES CCCCCC(=O)[O-]
REMARK SMILES IDX 4 1 5 2 6 3 7 4 8 5 3 6 2 7 1 8
REMARK H PARENT
REMARK Flexibility Score: inf
ROOT
ATOM      1  C   UNL     1     139.669  56.591 -12.712  1.00  0.00     0.006 C 
ENDROOT
BRANCH   1   2
ATOM      2  C   UNL     1     140.390  55.249 -12.873  1.00  0.00     0.053 C 
BRANCH   2   3
ATOM      3  C   UNL     1     139.422  54.116 -12.752  1.00  0.00     0.041 C 
ATOM      4  O   UNL     1     138.684  53.806 -13.724  1.00  0.00    -0.550 OA
ATOM      5  O   UNL     1     139.298  53.432 -11.549  1.00  0.00    -0.550 OA
ENDBRANCH   2   3
ENDBRANCH   1   2
BRANCH   1   6
ATOM      6  C   UNL     1     139.406  56.900 -11.234  1.00  0.00     0.000 C 
BRANCH   6   7
ATOM      7  C   UNL     1     140.691  56.771 -10.408  1.00  0.00    -0.003 C 
ATOM      8  C   UNL     1     140.461  55.926  -9.158  1.00  0.00     0.004 C 
ENDBRANCH   6   7
ENDBRANCH   1   6
TORSDOF 4
ENDMDL
MODEL 4
REMARK VINA RESULT:    -1.491      2.280      4.123
REMARK INTER + INTRA:          -1.995
REMARK INTER:                  -1.775
REMARK INTRA:                  -0.220
REMARK UNBOUND:                -0.155
REMARK SMILES CCCCCC(=O)[O-]
REMARK SMILES IDX 4 1 5 2 6 3 7 4 8 5 3 6 2 7 1 8
REMARK H PARENT
REMARK Flexibility Score: inf
ROOT
ATOM      1  C   UNL     1     139.790  56.328 -12.690  1.00  0.00     0.006 C 
ENDROOT
BRANCH   1   2
ATOM      2  C   UNL     1     139.359  56.867 -11.323  1.00  0.00     0.053 C 
BRANCH   2   3
ATOM      3  C   UNL     1     139.615  55.852 -10.254  1.00  0.00     0.041 C 
ATOM      4  O   UNL     1     140.787  55.450 -10.030  1.00  0.00    -0.550 OA
ATOM      5  O   UNL     1     138.553  55.312  -9.539  1.00  0.00    -0.550 OA
ENDBRANCH   2   3
ENDBRANCH   1   2
BRANCH   1   6
ATOM      6  C   UNL     1     140.979  57.122 -13.244  1.00  0.00     0.000 C 
BRANCH   6   7
ATOM      7  C   UNL     1     142.095  56.183 -13.716  1.00  0.00    -0.003 C 
ATOM      8  C   UNL     1     141.736  54.723 -13.454  1.00  0.00     0.004 C 
ENDBRANCH   6   7
ENDBRANCH   1   6
TORSDOF 4
ENDMDL
MODEL 5
REMARK VINA RESULT:    -1.468      1.386      2.035
REMARK INTER + INTRA:          -1.966
REMARK INTER:                  -1.704
REMARK INTRA:                  -0.262
REMARK UNBOUND:                -0.155
REMARK SMILES CCCCCC(=O)[O-]
REMARK SMILES IDX 4 1 5 2 6 3 7 4 8 5 3 6 2 7 1 8
REMARK H PARENT
REMARK Flexibility Score: inf
ROOT
ATOM      1  C   UNL     1     139.861  56.688 -12.455  1.00  0.00     0.006 C 
ENDROOT
BRANCH   1   2
ATOM      2  C   UNL     1     141.021  57.125 -13.355  1.00  0.00     0.053 C 
BRANCH   2   3
ATOM      3  C   UNL     1     142.331  56.725 -12.755  1.00  0.00     0.041 C 
ATOM      4  O   UNL     1     142.650  57.125 -11.605  1.00  0.00    -0.550 OA
ATOM      5  O   UNL     1     143.223  55.950 -13.486  1.00  0.00    -0.550 OA
ENDBRANCH   2   3
ENDBRANCH   1   2
BRANCH   1   6
ATOM      6  C   UNL     1     139.749  55.160 -12.404  1.00  0.00     0.000 C 
BRANCH   6   7
ATOM      7  C   UNL     1     139.528  54.672 -10.968  1.00  0.00    -0.003 C 
ATOM      8  C   UNL     1     139.547  55.836  -9.981  1.00  0.00     0.004 C 
ENDBRANCH   6   7
ENDBRANCH   1   6
TORSDOF 4
ENDMDL
MODEL 6
REMARK VINA RESULT:    -1.464      2.631      3.763
REMARK INTER + INTRA:          -1.962
REMARK INTER:                  -1.847
REMARK INTRA:                  -0.115
REMARK UNBOUND:                -0.155
REMARK SMILES CCCCCC(=O)[O-]
REMARK SMILES IDX 4 1 5 2 6 3 7 4 8 5 3 6 2 7 1 8
REMARK H PARENT
REMARK Flexibility Score: inf
ROOT
ATOM      1  C   UNL     1     140.368  55.111 -12.955  1.00  0.00     0.006 C 
ENDROOT
BRANCH   1   2
ATOM      2  C   UNL     1     139.792  56.505 -12.696  1.00  0.00     0.053 C 
BRANCH   2   3
ATOM      3  C   UNL     1     139.813  56.819 -11.234  1.00  0.00     0.041 C 
ATOM      4  O   UNL     1     140.896  56.780 -10.593  1.00  0.00    -0.550 OA
ATOM      5  O   UNL     1     138.628  57.105 -10.567  1.00  0.00    -0.550 OA
ENDBRANCH   2   3
ENDBRANCH   1   2
BRANCH   1   6
ATOM      6  C   UNL     1     139.390  54.019 -12.508  1.00  0.00     0.000 C 
BRANCH   6   7
ATOM      7  C   UNL     1     138.749  53.326 -13.716  1.00  0.00    -0.003 C 
ATOM      8  C   UNL     1     138.111  51.998 -13.316  1.00  0.00     0.004 C 
ENDBRANCH   6   7
ENDBRANCH   1   6
TORSDOF 4
ENDMDL
MODEL 7
REMARK VINA RESULT:    -1.432      2.167      2.990
REMARK INTER + INTRA:          -1.922
REMARK INTER:                  -1.669
REMARK INTRA:                  -0.253
REMARK UNBOUND:                -0.155
REMARK SMILES CCCCCC(=O)[O-]
REMARK SMILES IDX 4 1 5 2 6 3 7 4 8 5 3 6 2 7 1 8
REMARK H PARENT
REMARK Flexibility Score: inf
ROOT
ATOM      1  C   UNL     1     141.857  56.052 -12.678  1.00  0.00     0.006 C 
ENDROOT
BRANCH   1   2
ATOM      2  C   UNL     1     142.113  54.871 -13.618  1.00  0.00     0.053 C 
BRANCH   2   3
ATOM      3  C   UNL     1     141.265  53.700 -13.233  1.00  0.00     0.041 C 
ATOM      4  O   UNL     1     141.780  52.707 -12.656  1.00  0.00    -0.550 OA
ATOM      5  O   UNL     1     139.914  53.685 -13.557  1.00  0.00    -0.550 OA
ENDBRANCH   2   3
ENDBRANCH   1   2
BRANCH   1   6
ATOM      6  C   UNL     1     141.002  57.125 -13.362  1.00  0.00     0.000 C 
BRANCH   6   7
ATOM      7  C   UNL     1     139.573  57.125 -12.807  1.00  0.00    -0.003 C 
ATOM      8  C   UNL     1     139.541  56.632 -11.363  1.00  0.00     0.004 C 
ENDBRANCH   6   7
ENDBRANCH   1   6
TORSDOF 4
ENDMDL
MODEL 8
REMARK VINA RESULT:    -0.381      2.998      4.446
REMARK INTER + INTRA:          -0.625
REMARK INTER:                  -0.506
REMARK INTRA:                  -0.119
REMARK UNBOUND:                -0.155
REMARK SMILES CCCCCC(=O)[O-]
REMARK SMILES IDX 4 1 5 2 6 3 7 4 8 5 3 6 2 7 1 8
REMARK H PARENT
REMARK Flexibility Score: inf
ROOT
ATOM      1  C   UNL     1     140.108  56.651 -11.044  1.00  0.00     0.006 C 
ENDROOT
BRANCH   1   2
ATOM      2  C   UNL     1     138.905  57.125 -10.223  1.00  0.00     0.053 C 
BRANCH   2   3
ATOM      3  C   UNL     1     138.307  55.984  -9.463  1.00  0.00     0.041 C 
ATOM      4  O   UNL     1     138.923  54.890  -9.371  1.00  0.00    -0.550 OA
ATOM      5  O   UNL     1     137.044  56.112  -8.899  1.00  0.00    -0.550 OA
ENDBRANCH   2   3
ENDBRANCH   1   2
BRANCH   1   6
ATOM      6  C   UNL     1     139.801  56.695 -12.545  1.00  0.00     0.000 C 
BRANCH   6   7
ATOM      7  C   UNL     1     141.037  57.118 -13.347  1.00  0.00    -0.003 C 
ATOM      8  C   UNL     1     142.287  57.124 -12.472  1.00  0.00     0.004 C 
ENDBRANCH   6   7
ENDBRANCH   1   6
TORSDOF 4
ENDMDL
