MODEL 1
REMARK VINA RESULT:    -6.210      0.000      0.000
REMARK INTER + INTRA:          -6.210
REMARK INTER:                  -6.210
REMARK INTRA:                   0.000
REMARK UNBOUND:                 0.000
REMARK SMILES CC(C)=C1CC[C@@H](C)CC1=O
REMARK SMILES IDX 8 1 7 2 6 3 5 4 4 5 2 6 1 7 3 8 10 9 11 10 9 11
REMARK H PARENT
REMARK Flexibility Score: inf
ROOT
ATOM      1  C   UNL     1      -7.248  33.141  19.740  1.00  0.00     0.008 C 
ATOM      2  C   UNL     1      -8.017  33.420  21.036  1.00  0.00    -0.006 C 
ATOM      3  C   UNL     1      -7.499  34.703  21.706  1.00  0.00     0.008 C 
ATOM      4  C   UNL     1      -8.326  35.055  22.951  1.00  0.00     0.039 C 
ATOM      5  C   UNL     1      -8.437  33.890  23.925  1.00  0.00    -0.006 C 
ATOM      6  C   UNL     1      -8.526  34.098  25.272  1.00  0.00    -0.070 C 
ATOM      7  C   UNL     1      -8.579  32.949  26.252  1.00  0.00     0.039 C 
ATOM      8  C   UNL     1      -8.536  35.495  25.850  1.00  0.00     0.039 C 
ATOM      9  C   UNL     1      -8.558  32.533  23.314  1.00  0.00     0.159 C 
ATOM     10  O   UNL     1      -9.223  31.620  23.873  1.00  0.00    -0.295 OA
ATOM     11  C   UNL     1      -7.888  32.235  22.004  1.00  0.00     0.084 C 
ENDROOT
TORSDOF 0
ENDMDL
MODEL 2
REMARK VINA RESULT:    -6.110      1.833      3.293
REMARK INTER + INTRA:          -6.110
REMARK INTER:                  -6.110
REMARK INTRA:                   0.000
REMARK UNBOUND:                 0.000
REMARK SMILES CC(C)=C1CC[C@@H](C)CC1=O
REMARK SMILES IDX 8 1 7 2 6 3 5 4 4 5 2 6 1 7 3 8 10 9 11 10 9 11
REMARK H PARENT
REMARK Flexibility Score: inf
ROOT
ATOM      1  C   UNL     1      -7.957  28.435  23.107  1.00  0.00     0.008 C 
ATOM      2  C   UNL     1      -8.387  29.903  23.017  1.00  0.00    -0.006 C 
ATOM      3  C   UNL     1      -7.524  30.657  21.992  1.00  0.00     0.008 C 
ATOM      4  C   UNL     1      -8.006  32.103  21.814  1.00  0.00     0.039 C 
ATOM      5  C   UNL     1      -8.124  32.846  23.138  1.00  0.00    -0.006 C 
ATOM      6  C   UNL     1      -7.901  34.191  23.218  1.00  0.00    -0.070 C 
ATOM      7  C   UNL     1      -7.959  34.929  24.536  1.00  0.00     0.039 C 
ATOM      8  C   UNL     1      -7.545  35.002  21.993  1.00  0.00     0.039 C 
ATOM      9  C   UNL     1      -8.606  32.043  24.300  1.00  0.00     0.159 C 
ATOM     10  O   UNL     1      -9.296  32.565  25.216  1.00  0.00    -0.295 OA
ATOM     11  C   UNL     1      -8.279  30.580  24.391  1.00  0.00     0.084 C 
ENDROOT
TORSDOF 0
ENDMDL
MODEL 3
REMARK VINA RESULT:    -6.080      2.355      3.949
REMARK INTER + INTRA:          -6.080
REMARK INTER:                  -6.080
REMARK INTRA:                   0.000
REMARK UNBOUND:                 0.000
REMARK SMILES CC(C)=C1CC[C@@H](C)CC1=O
REMARK SMILES IDX 8 1 7 2 6 3 5 4 4 5 2 6 1 7 3 8 10 9 11 10 9 11
REMARK H PARENT
REMARK Flexibility Score: inf
ROOT
ATOM      1  C   UNL     1      -7.888  34.628  21.964  1.00  0.00     0.008 C 
ATOM      2  C   UNL     1      -7.648  33.224  22.529  1.00  0.00    -0.006 C 
ATOM      3  C   UNL     1      -7.898  32.158  21.449  1.00  0.00     0.008 C 
ATOM      4  C   UNL     1      -7.564  30.752  21.967  1.00  0.00     0.039 C 
ATOM      5  C   UNL     1      -8.266  30.431  23.279  1.00  0.00    -0.006 C 
ATOM      6  C   UNL     1      -8.649  29.156  23.585  1.00  0.00    -0.070 C 
ATOM      7  C   UNL     1      -9.397  28.834  24.858  1.00  0.00     0.039 C 
ATOM      8  C   UNL     1      -8.374  28.007  22.641  1.00  0.00     0.039 C 
ATOM      9  C   UNL     1      -8.403  31.562  24.244  1.00  0.00     0.159 C 
ATOM     10  O   UNL     1      -8.383  31.367  25.488  1.00  0.00    -0.295 OA
ATOM     11  C   UNL     1      -8.559  32.967  23.738  1.00  0.00     0.084 C 
ENDROOT
TORSDOF 0
ENDMDL
MODEL 4
REMARK VINA RESULT:    -6.051      1.808      4.594
REMARK INTER + INTRA:          -6.051
REMARK INTER:                  -6.051
REMARK INTRA:                   0.000
REMARK UNBOUND:                 0.000
REMARK SMILES CC(C)=C1CC[C@@H](C)CC1=O
REMARK SMILES IDX 8 1 7 2 6 3 5 4 4 5 2 6 1 7 3 8 10 9 11 10 9 11
REMARK H PARENT
REMARK Flexibility Score: inf
ROOT
ATOM      1  C   UNL     1      -8.247  34.592  26.308  1.00  0.00     0.008 C 
ATOM      2  C   UNL     1      -8.651  34.392  24.843  1.00  0.00    -0.006 C 
ATOM      3  C   UNL     1      -9.087  32.939  24.596  1.00  0.00     0.008 C 
ATOM      4  C   UNL     1      -9.592  32.745  23.159  1.00  0.00     0.039 C 
ATOM      5  C   UNL     1      -8.598  33.243  22.119  1.00  0.00    -0.006 C 
ATOM      6  C   UNL     1      -8.495  32.647  20.894  1.00  0.00    -0.070 C 
ATOM      7  C   UNL     1      -7.474  33.095  19.875  1.00  0.00     0.039 C 
ATOM      8  C   UNL     1      -9.378  31.480  20.514  1.00  0.00     0.039 C 
ATOM      9  C   UNL     1      -7.836  34.476  22.476  1.00  0.00     0.159 C 
ATOM     10  O   UNL     1      -7.481  35.304  21.596  1.00  0.00    -0.295 OA
ATOM     11  C   UNL     1      -7.487  34.756  23.909  1.00  0.00     0.084 C 
ENDROOT
TORSDOF 0
ENDMDL
MODEL 5
REMARK VINA RESULT:    -6.016      1.804      4.445
REMARK INTER + INTRA:          -6.016
REMARK INTER:                  -6.016
REMARK INTRA:                   0.000
REMARK UNBOUND:                 0.000
REMARK SMILES CC(C)=C1CC[C@@H](C)CC1=O
REMARK SMILES IDX 8 1 7 2 6 3 5 4 4 5 2 6 1 7 3 8 10 9 11 10 9 11
REMARK H PARENT
REMARK Flexibility Score: inf
ROOT
ATOM      1  C   UNL     1      -7.968  29.621  25.978  1.00  0.00     0.008 C 
ATOM      2  C   UNL     1      -8.369  30.458  24.759  1.00  0.00    -0.006 C 
ATOM      3  C   UNL     1      -7.486  30.110  23.549  1.00  0.00     0.008 C 
ATOM      4  C   UNL     1      -7.939  30.864  22.292  1.00  0.00     0.039 C 
ATOM      5  C   UNL     1      -8.052  32.365  22.521  1.00  0.00    -0.006 C 
ATOM      6  C   UNL     1      -7.803  33.256  21.516  1.00  0.00    -0.070 C 
ATOM      7  C   UNL     1      -7.856  34.749  21.746  1.00  0.00     0.039 C 
ATOM      8  C   UNL     1      -7.424  32.789  20.129  1.00  0.00     0.039 C 
ATOM      9  C   UNL     1      -8.556  32.789  23.861  1.00  0.00     0.159 C 
ATOM     10  O   UNL     1      -9.242  33.837  24.002  1.00  0.00    -0.295 OA
ATOM     11  C   UNL     1      -8.257  31.957  25.075  1.00  0.00     0.084 C 
ENDROOT
TORSDOF 0
ENDMDL
MODEL 6
REMARK VINA RESULT:    -5.981      0.960      3.968
REMARK INTER + INTRA:          -5.981
REMARK INTER:                  -5.981
REMARK INTRA:                   0.000
REMARK UNBOUND:                 0.000
REMARK SMILES CC(C)=C1CC[C@@H](C)CC1=O
REMARK SMILES IDX 8 1 7 2 6 3 5 4 4 5 2 6 1 7 3 8 10 9 11 10 9 11
REMARK H PARENT
REMARK Flexibility Score: inf
ROOT
ATOM      1  C   UNL     1      -8.668  35.717  26.106  1.00  0.00     0.008 C 
ATOM      2  C   UNL     1      -8.072  34.751  25.076  1.00  0.00    -0.006 C 
ATOM      3  C   UNL     1      -8.214  35.321  23.655  1.00  0.00     0.008 C 
ATOM      4  C   UNL     1      -7.533  34.415  22.620  1.00  0.00     0.039 C 
ATOM      5  C   UNL     1      -7.993  32.967  22.719  1.00  0.00    -0.006 C 
ATOM      6  C   UNL     1      -8.058  32.167  21.614  1.00  0.00    -0.070 C 
ATOM      7  C   UNL     1      -8.568  30.747  21.690  1.00  0.00     0.039 C 
ATOM      8  C   UNL     1      -7.659  32.681  20.249  1.00  0.00     0.039 C 
ATOM      9  C   UNL     1      -8.252  32.453  24.097  1.00  0.00     0.159 C 
ATOM     10  O   UNL     1      -8.046  31.247  24.395  1.00  0.00    -0.295 OA
ATOM     11  C   UNL     1      -8.760  33.381  25.162  1.00  0.00     0.084 C 
ENDROOT
TORSDOF 0
ENDMDL
MODEL 7
REMARK VINA RESULT:    -5.980      2.248      3.674
REMARK INTER + INTRA:          -5.980
REMARK INTER:                  -5.980
REMARK INTRA:                   0.000
REMARK UNBOUND:                 0.000
REMARK SMILES CC(C)=C1CC[C@@H](C)CC1=O
REMARK SMILES IDX 8 1 7 2 6 3 5 4 4 5 2 6 1 7 3 8 10 9 11 10 9 11
REMARK H PARENT
REMARK Flexibility Score: inf
ROOT
ATOM      1  C   UNL     1      -7.556  34.999  21.628  1.00  0.00     0.008 C 
ATOM      2  C   UNL     1      -8.281  33.733  22.096  1.00  0.00    -0.006 C 
ATOM      3  C   UNL     1      -7.735  33.269  23.457  1.00  0.00     0.008 C 
ATOM      4  C   UNL     1      -8.519  32.062  23.990  1.00  0.00     0.039 C 
ATOM      5  C   UNL     1      -8.606  30.929  22.977  1.00  0.00    -0.006 C 
ATOM      6  C   UNL     1      -8.651  29.624  23.376  1.00  0.00    -0.070 C 
ATOM      7  C   UNL     1      -8.679  28.488  22.380  1.00  0.00     0.039 C 
ATOM      8  C   UNL     1      -8.635  29.250  24.841  1.00  0.00     0.039 C 
ATOM      9  C   UNL     1      -8.754  31.335  21.548  1.00  0.00     0.159 C 
ATOM     10  O   UNL     1      -9.406  30.632  20.731  1.00  0.00    -0.295 OA
ATOM     11  C   UNL     1      -8.129  32.610  21.060  1.00  0.00     0.084 C 
ENDROOT
TORSDOF 0
ENDMDL
MODEL 8
REMARK VINA RESULT:    -5.786      1.760      4.107
REMARK INTER + INTRA:          -5.786
REMARK INTER:                  -5.786
REMARK INTRA:                   0.000
REMARK UNBOUND:                 0.000
REMARK SMILES CC(C)=C1CC[C@@H](C)CC1=O
REMARK SMILES IDX 8 1 7 2 6 3 5 4 4 5 2 6 1 7 3 8 10 9 11 10 9 11
REMARK H PARENT
REMARK Flexibility Score: inf
ROOT
ATOM      1  C   UNL     1      -8.567  36.107  25.260  1.00  0.00     0.008 C 
ATOM      2  C   UNL     1      -8.792  34.699  24.699  1.00  0.00    -0.006 C 
ATOM      3  C   UNL     1      -8.588  33.642  25.797  1.00  0.00     0.008 C 
ATOM      4  C   UNL     1      -8.910  32.232  25.280  1.00  0.00     0.039 C 
ATOM      5  C   UNL     1      -8.161  31.896  23.998  1.00  0.00    -0.006 C 
ATOM      6  C   UNL     1      -7.773  30.617  23.718  1.00  0.00    -0.070 C 
ATOM      7  C   UNL     1      -6.980  30.280  22.477  1.00  0.00     0.039 C 
ATOM      8  C   UNL     1      -8.089  29.478  24.661  1.00  0.00     0.039 C 
ATOM      9  C   UNL     1      -7.982  33.018  23.029  1.00  0.00     0.159 C 
ATOM     10  O   UNL     1      -7.957  32.811  21.786  1.00  0.00    -0.295 OA
ATOM     11  C   UNL     1      -7.838  34.427  23.527  1.00  0.00     0.084 C 
ENDROOT
TORSDOF 0
ENDMDL
MODEL 9
REMARK VINA RESULT:    -5.672      1.682      2.285
REMARK INTER + INTRA:          -5.672
REMARK INTER:                  -5.672
REMARK INTRA:                   0.000
REMARK UNBOUND:                 0.000
REMARK SMILES CC(C)=C1CC[C@@H](C)CC1=O
REMARK SMILES IDX 8 1 7 2 6 3 5 4 4 5 2 6 1 7 3 8 10 9 11 10 9 11
REMARK H PARENT
REMARK Flexibility Score: inf
ROOT
ATOM      1  C   UNL     1      -7.563  32.809  20.256  1.00  0.00     0.008 C 
ATOM      2  C   UNL     1      -8.178  32.370  21.589  1.00  0.00    -0.006 C 
ATOM      3  C   UNL     1      -7.847  33.384  22.697  1.00  0.00     0.008 C 
ATOM      4  C   UNL     1      -8.540  33.015  24.016  1.00  0.00     0.039 C 
ATOM      5  C   UNL     1      -8.265  31.578  24.437  1.00  0.00    -0.006 C 
ATOM      6  C   UNL     1      -8.200  31.225  25.755  1.00  0.00    -0.070 C 
ATOM      7  C   UNL     1      -7.871  29.815  26.185  1.00  0.00     0.039 C 
ATOM      8  C   UNL     1      -8.416  32.244  26.850  1.00  0.00     0.039 C 
ATOM      9  C   UNL     1      -8.188  30.574  23.335  1.00  0.00     0.159 C 
ATOM     10  O   UNL     1      -8.561  29.383  23.506  1.00  0.00    -0.295 OA
ATOM     11  C   UNL     1      -7.668  30.977  21.985  1.00  0.00     0.084 C 
ENDROOT
TORSDOF 0
ENDMDL
