MODEL 1
REMARK VINA RESULT:    -7.599      0.000      0.000
REMARK INTER + INTRA:          -8.008
REMARK INTER:                  -8.265
REMARK INTRA:                   0.257
REMARK UNBOUND:                 0.257
REMARK SMILES C[C@@H]1[C@@H](C)CC[C@]2(C(=O)[O-])CC[C@]3(C)C(=CC[C@@H]4[C@]5(C)CC[C@@H](O)C(C)(C)[C@@H]5CC[C@]43C)[C@@H]12
REMARK SMILES IDX 7 1 6 2 11 3 33 4 5 5 12 6 15 7 2 8 3 9 13 10 16 11 1 12
REMARK SMILES IDX 4 13 14 14 31 15 17 16 18 17 30 18 32 19 19 20 29 21 28 22
REMARK SMILES IDX 21 23 20 24 25 25 22 26 23 27 26 28 27 29 8 30 9 31 10 32
REMARK SMILES IDX 24 33
REMARK H PARENT 24 34
REMARK Flexibility Score: inf
ROOT
ATOM      1  C   UNL     1     106.794 106.871 116.198  1.00  0.00     0.017 C 
ATOM      2  C   UNL     1     107.480 105.506 116.425  1.00  0.00     0.014 C 
ATOM      3  C   UNL     1     105.759 107.080 117.337  1.00  0.00     0.014 C 
ATOM      4  C   UNL     1     106.000 106.869 114.852  1.00  0.00     0.030 C 
ATOM      5  C   UNL     1     108.380 105.124 115.254  1.00  0.00     0.004 C 
ATOM      6  C   UNL     1     105.032 108.430 117.224  1.00  0.00     0.013 C 
ATOM      7  C   UNL     1     105.301 108.245 114.689  1.00  0.00    -0.063 C 
ATOM      8  C   UNL     1     106.803 106.307 113.620  1.00  0.00    -0.003 C 
ATOM      9  C   UNL     1     107.555 104.982 113.969  1.00  0.00    -0.011 C 
ATOM     10  C   UNL     1     104.349 108.706 115.830  1.00  0.00    -0.006 C 
ATOM     11  C   UNL     1     105.521 109.020 113.590  1.00  0.00    -0.027 C 
ATOM     12  C   UNL     1     105.851 106.038 112.428  1.00  0.00     0.008 C 
ATOM     13  C   UNL     1     108.475 104.520 112.826  1.00  0.00     0.008 C 
ATOM     14  C   UNL     1     103.078 107.793 115.777  1.00  0.00     0.017 C 
ATOM     15  C   UNL     1     103.980 110.278 115.672  1.00  0.00    -0.020 C 
ATOM     16  C   UNL     1     104.836 110.329 113.296  1.00  0.00     0.032 C 
ATOM     17  C   UNL     1     103.584 110.554 114.172  1.00  0.00     0.006 C 
ATOM     18  C   UNL     1     102.792 110.676 116.576  1.00  0.00     0.008 C 
ATOM     19  C   UNL     1     105.214 111.149 116.100  1.00  0.00     0.012 C 
ATOM     20  C   UNL     1     102.728 111.863 113.780  1.00  0.00    -0.025 C 
ATOM     21  C   UNL     1     102.335 112.110 116.332  1.00  0.00     0.005 C 
ATOM     22  C   UNL     1     101.696 112.263 114.926  1.00  0.00     0.003 C 
ATOM     23  C   UNL     1     103.650 113.078 113.425  1.00  0.00     0.010 C 
ATOM     24  C   UNL     1     101.928 111.476 112.484  1.00  0.00     0.012 C 
ATOM     25  C   UNL     1     100.984 113.680 114.738  1.00  0.00    -0.006 C 
ATOM     26  C   UNL     1     102.915 114.403 113.201  1.00  0.00     0.033 C 
ATOM     27  C   UNL     1     102.034 114.777 114.398  1.00  0.00     0.120 C 
ATOM     28  C   UNL     1      99.875 113.611 113.646  1.00  0.00     0.014 C 
ATOM     29  C   UNL     1     100.244 114.123 116.034  1.00  0.00     0.014 C 
ENDROOT
BRANCH   1  30
ATOM     30  C   UNL     1     107.860 107.965 116.256  1.00  0.00     0.048 C 
ATOM     31  O   UNL     1     108.256 108.400 117.371  1.00  0.00    -0.550 OA
ATOM     32  O   UNL     1     108.439 108.474 115.101  1.00  0.00    -0.550 OA
ENDBRANCH   1  30
BRANCH  27  33
ATOM     33  O   UNL     1     101.391 116.001 114.136  1.00  0.00    -0.393 OA
ATOM     34  H   UNL     1     101.423 116.146 113.153  1.00  0.00     0.210 HD
ENDBRANCH  27  33
TORSDOF 2
ENDMDL
MODEL 2
REMARK VINA RESULT:    -7.332      4.965      7.220
REMARK INTER + INTRA:          -7.718
REMARK INTER:                  -7.980
REMARK INTRA:                   0.262
REMARK UNBOUND:                 0.257
REMARK SMILES C[C@@H]1[C@@H](C)CC[C@]2(C(=O)[O-])CC[C@]3(C)C(=CC[C@@H]4[C@]5(C)CC[C@@H](O)C(C)(C)[C@@H]5CC[C@]43C)[C@@H]12
REMARK SMILES IDX 7 1 6 2 11 3 33 4 5 5 12 6 15 7 2 8 3 9 13 10 16 11 1 12
REMARK SMILES IDX 4 13 14 14 31 15 17 16 18 17 30 18 32 19 19 20 29 21 28 22
REMARK SMILES IDX 21 23 20 24 25 25 22 26 23 27 26 28 27 29 8 30 9 31 10 32
REMARK SMILES IDX 24 33
REMARK H PARENT 24 34
REMARK Flexibility Score: inf
ROOT
ATOM      1  C   UNL     1     107.203 108.318 117.740  1.00  0.00     0.017 C 
ATOM      2  C   UNL     1     106.206 107.403 118.487  1.00  0.00     0.014 C 
ATOM      3  C   UNL     1     108.302 108.748 118.750  1.00  0.00     0.014 C 
ATOM      4  C   UNL     1     106.492 109.622 117.253  1.00  0.00     0.030 C 
ATOM      5  C   UNL     1     104.987 107.079 117.629  1.00  0.00     0.004 C 
ATOM      6  C   UNL     1     109.370 109.646 118.102  1.00  0.00     0.013 C 
ATOM      7  C   UNL     1     107.541 110.521 116.545  1.00  0.00    -0.063 C 
ATOM      8  C   UNL     1     105.120 109.382 116.519  1.00  0.00    -0.003 C 
ATOM      9  C   UNL     1     104.219 108.362 117.285  1.00  0.00    -0.011 C 
ATOM     10  C   UNL     1     108.810 110.915 117.354  1.00  0.00    -0.006 C 
ATOM     11  C   UNL     1     107.357 110.939 115.263  1.00  0.00    -0.027 C 
ATOM     12  C   UNL     1     104.344 110.716 116.371  1.00  0.00     0.008 C 
ATOM     13  C   UNL     1     102.954 107.995 116.489  1.00  0.00     0.008 C 
ATOM     14  C   UNL     1     108.361 111.918 118.471  1.00  0.00     0.017 C 
ATOM     15  C   UNL     1     109.940 111.551 116.378  1.00  0.00    -0.020 C 
ATOM     16  C   UNL     1     108.268 111.874 114.512  1.00  0.00     0.032 C 
ATOM     17  C   UNL     1     109.254 112.617 115.441  1.00  0.00     0.006 C 
ATOM     18  C   UNL     1     111.057 112.251 117.184  1.00  0.00     0.008 C 
ATOM     19  C   UNL     1     110.607 110.406 115.538  1.00  0.00     0.012 C 
ATOM     20  C   UNL     1     110.136 113.746 114.704  1.00  0.00    -0.025 C 
ATOM     21  C   UNL     1     112.047 112.982 116.284  1.00  0.00     0.005 C 
ATOM     22  C   UNL     1     111.381 114.201 115.590  1.00  0.00     0.003 C 
ATOM     23  C   UNL     1     110.615 113.281 113.288  1.00  0.00     0.010 C 
ATOM     24  C   UNL     1     109.177 114.974 114.504  1.00  0.00     0.012 C 
ATOM     25  C   UNL     1     112.446 115.128 114.846  1.00  0.00    -0.006 C 
ATOM     26  C   UNL     1     111.595 114.231 112.592  1.00  0.00     0.033 C 
ATOM     27  C   UNL     1     112.821 114.525 113.462  1.00  0.00     0.120 C 
ATOM     28  C   UNL     1     111.914 116.585 114.695  1.00  0.00     0.014 C 
ATOM     29  C   UNL     1     113.759 115.264 115.672  1.00  0.00     0.014 C 
ENDROOT
BRANCH   1  30
ATOM     30  C   UNL     1     107.830 107.520 116.597  1.00  0.00     0.048 C 
ATOM     31  O   UNL     1     108.826 106.780 116.817  1.00  0.00    -0.550 OA
ATOM     32  O   UNL     1     107.303 107.561 115.312  1.00  0.00    -0.550 OA
ENDBRANCH   1  30
BRANCH  27  33
ATOM     33  O   UNL     1     113.683 115.395 112.769  1.00  0.00    -0.393 OA
ATOM     34  H   UNL     1     113.439 116.322 113.033  1.00  0.00     0.210 HD
ENDBRANCH  27  33
TORSDOF 2
ENDMDL
MODEL 3
REMARK VINA RESULT:    -7.254      5.198      9.073
REMARK INTER + INTRA:          -7.633
REMARK INTER:                  -7.890
REMARK INTRA:                   0.257
REMARK UNBOUND:                 0.257
REMARK SMILES C[C@@H]1[C@@H](C)CC[C@]2(C(=O)[O-])CC[C@]3(C)C(=CC[C@@H]4[C@]5(C)CC[C@@H](O)C(C)(C)[C@@H]5CC[C@]43C)[C@@H]12
REMARK SMILES IDX 7 1 6 2 11 3 33 4 5 5 12 6 15 7 2 8 3 9 13 10 16 11 1 12
REMARK SMILES IDX 4 13 14 14 31 15 17 16 18 17 30 18 32 19 19 20 29 21 28 22
REMARK SMILES IDX 21 23 20 24 25 25 22 26 23 27 26 28 27 29 8 30 9 31 10 32
REMARK SMILES IDX 24 33
REMARK H PARENT 24 34
REMARK Flexibility Score: inf
ROOT
ATOM      1  C   UNL     1     106.823 110.006 115.178  1.00  0.00     0.017 C 
ATOM      2  C   UNL     1     105.742 109.391 114.261  1.00  0.00     0.014 C 
ATOM      3  C   UNL     1     108.183 109.925 114.432  1.00  0.00     0.014 C 
ATOM      4  C   UNL     1     106.970 109.171 116.490  1.00  0.00     0.030 C 
ATOM      5  C   UNL     1     104.404 109.254 114.980  1.00  0.00     0.004 C 
ATOM      6  C   UNL     1     109.333 110.539 115.248  1.00  0.00     0.013 C 
ATOM      7  C   UNL     1     108.090 109.806 117.357  1.00  0.00    -0.063 C 
ATOM      8  C   UNL     1     105.608 108.822 117.198  1.00  0.00    -0.003 C 
ATOM      9  C   UNL     1     104.537 108.310 116.182  1.00  0.00    -0.011 C 
ATOM     10  C   UNL     1     109.494 109.969 116.708  1.00  0.00    -0.006 C 
ATOM     11  C   UNL     1     107.846 110.212 118.634  1.00  0.00    -0.027 C 
ATOM     12  C   UNL     1     105.822 107.735 118.282  1.00  0.00     0.008 C 
ATOM     13  C   UNL     1     103.156 108.129 116.838  1.00  0.00     0.008 C 
ATOM     14  C   UNL     1     110.107 108.535 116.552  1.00  0.00     0.017 C 
ATOM     15  C   UNL     1     110.434 110.941 117.604  1.00  0.00    -0.020 C 
ATOM     16  C   UNL     1     108.875 110.764 119.585  1.00  0.00     0.032 C 
ATOM     17  C   UNL     1     110.322 110.499 119.113  1.00  0.00     0.006 C 
ATOM     18  C   UNL     1     111.915 110.853 117.174  1.00  0.00     0.008 C 
ATOM     19  C   UNL     1     109.973 112.430 117.416  1.00  0.00     0.012 C 
ATOM     20  C   UNL     1     111.455 110.927 120.177  1.00  0.00    -0.025 C 
ATOM     21  C   UNL     1     112.833 111.644 118.099  1.00  0.00     0.005 C 
ATOM     22  C   UNL     1     112.900 110.999 119.509  1.00  0.00     0.003 C 
ATOM     23  C   UNL     1     111.111 112.282 120.881  1.00  0.00     0.010 C 
ATOM     24  C   UNL     1     111.455 109.804 121.275  1.00  0.00     0.012 C 
ATOM     25  C   UNL     1     114.040 111.651 120.418  1.00  0.00    -0.006 C 
ATOM     26  C   UNL     1     112.215 112.840 121.785  1.00  0.00     0.033 C 
ATOM     27  C   UNL     1     113.544 112.990 121.037  1.00  0.00     0.120 C 
ATOM     28  C   UNL     1     114.508 110.663 121.527  1.00  0.00     0.014 C 
ATOM     29  C   UNL     1     115.322 111.962 119.590  1.00  0.00     0.014 C 
ENDROOT
BRANCH   1  30
ATOM     30  C   UNL     1     106.460 111.468 115.442  1.00  0.00     0.048 C 
ATOM     31  O   UNL     1     106.745 112.352 114.589  1.00  0.00    -0.550 OA
ATOM     32  O   UNL     1     105.784 111.849 116.593  1.00  0.00    -0.550 OA
ENDBRANCH   1  30
BRANCH  27  33
ATOM     33  O   UNL     1     114.514 113.509 121.914  1.00  0.00    -0.393 OA
ATOM     34  H   UNL     1     114.618 114.474 121.698  1.00  0.00     0.210 HD
ENDBRANCH  27  33
TORSDOF 2
ENDMDL
MODEL 4
REMARK VINA RESULT:    -6.977      1.319      1.524
REMARK INTER + INTRA:          -7.331
REMARK INTER:                  -7.717
REMARK INTRA:                   0.386
REMARK UNBOUND:                 0.257
REMARK SMILES C[C@@H]1[C@@H](C)CC[C@]2(C(=O)[O-])CC[C@]3(C)C(=CC[C@@H]4[C@]5(C)CC[C@@H](O)C(C)(C)[C@@H]5CC[C@]43C)[C@@H]12
REMARK SMILES IDX 7 1 6 2 11 3 33 4 5 5 12 6 15 7 2 8 3 9 13 10 16 11 1 12
REMARK SMILES IDX 4 13 14 14 31 15 17 16 18 17 30 18 32 19 19 20 29 21 28 22
REMARK SMILES IDX 21 23 20 24 25 25 22 26 23 27 26 28 27 29 8 30 9 31 10 32
REMARK SMILES IDX 24 33
REMARK H PARENT 24 34
REMARK Flexibility Score: inf
ROOT
ATOM      1  C   UNL     1     108.034 107.862 116.453  1.00  0.00     0.017 C 
ATOM      2  C   UNL     1     108.942 106.638 116.705  1.00  0.00     0.014 C 
ATOM      3  C   UNL     1     106.808 107.748 117.399  1.00  0.00     0.014 C 
ATOM      4  C   UNL     1     107.486 107.847 114.989  1.00  0.00     0.030 C 
ATOM      5  C   UNL     1     110.079 106.561 115.691  1.00  0.00     0.004 C 
ATOM      6  C   UNL     1     105.844 108.938 117.251  1.00  0.00     0.013 C 
ATOM      7  C   UNL     1     106.552 109.073 114.800  1.00  0.00    -0.063 C 
ATOM      8  C   UNL     1     108.577 107.582 113.886  1.00  0.00    -0.003 C 
ATOM      9  C   UNL     1     109.520 106.398 114.272  1.00  0.00    -0.011 C 
ATOM     10  C   UNL     1     105.354 109.221 115.780  1.00  0.00    -0.006 C 
ATOM     11  C   UNL     1     106.782 109.986 113.815  1.00  0.00    -0.027 C 
ATOM     12  C   UNL     1     107.907 107.260 112.526  1.00  0.00     0.008 C 
ATOM     13  C   UNL     1     110.689 106.243 113.283  1.00  0.00     0.008 C 
ATOM     14  C   UNL     1     104.325 108.090 115.437  1.00  0.00     0.017 C 
ATOM     15  C   UNL     1     104.697 110.700 115.668  1.00  0.00    -0.020 C 
ATOM     16  C   UNL     1     105.898 111.162 113.494  1.00  0.00     0.032 C 
ATOM     17  C   UNL     1     104.501 111.050 114.144  1.00  0.00     0.006 C 
ATOM     18  C   UNL     1     103.322 110.765 116.370  1.00  0.00     0.008 C 
ATOM     19  C   UNL     1     105.638 111.742 116.371  1.00  0.00     0.012 C 
ATOM     20  C   UNL     1     103.467 112.203 113.696  1.00  0.00    -0.025 C 
ATOM     21  C   UNL     1     102.624 112.102 116.147  1.00  0.00     0.005 C 
ATOM     22  C   UNL     1     102.203 112.275 114.664  1.00  0.00     0.003 C 
ATOM     23  C   UNL     1     104.162 113.603 113.599  1.00  0.00     0.010 C 
ATOM     24  C   UNL     1     102.985 111.806 112.255  1.00  0.00     0.012 C 
ATOM     25  C   UNL     1     101.252 113.541 114.450  1.00  0.00    -0.006 C 
ATOM     26  C   UNL     1     103.214 114.778 113.339  1.00  0.00     0.033 C 
ATOM     27  C   UNL     1     102.093 114.848 114.381  1.00  0.00     0.120 C 
ATOM     28  C   UNL     1     100.373 113.374 113.174  1.00  0.00     0.014 C 
ATOM     29  C   UNL     1     100.236 113.695 115.620  1.00  0.00     0.014 C 
ENDROOT
BRANCH   1  30
ATOM     30  C   UNL     1     108.826 109.129 116.778  1.00  0.00     0.048 C 
ATOM     31  O   UNL     1     109.452 109.732 115.865  1.00  0.00    -0.550 OA
ATOM     32  O   UNL     1     108.845 109.661 118.060  1.00  0.00    -0.550 OA
ENDBRANCH   1  30
BRANCH  27  33
ATOM     33  O   UNL     1     101.261 115.946 114.094  1.00  0.00    -0.393 OA
ATOM     34  H   UNL     1     100.738 116.142 114.917  1.00  0.00     0.210 HD
ENDBRANCH  27  33
TORSDOF 2
ENDMDL
MODEL 5
REMARK VINA RESULT:    -6.876      4.934      8.207
REMARK INTER + INTRA:          -7.222
REMARK INTER:                  -7.486
REMARK INTRA:                   0.264
REMARK UNBOUND:                 0.257
REMARK SMILES C[C@@H]1[C@@H](C)CC[C@]2(C(=O)[O-])CC[C@]3(C)C(=CC[C@@H]4[C@]5(C)CC[C@@H](O)C(C)(C)[C@@H]5CC[C@]43C)[C@@H]12
REMARK SMILES IDX 7 1 6 2 11 3 33 4 5 5 12 6 15 7 2 8 3 9 13 10 16 11 1 12
REMARK SMILES IDX 4 13 14 14 31 15 17 16 18 17 30 18 32 19 19 20 29 21 28 22
REMARK SMILES IDX 21 23 20 24 25 25 22 26 23 27 26 28 27 29 8 30 9 31 10 32
REMARK SMILES IDX 24 33
REMARK H PARENT 24 34
REMARK Flexibility Score: inf
ROOT
ATOM      1  C   UNL     1     110.360 114.602 114.522  1.00  0.00     0.017 C 
ATOM      2  C   UNL     1     111.137 115.927 114.352  1.00  0.00     0.014 C 
ATOM      3  C   UNL     1     108.876 114.955 114.816  1.00  0.00     0.014 C 
ATOM      4  C   UNL     1     110.896 113.806 115.755  1.00  0.00     0.030 C 
ATOM      5  C   UNL     1     112.640 115.690 114.245  1.00  0.00     0.004 C 
ATOM      6  C   UNL     1     108.000 113.701 114.977  1.00  0.00     0.013 C 
ATOM      7  C   UNL     1     110.060 112.507 115.904  1.00  0.00    -0.063 C 
ATOM      8  C   UNL     1     112.463 113.679 115.820  1.00  0.00    -0.003 C 
ATOM      9  C   UNL     1     113.171 115.041 115.529  1.00  0.00    -0.011 C 
ATOM     10  C   UNL     1     108.518 112.656 116.038  1.00  0.00    -0.006 C 
ATOM     11  C   UNL     1     110.658 111.283 115.910  1.00  0.00    -0.027 C 
ATOM     12  C   UNL     1     112.910 113.176 117.216  1.00  0.00     0.008 C 
ATOM     13  C   UNL     1     114.699 114.888 115.423  1.00  0.00     0.008 C 
ATOM     14  C   UNL     1     108.227 113.282 117.445  1.00  0.00     0.017 C 
ATOM     15  C   UNL     1     107.780 111.225 115.840  1.00  0.00    -0.020 C 
ATOM     16  C   UNL     1     109.954 109.970 116.128  1.00  0.00     0.032 C 
ATOM     17  C   UNL     1     108.534 110.146 116.709  1.00  0.00     0.006 C 
ATOM     18  C   UNL     1     106.304 111.279 116.294  1.00  0.00     0.008 C 
ATOM     19  C   UNL     1     107.796 110.836 114.319  1.00  0.00     0.012 C 
ATOM     20  C   UNL     1     107.806 108.766 117.111  1.00  0.00    -0.025 C 
ATOM     21  C   UNL     1     105.639 109.908 116.256  1.00  0.00     0.005 C 
ATOM     22  C   UNL     1     106.239 108.962 117.331  1.00  0.00     0.003 C 
ATOM     23  C   UNL     1     108.072 107.638 116.058  1.00  0.00     0.010 C 
ATOM     24  C   UNL     1     108.459 108.318 118.467  1.00  0.00     0.012 C 
ATOM     25  C   UNL     1     105.398 107.614 117.486  1.00  0.00    -0.006 C 
ATOM     26  C   UNL     1     107.282 106.345 116.281  1.00  0.00     0.033 C 
ATOM     27  C   UNL     1     105.774 106.604 116.364  1.00  0.00     0.120 C 
ATOM     28  C   UNL     1     105.603 106.983 118.896  1.00  0.00     0.014 C 
ATOM     29  C   UNL     1     103.868 107.882 117.385  1.00  0.00     0.014 C 
ENDROOT
BRANCH   1  30
ATOM     30  C   UNL     1     110.458 113.812 113.217  1.00  0.00     0.048 C 
ATOM     31  O   UNL     1     109.646 114.040 112.280  1.00  0.00    -0.550 OA
ATOM     32  O   UNL     1     111.452 112.864 113.018  1.00  0.00    -0.550 OA
ENDBRANCH   1  30
BRANCH  27  33
ATOM     33  O   UNL     1     105.104 105.383 116.564  1.00  0.00    -0.393 OA
ATOM     34  H   UNL     1     104.222 105.595 116.970  1.00  0.00     0.210 HD
ENDBRANCH  27  33
TORSDOF 2
ENDMDL
MODEL 6
REMARK VINA RESULT:    -6.836      8.392     12.279
REMARK INTER + INTRA:          -7.179
REMARK INTER:                  -7.439
REMARK INTRA:                   0.260
REMARK UNBOUND:                 0.257
REMARK SMILES C[C@@H]1[C@@H](C)CC[C@]2(C(=O)[O-])CC[C@]3(C)C(=CC[C@@H]4[C@]5(C)CC[C@@H](O)C(C)(C)[C@@H]5CC[C@]43C)[C@@H]12
REMARK SMILES IDX 7 1 6 2 11 3 33 4 5 5 12 6 15 7 2 8 3 9 13 10 16 11 1 12
REMARK SMILES IDX 4 13 14 14 31 15 17 16 18 17 30 18 32 19 19 20 29 21 28 22
REMARK SMILES IDX 21 23 20 24 25 25 22 26 23 27 26 28 27 29 8 30 9 31 10 32
REMARK SMILES IDX 24 33
REMARK H PARENT 24 34
REMARK Flexibility Score: inf
ROOT
ATOM      1  C   UNL     1     111.656 113.563 113.756  1.00  0.00     0.017 C 
ATOM      2  C   UNL     1     110.753 114.139 112.642  1.00  0.00     0.014 C 
ATOM      3  C   UNL     1     110.923 112.343 114.379  1.00  0.00     0.014 C 
ATOM      4  C   UNL     1     111.853 114.610 114.899  1.00  0.00     0.030 C 
ATOM      5  C   UNL     1     111.301 115.454 112.096  1.00  0.00     0.004 C 
ATOM      6  C   UNL     1     111.750 111.671 115.488  1.00  0.00     0.013 C 
ATOM      7  C   UNL     1     112.733 113.971 116.007  1.00  0.00    -0.063 C 
ATOM      8  C   UNL     1     112.238 116.054 114.402  1.00  0.00    -0.003 C 
ATOM      9  C   UNL     1     111.348 116.514 113.203  1.00  0.00    -0.011 C 
ATOM     10  C   UNL     1     112.240 112.636 116.634  1.00  0.00    -0.006 C 
ATOM     11  C   UNL     1     113.895 114.558 116.407  1.00  0.00    -0.027 C 
ATOM     12  C   UNL     1     112.090 117.081 115.553  1.00  0.00     0.008 C 
ATOM     13  C   UNL     1     111.828 117.849 112.605  1.00  0.00     0.008 C 
ATOM     14  C   UNL     1     110.976 112.963 117.500  1.00  0.00     0.017 C 
ATOM     15  C   UNL     1     113.417 111.940 117.507  1.00  0.00    -0.020 C 
ATOM     16  C   UNL     1     114.779 114.068 117.524  1.00  0.00     0.032 C 
ATOM     17  C   UNL     1     114.073 113.036 118.431  1.00  0.00     0.006 C 
ATOM     18  C   UNL     1     112.866 110.807 118.401  1.00  0.00     0.008 C 
ATOM     19  C   UNL     1     114.479 111.307 116.539  1.00  0.00     0.012 C 
ATOM     20  C   UNL     1     114.922 112.606 119.732  1.00  0.00    -0.025 C 
ATOM     21  C   UNL     1     113.929 110.243 119.337  1.00  0.00     0.005 C 
ATOM     22  C   UNL     1     114.343 111.285 120.410  1.00  0.00     0.003 C 
ATOM     23  C   UNL     1     116.443 112.430 119.404  1.00  0.00     0.010 C 
ATOM     24  C   UNL     1     114.786 113.801 120.743  1.00  0.00     0.012 C 
ATOM     25  C   UNL     1     115.260 110.646 121.550  1.00  0.00    -0.006 C 
ATOM     26  C   UNL     1     117.290 111.864 120.548  1.00  0.00     0.033 C 
ATOM     27  C   UNL     1     116.735 110.534 121.066  1.00  0.00     0.120 C 
ATOM     28  C   UNL     1     115.167 111.466 122.871  1.00  0.00     0.014 C 
ATOM     29  C   UNL     1     114.780 109.215 121.932  1.00  0.00     0.014 C 
ENDROOT
BRANCH   1  30
ATOM     30  C   UNL     1     112.975 113.113 113.128  1.00  0.00     0.048 C 
ATOM     31  O   UNL     1     113.060 111.978 112.585  1.00  0.00    -0.550 OA
ATOM     32  O   UNL     1     114.086 113.945 113.105  1.00  0.00    -0.550 OA
ENDBRANCH   1  30
BRANCH  27  33
ATOM     33  O   UNL     1     117.555 110.063 122.108  1.00  0.00    -0.393 OA
ATOM     34  H   UNL     1     118.250 109.484 121.696  1.00  0.00     0.210 HD
ENDBRANCH  27  33
TORSDOF 2
ENDMDL
MODEL 7
REMARK VINA RESULT:    -6.786      9.245     11.486
REMARK INTER + INTRA:          -7.124
REMARK INTER:                  -7.387
REMARK INTRA:                   0.263
REMARK UNBOUND:                 0.257
REMARK SMILES C[C@@H]1[C@@H](C)CC[C@]2(C(=O)[O-])CC[C@]3(C)C(=CC[C@@H]4[C@]5(C)CC[C@@H](O)C(C)(C)[C@@H]5CC[C@]43C)[C@@H]12
REMARK SMILES IDX 7 1 6 2 11 3 33 4 5 5 12 6 15 7 2 8 3 9 13 10 16 11 1 12
REMARK SMILES IDX 4 13 14 14 31 15 17 16 18 17 30 18 32 19 19 20 29 21 28 22
REMARK SMILES IDX 21 23 20 24 25 25 22 26 23 27 26 28 27 29 8 30 9 31 10 32
REMARK SMILES IDX 24 33
REMARK H PARENT 24 34
REMARK Flexibility Score: inf
ROOT
ATOM      1  C   UNL     1     114.714 110.533 120.594  1.00  0.00     0.017 C 
ATOM      2  C   UNL     1     115.275 109.624 121.710  1.00  0.00     0.014 C 
ATOM      3  C   UNL     1     114.120 109.618 119.488  1.00  0.00     0.014 C 
ATOM      4  C   UNL     1     115.863 111.362 119.934  1.00  0.00     0.030 C 
ATOM      5  C   UNL     1     116.048 110.424 122.755  1.00  0.00     0.004 C 
ATOM      6  C   UNL     1     113.505 110.424 118.332  1.00  0.00     0.013 C 
ATOM      7  C   UNL     1     115.255 112.228 118.797  1.00  0.00    -0.063 C 
ATOM      8  C   UNL     1     116.827 112.071 120.956  1.00  0.00    -0.003 C 
ATOM      9  C   UNL     1     117.258 111.112 122.112  1.00  0.00    -0.011 C 
ATOM     10  C   UNL     1     114.464 111.491 117.679  1.00  0.00    -0.006 C 
ATOM     11  C   UNL     1     115.406 113.581 118.788  1.00  0.00    -0.027 C 
ATOM     12  C   UNL     1     118.100 112.583 120.235  1.00  0.00     0.008 C 
ATOM     13  C   UNL     1     118.061 111.844 123.202  1.00  0.00     0.008 C 
ATOM     14  C   UNL     1     115.501 110.683 116.826  1.00  0.00     0.017 C 
ATOM     15  C   UNL     1     113.622 112.546 116.778  1.00  0.00    -0.020 C 
ATOM     16  C   UNL     1     114.929 114.504 117.696  1.00  0.00     0.032 C 
ATOM     17  C   UNL     1     114.566 113.750 116.398  1.00  0.00     0.006 C 
ATOM     18  C   UNL     1     113.105 111.894 115.476  1.00  0.00     0.008 C 
ATOM     19  C   UNL     1     112.373 113.042 117.590  1.00  0.00     0.012 C 
ATOM     20  C   UNL     1     114.206 114.708 115.153  1.00  0.00    -0.025 C 
ATOM     21  C   UNL     1     112.440 112.907 114.550  1.00  0.00     0.005 C 
ATOM     22  C   UNL     1     113.477 113.912 113.981  1.00  0.00     0.003 C 
ATOM     23  C   UNL     1     113.346 115.940 115.595  1.00  0.00     0.010 C 
ATOM     24  C   UNL     1     115.581 115.251 114.623  1.00  0.00     0.012 C 
ATOM     25  C   UNL     1     112.863 114.820 112.819  1.00  0.00    -0.006 C 
ATOM     26  C   UNL     1     112.825 116.810 114.447  1.00  0.00     0.033 C 
ATOM     27  C   UNL     1     112.034 115.990 113.423  1.00  0.00     0.120 C 
ATOM     28  C   UNL     1     113.980 115.355 111.875  1.00  0.00     0.014 C 
ATOM     29  C   UNL     1     111.916 113.999 111.895  1.00  0.00     0.014 C 
ENDROOT
BRANCH   1  30
ATOM     30  C   UNL     1     113.614 111.411 121.190  1.00  0.00     0.048 C 
ATOM     31  O   UNL     1     112.461 110.936 121.379  1.00  0.00    -0.550 OA
ATOM     32  O   UNL     1     113.862 112.724 121.569  1.00  0.00    -0.550 OA
ENDBRANCH   1  30
BRANCH  27  33
ATOM     33  O   UNL     1     111.579 116.842 112.399  1.00  0.00    -0.393 OA
ATOM     34  H   UNL     1     111.699 117.776 112.718  1.00  0.00     0.210 HD
ENDBRANCH  27  33
TORSDOF 2
ENDMDL
MODEL 8
REMARK VINA RESULT:    -6.710      6.682     10.725
REMARK INTER + INTRA:          -7.041
REMARK INTER:                  -7.406
REMARK INTRA:                   0.364
REMARK UNBOUND:                 0.257
REMARK SMILES C[C@@H]1[C@@H](C)CC[C@]2(C(=O)[O-])CC[C@]3(C)C(=CC[C@@H]4[C@]5(C)CC[C@@H](O)C(C)(C)[C@@H]5CC[C@]43C)[C@@H]12
REMARK SMILES IDX 7 1 6 2 11 3 33 4 5 5 12 6 15 7 2 8 3 9 13 10 16 11 1 12
REMARK SMILES IDX 4 13 14 14 31 15 17 16 18 17 30 18 32 19 19 20 29 21 28 22
REMARK SMILES IDX 21 23 20 24 25 25 22 26 23 27 26 28 27 29 8 30 9 31 10 32
REMARK SMILES IDX 24 33
REMARK H PARENT 24 34
REMARK Flexibility Score: inf
ROOT
ATOM      1  C   UNL     1     108.259 111.452 116.617  1.00  0.00     0.017 C 
ATOM      2  C   UNL     1     107.065 111.194 115.671  1.00  0.00     0.014 C 
ATOM      3  C   UNL     1     109.312 112.288 115.838  1.00  0.00     0.014 C 
ATOM      4  C   UNL     1     108.946 110.106 117.015  1.00  0.00     0.030 C 
ATOM      5  C   UNL     1     106.061 110.222 116.283  1.00  0.00     0.004 C 
ATOM      6  C   UNL     1     110.539 112.628 116.700  1.00  0.00     0.013 C 
ATOM      7  C   UNL     1     110.158 110.422 117.932  1.00  0.00    -0.063 C 
ATOM      8  C   UNL     1     107.951 108.978 117.481  1.00  0.00    -0.003 C 
ATOM      9  C   UNL     1     106.718 108.859 116.529  1.00  0.00    -0.011 C 
ATOM     10  C   UNL     1     111.242 111.392 117.380  1.00  0.00    -0.006 C 
ATOM     11  C   UNL     1     110.261 109.875 119.175  1.00  0.00    -0.027 C 
ATOM     12  C   UNL     1     108.672 107.607 117.535  1.00  0.00     0.008 C 
ATOM     13  C   UNL     1     105.662 107.879 117.071  1.00  0.00     0.008 C 
ATOM     14  C   UNL     1     112.005 110.640 116.237  1.00  0.00     0.017 C 
ATOM     15  C   UNL     1     112.238 111.877 118.565  1.00  0.00    -0.020 C 
ATOM     16  C   UNL     1     111.428 110.050 120.110  1.00  0.00     0.032 C 
ATOM     17  C   UNL     1     112.678 110.615 119.401  1.00  0.00     0.006 C 
ATOM     18  C   UNL     1     113.503 112.559 117.999  1.00  0.00     0.008 C 
ATOM     19  C   UNL     1     111.499 112.925 119.470  1.00  0.00     0.012 C 
ATOM     20  C   UNL     1     113.998 110.667 120.324  1.00  0.00    -0.025 C 
ATOM     21  C   UNL     1     114.518 112.887 119.088  1.00  0.00     0.005 C 
ATOM     22  C   UNL     1     115.129 111.595 119.693  1.00  0.00     0.003 C 
ATOM     23  C   UNL     1     113.669 111.122 121.786  1.00  0.00     0.010 C 
ATOM     24  C   UNL     1     114.528 109.189 120.392  1.00  0.00     0.012 C 
ATOM     25  C   UNL     1     116.370 111.904 120.650  1.00  0.00    -0.006 C 
ATOM     26  C   UNL     1     114.891 111.354 122.681  1.00  0.00     0.033 C 
ATOM     27  C   UNL     1     115.875 112.349 122.057  1.00  0.00     0.120 C 
ATOM     28  C   UNL     1     117.319 110.674 120.755  1.00  0.00     0.014 C 
ATOM     29  C   UNL     1     117.258 113.049 120.080  1.00  0.00     0.014 C 
ENDROOT
BRANCH   1  30
ATOM     30  C   UNL     1     107.758 112.243 117.826  1.00  0.00     0.048 C 
ATOM     31  O   UNL     1     107.296 113.406 117.671  1.00  0.00    -0.550 OA
ATOM     32  O   UNL     1     107.764 111.695 119.102  1.00  0.00    -0.550 OA
ENDBRANCH   1  30
BRANCH  27  33
ATOM     33  O   UNL     1     116.969 112.525 122.924  1.00  0.00    -0.393 OA
ATOM     34  H   UNL     1     116.705 112.156 123.809  1.00  0.00     0.210 HD
ENDBRANCH  27  33
TORSDOF 2
ENDMDL
MODEL 9
REMARK VINA RESULT:    -6.523      5.313      8.701
REMARK INTER + INTRA:          -6.838
REMARK INTER:                  -7.100
REMARK INTRA:                   0.262
REMARK UNBOUND:                 0.257
REMARK SMILES C[C@@H]1[C@@H](C)CC[C@]2(C(=O)[O-])CC[C@]3(C)C(=CC[C@@H]4[C@]5(C)CC[C@@H](O)C(C)(C)[C@@H]5CC[C@]43C)[C@@H]12
REMARK SMILES IDX 7 1 6 2 11 3 33 4 5 5 12 6 15 7 2 8 3 9 13 10 16 11 1 12
REMARK SMILES IDX 4 13 14 14 31 15 17 16 18 17 30 18 32 19 19 20 29 21 28 22
REMARK SMILES IDX 21 23 20 24 25 25 22 26 23 27 26 28 27 29 8 30 9 31 10 32
REMARK SMILES IDX 24 33
REMARK H PARENT 24 34
REMARK Flexibility Score: inf
ROOT
ATOM      1  C   UNL     1     107.058 108.954 115.668  1.00  0.00     0.017 C 
ATOM      2  C   UNL     1     106.024 108.595 114.578  1.00  0.00     0.014 C 
ATOM      3  C   UNL     1     106.531 110.199 116.433  1.00  0.00     0.014 C 
ATOM      4  C   UNL     1     108.421 109.359 115.020  1.00  0.00     0.030 C 
ATOM      5  C   UNL     1     106.540 107.499 113.650  1.00  0.00     0.004 C 
ATOM      6  C   UNL     1     107.476 110.630 117.568  1.00  0.00     0.013 C 
ATOM      7  C   UNL     1     109.411 109.745 116.152  1.00  0.00    -0.063 C 
ATOM      8  C   UNL     1     108.934 108.370 113.907  1.00  0.00    -0.003 C 
ATOM      9  C   UNL     1     107.797 107.974 112.911  1.00  0.00    -0.011 C 
ATOM     10  C   UNL     1     108.973 110.868 117.135  1.00  0.00    -0.006 C 
ATOM     11  C   UNL     1     110.613 109.118 116.279  1.00  0.00    -0.027 C 
ATOM     12  C   UNL     1     110.095 109.011 113.105  1.00  0.00     0.008 C 
ATOM     13  C   UNL     1     108.247 106.880 111.926  1.00  0.00     0.008 C 
ATOM     14  C   UNL     1     108.989 112.219 116.341  1.00  0.00     0.017 C 
ATOM     15  C   UNL     1     109.946 110.909 118.433  1.00  0.00    -0.020 C 
ATOM     16  C   UNL     1     111.676 109.468 117.287  1.00  0.00     0.032 C 
ATOM     17  C   UNL     1     111.443 110.847 117.941  1.00  0.00     0.006 C 
ATOM     18  C   UNL     1     109.749 112.206 119.249  1.00  0.00     0.008 C 
ATOM     19  C   UNL     1     109.610 109.699 119.375  1.00  0.00     0.012 C 
ATOM     20  C   UNL     1     112.640 111.335 118.904  1.00  0.00    -0.025 C 
ATOM     21  C   UNL     1     110.758 112.331 120.386  1.00  0.00     0.005 C 
ATOM     22  C   UNL     1     112.195 112.546 119.840  1.00  0.00     0.003 C 
ATOM     23  C   UNL     1     113.210 110.160 119.767  1.00  0.00     0.010 C 
ATOM     24  C   UNL     1     113.785 111.824 117.946  1.00  0.00     0.012 C 
ATOM     25  C   UNL     1     113.228 112.932 120.994  1.00  0.00    -0.006 C 
ATOM     26  C   UNL     1     114.238 110.573 120.825  1.00  0.00     0.033 C 
ATOM     27  C   UNL     1     113.691 111.658 121.759  1.00  0.00     0.120 C 
ATOM     28  C   UNL     1     114.447 113.713 120.420  1.00  0.00     0.014 C 
ATOM     29  C   UNL     1     112.586 113.898 122.034  1.00  0.00     0.014 C 
ENDROOT
BRANCH   1  30
ATOM     30  C   UNL     1     107.185 107.769 116.626  1.00  0.00     0.048 C 
ATOM     31  O   UNL     1     106.355 107.626 117.565  1.00  0.00    -0.550 OA
ATOM     32  O   UNL     1     108.179 106.814 116.467  1.00  0.00    -0.550 OA
ENDBRANCH   1  30
BRANCH  27  33
ATOM     33  O   UNL     1     114.675 111.992 122.708  1.00  0.00    -0.393 OA
ATOM     34  H   UNL     1     114.686 112.983 122.784  1.00  0.00     0.210 HD
ENDBRANCH  27  33
TORSDOF 2
ENDMDL
