MODEL 1
REMARK VINA RESULT:    -4.267      0.000      0.000
REMARK INTER + INTRA:          -7.666
REMARK INTER:                  -6.512
REMARK INTRA:                  -1.154
REMARK UNBOUND:                -1.154
REMARK SMILES OC[C@H]1O[C@@H](O[C@@]2(CO)O[C@H](CO)[C@@H](O)[C@H]2O)[C@H](O)[C@@H](O)[C@H]1O
REMARK SMILES IDX 6 1 5 2 3 3 22 4 4 5 20 6 18 7 2 8 1 9 23 11 21 13 19 15
REMARK SMILES IDX 7 17 16 18 10 19 14 20 11 21 8 22 9 23 17 25 15 27 12 29
REMARK SMILES IDX 13 30
REMARK H PARENT 1 10 23 12 21 14 19 16 9 24 17 26 15 28 13 31
REMARK Flexibility Score: inf
ROOT
ATOM      1  O   UNL     1      13.975  -1.948 -48.054  1.00  0.00    -0.313 OA
ENDROOT
BRANCH   1   2
ATOM      2  C   UNL     1      13.839  -0.535 -48.172  1.00  0.00     0.285 C 
ATOM      3  C   UNL     1      14.934   1.518 -48.473  1.00  0.00     0.178 C 
ATOM      4  C   UNL     1      13.659   2.222 -47.891  1.00  0.00     0.177 C 
ATOM      5  O   UNL     1      15.057   0.172 -48.027  1.00  0.00    -0.341 OA
ATOM      6  C   UNL     1      13.062   1.418 -46.719  1.00  0.00     0.179 C 
ATOM      7  C   UNL     1      12.764  -0.028 -47.170  1.00  0.00     0.202 C 
BRANCH   3   8
ATOM      8  C   UNL     1      16.239   2.249 -48.122  1.00  0.00     0.191 C 
BRANCH   8   9
ATOM      9  O   UNL     1      16.407   2.266 -46.732  1.00  0.00    -0.394 OA
ATOM     10  H   UNL     1      17.198   1.689 -46.544  1.00  0.00     0.210 HD
ENDBRANCH   8   9
ENDBRANCH   3   8
BRANCH   4  11
ATOM     11  O   UNL     1      13.873   3.574 -47.555  1.00  0.00    -0.387 OA
ATOM     12  H   UNL     1      13.673   4.131 -48.353  1.00  0.00     0.211 HD
ENDBRANCH   4  11
BRANCH   6  13
ATOM     13  O   UNL     1      13.975   1.392 -45.648  1.00  0.00    -0.387 OA
ATOM     14  H   UNL     1      13.485   1.688 -44.830  1.00  0.00     0.211 HD
ENDBRANCH   6  13
BRANCH   7  15
ATOM     15  O   UNL     1      11.492  -0.072 -47.768  1.00  0.00    -0.385 OA
ATOM     16  H   UNL     1      11.457   0.675 -48.424  1.00  0.00     0.211 HD
ENDBRANCH   7  15
ENDBRANCH   1   2
BRANCH   1  17
ATOM     17  C   UNL     1      14.075  -2.772 -49.225  1.00  0.00     0.224 C 
ATOM     18  C   UNL     1      12.767  -2.751 -50.043  1.00  0.00     0.208 C 
ATOM     19  O   UNL     1      14.189  -4.094 -48.740  1.00  0.00    -0.337 OA
ATOM     20  C   UNL     1      11.880  -3.709 -49.282  1.00  0.00     0.180 C 
ATOM     21  C   UNL     1      12.896  -4.659 -48.643  1.00  0.00     0.179 C 
BRANCH  17  22
ATOM     22  C   UNL     1      15.343  -2.539 -50.111  1.00  0.00     0.225 C 
BRANCH  22  23
ATOM     23  O   UNL     1      16.492  -2.293 -49.351  1.00  0.00    -0.391 OA
ATOM     24  H   UNL     1      16.172  -2.105 -48.426  1.00  0.00     0.210 HD
ENDBRANCH  22  23
ENDBRANCH  17  22
BRANCH  18  25
ATOM     25  O   UNL     1      12.185  -1.474 -50.125  1.00  0.00    -0.385 OA
ATOM     26  H   UNL     1      12.279  -1.052 -49.227  1.00  0.00     0.211 HD
ENDBRANCH  18  25
BRANCH  20  27
ATOM     27  O   UNL     1      11.162  -3.039 -48.267  1.00  0.00    -0.387 OA
ATOM     28  H   UNL     1      10.197  -3.115 -48.492  1.00  0.00     0.211 HD
ENDBRANCH  20  27
BRANCH  21  29
ATOM     29  C   UNL     1      12.915  -6.036 -49.328  1.00  0.00     0.191 C 
BRANCH  29  30
ATOM     30  O   UNL     1      14.224  -6.404 -49.674  1.00  0.00    -0.394 OA
ATOM     31  H   UNL     1      14.826  -5.728 -49.263  1.00  0.00     0.210 HD
ENDBRANCH  29  30
ENDBRANCH  21  29
ENDBRANCH   1  17
TORSDOF 13
ENDMDL
MODEL 2
REMARK VINA RESULT:    -4.261      1.645      5.977
REMARK INTER + INTRA:          -7.656
REMARK INTER:                  -6.763
REMARK INTRA:                  -0.893
REMARK UNBOUND:                -1.154
REMARK SMILES OC[C@H]1O[C@@H](O[C@@]2(CO)O[C@H](CO)[C@@H](O)[C@H]2O)[C@H](O)[C@@H](O)[C@H]1O
REMARK SMILES IDX 6 1 5 2 3 3 22 4 4 5 20 6 18 7 2 8 1 9 23 11 21 13 19 15
REMARK SMILES IDX 7 17 16 18 10 19 14 20 11 21 8 22 9 23 17 25 15 27 12 29
REMARK SMILES IDX 13 30
REMARK H PARENT 1 10 23 12 21 14 19 16 9 24 17 26 15 28 13 31
REMARK Flexibility Score: inf
ROOT
ATOM      1  O   UNL     1      13.182   0.914 -48.534  1.00  0.00    -0.313 OA
ENDROOT
BRANCH   1   2
ATOM      2  C   UNL     1      12.921  -0.470 -48.321  1.00  0.00     0.285 C 
ATOM      3  C   UNL     1      13.513  -2.678 -48.849  1.00  0.00     0.178 C 
ATOM      4  C   UNL     1      12.106  -3.125 -48.318  1.00  0.00     0.177 C 
ATOM      5  O   UNL     1      13.520  -1.322 -49.279  1.00  0.00    -0.341 OA
ATOM      6  C   UNL     1      11.010  -2.119 -48.723  1.00  0.00     0.179 C 
ATOM      7  C   UNL     1      11.387  -0.705 -48.231  1.00  0.00     0.202 C 
BRANCH   3   8
ATOM      8  C   UNL     1      14.021  -3.543 -50.013  1.00  0.00     0.191 C 
BRANCH   8   9
ATOM      9  O   UNL     1      14.666  -4.678 -49.507  1.00  0.00    -0.394 OA
ATOM     10  H   UNL     1      14.542  -4.647 -48.519  1.00  0.00     0.210 HD
ENDBRANCH   8   9
ENDBRANCH   3   8
BRANCH   4  11
ATOM     11  O   UNL     1      11.772  -4.447 -48.673  1.00  0.00    -0.387 OA
ATOM     12  H   UNL     1      12.360  -5.067 -48.166  1.00  0.00     0.211 HD
ENDBRANCH   4  11
BRANCH   6  13
ATOM     13  O   UNL     1      10.875  -2.102 -50.124  1.00  0.00    -0.387 OA
ATOM     14  H   UNL     1      10.144  -1.460 -50.346  1.00  0.00     0.211 HD
ENDBRANCH   6  13
BRANCH   7  15
ATOM     15  O   UNL     1      10.955  -0.548 -46.902  1.00  0.00    -0.385 OA
ATOM     16  H   UNL     1      10.857  -1.462 -46.522  1.00  0.00     0.211 HD
ENDBRANCH   7  15
ENDBRANCH   1   2
BRANCH   1  17
ATOM     17  C   UNL     1      13.480   1.779 -47.430  1.00  0.00     0.224 C 
ATOM     18  C   UNL     1      14.646   2.735 -47.760  1.00  0.00     0.208 C 
ATOM     19  O   UNL     1      13.973   0.929 -46.414  1.00  0.00    -0.337 OA
ATOM     20  C   UNL     1      15.862   1.858 -47.573  1.00  0.00     0.180 C 
ATOM     21  C   UNL     1      15.380   0.847 -46.528  1.00  0.00     0.179 C 
BRANCH  17  22
ATOM     22  C   UNL     1      12.256   2.520 -46.799  1.00  0.00     0.225 C 
BRANCH  22  23
ATOM     23  O   UNL     1      11.611   3.365 -47.710  1.00  0.00    -0.391 OA
ATOM     24  H   UNL     1      11.387   4.194 -47.203  1.00  0.00     0.210 HD
ENDBRANCH  22  23
ENDBRANCH  17  22
BRANCH  18  25
ATOM     25  O   UNL     1      14.586   3.252 -49.065  1.00  0.00    -0.385 OA
ATOM     26  H   UNL     1      15.333   3.906 -49.155  1.00  0.00     0.211 HD
ENDBRANCH  18  25
BRANCH  20  27
ATOM     27  O   UNL     1      16.186   1.178 -48.767  1.00  0.00    -0.387 OA
ATOM     28  H   UNL     1      17.137   0.897 -48.695  1.00  0.00     0.211 HD
ENDBRANCH  20  27
BRANCH  21  29
ATOM     29  C   UNL     1      15.996   1.104 -45.143  1.00  0.00     0.191 C 
BRANCH  29  30
ATOM     30  O   UNL     1      17.182   0.374 -44.980  1.00  0.00    -0.394 OA
ATOM     31  H   UNL     1      17.276   0.198 -44.007  1.00  0.00     0.210 HD
ENDBRANCH  29  30
ENDBRANCH  21  29
ENDBRANCH   1  17
TORSDOF 13
ENDMDL
MODEL 3
REMARK VINA RESULT:    -4.238     11.077     14.566
REMARK INTER + INTRA:          -7.622
REMARK INTER:                  -6.226
REMARK INTRA:                  -1.396
REMARK UNBOUND:                -1.154
REMARK SMILES OC[C@H]1O[C@@H](O[C@@]2(CO)O[C@H](CO)[C@@H](O)[C@H]2O)[C@H](O)[C@@H](O)[C@H]1O
REMARK SMILES IDX 6 1 5 2 3 3 22 4 4 5 20 6 18 7 2 8 1 9 23 11 21 13 19 15
REMARK SMILES IDX 7 17 16 18 10 19 14 20 11 21 8 22 9 23 17 25 15 27 12 29
REMARK SMILES IDX 13 30
REMARK H PARENT 1 10 23 12 21 14 19 16 9 24 17 26 15 28 13 31
REMARK Flexibility Score: inf
ROOT
ATOM      1  O   UNL     1      21.563 -13.632 -48.476  1.00  0.00    -0.313 OA
ENDROOT
BRANCH   1   2
ATOM      2  C   UNL     1      20.751 -12.632 -49.085  1.00  0.00     0.285 C 
ATOM      3  C   UNL     1      20.684 -10.530 -50.125  1.00  0.00     0.178 C 
ATOM      4  C   UNL     1      19.151 -10.478 -49.799  1.00  0.00     0.177 C 
ATOM      5  O   UNL     1      21.396 -11.381 -49.233  1.00  0.00    -0.341 OA
ATOM      6  C   UNL     1      18.856 -11.060 -48.402  1.00  0.00     0.179 C 
ATOM      7  C   UNL     1      19.415 -12.495 -48.301  1.00  0.00     0.202 C 
BRANCH   3   8
ATOM      8  C   UNL     1      21.356  -9.149 -50.091  1.00  0.00     0.191 C 
BRANCH   8   9
ATOM      9  O   UNL     1      21.368  -8.666 -48.776  1.00  0.00    -0.394 OA
ATOM     10  H   UNL     1      22.190  -8.109 -48.696  1.00  0.00     0.210 HD
ENDBRANCH   8   9
ENDBRANCH   3   8
BRANCH   4  11
ATOM     11  O   UNL     1      18.589  -9.197 -49.971  1.00  0.00    -0.387 OA
ATOM     12  H   UNL     1      17.725  -9.165 -49.480  1.00  0.00     0.211 HD
ENDBRANCH   4  11
BRANCH   6  13
ATOM     13  O   UNL     1      19.459 -10.257 -47.416  1.00  0.00    -0.387 OA
ATOM     14  H   UNL     1      18.741  -9.968 -46.785  1.00  0.00     0.211 HD
ENDBRANCH   6  13
BRANCH   7  15
ATOM     15  O   UNL     1      18.465 -13.398 -48.812  1.00  0.00    -0.385 OA
ATOM     16  H   UNL     1      17.594 -12.917 -48.831  1.00  0.00     0.211 HD
ENDBRANCH   7  15
ENDBRANCH   1   2
BRANCH   1  17
ATOM     17  C   UNL     1      21.760 -14.901 -49.115  1.00  0.00     0.224 C 
ATOM     18  C   UNL     1      22.090 -16.005 -48.089  1.00  0.00     0.208 C 
ATOM     19  O   UNL     1      22.934 -14.749 -49.888  1.00  0.00    -0.337 OA
ATOM     20  C   UNL     1      23.555 -15.771 -47.804  1.00  0.00     0.180 C 
ATOM     21  C   UNL     1      24.048 -15.143 -49.111  1.00  0.00     0.179 C 
BRANCH  17  22
ATOM     22  C   UNL     1      20.646 -15.333 -50.125  1.00  0.00     0.225 C 
BRANCH  22  23
ATOM     23  O   UNL     1      19.632 -16.083 -49.518  1.00  0.00    -0.391 OA
ATOM     24  H   UNL     1      19.097 -15.435 -48.982  1.00  0.00     0.210 HD
ENDBRANCH  22  23
ENDBRANCH  17  22
BRANCH  18  25
ATOM     25  O   UNL     1      21.323 -15.918 -46.915  1.00  0.00    -0.385 OA
ATOM     26  H   UNL     1      20.615 -16.616 -46.976  1.00  0.00     0.211 HD
ENDBRANCH  18  25
BRANCH  20  27
ATOM     27  O   UNL     1      23.727 -14.849 -46.748  1.00  0.00    -0.387 OA
ATOM     28  H   UNL     1      24.142 -15.344 -45.992  1.00  0.00     0.211 HD
ENDBRANCH  20  27
BRANCH  21  29
ATOM     29  C   UNL     1      24.898 -16.119 -49.941  1.00  0.00     0.191 C 
BRANCH  29  30
ATOM     30  O   UNL     1      26.210 -15.642 -50.083  1.00  0.00    -0.394 OA
ATOM     31  H   UNL     1      26.486 -15.303 -49.190  1.00  0.00     0.210 HD
ENDBRANCH  29  30
ENDBRANCH  21  29
ENDBRANCH   1  17
TORSDOF 13
ENDMDL
MODEL 4
REMARK VINA RESULT:    -4.032      1.553      6.016
REMARK INTER + INTRA:          -7.307
REMARK INTER:                  -6.230
REMARK INTRA:                  -1.077
REMARK UNBOUND:                -1.154
REMARK SMILES OC[C@H]1O[C@@H](O[C@@]2(CO)O[C@H](CO)[C@@H](O)[C@H]2O)[C@H](O)[C@@H](O)[C@H]1O
REMARK SMILES IDX 6 1 5 2 3 3 22 4 4 5 20 6 18 7 2 8 1 9 23 11 21 13 19 15
REMARK SMILES IDX 7 17 16 18 10 19 14 20 11 21 8 22 9 23 17 25 15 27 12 29
REMARK SMILES IDX 13 30
REMARK H PARENT 1 10 23 12 21 14 19 16 9 24 17 26 15 28 13 31
REMARK Flexibility Score: inf
ROOT
ATOM      1  O   UNL     1      15.298  -0.216 -47.386  1.00  0.00    -0.313 OA
ENDROOT
BRANCH   1   2
ATOM      2  C   UNL     1      14.359  -0.825 -48.268  1.00  0.00     0.285 C 
ATOM      3  C   UNL     1      12.124  -1.446 -48.621  1.00  0.00     0.178 C 
ATOM      4  C   UNL     1      12.632  -2.443 -49.720  1.00  0.00     0.177 C 
ATOM      5  O   UNL     1      13.127  -1.155 -47.654  1.00  0.00    -0.341 OA
ATOM      6  C   UNL     1      13.944  -3.130 -49.290  1.00  0.00     0.179 C 
ATOM      7  C   UNL     1      15.007  -2.064 -48.947  1.00  0.00     0.202 C 
BRANCH   3   8
ATOM      8  C   UNL     1      10.884  -1.956 -47.872  1.00  0.00     0.191 C 
BRANCH   8   9
ATOM      9  O   UNL     1      11.140  -3.233 -47.357  1.00  0.00    -0.394 OA
ATOM     10  H   UNL     1      11.468  -3.778 -48.124  1.00  0.00     0.210 HD
ENDBRANCH   8   9
ENDBRANCH   3   8
BRANCH   4  11
ATOM     11  O   UNL     1      11.653  -3.372 -50.125  1.00  0.00    -0.387 OA
ATOM     12  H   UNL     1      11.761  -3.538 -51.098  1.00  0.00     0.211 HD
ENDBRANCH   4  11
BRANCH   6  13
ATOM     13  O   UNL     1      13.710  -3.934 -48.159  1.00  0.00    -0.387 OA
ATOM     14  H   UNL     1      12.722  -4.055 -48.077  1.00  0.00     0.211 HD
ENDBRANCH   6  13
BRANCH   7  15
ATOM     15  O   UNL     1      15.669  -1.674 -50.125  1.00  0.00    -0.385 OA
ATOM     16  H   UNL     1      15.590  -0.684 -50.183  1.00  0.00     0.211 HD
ENDBRANCH   7  15
ENDBRANCH   1   2
BRANCH   1  17
ATOM     17  C   UNL     1      15.564   1.192 -47.462  1.00  0.00     0.224 C 
ATOM     18  C   UNL     1      15.195   1.908 -46.146  1.00  0.00     0.208 C 
ATOM     19  O   UNL     1      14.655   1.690 -48.424  1.00  0.00    -0.337 OA
ATOM     20  C   UNL     1      13.694   2.050 -46.251  1.00  0.00     0.180 C 
ATOM     21  C   UNL     1      13.475   2.106 -47.766  1.00  0.00     0.179 C 
BRANCH  17  22
ATOM     22  C   UNL     1      16.985   1.588 -47.984  1.00  0.00     0.225 C 
BRANCH  22  23
ATOM     23  O   UNL     1      17.069   2.939 -48.339  1.00  0.00    -0.391 OA
ATOM     24  H   UNL     1      16.913   3.452 -47.498  1.00  0.00     0.210 HD
ENDBRANCH  22  23
ENDBRANCH  17  22
BRANCH  18  25
ATOM     25  O   UNL     1      15.559   1.182 -45.000  1.00  0.00    -0.385 OA
ATOM     26  H   UNL     1      16.493   0.864 -45.140  1.00  0.00     0.211 HD
ENDBRANCH  18  25
BRANCH  20  27
ATOM     27  O   UNL     1      13.038   0.915 -45.725  1.00  0.00    -0.387 OA
ATOM     28  H   UNL     1      13.574   0.120 -45.988  1.00  0.00     0.211 HD
ENDBRANCH  20  27
BRANCH  21  29
ATOM     29  C   UNL     1      13.121   3.522 -48.250  1.00  0.00     0.191 C 
BRANCH  29  30
ATOM     30  O   UNL     1      14.000   3.937 -49.263  1.00  0.00    -0.394 OA
ATOM     31  H   UNL     1      14.868   4.133 -48.822  1.00  0.00     0.210 HD
ENDBRANCH  29  30
ENDBRANCH  21  29
ENDBRANCH   1  17
TORSDOF 13
ENDMDL
MODEL 5
REMARK VINA RESULT:    -3.942      3.146      5.087
REMARK INTER + INTRA:          -7.170
REMARK INTER:                  -6.895
REMARK INTRA:                  -0.275
REMARK UNBOUND:                -1.154
REMARK SMILES OC[C@H]1O[C@@H](O[C@@]2(CO)O[C@H](CO)[C@@H](O)[C@H]2O)[C@H](O)[C@@H](O)[C@H]1O
REMARK SMILES IDX 6 1 5 2 3 3 22 4 4 5 20 6 18 7 2 8 1 9 23 11 21 13 19 15
REMARK SMILES IDX 7 17 16 18 10 19 14 20 11 21 8 22 9 23 17 25 15 27 12 29
REMARK SMILES IDX 13 30
REMARK H PARENT 1 10 23 12 21 14 19 16 9 24 17 26 15 28 13 31
REMARK Flexibility Score: inf
ROOT
ATOM      1  O   UNL     1      13.469  -0.387 -47.216  1.00  0.00    -0.313 OA
ENDROOT
BRANCH   1   2
ATOM      2  C   UNL     1      14.823   0.057 -47.208  1.00  0.00     0.285 C 
ATOM      3  C   UNL     1      16.526   1.125 -45.996  1.00  0.00     0.178 C 
ATOM      4  C   UNL     1      17.265   1.371 -47.357  1.00  0.00     0.177 C 
ATOM      5  O   UNL     1      15.121   0.969 -46.167  1.00  0.00    -0.341 OA
ATOM      6  C   UNL     1      16.271   1.738 -48.476  1.00  0.00     0.179 C 
ATOM      7  C   UNL     1      15.190   0.642 -48.600  1.00  0.00     0.202 C 
BRANCH   3   8
ATOM      8  C   UNL     1      16.752   2.250 -44.975  1.00  0.00     0.191 C 
BRANCH   8   9
ATOM      9  O   UNL     1      18.088   2.240 -44.556  1.00  0.00    -0.394 OA
ATOM     10  H   UNL     1      18.073   1.971 -43.596  1.00  0.00     0.210 HD
ENDBRANCH   8   9
ENDBRANCH   3   8
BRANCH   4  11
ATOM     11  O   UNL     1      18.321   2.299 -47.258  1.00  0.00    -0.387 OA
ATOM     12  H   UNL     1      18.015   3.164 -47.638  1.00  0.00     0.211 HD
ENDBRANCH   4  11
BRANCH   6  13
ATOM     13  O   UNL     1      15.653   2.967 -48.178  1.00  0.00    -0.387 OA
ATOM     14  H   UNL     1      14.668   2.809 -48.157  1.00  0.00     0.211 HD
ENDBRANCH   6  13
BRANCH   7  15
ATOM     15  O   UNL     1      15.664  -0.381 -49.441  1.00  0.00    -0.385 OA
ATOM     16  H   UNL     1      14.903  -1.005 -49.590  1.00  0.00     0.211 HD
ENDBRANCH   7  15
ENDBRANCH   1   2
BRANCH   1  17
ATOM     17  C   UNL     1      12.454   0.356 -46.526  1.00  0.00     0.224 C 
ATOM     18  C   UNL     1      11.040  -0.066 -46.980  1.00  0.00     0.208 C 
ATOM     19  O   UNL     1      12.604   1.689 -46.969  1.00  0.00    -0.337 OA
ATOM     20  C   UNL     1      10.875   0.669 -48.290  1.00  0.00     0.180 C 
ATOM     21  C   UNL     1      11.772   1.895 -48.093  1.00  0.00     0.179 C 
BRANCH  17  22
ATOM     22  C   UNL     1      12.594   0.412 -44.969  1.00  0.00     0.225 C 
BRANCH  22  23
ATOM     23  O   UNL     1      11.656  -0.397 -44.316  1.00  0.00    -0.391 OA
ATOM     24  H   UNL     1      11.633  -0.079 -43.371  1.00  0.00     0.210 HD
ENDBRANCH  22  23
ENDBRANCH  17  22
BRANCH  18  25
ATOM     25  O   UNL     1      10.905  -1.453 -47.154  1.00  0.00    -0.385 OA
ATOM     26  H   UNL     1      10.762  -1.849 -46.250  1.00  0.00     0.211 HD
ENDBRANCH  18  25
BRANCH  20  27
ATOM     27  O   UNL     1      11.364  -0.100 -49.369  1.00  0.00    -0.387 OA
ATOM     28  H   UNL     1      10.656  -0.757 -49.605  1.00  0.00     0.211 HD
ENDBRANCH  20  27
BRANCH  21  29
ATOM     29  C   UNL     1      10.957   3.180 -47.867  1.00  0.00     0.191 C 
BRANCH  29  30
ATOM     30  O   UNL     1      10.875   3.485 -46.500  1.00  0.00    -0.394 OA
ATOM     31  H   UNL     1      11.418   2.802 -46.024  1.00  0.00     0.210 HD
ENDBRANCH  29  30
ENDBRANCH  21  29
ENDBRANCH   1  17
TORSDOF 13
ENDMDL
MODEL 6
REMARK VINA RESULT:    -3.907     12.758     15.996
REMARK INTER + INTRA:          -7.117
REMARK INTER:                  -5.708
REMARK INTRA:                  -1.409
REMARK UNBOUND:                -1.154
REMARK SMILES OC[C@H]1O[C@@H](O[C@@]2(CO)O[C@H](CO)[C@@H](O)[C@H]2O)[C@H](O)[C@@H](O)[C@H]1O
REMARK SMILES IDX 6 1 5 2 3 3 22 4 4 5 20 6 18 7 2 8 1 9 23 11 21 13 19 15
REMARK SMILES IDX 7 17 16 18 10 19 14 20 11 21 8 22 9 23 17 25 15 27 12 29
REMARK SMILES IDX 13 30
REMARK H PARENT 1 10 23 12 21 14 19 16 9 24 17 26 15 28 13 31
REMARK Flexibility Score: inf
ROOT
ATOM      1  O   UNL     1      28.600   0.086 -46.023  1.00  0.00    -0.313 OA
ENDROOT
BRANCH   1   2
ATOM      2  C   UNL     1      27.831  -0.171 -47.195  1.00  0.00     0.285 C 
ATOM      3  C   UNL     1      25.694  -0.224 -48.162  1.00  0.00     0.178 C 
ATOM      4  C   UNL     1      26.284  -1.146 -49.285  1.00  0.00     0.177 C 
ATOM      5  O   UNL     1      26.442  -0.300 -46.954  1.00  0.00    -0.341 OA
ATOM      6  C   UNL     1      27.290  -2.161 -48.704  1.00  0.00     0.179 C 
ATOM      7  C   UNL     1      28.400  -1.417 -47.931  1.00  0.00     0.202 C 
BRANCH   3   8
ATOM      8  C   UNL     1      24.229  -0.544 -47.827  1.00  0.00     0.191 C 
BRANCH   8   9
ATOM      9  O   UNL     1      24.052  -1.933 -47.779  1.00  0.00    -0.394 OA
ATOM     10  H   UNL     1      23.291  -2.092 -47.156  1.00  0.00     0.210 HD
ENDBRANCH   8   9
ENDBRANCH   3   8
BRANCH   4  11
ATOM     11  O   UNL     1      25.295  -1.770 -50.071  1.00  0.00    -0.387 OA
ATOM     12  H   UNL     1      25.101  -2.663 -49.682  1.00  0.00     0.211 HD
ENDBRANCH   4  11
BRANCH   6  13
ATOM     13  O   UNL     1      26.626  -3.042 -47.831  1.00  0.00    -0.387 OA
ATOM     14  H   UNL     1      25.813  -3.376 -48.305  1.00  0.00     0.211 HD
ENDBRANCH   6  13
BRANCH   7  15
ATOM     15  O   UNL     1      29.407  -1.024 -48.830  1.00  0.00    -0.385 OA
ATOM     16  H   UNL     1      30.261  -1.402 -48.487  1.00  0.00     0.211 HD
ENDBRANCH   7  15
ENDBRANCH   1   2
BRANCH   1  17
ATOM     17  C   UNL     1      29.705   1.000 -46.061  1.00  0.00     0.224 C 
ATOM     18  C   UNL     1      31.048   0.271 -45.848  1.00  0.00     0.208 C 
ATOM     19  O   UNL     1      29.545   1.823 -44.923  1.00  0.00    -0.337 OA
ATOM     20  C   UNL     1      31.089   0.074 -44.351  1.00  0.00     0.180 C 
ATOM     21  C   UNL     1      30.255   1.253 -43.842  1.00  0.00     0.179 C 
BRANCH  17  22
ATOM     22  C   UNL     1      29.737   1.975 -47.283  1.00  0.00     0.225 C 
BRANCH  22  23
ATOM     23  O   UNL     1      30.739   1.649 -48.205  1.00  0.00    -0.391 OA
ATOM     24  H   UNL     1      31.114   2.518 -48.519  1.00  0.00     0.210 HD
ENDBRANCH  22  23
ENDBRANCH  17  22
BRANCH  18  25
ATOM     25  O   UNL     1      31.124  -0.958 -46.526  1.00  0.00    -0.385 OA
ATOM     26  H   UNL     1      31.601  -1.594 -45.925  1.00  0.00     0.211 HD
ENDBRANCH  18  25
BRANCH  20  27
ATOM     27  O   UNL     1      30.464  -1.137 -43.980  1.00  0.00    -0.387 OA
ATOM     28  H   UNL     1      30.967  -1.499 -43.202  1.00  0.00     0.211 HD
ENDBRANCH  20  27
BRANCH  21  29
ATOM     29  C   UNL     1      31.125   2.347 -43.200  1.00  0.00     0.191 C 
BRANCH  29  30
ATOM     30  O   UNL     1      30.920   3.582 -43.833  1.00  0.00    -0.394 OA
ATOM     31  H   UNL     1      29.951   3.634 -44.046  1.00  0.00     0.210 HD
ENDBRANCH  29  30
ENDBRANCH  21  29
ENDBRANCH   1  17
TORSDOF 13
ENDMDL
MODEL 7
REMARK VINA RESULT:    -3.887     12.662     16.130
REMARK INTER + INTRA:          -7.086
REMARK INTER:                  -5.863
REMARK INTRA:                  -1.223
REMARK UNBOUND:                -1.154
REMARK SMILES OC[C@H]1O[C@@H](O[C@@]2(CO)O[C@H](CO)[C@@H](O)[C@H]2O)[C@H](O)[C@@H](O)[C@H]1O
REMARK SMILES IDX 6 1 5 2 3 3 22 4 4 5 20 6 18 7 2 8 1 9 23 11 21 13 19 15
REMARK SMILES IDX 7 17 16 18 10 19 14 20 11 21 8 22 9 23 17 25 15 27 12 29
REMARK SMILES IDX 13 30
REMARK H PARENT 1 10 23 12 21 14 19 16 9 24 17 26 15 28 13 31
REMARK Flexibility Score: inf
ROOT
ATOM      1  O   UNL     1      28.473   1.070 -46.776  1.00  0.00    -0.313 OA
ENDROOT
BRANCH   1   2
ATOM      2  C   UNL     1      28.569   0.104 -47.819  1.00  0.00     0.285 C 
ATOM      3  C   UNL     1      27.414  -1.218 -49.376  1.00  0.00     0.178 C 
ATOM      4  C   UNL     1      28.691  -2.123 -49.474  1.00  0.00     0.177 C 
ATOM      5  O   UNL     1      27.340  -0.522 -48.136  1.00  0.00    -0.341 OA
ATOM      6  C   UNL     1      29.348  -2.315 -48.092  1.00  0.00     0.179 C 
ATOM      7  C   UNL     1      29.666  -0.940 -47.466  1.00  0.00     0.202 C 
BRANCH   3   8
ATOM      8  C   UNL     1      26.105  -2.001 -49.553  1.00  0.00     0.191 C 
BRANCH   8   9
ATOM      9  O   UNL     1      25.835  -2.732 -48.389  1.00  0.00    -0.394 OA
ATOM     10  H   UNL     1      25.186  -2.186 -47.865  1.00  0.00     0.210 HD
ENDBRANCH   8   9
ENDBRANCH   3   8
BRANCH   4  11
ATOM     11  O   UNL     1      28.455  -3.350 -50.125  1.00  0.00    -0.387 OA
ATOM     12  H   UNL     1      29.010  -3.380 -50.949  1.00  0.00     0.211 HD
ENDBRANCH   4  11
BRANCH   6  13
ATOM     13  O   UNL     1      28.474  -3.020 -47.244  1.00  0.00    -0.387 OA
ATOM     14  H   UNL     1      27.981  -2.347 -46.696  1.00  0.00     0.211 HD
ENDBRANCH   6  13
BRANCH   7  15
ATOM     15  O   UNL     1      30.917  -0.497 -47.932  1.00  0.00    -0.385 OA
ATOM     16  H   UNL     1      31.593  -0.799 -47.267  1.00  0.00     0.211 HD
ENDBRANCH   7  15
ENDBRANCH   1   2
BRANCH   1  17
ATOM     17  C   UNL     1      29.265   2.265 -46.813  1.00  0.00     0.224 C 
ATOM     18  C   UNL     1      28.389   3.528 -46.673  1.00  0.00     0.208 C 
ATOM     19  O   UNL     1      29.791   2.322 -48.123  1.00  0.00    -0.337 OA
ATOM     20  C   UNL     1      27.824   3.700 -48.064  1.00  0.00     0.180 C 
ATOM     21  C   UNL     1      28.909   3.067 -48.939  1.00  0.00     0.179 C 
BRANCH  17  22
ATOM     22  C   UNL     1      30.506   2.287 -45.861  1.00  0.00     0.225 C 
BRANCH  22  23
ATOM     23  O   UNL     1      30.282   3.040 -44.702  1.00  0.00    -0.391 OA
ATOM     24  H   UNL     1      29.717   2.468 -44.111  1.00  0.00     0.210 HD
ENDBRANCH  22  23
ENDBRANCH  17  22
BRANCH  18  25
ATOM     25  O   UNL     1      27.365   3.389 -45.721  1.00  0.00    -0.385 OA
ATOM     26  H   UNL     1      26.647   4.036 -45.966  1.00  0.00     0.211 HD
ENDBRANCH  18  25
BRANCH  20  27
ATOM     27  O   UNL     1      26.619   2.977 -48.216  1.00  0.00    -0.387 OA
ATOM     28  H   UNL     1      26.045   3.495 -48.842  1.00  0.00     0.211 HD
ENDBRANCH  20  27
BRANCH  21  29
ATOM     29  C   UNL     1      29.727   4.121 -49.704  1.00  0.00     0.191 C 
BRANCH  29  30
ATOM     30  O   UNL     1      31.098   3.831 -49.641  1.00  0.00    -0.394 OA
ATOM     31  H   UNL     1      31.205   3.110 -48.965  1.00  0.00     0.210 HD
ENDBRANCH  29  30
ENDBRANCH  21  29
ENDBRANCH   1  17
TORSDOF 13
ENDMDL
MODEL 8
REMARK VINA RESULT:    -3.742     12.650     15.227
REMARK INTER + INTRA:          -6.866
REMARK INTER:                  -6.624
REMARK INTRA:                  -0.242
REMARK UNBOUND:                -1.154
REMARK SMILES OC[C@H]1O[C@@H](O[C@@]2(CO)O[C@H](CO)[C@@H](O)[C@H]2O)[C@H](O)[C@@H](O)[C@H]1O
REMARK SMILES IDX 6 1 5 2 3 3 22 4 4 5 20 6 18 7 2 8 1 9 23 11 21 13 19 15
REMARK SMILES IDX 7 17 16 18 10 19 14 20 11 21 8 22 9 23 17 25 15 27 12 29
REMARK SMILES IDX 13 30
REMARK H PARENT 1 10 23 12 21 14 19 16 9 24 17 26 15 28 13 31
REMARK Flexibility Score: inf
ROOT
ATOM      1  O   UNL     1      28.878   0.012 -48.319  1.00  0.00    -0.313 OA
ENDROOT
BRANCH   1   2
ATOM      2  C   UNL     1      29.687   0.750 -47.406  1.00  0.00     0.285 C 
ATOM      3  C   UNL     1      30.664   0.822 -45.274  1.00  0.00     0.178 C 
ATOM      4  C   UNL     1      30.813   2.373 -45.455  1.00  0.00     0.177 C 
ATOM      5  O   UNL     1      29.613   0.286 -46.071  1.00  0.00    -0.341 OA
ATOM      6  C   UNL     1      29.579   2.976 -46.156  1.00  0.00     0.179 C 
ATOM      7  C   UNL     1      29.339   2.262 -47.504  1.00  0.00     0.202 C 
BRANCH   3   8
ATOM      8  C   UNL     1      30.406   0.407 -43.818  1.00  0.00     0.191 C 
BRANCH   8   9
ATOM      9  O   UNL     1      30.583  -0.976 -43.686  1.00  0.00    -0.394 OA
ATOM     10  H   UNL     1      29.740  -1.393 -44.016  1.00  0.00     0.210 HD
ENDBRANCH   8   9
ENDBRANCH   3   8
BRANCH   4  11
ATOM     11  O   UNL     1      31.125   3.046 -44.257  1.00  0.00    -0.387 OA
ATOM     12  H   UNL     1      30.288   3.162 -43.735  1.00  0.00     0.211 HD
ENDBRANCH   4  11
BRANCH   6  13
ATOM     13  O   UNL     1      28.444   2.819 -45.339  1.00  0.00    -0.387 OA
ATOM     14  H   UNL     1      27.913   3.662 -45.401  1.00  0.00     0.211 HD
ENDBRANCH   6  13
BRANCH   7  15
ATOM     15  O   UNL     1      30.127   2.872 -48.497  1.00  0.00    -0.385 OA
ATOM     16  H   UNL     1      29.513   3.110 -49.243  1.00  0.00     0.211 HD
ENDBRANCH   7  15
ENDBRANCH   1   2
BRANCH   1  17
ATOM     17  C   UNL     1      27.606  -0.509 -47.910  1.00  0.00     0.224 C 
ATOM     18  C   UNL     1      27.672  -2.031 -47.664  1.00  0.00     0.208 C 
ATOM     19  O   UNL     1      26.761  -0.349 -49.032  1.00  0.00    -0.337 OA
ATOM     20  C   UNL     1      27.604  -2.599 -49.062  1.00  0.00     0.180 C 
ATOM     21  C   UNL     1      26.815  -1.525 -49.816  1.00  0.00     0.179 C 
BRANCH  17  22
ATOM     22  C   UNL     1      26.902   0.259 -46.743  1.00  0.00     0.225 C 
BRANCH  22  23
ATOM     23  O   UNL     1      25.596   0.645 -47.065  1.00  0.00    -0.391 OA
ATOM     24  H   UNL     1      25.599   0.825 -48.045  1.00  0.00     0.210 HD
ENDBRANCH  22  23
ENDBRANCH  17  22
BRANCH  18  25
ATOM     25  O   UNL     1      28.845  -2.435 -47.006  1.00  0.00    -0.385 OA
ATOM     26  H   UNL     1      28.667  -3.336 -46.619  1.00  0.00     0.211 HD
ENDBRANCH  18  25
BRANCH  20  27
ATOM     27  O   UNL     1      28.894  -2.715 -49.627  1.00  0.00    -0.387 OA
ATOM     28  H   UNL     1      28.811  -2.498 -50.593  1.00  0.00     0.211 HD
ENDBRANCH  20  27
BRANCH  21  29
ATOM     29  C   UNL     1      25.376  -1.970 -50.125  1.00  0.00     0.191 C 
BRANCH  29  30
ATOM     30  O   UNL     1      24.448  -1.073 -49.575  1.00  0.00    -0.394 OA
ATOM     31  H   UNL     1      23.628  -1.135 -50.134  1.00  0.00     0.210 HD
ENDBRANCH  29  30
ENDBRANCH  21  29
ENDBRANCH   1  17
TORSDOF 13
ENDMDL
