MODEL 1
REMARK VINA RESULT:     6.071      0.000      0.000
REMARK INTER + INTRA:          10.041
REMARK INTER:                  11.041
REMARK INTRA:                  -1.000
REMARK UNBOUND:                -1.000
REMARK SMILES CCCCCCCCCCCCCCCC(=O)[O-]
REMARK SMILES IDX 9 1 10 2 11 3 12 4 13 5 14 6 15 7 16 8 17 9 18 10 8 11 7 12
REMARK SMILES IDX 6 13 5 14 4 15 3 16 2 17 1 18
REMARK H PARENT
REMARK Flexibility Score: inf
ROOT
ATOM      1  C   UNL     1      34.582  16.026  43.798  1.00  0.00     0.000 C 
ENDROOT
BRANCH   1   2
ATOM      2  C   UNL     1      35.953  15.373  44.038  1.00  0.00     0.000 C 
BRANCH   2   3
ATOM      3  C   UNL     1      36.077  13.994  43.366  1.00  0.00     0.000 C 
BRANCH   3   4
ATOM      4  C   UNL     1      34.860  13.674  42.472  1.00  0.00     0.000 C 
BRANCH   4   5
ATOM      5  C   UNL     1      35.220  12.886  41.201  1.00  0.00     0.000 C 
BRANCH   5   6
ATOM      6  C   UNL     1      33.986  12.478  40.380  1.00  0.00     0.006 C 
BRANCH   6   7
ATOM      7  C   UNL     1      33.162  11.387  41.076  1.00  0.00     0.053 C 
BRANCH   7   8
ATOM      8  C   UNL     1      33.251  10.077  40.354  1.00  0.00     0.041 C 
ATOM      9  O   UNL     1      32.206   9.425  40.091  1.00  0.00    -0.550 OA
ATOM     10  O   UNL     1      34.487   9.590  39.946  1.00  0.00    -0.550 OA
ENDBRANCH   7   8
ENDBRANCH   6   7
ENDBRANCH   5   6
ENDBRANCH   4   5
ENDBRANCH   3   4
ENDBRANCH   2   3
ENDBRANCH   1   2
BRANCH   1  11
ATOM     11  C   UNL     1      34.696  17.399  43.119  1.00  0.00     0.000 C 
BRANCH  11  12
ATOM     12  C   UNL     1      33.634  17.560  42.024  1.00  0.00    -0.000 C 
BRANCH  12  13
ATOM     13  C   UNL     1      34.083  16.888  40.718  1.00  0.00    -0.000 C 
BRANCH  13  14
ATOM     14  C   UNL     1      34.000  17.826  39.500  1.00  0.00    -0.000 C 
BRANCH  14  15
ATOM     15  C   UNL     1      32.617  18.454  39.251  1.00  0.00    -0.000 C 
BRANCH  15  16
ATOM     16  C   UNL     1      32.029  18.086  37.878  1.00  0.00    -0.000 C 
BRANCH  16  17
ATOM     17  C   UNL     1      30.960  19.086  37.409  1.00  0.00    -0.003 C 
ATOM     18  C   UNL     1      31.142  20.477  38.013  1.00  0.00     0.004 C 
ENDBRANCH  16  17
ENDBRANCH  15  16
ENDBRANCH  14  15
ENDBRANCH  13  14
ENDBRANCH  12  13
ENDBRANCH  11  12
ENDBRANCH   1  11
TORSDOF 14
ENDMDL
MODEL 2
REMARK VINA RESULT:     6.443      3.359      6.888
REMARK INTER + INTRA:          10.717
REMARK INTER:                  11.727
REMARK INTRA:                  -1.010
REMARK UNBOUND:                -1.000
REMARK SMILES CCCCCCCCCCCCCCCC(=O)[O-]
REMARK SMILES IDX 9 1 10 2 11 3 12 4 13 5 14 6 15 7 16 8 17 9 18 10 8 11 7 12
REMARK SMILES IDX 6 13 5 14 4 15 3 16 2 17 1 18
REMARK H PARENT
REMARK Flexibility Score: inf
ROOT
ATOM      1  C   UNL     1      34.846  15.508  43.938  1.00  0.00     0.000 C 
ENDROOT
BRANCH   1   2
ATOM      2  C   UNL     1      34.739  16.962  43.451  1.00  0.00     0.000 C 
BRANCH   2   3
ATOM      3  C   UNL     1      33.417  17.242  42.714  1.00  0.00     0.000 C 
BRANCH   3   4
ATOM      4  C   UNL     1      33.639  18.034  41.408  1.00  0.00     0.000 C 
BRANCH   4   5
ATOM      5  C   UNL     1      34.076  17.156  40.222  1.00  0.00     0.000 C 
BRANCH   5   6
ATOM      6  C   UNL     1      33.485  17.623  38.883  1.00  0.00     0.006 C 
BRANCH   6   7
ATOM      7  C   UNL     1      32.461  18.752  39.063  1.00  0.00     0.053 C 
BRANCH   7   8
ATOM      8  C   UNL     1      31.504  18.823  37.913  1.00  0.00     0.041 C 
ATOM      9  O   UNL     1      31.089  19.939  37.501  1.00  0.00    -0.550 OA
ATOM     10  O   UNL     1      31.090  17.658  37.279  1.00  0.00    -0.550 OA
ENDBRANCH   7   8
ENDBRANCH   6   7
ENDBRANCH   5   6
ENDBRANCH   4   5
ENDBRANCH   3   4
ENDBRANCH   2   3
ENDBRANCH   1   2
BRANCH   1  11
ATOM     11  C   UNL     1      36.259  14.931  43.759  1.00  0.00     0.000 C 
BRANCH  11  12
ATOM     12  C   UNL     1      36.230  13.663  42.896  1.00  0.00    -0.000 C 
BRANCH  12  13
ATOM     13  C   UNL     1      34.814  13.389  42.368  1.00  0.00    -0.000 C 
BRANCH  13  14
ATOM     14  C   UNL     1      34.802  12.893  40.910  1.00  0.00    -0.000 C 
BRANCH  14  15
ATOM     15  C   UNL     1      33.448  12.352  40.415  1.00  0.00    -0.000 C 
BRANCH  15  16
ATOM     16  C   UNL     1      33.054  11.023  41.084  1.00  0.00    -0.000 C 
BRANCH  16  17
ATOM     17  C   UNL     1      32.983   9.859  40.082  1.00  0.00    -0.003 C 
ATOM     18  C   UNL     1      34.313   9.121  39.936  1.00  0.00     0.004 C 
ENDBRANCH  16  17
ENDBRANCH  15  16
ENDBRANCH  14  15
ENDBRANCH  13  14
ENDBRANCH  12  13
ENDBRANCH  11  12
ENDBRANCH   1  11
TORSDOF 14
ENDMDL
MODEL 3
REMARK VINA RESULT:     7.993     12.681     15.002
REMARK INTER + INTRA:          13.535
REMARK INTER:                  13.628
REMARK INTRA:                  -0.093
REMARK UNBOUND:                -1.000
REMARK SMILES CCCCCCCCCCCCCCCC(=O)[O-]
REMARK SMILES IDX 9 1 10 2 11 3 12 4 13 5 14 6 15 7 16 8 17 9 18 10 8 11 7 12
REMARK SMILES IDX 6 13 5 14 4 15 3 16 2 17 1 18
REMARK H PARENT
REMARK Flexibility Score: inf
ROOT
ATOM      1  C   UNL     1      21.822  22.400  45.487  1.00  0.00     0.000 C 
ENDROOT
BRANCH   1   2
ATOM      2  C   UNL     1      23.247  21.894  45.763  1.00  0.00     0.000 C 
BRANCH   2   3
ATOM      3  C   UNL     1      24.243  23.041  46.012  1.00  0.00     0.000 C 
BRANCH   3   4
ATOM      4  C   UNL     1      25.677  22.521  46.249  1.00  0.00     0.000 C 
BRANCH   4   5
ATOM      5  C   UNL     1      26.762  23.374  45.568  1.00  0.00     0.000 C 
BRANCH   5   6
ATOM      6  C   UNL     1      27.933  23.710  46.504  1.00  0.00     0.006 C 
BRANCH   6   7
ATOM      7  C   UNL     1      29.269  23.792  45.753  1.00  0.00     0.053 C 
BRANCH   7   8
ATOM      8  C   UNL     1      29.626  22.487  45.109  1.00  0.00     0.041 C 
ATOM      9  O   UNL     1      30.652  22.397  44.384  1.00  0.00    -0.550 OA
ATOM     10  O   UNL     1      28.841  21.363  45.333  1.00  0.00    -0.550 OA
ENDBRANCH   7   8
ENDBRANCH   6   7
ENDBRANCH   5   6
ENDBRANCH   4   5
ENDBRANCH   3   4
ENDBRANCH   2   3
ENDBRANCH   1   2
BRANCH   1  11
ATOM     11  C   UNL     1      20.762  21.305  45.681  1.00  0.00     0.000 C 
BRANCH  11  12
ATOM     12  C   UNL     1      19.759  21.698  46.772  1.00  0.00    -0.000 C 
BRANCH  12  13
ATOM     13  C   UNL     1      19.829  23.203  47.068  1.00  0.00    -0.000 C 
BRANCH  13  14
ATOM     14  C   UNL     1      18.910  24.039  46.157  1.00  0.00    -0.000 C 
BRANCH  14  15
ATOM     15  C   UNL     1      17.855  23.234  45.378  1.00  0.00    -0.000 C 
BRANCH  15  16
ATOM     16  C   UNL     1      16.927  24.123  44.532  1.00  0.00    -0.000 C 
BRANCH  16  17
ATOM     17  C   UNL     1      17.268  24.073  43.034  1.00  0.00    -0.003 C 
ATOM     18  C   UNL     1      18.772  24.125  42.766  1.00  0.00     0.004 C 
ENDBRANCH  16  17
ENDBRANCH  15  16
ENDBRANCH  14  15
ENDBRANCH  13  14
ENDBRANCH  12  13
ENDBRANCH  11  12
ENDBRANCH   1  11
TORSDOF 14
ENDMDL
