MODEL 1
REMARK VINA RESULT:    -4.300      0.000      0.000
REMARK INTER + INTRA:          -4.948
REMARK INTER:                  -4.677
REMARK INTRA:                  -0.271
REMARK UNBOUND:                -0.271
REMARK SMILES CC(=O)c1cc(C)ccc1O
REMARK SMILES IDX 7 1 6 2 5 3 4 4 10 5 9 6 8 7 2 8 3 9 1 10 11 11
REMARK H PARENT 11 12
REMARK Flexibility Score: inf
ROOT
ATOM      1  C   UNL     1      88.125  33.756  65.171  1.00  0.00     0.044 C 
ATOM      2  C   UNL     1      87.372  32.462  65.073  1.00  0.00    -0.050 A 
ATOM      3  C   UNL     1      85.992  32.428  65.323  1.00  0.00     0.019 A 
ATOM      4  C   UNL     1      85.273  31.218  65.262  1.00  0.00     0.059 A 
ATOM      5  C   UNL     1      85.975  30.022  64.981  1.00  0.00     0.126 A 
ATOM      6  C   UNL     1      87.357  30.061  64.745  1.00  0.00     0.047 A 
ATOM      7  C   UNL     1      88.051  31.271  64.796  1.00  0.00     0.007 A 
ENDROOT
BRANCH   4   8
ATOM      8  C   UNL     1      83.807  31.244  65.512  1.00  0.00     0.163 C 
ATOM      9  O   UNL     1      83.016  30.920  64.584  1.00  0.00    -0.294 OA
ATOM     10  C   UNL     1      83.223  31.643  66.833  1.00  0.00     0.093 C 
ENDBRANCH   4   8
BRANCH   5  11
ATOM     11  O   UNL     1      85.315  28.793  64.960  1.00  0.00    -0.507 OA
ATOM     12  H   UNL     1      85.535  28.059  65.623  1.00  0.00     0.293 HD
ENDBRANCH   5  11
TORSDOF 2
ENDMDL
MODEL 2
REMARK VINA RESULT:    -4.209      2.234      4.405
REMARK INTER + INTRA:          -4.849
REMARK INTER:                  -4.544
REMARK INTRA:                  -0.306
REMARK UNBOUND:                -0.271
REMARK SMILES CC(=O)c1cc(C)ccc1O
REMARK SMILES IDX 7 1 6 2 5 3 4 4 10 5 9 6 8 7 2 8 3 9 1 10 11 11
REMARK H PARENT 11 12
REMARK Flexibility Score: inf
ROOT
ATOM      1  C   UNL     1      82.676  30.304  64.185  1.00  0.00     0.044 C 
ATOM      2  C   UNL     1      83.674  30.789  65.194  1.00  0.00    -0.050 A 
ATOM      3  C   UNL     1      85.042  30.539  65.010  1.00  0.00     0.019 A 
ATOM      4  C   UNL     1      85.991  30.963  65.961  1.00  0.00     0.059 A 
ATOM      5  C   UNL     1      85.538  31.615  67.132  1.00  0.00     0.126 A 
ATOM      6  C   UNL     1      84.168  31.850  67.316  1.00  0.00     0.047 A 
ATOM      7  C   UNL     1      83.242  31.435  66.357  1.00  0.00     0.007 A 
ENDROOT
BRANCH   4   8
ATOM      8  C   UNL     1      87.431  30.694  65.703  1.00  0.00     0.163 C 
ATOM      9  O   UNL     1      88.125  30.136  66.596  1.00  0.00    -0.294 OA
ATOM     10  C   UNL     1      88.100  31.062  64.414  1.00  0.00     0.093 C 
ENDBRANCH   4   8
BRANCH   5  11
ATOM     11  O   UNL     1      86.435  32.008  68.125  1.00  0.00    -0.507 OA
ATOM     12  H   UNL     1      86.137  32.167  69.080  1.00  0.00     0.293 HD
ENDBRANCH   5  11
TORSDOF 2
ENDMDL
MODEL 3
REMARK VINA RESULT:    -4.066     15.286     16.206
REMARK INTER + INTRA:          -4.694
REMARK INTER:                  -4.389
REMARK INTRA:                  -0.305
REMARK UNBOUND:                -0.271
REMARK SMILES CC(=O)c1cc(C)ccc1O
REMARK SMILES IDX 7 1 6 2 5 3 4 4 10 5 9 6 8 7 2 8 3 9 1 10 11 11
REMARK H PARENT 11 12
REMARK Flexibility Score: inf
ROOT
ATOM      1  C   UNL     1      75.319  36.114  51.945  1.00  0.00     0.044 C 
ATOM      2  C   UNL     1      76.199  34.900  52.018  1.00  0.00    -0.050 A 
ATOM      3  C   UNL     1      77.552  34.987  51.659  1.00  0.00     0.019 A 
ATOM      4  C   UNL     1      78.386  33.852  51.695  1.00  0.00     0.059 A 
ATOM      5  C   UNL     1      77.826  32.607  52.064  1.00  0.00     0.126 A 
ATOM      6  C   UNL     1      76.469  32.525  52.410  1.00  0.00     0.047 A 
ATOM      7  C   UNL     1      75.660  33.661  52.382  1.00  0.00     0.007 A 
ENDROOT
BRANCH   4   8
ATOM      8  C   UNL     1      79.819  34.006  51.327  1.00  0.00     0.163 C 
ATOM      9  O   UNL     1      80.707  33.538  52.091  1.00  0.00    -0.294 OA
ATOM     10  C   UNL     1      80.257  34.702  50.074  1.00  0.00     0.093 C 
ENDBRANCH   4   8
BRANCH   5  11
ATOM     11  O   UNL     1      78.600  31.446  52.066  1.00  0.00    -0.507 OA
ATOM     12  H   UNL     1      79.612  31.480  52.100  1.00  0.00     0.293 HD
ENDBRANCH   5  11
TORSDOF 2
ENDMDL
MODEL 4
REMARK VINA RESULT:    -4.011      1.687      2.605
REMARK INTER + INTRA:          -4.634
REMARK INTER:                  -4.338
REMARK INTRA:                  -0.296
REMARK UNBOUND:                -0.271
REMARK SMILES CC(=O)c1cc(C)ccc1O
REMARK SMILES IDX 7 1 6 2 5 3 4 4 10 5 9 6 8 7 2 8 3 9 1 10 11 11
REMARK H PARENT 11 12
REMARK Flexibility Score: inf
ROOT
ATOM      1  C   UNL     1      88.125  30.482  66.791  1.00  0.00     0.044 C 
ATOM      2  C   UNL     1      87.114  31.137  65.897  1.00  0.00    -0.050 A 
ATOM      3  C   UNL     1      85.906  30.487  65.603  1.00  0.00     0.019 A 
ATOM      4  C   UNL     1      84.957  31.075  64.745  1.00  0.00     0.059 A 
ATOM      5  C   UNL     1      85.257  32.322  64.148  1.00  0.00     0.126 A 
ATOM      6  C   UNL     1      86.472  32.961  64.437  1.00  0.00     0.047 A 
ATOM      7  C   UNL     1      87.395  32.371  65.301  1.00  0.00     0.007 A 
ENDROOT
BRANCH   4   8
ATOM      8  C   UNL     1      83.682  30.353  64.486  1.00  0.00     0.163 C 
ATOM      9  O   UNL     1      82.613  31.010  64.363  1.00  0.00    -0.294 OA
ATOM     10  C   UNL     1      83.614  28.860  64.365  1.00  0.00     0.093 C 
ENDBRANCH   4   8
BRANCH   5  11
ATOM     11  O   UNL     1      84.371  32.919  63.252  1.00  0.00    -0.507 OA
ATOM     12  H   UNL     1      84.696  33.479  62.473  1.00  0.00     0.293 HD
ENDBRANCH   5  11
TORSDOF 2
ENDMDL
MODEL 5
REMARK VINA RESULT:    -3.979     15.517     16.442
REMARK INTER + INTRA:          -4.599
REMARK INTER:                  -4.297
REMARK INTRA:                  -0.303
REMARK UNBOUND:                -0.271
REMARK SMILES CC(=O)c1cc(C)ccc1O
REMARK SMILES IDX 7 1 6 2 5 3 4 4 10 5 9 6 8 7 2 8 3 9 1 10 11 11
REMARK H PARENT 11 12
REMARK Flexibility Score: inf
ROOT
ATOM      1  C   UNL     1      75.581  35.648  52.165  1.00  0.00     0.044 C 
ATOM      2  C   UNL     1      76.889  35.370  51.485  1.00  0.00    -0.050 A 
ATOM      3  C   UNL     1      77.760  34.398  52.000  1.00  0.00     0.019 A 
ATOM      4  C   UNL     1      79.003  34.143  51.390  1.00  0.00     0.059 A 
ATOM      5  C   UNL     1      79.382  34.913  50.266  1.00  0.00     0.126 A 
ATOM      6  C   UNL     1      78.512  35.892  49.763  1.00  0.00     0.047 A 
ATOM      7  C   UNL     1      77.278  36.123  50.371  1.00  0.00     0.007 A 
ENDROOT
BRANCH   4   8
ATOM      8  C   UNL     1      79.877  33.084  51.963  1.00  0.00     0.163 C 
ATOM      9  O   UNL     1      81.109  33.312  52.112  1.00  0.00    -0.294 OA
ATOM     10  C   UNL     1      79.350  31.743  52.375  1.00  0.00     0.093 C 
ENDBRANCH   4   8
BRANCH   5  11
ATOM     11  O   UNL     1      80.625  34.732  49.659  1.00  0.00    -0.507 OA
ATOM     12  H   UNL     1      80.775  34.020  48.953  1.00  0.00     0.293 HD
ENDBRANCH   5  11
TORSDOF 2
ENDMDL
MODEL 6
REMARK VINA RESULT:    -3.919      1.868      2.478
REMARK INTER + INTRA:          -4.534
REMARK INTER:                  -4.378
REMARK INTRA:                  -0.156
REMARK UNBOUND:                -0.271
REMARK SMILES CC(=O)c1cc(C)ccc1O
REMARK SMILES IDX 7 1 6 2 5 3 4 4 10 5 9 6 8 7 2 8 3 9 1 10 11 11
REMARK H PARENT 11 12
REMARK Flexibility Score: inf
ROOT
ATOM      1  C   UNL     1      88.124  30.501  63.615  1.00  0.00     0.044 C 
ATOM      2  C   UNL     1      87.296  30.871  64.810  1.00  0.00    -0.050 A 
ATOM      3  C   UNL     1      85.896  30.881  64.723  1.00  0.00     0.019 A 
ATOM      4  C   UNL     1      85.104  31.252  65.827  1.00  0.00     0.059 A 
ATOM      5  C   UNL     1      85.745  31.655  67.022  1.00  0.00     0.126 A 
ATOM      6  C   UNL     1      87.146  31.655  67.098  1.00  0.00     0.047 A 
ATOM      7  C   UNL     1      87.916  31.272  65.999  1.00  0.00     0.007 A 
ENDROOT
BRANCH   4   8
ATOM      8  C   UNL     1      83.624  31.221  65.687  1.00  0.00     0.163 C 
ATOM      9  O   UNL     1      82.903  31.603  66.650  1.00  0.00    -0.294 OA
ATOM     10  C   UNL     1      82.944  30.748  64.438  1.00  0.00     0.093 C 
ENDBRANCH   4   8
BRANCH   5  11
ATOM     11  O   UNL     1      85.004  32.079  68.125  1.00  0.00    -0.507 OA
ATOM     12  H   UNL     1      84.257  32.758  68.036  1.00  0.00     0.293 HD
ENDBRANCH   5  11
TORSDOF 2
ENDMDL
MODEL 7
REMARK VINA RESULT:    -3.815     15.639     16.358
REMARK INTER + INTRA:          -4.421
REMARK INTER:                  -4.124
REMARK INTRA:                  -0.298
REMARK UNBOUND:                -0.271
REMARK SMILES CC(=O)c1cc(C)ccc1O
REMARK SMILES IDX 7 1 6 2 5 3 4 4 10 5 9 6 8 7 2 8 3 9 1 10 11 11
REMARK H PARENT 11 12
REMARK Flexibility Score: inf
ROOT
ATOM      1  C   UNL     1      79.831  31.657  52.684  1.00  0.00     0.044 C 
ATOM      2  C   UNL     1      79.704  32.843  51.773  1.00  0.00    -0.050 A 
ATOM      3  C   UNL     1      78.602  33.704  51.885  1.00  0.00     0.019 A 
ATOM      4  C   UNL     1      78.453  34.806  51.021  1.00  0.00     0.059 A 
ATOM      5  C   UNL     1      79.418  35.013  50.007  1.00  0.00     0.126 A 
ATOM      6  C   UNL     1      80.511  34.141  49.893  1.00  0.00     0.047 A 
ATOM      7  C   UNL     1      80.650  33.062  50.766  1.00  0.00     0.007 A 
ENDROOT
BRANCH   4   8
ATOM      8  C   UNL     1      77.278  35.700  51.199  1.00  0.00     0.163 C 
ATOM      9  O   UNL     1      76.664  36.125  50.181  1.00  0.00    -0.294 OA
ATOM     10  C   UNL     1      76.787  36.124  52.550  1.00  0.00     0.093 C 
ENDBRANCH   4   8
BRANCH   5  11
ATOM     11  O   UNL     1      79.286  36.061  49.096  1.00  0.00    -0.507 OA
ATOM     12  H   UNL     1      79.143  35.894  48.107  1.00  0.00     0.293 HD
ENDBRANCH   5  11
TORSDOF 2
ENDMDL
MODEL 8
REMARK VINA RESULT:    -3.734     15.951     17.417
REMARK INTER + INTRA:          -4.333
REMARK INTER:                  -4.133
REMARK INTRA:                  -0.201
REMARK UNBOUND:                -0.271
REMARK SMILES CC(=O)c1cc(C)ccc1O
REMARK SMILES IDX 7 1 6 2 5 3 4 4 10 5 9 6 8 7 2 8 3 9 1 10 11 11
REMARK H PARENT 11 12
REMARK Flexibility Score: inf
ROOT
ATOM      1  C   UNL     1      72.376  33.483  54.358  1.00  0.00     0.044 C 
ATOM      2  C   UNL     1      73.373  34.115  53.432  1.00  0.00    -0.050 A 
ATOM      3  C   UNL     1      74.599  33.482  53.178  1.00  0.00     0.019 A 
ATOM      4  C   UNL     1      75.558  34.074  52.332  1.00  0.00     0.059 A 
ATOM      5  C   UNL     1      75.282  35.343  51.771  1.00  0.00     0.126 A 
ATOM      6  C   UNL     1      74.060  35.976  52.040  1.00  0.00     0.047 A 
ATOM      7  C   UNL     1      73.115  35.369  52.869  1.00  0.00     0.007 A 
ENDROOT
BRANCH   4   8
ATOM      8  C   UNL     1      76.831  33.348  52.077  1.00  0.00     0.163 C 
ATOM      9  O   UNL     1      77.819  33.978  51.610  1.00  0.00    -0.294 OA
ATOM     10  C   UNL     1      76.991  31.883  52.353  1.00  0.00     0.093 C 
ENDBRANCH   4   8
BRANCH   5  11
ATOM     11  O   UNL     1      76.222  35.991  50.969  1.00  0.00    -0.507 OA
ATOM     12  H   UNL     1      76.992  35.491  50.540  1.00  0.00     0.293 HD
ENDBRANCH   5  11
TORSDOF 2
ENDMDL
MODEL 9
REMARK VINA RESULT:    -3.650     15.084     15.777
REMARK INTER + INTRA:          -4.241
REMARK INTER:                  -3.997
REMARK INTRA:                  -0.244
REMARK UNBOUND:                -0.271
REMARK SMILES CC(=O)c1cc(C)ccc1O
REMARK SMILES IDX 7 1 6 2 5 3 4 4 10 5 9 6 8 7 2 8 3 9 1 10 11 11
REMARK H PARENT 11 12
REMARK Flexibility Score: inf
ROOT
ATOM      1  C   UNL     1      80.675  36.101  52.015  1.00  0.00     0.044 C 
ATOM      2  C   UNL     1      79.631  35.025  51.966  1.00  0.00    -0.050 A 
ATOM      3  C   UNL     1      78.269  35.360  52.003  1.00  0.00     0.019 A 
ATOM      4  C   UNL     1      77.276  34.361  51.985  1.00  0.00     0.059 A 
ATOM      5  C   UNL     1      77.675  33.004  51.968  1.00  0.00     0.126 A 
ATOM      6  C   UNL     1      79.038  32.676  51.944  1.00  0.00     0.047 A 
ATOM      7  C   UNL     1      80.009  33.678  51.949  1.00  0.00     0.007 A 
ENDROOT
BRANCH   4   8
ATOM      8  C   UNL     1      75.847  34.774  52.001  1.00  0.00     0.163 C 
ATOM      9  O   UNL     1      74.975  33.964  52.418  1.00  0.00    -0.294 OA
ATOM     10  C   UNL     1      75.395  36.125  51.536  1.00  0.00     0.093 C 
ENDBRANCH   4   8
BRANCH   5  11
ATOM     11  O   UNL     1      76.729  31.979  52.001  1.00  0.00    -0.507 OA
ATOM     12  H   UNL     1      76.977  31.018  51.800  1.00  0.00     0.293 HD
ENDBRANCH   5  11
TORSDOF 2
ENDMDL
