MODEL 1
REMARK VINA RESULT:    -4.732      0.000      0.000
REMARK INTER + INTRA:          -7.132
REMARK INTER:                  -6.392
REMARK INTRA:                  -0.741
REMARK UNBOUND:                -0.741
REMARK SMILES CC(=O)CCC=C(C)CCC=C(C)C
REMARK SMILES IDX 7 1 6 2 8 3 9 4 10 5 11 6 13 7 12 8 14 9 5 10 4 11 2 12 3 13
REMARK SMILES IDX 1 14
REMARK H PARENT
REMARK Flexibility Score: inf
ROOT
ATOM      1  C   UNL     1       3.317  23.781  39.108  1.00  0.00    -0.077 C 
ATOM      2  C   UNL     1       4.386  23.034  38.747  1.00  0.00    -0.028 C 
ATOM      3  C   UNL     1       3.319  24.626  40.360  1.00  0.00     0.039 C 
ENDROOT
BRANCH   1   4
ATOM      4  C   UNL     1       2.091  23.786  38.220  1.00  0.00     0.034 C 
BRANCH   4   5
ATOM      5  C   UNL     1       2.030  22.514  37.367  1.00  0.00     0.032 C 
BRANCH   5   6
ATOM      6  C   UNL     1       0.661  21.887  37.440  1.00  0.00    -0.028 C 
ATOM      7  C   UNL     1       1.273  20.382  39.346  1.00  0.00     0.039 C 
ATOM      8  C   UNL     1       0.312  20.911  38.307  1.00  0.00    -0.080 C 
ATOM      9  C   UNL     1      -1.086  20.352  38.236  1.00  0.00     0.039 C 
ENDBRANCH   5   6
ENDBRANCH   4   5
ENDBRANCH   1   4
BRANCH   2  10
ATOM     10  C   UNL     1       5.654  22.912  39.553  1.00  0.00     0.035 C 
BRANCH  10  11
ATOM     11  C   UNL     1       6.833  23.550  38.811  1.00  0.00     0.079 C 
BRANCH  11  12
ATOM     12  C   UNL     1       7.907  22.531  38.542  1.00  0.00     0.130 C 
ATOM     13  O   UNL     1       8.699  22.712  37.630  1.00  0.00    -0.300 OA
ATOM     14  C   UNL     1       8.027  21.309  39.401  1.00  0.00     0.087 C 
ENDBRANCH  11  12
ENDBRANCH  10  11
ENDBRANCH   2  10
TORSDOF 6
ENDMDL
MODEL 2
REMARK VINA RESULT:    -4.663     13.882     15.990
REMARK INTER + INTRA:          -7.039
REMARK INTER:                  -6.380
REMARK INTRA:                  -0.660
REMARK UNBOUND:                -0.741
REMARK SMILES CC(=O)CCC=C(C)CCC=C(C)C
REMARK SMILES IDX 7 1 6 2 8 3 9 4 10 5 11 6 13 7 12 8 14 9 5 10 4 11 2 12 3 13
REMARK SMILES IDX 1 14
REMARK H PARENT
REMARK Flexibility Score: inf
ROOT
ATOM      1  C   UNL     1       2.751   9.942  47.722  1.00  0.00    -0.077 C 
ATOM      2  C   UNL     1       2.738  11.203  48.214  1.00  0.00    -0.028 C 
ATOM      3  C   UNL     1       1.627   8.969  47.991  1.00  0.00     0.039 C 
ENDROOT
BRANCH   1   4
ATOM      4  C   UNL     1       3.914   9.501  46.861  1.00  0.00     0.034 C 
BRANCH   4   5
ATOM      5  C   UNL     1       5.053  10.525  46.918  1.00  0.00     0.032 C 
BRANCH   5   6
ATOM      6  C   UNL     1       6.270   9.934  47.584  1.00  0.00    -0.028 C 
ATOM      7  C   UNL     1       7.642  12.007  47.282  1.00  0.00     0.039 C 
ATOM      8  C   UNL     1       7.448  10.579  47.734  1.00  0.00    -0.080 C 
ATOM      9  C   UNL     1       8.591   9.845  48.386  1.00  0.00     0.039 C 
ENDBRANCH   5   6
ENDBRANCH   4   5
ENDBRANCH   1   4
BRANCH   2  10
ATOM     10  C   UNL     1       1.661  11.759  49.110  1.00  0.00     0.035 C 
BRANCH  10  11
ATOM     11  C   UNL     1       1.148  13.100  48.573  1.00  0.00     0.079 C 
BRANCH  11  12
ATOM     12  C   UNL     1      -0.304  13.002  48.195  1.00  0.00     0.130 C 
ATOM     13  O   UNL     1      -0.941  14.019  47.966  1.00  0.00    -0.300 OA
ATOM     14  C   UNL     1      -0.968  11.664  48.071  1.00  0.00     0.087 C 
ENDBRANCH  11  12
ENDBRANCH  10  11
ENDBRANCH   2  10
TORSDOF 6
ENDMDL
MODEL 3
REMARK VINA RESULT:    -4.482     12.900     14.667
REMARK INTER + INTRA:          -6.795
REMARK INTER:                  -6.036
REMARK INTRA:                  -0.758
REMARK UNBOUND:                -0.741
REMARK SMILES CC(=O)CCC=C(C)CCC=C(C)C
REMARK SMILES IDX 7 1 6 2 8 3 9 4 10 5 11 6 13 7 12 8 14 9 5 10 4 11 2 12 3 13
REMARK SMILES IDX 1 14
REMARK H PARENT
REMARK Flexibility Score: inf
ROOT
ATOM      1  C   UNL     1       3.072   9.844  47.403  1.00  0.00    -0.077 C 
ATOM      2  C   UNL     1       4.188  10.588  47.580  1.00  0.00    -0.028 C 
ATOM      3  C   UNL     1       2.981   8.784  46.330  1.00  0.00     0.039 C 
ENDROOT
BRANCH   1   4
ATOM      4  C   UNL     1       1.889  10.064  48.320  1.00  0.00     0.034 C 
BRANCH   4   5
ATOM      5  C   UNL     1       2.003  11.412  49.042  1.00  0.00     0.032 C 
BRANCH   5   6
ATOM      6  C   UNL     1       0.730  12.206  48.895  1.00  0.00    -0.028 C 
ATOM      7  C   UNL     1       1.506  13.373  46.819  1.00  0.00     0.039 C 
ATOM      8  C   UNL     1       0.501  13.109  47.916  1.00  0.00    -0.080 C 
ATOM      9  C   UNL     1      -0.807  13.858  47.920  1.00  0.00     0.039 C 
ENDBRANCH   5   6
ENDBRANCH   4   5
ENDBRANCH   1   4
BRANCH   2  10
ATOM     10  C   UNL     1       5.423  10.494  46.719  1.00  0.00     0.035 C 
BRANCH  10  11
ATOM     11  C   UNL     1       6.639  10.089  47.557  1.00  0.00     0.079 C 
BRANCH  11  12
ATOM     12  C   UNL     1       7.638  11.212  47.626  1.00  0.00     0.130 C 
ATOM     13  O   UNL     1       7.717  12.009  46.704  1.00  0.00    -0.300 OA
ATOM     14  C   UNL     1       8.517  11.374  48.829  1.00  0.00     0.087 C 
ENDBRANCH  11  12
ENDBRANCH  10  11
ENDBRANCH   2  10
TORSDOF 6
ENDMDL
MODEL 4
REMARK VINA RESULT:    -4.477      3.419      4.953
REMARK INTER + INTRA:          -6.788
REMARK INTER:                  -5.580
REMARK INTRA:                  -1.208
REMARK UNBOUND:                -0.741
REMARK SMILES CC(=O)CCC=C(C)CCC=C(C)C
REMARK SMILES IDX 7 1 6 2 8 3 9 4 10 5 11 6 13 7 12 8 14 9 5 10 4 11 2 12 3 13
REMARK SMILES IDX 1 14
REMARK H PARENT
REMARK Flexibility Score: inf
ROOT
ATOM      1  C   UNL     1       3.041  23.955  39.358  1.00  0.00    -0.077 C 
ATOM      2  C   UNL     1       1.982  24.710  38.985  1.00  0.00    -0.028 C 
ATOM      3  C   UNL     1       3.844  24.263  40.600  1.00  0.00     0.039 C 
ENDROOT
BRANCH   1   4
ATOM      4  C   UNL     1       3.418  22.753  38.519  1.00  0.00     0.034 C 
BRANCH   4   5
ATOM      5  C   UNL     1       2.313  22.426  37.509  1.00  0.00     0.032 C 
BRANCH   5   6
ATOM      6  C   UNL     1       1.670  21.101  37.830  1.00  0.00    -0.028 C 
ATOM      7  C   UNL     1      -0.567  22.120  38.311  1.00  0.00     0.039 C 
ATOM      8  C   UNL     1       0.383  20.949  38.216  1.00  0.00    -0.080 C 
ATOM      9  C   UNL     1      -0.110  19.563  38.544  1.00  0.00     0.039 C 
ENDBRANCH   5   6
ENDBRANCH   4   5
ENDBRANCH   1   4
BRANCH   2  10
ATOM     10  C   UNL     1       1.520  25.950  39.709  1.00  0.00     0.035 C 
BRANCH  10  11
ATOM     11  C   UNL     1       0.176  25.703  40.403  1.00  0.00     0.079 C 
BRANCH  11  12
ATOM     12  C   UNL     1       0.367  24.913  41.669  1.00  0.00     0.130 C 
ATOM     13  O   UNL     1       0.961  25.412  42.612  1.00  0.00    -0.300 OA
ATOM     14  C   UNL     1      -0.190  23.527  41.789  1.00  0.00     0.087 C 
ENDBRANCH  11  12
ENDBRANCH  10  11
ENDBRANCH   2  10
TORSDOF 6
ENDMDL
MODEL 5
REMARK VINA RESULT:    -4.474      7.721     11.148
REMARK INTER + INTRA:          -6.784
REMARK INTER:                  -6.095
REMARK INTRA:                  -0.689
REMARK UNBOUND:                -0.741
REMARK SMILES CC(=O)CCC=C(C)CCC=C(C)C
REMARK SMILES IDX 7 1 6 2 8 3 9 4 10 5 11 6 13 7 12 8 14 9 5 10 4 11 2 12 3 13
REMARK SMILES IDX 1 14
REMARK H PARENT
REMARK Flexibility Score: inf
ROOT
ATOM      1  C   UNL     1      14.432  23.732  36.986  1.00  0.00    -0.077 C 
ATOM      2  C   UNL     1      15.109  22.939  36.123  1.00  0.00    -0.028 C 
ATOM      3  C   UNL     1      15.114  24.407  38.152  1.00  0.00     0.039 C 
ENDROOT
BRANCH   1   4
ATOM      4  C   UNL     1      12.954  23.966  36.764  1.00  0.00     0.034 C 
BRANCH   4   5
ATOM      5  C   UNL     1      12.321  22.784  36.019  1.00  0.00     0.032 C 
BRANCH   5   6
ATOM      6  C   UNL     1      11.095  22.290  36.745  1.00  0.00    -0.028 C 
ATOM      7  C   UNL     1      12.398  20.753  38.233  1.00  0.00     0.039 C 
ATOM      8  C   UNL     1      11.110  21.360  37.726  1.00  0.00    -0.080 C 
ATOM      9  C   UNL     1       9.799  20.934  38.333  1.00  0.00     0.039 C 
ENDBRANCH   5   6
ENDBRANCH   4   5
ENDBRANCH   1   4
BRANCH   2  10
ATOM     10  C   UNL     1      16.572  22.596  36.246  1.00  0.00     0.035 C 
BRANCH  10  11
ATOM     11  C   UNL     1      17.305  22.870  34.928  1.00  0.00     0.079 C 
BRANCH  11  12
ATOM     12  C   UNL     1      18.414  21.875  34.720  1.00  0.00     0.130 C 
ATOM     13  O   UNL     1      18.723  21.113  35.623  1.00  0.00    -0.300 OA
ATOM     14  C   UNL     1      19.125  21.795  33.403  1.00  0.00     0.087 C 
ENDBRANCH  11  12
ENDBRANCH  10  11
ENDBRANCH   2  10
TORSDOF 6
ENDMDL
MODEL 6
REMARK VINA RESULT:    -4.456     13.801     15.091
REMARK INTER + INTRA:          -6.759
REMARK INTER:                  -6.041
REMARK INTRA:                  -0.718
REMARK UNBOUND:                -0.741
REMARK SMILES CC(=O)CCC=C(C)CCC=C(C)C
REMARK SMILES IDX 7 1 6 2 8 3 9 4 10 5 11 6 13 7 12 8 14 9 5 10 4 11 2 12 3 13
REMARK SMILES IDX 1 14
REMARK H PARENT
REMARK Flexibility Score: inf
ROOT
ATOM      1  C   UNL     1       4.174  10.362  46.919  1.00  0.00    -0.077 C 
ATOM      2  C   UNL     1       5.375   9.908  47.347  1.00  0.00    -0.028 C 
ATOM      3  C   UNL     1       3.973  11.794  46.479  1.00  0.00     0.039 C 
ENDROOT
BRANCH   1   4
ATOM      4  C   UNL     1       3.005   9.404  46.860  1.00  0.00     0.034 C 
BRANCH   4   5
ATOM      5  C   UNL     1       2.160   9.496  48.136  1.00  0.00     0.032 C 
BRANCH   5   6
ATOM      6  C   UNL     1       0.847  10.183  47.859  1.00  0.00    -0.028 C 
ATOM      7  C   UNL     1       1.435  12.207  49.211  1.00  0.00     0.039 C 
ATOM      8  C   UNL     1       0.496  11.391  48.355  1.00  0.00    -0.080 C 
ATOM      9  C   UNL     1      -0.869  11.935  48.023  1.00  0.00     0.039 C 
ENDBRANCH   5   6
ENDBRANCH   4   5
ENDBRANCH   1   4
BRANCH   2  10
ATOM     10  C   UNL     1       6.611  10.760  47.486  1.00  0.00     0.035 C 
BRANCH  10  11
ATOM     11  C   UNL     1       7.706  10.007  48.249  1.00  0.00     0.079 C 
BRANCH  11  12
ATOM     12  C   UNL     1       8.863  10.918  48.557  1.00  0.00     0.130 C 
ATOM     13  O   UNL     1       9.978  10.447  48.725  1.00  0.00    -0.300 OA
ATOM     14  C   UNL     1       8.663  12.401  48.632  1.00  0.00     0.087 C 
ENDBRANCH  11  12
ENDBRANCH  10  11
ENDBRANCH   2  10
TORSDOF 6
ENDMDL
MODEL 7
REMARK VINA RESULT:    -4.425      2.955      6.599
REMARK INTER + INTRA:          -6.717
REMARK INTER:                  -5.962
REMARK INTRA:                  -0.756
REMARK UNBOUND:                -0.741
REMARK SMILES CC(=O)CCC=C(C)CCC=C(C)C
REMARK SMILES IDX 7 1 6 2 8 3 9 4 10 5 11 6 13 7 12 8 14 9 5 10 4 11 2 12 3 13
REMARK SMILES IDX 1 14
REMARK H PARENT
REMARK Flexibility Score: inf
ROOT
ATOM      1  C   UNL     1       3.278  23.543  38.914  1.00  0.00    -0.077 C 
ATOM      2  C   UNL     1       3.163  22.354  38.278  1.00  0.00    -0.028 C 
ATOM      3  C   UNL     1       2.186  24.585  38.862  1.00  0.00     0.039 C 
ENDROOT
BRANCH   1   4
ATOM      4  C   UNL     1       4.529  23.829  39.716  1.00  0.00     0.034 C 
BRANCH   4   5
ATOM      5  C   UNL     1       5.642  22.835  39.364  1.00  0.00     0.032 C 
BRANCH   5   6
ATOM      6  C   UNL     1       6.798  23.541  38.701  1.00  0.00    -0.028 C 
ATOM      7  C   UNL     1       8.145  23.658  40.808  1.00  0.00     0.039 C 
ATOM      8  C   UNL     1       7.919  23.939  39.341  1.00  0.00    -0.080 C 
ATOM      9  C   UNL     1       8.975  24.670  38.554  1.00  0.00     0.039 C 
ENDBRANCH   5   6
ENDBRANCH   4   5
ENDBRANCH   1   4
BRANCH   2  10
ATOM     10  C   UNL     1       1.989  21.954  37.421  1.00  0.00     0.035 C 
BRANCH  10  11
ATOM     11  C   UNL     1       1.230  20.782  38.051  1.00  0.00     0.079 C 
BRANCH  11  12
ATOM     12  C   UNL     1      -0.056  21.253  38.674  1.00  0.00     0.130 C 
ATOM     13  O   UNL     1      -1.101  21.164  38.048  1.00  0.00    -0.300 OA
ATOM     14  C   UNL     1      -0.067  21.807  40.067  1.00  0.00     0.087 C 
ENDBRANCH  11  12
ENDBRANCH  10  11
ENDBRANCH   2  10
TORSDOF 6
ENDMDL
MODEL 8
REMARK VINA RESULT:    -4.412     16.995     20.803
REMARK INTER + INTRA:          -6.701
REMARK INTER:                  -6.019
REMARK INTRA:                  -0.681
REMARK UNBOUND:                -0.741
REMARK SMILES CC(=O)CCC=C(C)CCC=C(C)C
REMARK SMILES IDX 7 1 6 2 8 3 9 4 10 5 11 6 13 7 12 8 14 9 5 10 4 11 2 12 3 13
REMARK SMILES IDX 1 14
REMARK H PARENT
REMARK Flexibility Score: inf
ROOT
ATOM      1  C   UNL     1      15.072   9.674  49.534  1.00  0.00    -0.077 C 
ATOM      2  C   UNL     1      13.905   9.529  50.203  1.00  0.00    -0.028 C 
ATOM      3  C   UNL     1      15.114   9.946  48.049  1.00  0.00     0.039 C 
ENDROOT
BRANCH   1   4
ATOM      4  C   UNL     1      16.374   9.583  50.300  1.00  0.00     0.034 C 
BRANCH   4   5
ATOM      5  C   UNL     1      16.382  10.563  51.479  1.00  0.00     0.032 C 
BRANCH   5   6
ATOM      6  C   UNL     1      17.241  11.763  51.171  1.00  0.00    -0.028 C 
ATOM      7  C   UNL     1      18.759  11.381  53.125  1.00  0.00     0.039 C 
ATOM      8  C   UNL     1      18.298  12.158  51.914  1.00  0.00    -0.080 C 
ATOM      9  C   UNL     1      19.040  13.404  51.505  1.00  0.00     0.039 C 
ENDBRANCH   5   6
ENDBRANCH   4   5
ENDBRANCH   1   4
BRANCH   2  10
ATOM     10  C   UNL     1      12.542   9.563  49.559  1.00  0.00     0.035 C 
BRANCH  10  11
ATOM     11  C   UNL     1      11.605  10.504  50.322  1.00  0.00     0.079 C 
BRANCH  11  12
ATOM     12  C   UNL     1      11.285  11.721  49.498  1.00  0.00     0.130 C 
ATOM     13  O   UNL     1      10.120  12.047  49.324  1.00  0.00    -0.300 OA
ATOM     14  C   UNL     1      12.385  12.552  48.911  1.00  0.00     0.087 C 
ENDBRANCH  11  12
ENDBRANCH  10  11
ENDBRANCH   2  10
TORSDOF 6
ENDMDL
MODEL 9
REMARK VINA RESULT:    -3.781      3.495      6.496
REMARK INTER + INTRA:          -5.848
REMARK INTER:                  -4.977
REMARK INTRA:                  -0.871
REMARK UNBOUND:                -0.741
REMARK SMILES CC(=O)CCC=C(C)CCC=C(C)C
REMARK SMILES IDX 7 1 6 2 8 3 9 4 10 5 11 6 13 7 12 8 14 9 5 10 4 11 2 12 3 13
REMARK SMILES IDX 1 14
REMARK H PARENT
REMARK Flexibility Score: inf
ROOT
ATOM      1  C   UNL     1       1.030  21.785  37.890  1.00  0.00    -0.077 C 
ATOM      2  C   UNL     1       1.090  20.444  38.056  1.00  0.00    -0.028 C 
ATOM      3  C   UNL     1      -0.212  22.576  38.229  1.00  0.00     0.039 C 
ENDROOT
BRANCH   1   4
ATOM      4  C   UNL     1       2.248  22.517  37.370  1.00  0.00     0.034 C 
BRANCH   4   5
ATOM      5  C   UNL     1       2.811  23.463  38.437  1.00  0.00     0.032 C 
BRANCH   5   6
ATOM      6  C   UNL     1       4.169  23.000  38.899  1.00  0.00    -0.028 C 
ATOM      7  C   UNL     1       3.247  21.706  40.835  1.00  0.00     0.039 C 
ATOM      8  C   UNL     1       4.384  22.230  39.989  1.00  0.00    -0.080 C 
ATOM      9  C   UNL     1       5.804  21.877  40.351  1.00  0.00     0.039 C 
ENDBRANCH   5   6
ENDBRANCH   4   5
ENDBRANCH   1   4
BRANCH   2  10
ATOM     10  C   UNL     1      -0.057  19.589  38.532  1.00  0.00     0.035 C 
BRANCH  10  11
ATOM     11  C   UNL     1       0.264  18.959  39.892  1.00  0.00     0.079 C 
BRANCH  11  12
ATOM     12  C   UNL     1      -0.448  17.643  40.050  1.00  0.00     0.130 C 
ATOM     13  O   UNL     1      -0.492  17.106  41.146  1.00  0.00    -0.300 OA
ATOM     14  C   UNL     1      -1.125  17.000  38.878  1.00  0.00     0.087 C 
ENDBRANCH  11  12
ENDBRANCH  10  11
ENDBRANCH   2  10
TORSDOF 6
ENDMDL
