MODEL 1
REMARK VINA RESULT:    -4.742      0.000      0.000
REMARK INTER + INTRA:          -5.158
REMARK INTER:                  -5.158
REMARK INTRA:                   0.000
REMARK UNBOUND:                 0.000
REMARK SMILES Cc1cc(O)c2c(c1)C(=O)c1cc(O)cc(O)c1C2=O
REMARK SMILES IDX 1 1 2 2 8 3 7 4 6 5 4 6 3 7 19 8 20 9 18 10 11 11 9 12 10 13
REMARK SMILES IDX 12 14 13 15 15 16 16 17 5 18 17 20 14 22
REMARK H PARENT 5 19 17 21 14 23
REMARK Flexibility Score: inf
ROOT
ATOM      1  C   UNL     1      11.715  23.496  75.171  1.00  0.00     0.044 C 
ATOM      2  C   UNL     1      12.026  23.713  76.623  1.00  0.00    -0.047 A 
ATOM      3  C   UNL     1      12.127  25.012  77.136  1.00  0.00     0.016 A 
ATOM      4  C   UNL     1      12.381  25.226  78.502  1.00  0.00     0.038 A 
ATOM      5  C   UNL     1      12.532  24.122  79.368  1.00  0.00     0.076 A 
ATOM      6  C   UNL     1      12.403  22.814  78.852  1.00  0.00     0.127 A 
ATOM      7  C   UNL     1      12.148  22.620  77.487  1.00  0.00     0.050 A 
ATOM      8  C   UNL     1      12.842  24.366  80.801  1.00  0.00     0.201 C 
ATOM      9  O   UNL     1      13.330  23.435  81.496  1.00  0.00    -0.288 OA
ATOM     10  C   UNL     1      12.685  25.729  81.381  1.00  0.00     0.076 A 
ATOM     11  C   UNL     1      12.594  26.830  80.495  1.00  0.00     0.041 A 
ATOM     12  C   UNL     1      12.492  26.602  79.034  1.00  0.00     0.194 C 
ATOM     13  O   UNL     1      12.482  27.585  78.243  1.00  0.00    -0.289 OA
ATOM     14  C   UNL     1      12.593  28.140  81.005  1.00  0.00     0.059 A 
ATOM     15  C   UNL     1      12.663  28.367  82.381  1.00  0.00     0.120 A 
ATOM     16  C   UNL     1      12.703  27.287  83.259  1.00  0.00     0.093 A 
ATOM     17  C   UNL     1      12.679  25.973  82.783  1.00  0.00     0.131 A 
ENDROOT
BRANCH   6  18
ATOM     18  O   UNL     1      12.515  21.704  79.690  1.00  0.00    -0.507 OA
ATOM     19  H   UNL     1      11.703  21.180  79.994  1.00  0.00     0.293 HD
ENDBRANCH   6  18
BRANCH  17  20
ATOM     20  O   UNL     1      12.614  24.950  83.732  1.00  0.00    -0.507 OA
ATOM     21  H   UNL     1      13.238  24.157  83.745  1.00  0.00     0.293 HD
ENDBRANCH  17  20
BRANCH  15  22
ATOM     22  O   UNL     1      12.678  29.666  82.886  1.00  0.00    -0.508 OA
ATOM     23  H   UNL     1      12.464  29.859  83.858  1.00  0.00     0.293 HD
ENDBRANCH  15  22
TORSDOF 3
ENDMDL
MODEL 2
REMARK VINA RESULT:    -4.699     10.610     13.438
REMARK INTER + INTRA:          -5.111
REMARK INTER:                  -5.111
REMARK INTRA:                   0.000
REMARK UNBOUND:                 0.000
REMARK SMILES Cc1cc(O)c2c(c1)C(=O)c1cc(O)cc(O)c1C2=O
REMARK SMILES IDX 1 1 2 2 8 3 7 4 6 5 4 6 3 7 19 8 20 9 18 10 11 11 9 12 10 13
REMARK SMILES IDX 12 14 13 15 15 16 16 17 5 18 17 20 14 22
REMARK H PARENT 5 19 17 21 14 23
REMARK Flexibility Score: inf
ROOT
ATOM      1  C   UNL     1       7.611  23.045  73.050  1.00  0.00     0.044 C 
ATOM      2  C   UNL     1       6.393  23.472  72.283  1.00  0.00    -0.047 A 
ATOM      3  C   UNL     1       5.717  24.647  72.631  1.00  0.00     0.016 A 
ATOM      4  C   UNL     1       4.599  25.077  71.896  1.00  0.00     0.038 A 
ATOM      5  C   UNL     1       4.153  24.319  70.792  1.00  0.00     0.076 A 
ATOM      6  C   UNL     1       4.854  23.147  70.428  1.00  0.00     0.127 A 
ATOM      7  C   UNL     1       5.968  22.737  71.172  1.00  0.00     0.050 A 
ATOM      8  C   UNL     1       2.943  24.763  70.051  1.00  0.00     0.201 C 
ATOM      9  O   UNL     1       2.327  23.941  69.321  1.00  0.00    -0.288 OA
ATOM     10  C   UNL     1       2.398  26.134  70.260  1.00  0.00     0.076 A 
ATOM     11  C   UNL     1       2.813  26.855  71.405  1.00  0.00     0.041 A 
ATOM     12  C   UNL     1       3.886  26.317  72.275  1.00  0.00     0.194 C 
ATOM     13  O   UNL     1       4.205  26.927  73.332  1.00  0.00    -0.289 OA
ATOM     14  C   UNL     1       2.212  28.088  71.712  1.00  0.00     0.059 A 
ATOM     15  C   UNL     1       1.218  28.618  70.886  1.00  0.00     0.120 A 
ATOM     16  C   UNL     1       0.840  27.936  69.733  1.00  0.00     0.093 A 
ATOM     17  C   UNL     1       1.440  26.721  69.388  1.00  0.00     0.131 A 
ENDROOT
BRANCH   6  18
ATOM     18  O   UNL     1       4.456  22.395  69.322  1.00  0.00    -0.507 OA
ATOM     19  H   UNL     1       4.219  21.413  69.401  1.00  0.00     0.293 HD
ENDBRANCH   6  18
BRANCH  17  20
ATOM     20  O   UNL     1       1.081  26.157  68.162  1.00  0.00    -0.507 OA
ATOM     21  H   UNL     1       1.507  26.409  67.282  1.00  0.00     0.293 HD
ENDBRANCH  17  20
BRANCH  15  22
ATOM     22  O   UNL     1       0.609  29.832  71.198  1.00  0.00    -0.508 OA
ATOM     23  H   UNL     1      -0.008  30.300  70.544  1.00  0.00     0.293 HD
ENDBRANCH  15  22
TORSDOF 3
ENDMDL
MODEL 3
REMARK VINA RESULT:    -4.691      1.304      3.457
REMARK INTER + INTRA:          -5.102
REMARK INTER:                  -5.102
REMARK INTRA:                   0.000
REMARK UNBOUND:                 0.000
REMARK SMILES Cc1cc(O)c2c(c1)C(=O)c1cc(O)cc(O)c1C2=O
REMARK SMILES IDX 1 1 2 2 8 3 7 4 6 5 4 6 3 7 19 8 20 9 18 10 11 11 9 12 10 13
REMARK SMILES IDX 12 14 13 15 15 16 16 17 5 18 17 20 14 22
REMARK H PARENT 5 19 17 21 14 23
REMARK Flexibility Score: inf
ROOT
ATOM      1  C   UNL     1      11.390  21.765  75.000  1.00  0.00     0.044 C 
ATOM      2  C   UNL     1      11.605  22.886  75.976  1.00  0.00    -0.047 A 
ATOM      3  C   UNL     1      11.840  22.607  77.327  1.00  0.00     0.016 A 
ATOM      4  C   UNL     1      12.080  23.647  78.243  1.00  0.00     0.038 A 
ATOM      5  C   UNL     1      12.088  24.986  77.796  1.00  0.00     0.076 A 
ATOM      6  C   UNL     1      11.876  25.260  76.426  1.00  0.00     0.127 A 
ATOM      7  C   UNL     1      11.640  24.210  75.529  1.00  0.00     0.050 A 
ATOM      8  C   UNL     1      12.301  26.076  78.784  1.00  0.00     0.201 C 
ATOM      9  O   UNL     1      11.958  27.253  78.491  1.00  0.00    -0.288 OA
ATOM     10  C   UNL     1      12.807  25.762  80.149  1.00  0.00     0.076 A 
ATOM     11  C   UNL     1      12.736  24.422  80.601  1.00  0.00     0.041 A 
ATOM     12  C   UNL     1      12.322  23.345  79.671  1.00  0.00     0.194 C 
ATOM     13  O   UNL     1      12.192  22.163  80.094  1.00  0.00    -0.289 OA
ATOM     14  C   UNL     1      13.068  24.114  81.931  1.00  0.00     0.059 A 
ATOM     15  C   UNL     1      13.484  25.116  82.810  1.00  0.00     0.120 A 
ATOM     16  C   UNL     1      13.603  26.428  82.358  1.00  0.00     0.093 A 
ATOM     17  C   UNL     1      13.305  26.760  81.032  1.00  0.00     0.131 A 
ENDROOT
BRANCH   6  18
ATOM     18  O   UNL     1      11.910  26.571  75.950  1.00  0.00    -0.507 OA
ATOM     19  H   UNL     1      11.391  27.317  76.400  1.00  0.00     0.293 HD
ENDBRANCH   6  18
BRANCH  17  20
ATOM     20  O   UNL     1      13.552  28.075  80.633  1.00  0.00    -0.507 OA
ATOM     21  H   UNL     1      13.374  28.881  81.213  1.00  0.00     0.293 HD
ENDBRANCH  17  20
BRANCH  15  22
ATOM     22  O   UNL     1      13.797  24.814  84.134  1.00  0.00    -0.508 OA
ATOM     23  H   UNL     1      14.662  25.128  84.560  1.00  0.00     0.293 HD
ENDBRANCH  15  22
TORSDOF 3
ENDMDL
MODEL 4
REMARK VINA RESULT:    -4.675      1.744      6.349
REMARK INTER + INTRA:          -5.085
REMARK INTER:                  -5.085
REMARK INTRA:                   0.000
REMARK UNBOUND:                 0.000
REMARK SMILES Cc1cc(O)c2c(c1)C(=O)c1cc(O)cc(O)c1C2=O
REMARK SMILES IDX 1 1 2 2 8 3 7 4 6 5 4 6 3 7 19 8 20 9 18 10 11 11 9 12 10 13
REMARK SMILES IDX 12 14 13 15 15 16 16 17 5 18 17 20 14 22
REMARK H PARENT 5 19 17 21 14 23
REMARK Flexibility Score: inf
ROOT
ATOM      1  C   UNL     1      10.720  29.482  84.997  1.00  0.00     0.044 C 
ATOM      2  C   UNL     1      11.311  28.934  83.731  1.00  0.00    -0.047 A 
ATOM      3  C   UNL     1      11.681  27.586  83.652  1.00  0.00     0.016 A 
ATOM      4  C   UNL     1      12.200  27.053  82.460  1.00  0.00     0.038 A 
ATOM      5  C   UNL     1      12.347  27.883  81.328  1.00  0.00     0.076 A 
ATOM      6  C   UNL     1      11.948  29.236  81.404  1.00  0.00     0.127 A 
ATOM      7  C   UNL     1      11.430  29.748  82.601  1.00  0.00     0.050 A 
ATOM      8  C   UNL     1      12.937  27.314  80.087  1.00  0.00     0.201 C 
ATOM      9  O   UNL     1      13.406  28.091  79.212  1.00  0.00    -0.288 OA
ATOM     10  C   UNL     1      13.077  25.840  79.931  1.00  0.00     0.076 A 
ATOM     11  C   UNL     1      12.985  25.030  81.089  1.00  0.00     0.041 A 
ATOM     12  C   UNL     1      12.595  25.629  82.387  1.00  0.00     0.194 C 
ATOM     13  O   UNL     1      12.581  24.918  83.430  1.00  0.00    -0.289 OA
ATOM     14  C   UNL     1      13.256  23.653  81.003  1.00  0.00     0.059 A 
ATOM     15  C   UNL     1      13.600  23.072  79.780  1.00  0.00     0.120 A 
ATOM     16  C   UNL     1      13.645  23.855  78.630  1.00  0.00     0.093 A 
ATOM     17  C   UNL     1      13.354  25.222  78.680  1.00  0.00     0.131 A 
ENDROOT
BRANCH   6  18
ATOM     18  O   UNL     1      12.051  30.072  80.291  1.00  0.00    -0.507 OA
ATOM     19  H   UNL     1      12.863  30.055  79.685  1.00  0.00     0.293 HD
ENDBRANCH   6  18
BRANCH  17  20
ATOM     20  O   UNL     1      13.316  25.912  77.466  1.00  0.00    -0.507 OA
ATOM     21  H   UNL     1      14.076  26.480  77.120  1.00  0.00     0.293 HD
ENDBRANCH  17  20
BRANCH  15  22
ATOM     22  O   UNL     1      13.885  21.710  79.697  1.00  0.00    -0.508 OA
ATOM     23  H   UNL     1      14.829  21.375  79.544  1.00  0.00     0.293 HD
ENDBRANCH  15  22
TORSDOF 3
ENDMDL
MODEL 5
REMARK VINA RESULT:    -4.623     11.323     14.342
REMARK INTER + INTRA:          -5.029
REMARK INTER:                  -5.029
REMARK INTRA:                   0.000
REMARK UNBOUND:                 0.000
REMARK SMILES Cc1cc(O)c2c(c1)C(=O)c1cc(O)cc(O)c1C2=O
REMARK SMILES IDX 1 1 2 2 8 3 7 4 6 5 4 6 3 7 19 8 20 9 18 10 11 11 9 12 10 13
REMARK SMILES IDX 12 14 13 15 15 16 16 17 5 18 17 20 14 22
REMARK H PARENT 5 19 17 21 14 23
REMARK Flexibility Score: inf
ROOT
ATOM      1  C   UNL     1      -0.155  29.804  70.254  1.00  0.00     0.044 C 
ATOM      2  C   UNL     1       0.667  28.584  69.955  1.00  0.00    -0.047 A 
ATOM      3  C   UNL     1       1.635  28.145  70.866  1.00  0.00     0.016 A 
ATOM      4  C   UNL     1       2.384  26.983  70.614  1.00  0.00     0.038 A 
ATOM      5  C   UNL     1       2.156  26.246  69.432  1.00  0.00     0.076 A 
ATOM      6  C   UNL     1       1.160  26.677  68.528  1.00  0.00     0.127 A 
ATOM      7  C   UNL     1       0.422  27.838  68.798  1.00  0.00     0.050 A 
ATOM      8  C   UNL     1       2.985  25.043  69.160  1.00  0.00     0.201 C 
ATOM      9  O   UNL     1       3.058  24.594  67.984  1.00  0.00    -0.288 OA
ATOM     10  C   UNL     1       3.814  24.443  70.243  1.00  0.00     0.076 A 
ATOM     11  C   UNL     1       4.079  25.221  71.395  1.00  0.00     0.041 A 
ATOM     12  C   UNL     1       3.409  26.530  71.579  1.00  0.00     0.194 C 
ATOM     13  O   UNL     1       3.701  27.252  72.572  1.00  0.00    -0.289 OA
ATOM     14  C   UNL     1       4.975  24.746  72.369  1.00  0.00     0.059 A 
ATOM     15  C   UNL     1       5.593  23.503  72.219  1.00  0.00     0.120 A 
ATOM     16  C   UNL     1       5.298  22.712  71.112  1.00  0.00     0.093 A 
ATOM     17  C   UNL     1       4.392  23.147  70.140  1.00  0.00     0.131 A 
ENDROOT
BRANCH   6  18
ATOM     18  O   UNL     1       0.890  25.951  67.367  1.00  0.00    -0.507 OA
ATOM     19  H   UNL     1       0.941  24.940  67.346  1.00  0.00     0.293 HD
ENDBRANCH   6  18
BRANCH  17  20
ATOM     20  O   UNL     1       4.071  22.250  69.119  1.00  0.00    -0.507 OA
ATOM     21  H   UNL     1       3.689  21.330  69.280  1.00  0.00     0.293 HD
ENDBRANCH  17  20
BRANCH  15  22
ATOM     22  O   UNL     1       6.494  23.038  73.176  1.00  0.00    -0.508 OA
ATOM     23  H   UNL     1       7.420  23.438  73.271  1.00  0.00     0.293 HD
ENDBRANCH  15  22
TORSDOF 3
ENDMDL
MODEL 6
REMARK VINA RESULT:    -4.607      9.621     12.870
REMARK INTER + INTRA:          -5.011
REMARK INTER:                  -5.011
REMARK INTRA:                   0.000
REMARK UNBOUND:                 0.000
REMARK SMILES Cc1cc(O)c2c(c1)C(=O)c1cc(O)cc(O)c1C2=O
REMARK SMILES IDX 1 1 2 2 8 3 7 4 6 5 4 6 3 7 19 8 20 9 18 10 11 11 9 12 10 13
REMARK SMILES IDX 12 14 13 15 15 16 16 17 5 18 17 20 14 22
REMARK H PARENT 5 19 17 21 14 23
REMARK Flexibility Score: inf
ROOT
ATOM      1  C   UNL     1       9.206  22.810  73.246  1.00  0.00     0.044 C 
ATOM      2  C   UNL     1       8.066  23.091  72.310  1.00  0.00    -0.047 A 
ATOM      3  C   UNL     1       6.870  23.631  72.798  1.00  0.00     0.016 A 
ATOM      4  C   UNL     1       5.811  23.932  71.925  1.00  0.00     0.038 A 
ATOM      5  C   UNL     1       5.953  23.694  70.541  1.00  0.00     0.076 A 
ATOM      6  C   UNL     1       7.171  23.173  70.049  1.00  0.00     0.127 A 
ATOM      7  C   UNL     1       8.217  22.881  70.935  1.00  0.00     0.050 A 
ATOM      8  C   UNL     1       4.808  23.979  69.637  1.00  0.00     0.201 C 
ATOM      9  O   UNL     1       4.775  23.450  68.493  1.00  0.00    -0.288 OA
ATOM     10  C   UNL     1       3.655  24.789  70.120  1.00  0.00     0.076 A 
ATOM     11  C   UNL     1       3.497  24.967  71.516  1.00  0.00     0.041 A 
ATOM     12  C   UNL     1       4.547  24.497  72.449  1.00  0.00     0.194 C 
ATOM     13  O   UNL     1       4.372  24.594  73.695  1.00  0.00    -0.289 OA
ATOM     14  C   UNL     1       2.345  25.600  72.014  1.00  0.00     0.059 A 
ATOM     15  C   UNL     1       1.360  26.070  71.143  1.00  0.00     0.120 A 
ATOM     16  C   UNL     1       1.533  25.941  69.767  1.00  0.00     0.093 A 
ATOM     17  C   UNL     1       2.681  25.340  69.242  1.00  0.00     0.131 A 
ENDROOT
BRANCH   6  18
ATOM     18  O   UNL     1       7.353  22.957  68.683  1.00  0.00    -0.507 OA
ATOM     19  H   UNL     1       7.758  23.664  68.080  1.00  0.00     0.293 HD
ENDBRANCH   6  18
BRANCH  17  20
ATOM     20  O   UNL     1       2.827  25.347  67.853  1.00  0.00    -0.507 OA
ATOM     21  H   UNL     1       2.286  25.934  67.235  1.00  0.00     0.293 HD
ENDBRANCH  17  20
BRANCH  15  22
ATOM     22  O   UNL     1       0.209  26.683  71.636  1.00  0.00    -0.508 OA
ATOM     23  H   UNL     1       0.255  27.532  72.188  1.00  0.00     0.293 HD
ENDBRANCH  15  22
TORSDOF 3
ENDMDL
MODEL 7
REMARK VINA RESULT:    -4.525      3.096      4.173
REMARK INTER + INTRA:          -4.922
REMARK INTER:                  -4.922
REMARK INTRA:                   0.000
REMARK UNBOUND:                 0.000
REMARK SMILES Cc1cc(O)c2c(c1)C(=O)c1cc(O)cc(O)c1C2=O
REMARK SMILES IDX 1 1 2 2 8 3 7 4 6 5 4 6 3 7 19 8 20 9 18 10 11 11 9 12 10 13
REMARK SMILES IDX 12 14 13 15 15 16 16 17 5 18 17 20 14 22
REMARK H PARENT 5 19 17 21 14 23
REMARK Flexibility Score: inf
ROOT
ATOM      1  C   UNL     1      13.575  17.769  77.339  1.00  0.00     0.044 C 
ATOM      2  C   UNL     1      14.085  18.940  78.127  1.00  0.00    -0.047 A 
ATOM      3  C   UNL     1      13.359  20.137  78.160  1.00  0.00     0.016 A 
ATOM      4  C   UNL     1      13.808  21.227  78.925  1.00  0.00     0.038 A 
ATOM      5  C   UNL     1      15.001  21.116  79.671  1.00  0.00     0.076 A 
ATOM      6  C   UNL     1      15.717  19.898  79.655  1.00  0.00     0.127 A 
ATOM      7  C   UNL     1      15.252  18.821  78.888  1.00  0.00     0.050 A 
ATOM      8  C   UNL     1      15.484  22.292  80.440  1.00  0.00     0.201 C 
ATOM      9  O   UNL     1      16.690  22.342  80.803  1.00  0.00    -0.288 OA
ATOM     10  C   UNL     1      14.582  23.453  80.681  1.00  0.00     0.076 A 
ATOM     11  C   UNL     1      13.420  23.578  79.881  1.00  0.00     0.041 A 
ATOM     12  C   UNL     1      13.038  22.491  78.949  1.00  0.00     0.194 C 
ATOM     13  O   UNL     1      12.042  22.635  78.188  1.00  0.00    -0.289 OA
ATOM     14  C   UNL     1      12.624  24.733  79.978  1.00  0.00     0.059 A 
ATOM     15  C   UNL     1      12.960  25.753  80.870  1.00  0.00     0.120 A 
ATOM     16  C   UNL     1      14.074  25.614  81.693  1.00  0.00     0.093 A 
ATOM     17  C   UNL     1      14.869  24.465  81.638  1.00  0.00     0.131 A 
ENDROOT
BRANCH   6  18
ATOM     18  O   UNL     1      16.882  19.748  80.408  1.00  0.00    -0.507 OA
ATOM     19  H   UNL     1      16.899  19.922  81.406  1.00  0.00     0.293 HD
ENDBRANCH   6  18
BRANCH  17  20
ATOM     20  O   UNL     1      15.903  24.358  82.570  1.00  0.00    -0.507 OA
ATOM     21  H   UNL     1      16.281  25.142  83.082  1.00  0.00     0.293 HD
ENDBRANCH  17  20
BRANCH  15  22
ATOM     22  O   UNL     1      12.182  26.907  80.955  1.00  0.00    -0.508 OA
ATOM     23  H   UNL     1      12.361  27.617  81.656  1.00  0.00     0.293 HD
ENDBRANCH  15  22
TORSDOF 3
ENDMDL
MODEL 8
REMARK VINA RESULT:    -4.499      1.470      3.354
REMARK INTER + INTRA:          -4.894
REMARK INTER:                  -4.894
REMARK INTRA:                   0.000
REMARK UNBOUND:                 0.000
REMARK SMILES Cc1cc(O)c2c(c1)C(=O)c1cc(O)cc(O)c1C2=O
REMARK SMILES IDX 1 1 2 2 8 3 7 4 6 5 4 6 3 7 19 8 20 9 18 10 11 11 9 12 10 13
REMARK SMILES IDX 12 14 13 15 15 16 16 17 5 18 17 20 14 22
REMARK H PARENT 5 19 17 21 14 23
REMARK Flexibility Score: inf
ROOT
ATOM      1  C   UNL     1      13.405  20.670  79.253  1.00  0.00     0.044 C 
ATOM      2  C   UNL     1      13.122  22.143  79.199  1.00  0.00    -0.047 A 
ATOM      3  C   UNL     1      13.065  22.894  80.379  1.00  0.00     0.016 A 
ATOM      4  C   UNL     1      12.838  24.280  80.337  1.00  0.00     0.038 A 
ATOM      5  C   UNL     1      12.671  24.926  79.093  1.00  0.00     0.076 A 
ATOM      6  C   UNL     1      12.756  24.169  77.903  1.00  0.00     0.127 A 
ATOM      7  C   UNL     1      12.985  22.787  77.965  1.00  0.00     0.050 A 
ATOM      8  C   UNL     1      12.390  26.385  79.067  1.00  0.00     0.201 C 
ATOM      9  O   UNL     1      11.888  26.901  78.033  1.00  0.00    -0.288 OA
ATOM     10  C   UNL     1      12.592  27.209  80.292  1.00  0.00     0.076 A 
ATOM     11  C   UNL     1      12.699  26.545  81.538  1.00  0.00     0.041 A 
ATOM     12  C   UNL     1      12.772  25.066  81.589  1.00  0.00     0.194 C 
ATOM     13  O   UNL     1      12.796  24.474  82.704  1.00  0.00    -0.289 OA
ATOM     14  C   UNL     1      12.743  27.293  82.728  1.00  0.00     0.059 A 
ATOM     15  C   UNL     1      12.701  28.688  82.691  1.00  0.00     0.120 A 
ATOM     16  C   UNL     1      12.645  29.347  81.466  1.00  0.00     0.093 A 
ATOM     17  C   UNL     1      12.626  28.630  80.266  1.00  0.00     0.131 A 
ENDROOT
BRANCH   6  18
ATOM     18  O   UNL     1      12.627  24.784  76.657  1.00  0.00    -0.507 OA
ATOM     19  H   UNL     1      12.286  25.734  76.564  1.00  0.00     0.293 HD
ENDBRANCH   6  18
BRANCH  17  20
ATOM     20  O   UNL     1      12.679  29.368  79.081  1.00  0.00    -0.507 OA
ATOM     21  H   UNL     1      11.901  29.897  78.714  1.00  0.00     0.293 HD
ENDBRANCH  17  20
BRANCH  15  22
ATOM     22  O   UNL     1      12.728  29.430  83.871  1.00  0.00    -0.508 OA
ATOM     23  H   UNL     1      12.060  29.268  84.616  1.00  0.00     0.293 HD
ENDBRANCH  15  22
TORSDOF 3
ENDMDL
MODEL 9
REMARK VINA RESULT:    -4.498      2.603      6.516
REMARK INTER + INTRA:          -4.892
REMARK INTER:                  -4.892
REMARK INTRA:                   0.000
REMARK UNBOUND:                 0.000
REMARK SMILES Cc1cc(O)c2c(c1)C(=O)c1cc(O)cc(O)c1C2=O
REMARK SMILES IDX 1 1 2 2 8 3 7 4 6 5 4 6 3 7 19 8 20 9 18 10 11 11 9 12 10 13
REMARK SMILES IDX 12 14 13 15 15 16 16 17 5 18 17 20 14 22
REMARK H PARENT 5 19 17 21 14 23
REMARK Flexibility Score: inf
ROOT
ATOM      1  C   UNL     1      16.299  27.757  84.303  1.00  0.00     0.044 C 
ATOM      2  C   UNL     1      15.493  26.937  83.338  1.00  0.00    -0.047 A 
ATOM      3  C   UNL     1      16.027  25.764  82.793  1.00  0.00     0.016 A 
ATOM      4  C   UNL     1      15.268  24.969  81.917  1.00  0.00     0.038 A 
ATOM      5  C   UNL     1      13.950  25.353  81.587  1.00  0.00     0.076 A 
ATOM      6  C   UNL     1      13.405  26.523  82.161  1.00  0.00     0.127 A 
ATOM      7  C   UNL     1      14.178  27.302  83.033  1.00  0.00     0.050 A 
ATOM      8  C   UNL     1      13.175  24.523  80.628  1.00  0.00     0.201 C 
ATOM      9  O   UNL     1      12.171  25.021  80.050  1.00  0.00    -0.288 OA
ATOM     10  C   UNL     1      13.646  23.157  80.266  1.00  0.00     0.076 A 
ATOM     11  C   UNL     1      14.989  22.812  80.553  1.00  0.00     0.041 A 
ATOM     12  C   UNL     1      15.842  23.733  81.340  1.00  0.00     0.194 C 
ATOM     13  O   UNL     1      17.058  23.455  81.534  1.00  0.00    -0.289 OA
ATOM     14  C   UNL     1      15.510  21.589  80.096  1.00  0.00     0.059 A 
ATOM     15  C   UNL     1      14.709  20.701  79.375  1.00  0.00     0.120 A 
ATOM     16  C   UNL     1      13.374  21.014  79.132  1.00  0.00     0.093 A 
ATOM     17  C   UNL     1      12.821  22.212  79.597  1.00  0.00     0.131 A 
ENDROOT
BRANCH   6  18
ATOM     18  O   UNL     1      12.095  26.911  81.879  1.00  0.00    -0.507 OA
ATOM     19  H   UNL     1      11.322  26.661  82.485  1.00  0.00     0.293 HD
ENDBRANCH   6  18
BRANCH  17  20
ATOM     20  O   UNL     1      11.451  22.400  79.405  1.00  0.00    -0.507 OA
ATOM     21  H   UNL     1      11.060  23.125  78.821  1.00  0.00     0.293 HD
ENDBRANCH  17  20
BRANCH  15  22
ATOM     22  O   UNL     1      15.228  19.496  78.907  1.00  0.00    -0.508 OA
ATOM     23  H   UNL     1      15.372  18.705  79.524  1.00  0.00     0.293 HD
ENDBRANCH  15  22
TORSDOF 3
ENDMDL
