MODEL 1
REMARK VINA RESULT:    -6.175      0.000      0.000
REMARK INTER + INTRA:          -9.106
REMARK INTER:                  -8.160
REMARK INTRA:                  -0.946
REMARK UNBOUND:                -0.946
REMARK SMILES CC(C)=CCC[C@H](C(=O)[O-])[C@H]1CC[C@@]2(C)C3=C(CC[C@@]12C)[C@]1(C)CC[C@H](O)C(C)(C)[C@H]1CC3
REMARK SMILES IDX 6 1 7 2 8 3 9 4 10 5 11 6 12 7 20 8 13 9 14 10 19 11 21 12
REMARK SMILES IDX 15 13 16 14 18 15 17 16 33 17 22 18 32 19 31 20 24 21 23 22
REMARK SMILES IDX 28 23 25 24 26 25 29 26 30 27 27 28 5 30 4 31 2 32 1 33 3 34
REMARK H PARENT 27 29
REMARK Flexibility Score: inf
ROOT
ATOM      1  C   UNL     1      -5.814  30.165  47.250  1.00  0.00     0.014 C 
ENDROOT
BRANCH   1   2
ATOM      2  C   UNL     1      -6.182  29.029  46.244  1.00  0.00     0.039 C 
BRANCH   2   3
ATOM      3  C   UNL     1      -5.077  28.006  46.149  1.00  0.00     0.045 C 
ATOM      4  O   UNL     1      -3.876  28.383  46.093  1.00  0.00    -0.550 OA
ATOM      5  O   UNL     1      -5.359  26.643  46.157  1.00  0.00    -0.550 OA
ENDBRANCH   2   3
BRANCH   2   6
ATOM      6  C   UNL     1      -6.710  29.443  44.818  1.00  0.00     0.004 C 
ATOM      7  C   UNL     1      -5.919  28.847  43.653  1.00  0.00     0.006 C 
ATOM      8  C   UNL     1      -8.215  29.279  44.414  1.00  0.00    -0.020 C 
ATOM      9  C   UNL     1      -6.805  28.954  42.413  1.00  0.00     0.012 C 
ATOM     10  C   UNL     1      -8.187  29.503  42.852  1.00  0.00    -0.006 C 
ATOM     11  C   UNL     1      -8.719  27.851  44.713  1.00  0.00     0.012 C 
ATOM     12  C   UNL     1      -9.129  30.308  45.147  1.00  0.00     0.012 C 
ATOM     13  C   UNL     1      -8.249  31.024  42.498  1.00  0.00     0.017 C 
ATOM     14  C   UNL     1      -9.301  28.763  42.064  1.00  0.00    -0.064 C 
ATOM     15  C   UNL     1     -10.111  27.617  44.139  1.00  0.00     0.032 C 
ATOM     16  C   UNL     1     -10.167  27.872  42.640  1.00  0.00    -0.064 C 
ATOM     17  C   UNL     1      -9.426  29.076  40.580  1.00  0.00     0.032 C 
ATOM     18  C   UNL     1     -11.302  27.256  41.778  1.00  0.00    -0.008 C 
ATOM     19  C   UNL     1      -9.892  27.912  39.690  1.00  0.00     0.009 C 
ATOM     20  C   UNL     1     -10.641  26.776  40.435  1.00  0.00     0.007 C 
ATOM     21  C   UNL     1     -11.941  26.016  42.478  1.00  0.00     0.014 C 
ATOM     22  C   UNL     1     -12.387  28.358  41.589  1.00  0.00     0.016 C 
ATOM     23  C   UNL     1     -11.535  25.870  39.493  1.00  0.00    -0.006 C 
ATOM     24  C   UNL     1     -12.874  25.196  41.574  1.00  0.00     0.033 C 
ATOM     25  C   UNL     1     -12.142  24.694  40.321  1.00  0.00     0.120 C 
ATOM     26  C   UNL     1     -10.652  25.264  38.369  1.00  0.00     0.014 C 
ATOM     27  C   UNL     1     -12.683  26.640  38.783  1.00  0.00     0.014 C 
BRANCH  25  28
ATOM     28  O   UNL     1     -11.132  23.791  40.703  1.00  0.00    -0.393 OA
ATOM     29  H   UNL     1     -11.527  22.881  40.673  1.00  0.00     0.210 HD
ENDBRANCH  25  28
ENDBRANCH   2   6
ENDBRANCH   1   2
BRANCH   1  30
ATOM     30  C   UNL     1      -6.028  31.596  46.695  1.00  0.00     0.028 C 
BRANCH  30  31
ATOM     31  C   UNL     1      -6.582  32.544  47.733  1.00  0.00    -0.028 C 
ATOM     32  C   UNL     1      -5.826  33.359  48.500  1.00  0.00    -0.080 C 
ATOM     33  C   UNL     1      -6.515  34.230  49.518  1.00  0.00     0.039 C 
ATOM     34  C   UNL     1      -4.321  33.408  48.373  1.00  0.00     0.039 C 
ENDBRANCH  30  31
ENDBRANCH   1  30
TORSDOF 6
ENDMDL
MODEL 2
REMARK VINA RESULT:    -6.093      0.925      1.167
REMARK INTER + INTRA:          -8.997
REMARK INTER:                  -7.518
REMARK INTRA:                  -1.480
REMARK UNBOUND:                -0.946
REMARK SMILES CC(C)=CCC[C@H](C(=O)[O-])[C@H]1CC[C@@]2(C)C3=C(CC[C@@]12C)[C@]1(C)CC[C@H](O)C(C)(C)[C@H]1CC3
REMARK SMILES IDX 6 1 7 2 8 3 9 4 10 5 11 6 12 7 20 8 13 9 14 10 19 11 21 12
REMARK SMILES IDX 15 13 16 14 18 15 17 16 33 17 22 18 32 19 31 20 24 21 23 22
REMARK SMILES IDX 28 23 25 24 26 25 29 26 30 27 27 28 5 30 4 31 2 32 1 33 3 34
REMARK H PARENT 27 29
REMARK Flexibility Score: inf
ROOT
ATOM      1  C   UNL     1      -6.158  29.879  47.258  1.00  0.00     0.014 C 
ENDROOT
BRANCH   1   2
ATOM      2  C   UNL     1      -6.342  28.769  46.174  1.00  0.00     0.039 C 
BRANCH   2   3
ATOM      3  C   UNL     1      -5.129  27.875  46.098  1.00  0.00     0.045 C 
ATOM      4  O   UNL     1      -3.977  28.383  46.049  1.00  0.00    -0.550 OA
ATOM      5  O   UNL     1      -5.257  26.490  46.118  1.00  0.00    -0.550 OA
ENDBRANCH   2   3
BRANCH   2   6
ATOM      6  C   UNL     1      -6.828  29.206  44.740  1.00  0.00     0.004 C 
ATOM      7  C   UNL     1      -6.086  28.528  43.587  1.00  0.00     0.006 C 
ATOM      8  C   UNL     1      -8.339  29.164  44.331  1.00  0.00    -0.020 C 
ATOM      9  C   UNL     1      -6.955  28.692  42.342  1.00  0.00     0.012 C 
ATOM     10  C   UNL     1      -8.287  29.362  42.767  1.00  0.00    -0.006 C 
ATOM     11  C   UNL     1      -8.964  27.788  44.647  1.00  0.00     0.012 C 
ATOM     12  C   UNL     1      -9.165  30.276  45.045  1.00  0.00     0.012 C 
ATOM     13  C   UNL     1      -8.218  30.878  42.391  1.00  0.00     0.017 C 
ATOM     14  C   UNL     1      -9.457  28.707  41.984  1.00  0.00    -0.064 C 
ATOM     15  C   UNL     1     -10.368  27.664  44.071  1.00  0.00     0.032 C 
ATOM     16  C   UNL     1     -10.397  27.902  42.568  1.00  0.00    -0.064 C 
ATOM     17  C   UNL     1      -9.550  29.008  40.494  1.00  0.00     0.032 C 
ATOM     18  C   UNL     1     -11.577  27.371  41.709  1.00  0.00    -0.008 C 
ATOM     19  C   UNL     1     -10.109  27.875  39.619  1.00  0.00     0.009 C 
ATOM     20  C   UNL     1     -10.954  26.817  40.377  1.00  0.00     0.007 C 
ATOM     21  C   UNL     1     -12.321  26.200  42.424  1.00  0.00     0.014 C 
ATOM     22  C   UNL     1     -12.564  28.558  41.499  1.00  0.00     0.016 C 
ATOM     23  C   UNL     1     -11.918  25.977  39.444  1.00  0.00    -0.006 C 
ATOM     24  C   UNL     1     -13.317  25.448  41.527  1.00  0.00     0.033 C 
ATOM     25  C   UNL     1     -12.625  24.868  40.285  1.00  0.00     0.120 C 
ATOM     26  C   UNL     1     -11.085  25.281  38.332  1.00  0.00     0.014 C 
ATOM     27  C   UNL     1     -12.994  26.831  38.717  1.00  0.00     0.014 C 
BRANCH  25  28
ATOM     28  O   UNL     1     -11.697  23.889  40.684  1.00  0.00    -0.393 OA
ATOM     29  H   UNL     1     -12.010  23.525  41.553  1.00  0.00     0.210 HD
ENDBRANCH  25  28
ENDBRANCH   2   6
ENDBRANCH   1   2
BRANCH   1  30
ATOM     30  C   UNL     1      -5.665  31.237  46.696  1.00  0.00     0.028 C 
BRANCH  30  31
ATOM     31  C   UNL     1      -6.688  32.337  46.858  1.00  0.00    -0.028 C 
ATOM     32  C   UNL     1      -7.025  33.212  45.886  1.00  0.00    -0.080 C 
ATOM     33  C   UNL     1      -8.041  34.279  46.201  1.00  0.00     0.039 C 
ATOM     34  C   UNL     1      -6.404  33.158  44.510  1.00  0.00     0.039 C 
ENDBRANCH  30  31
ENDBRANCH   1  30
TORSDOF 6
ENDMDL
MODEL 3
REMARK VINA RESULT:    -5.825      2.512      3.832
REMARK INTER + INTRA:          -8.644
REMARK INTER:                  -7.084
REMARK INTRA:                  -1.561
REMARK UNBOUND:                -0.946
REMARK SMILES CC(C)=CCC[C@H](C(=O)[O-])[C@H]1CC[C@@]2(C)C3=C(CC[C@@]12C)[C@]1(C)CC[C@H](O)C(C)(C)[C@H]1CC3
REMARK SMILES IDX 6 1 7 2 8 3 9 4 10 5 11 6 12 7 20 8 13 9 14 10 19 11 21 12
REMARK SMILES IDX 15 13 16 14 18 15 17 16 33 17 22 18 32 19 31 20 24 21 23 22
REMARK SMILES IDX 28 23 25 24 26 25 29 26 30 27 27 28 5 30 4 31 2 32 1 33 3 34
REMARK H PARENT 27 29
REMARK Flexibility Score: inf
ROOT
ATOM      1  C   UNL     1      -4.682  32.763  44.106  1.00  0.00     0.014 C 
ENDROOT
BRANCH   1   2
ATOM      2  C   UNL     1      -6.118  32.487  43.557  1.00  0.00     0.039 C 
BRANCH   2   3
ATOM      3  C   UNL     1      -6.949  33.746  43.547  1.00  0.00     0.045 C 
ATOM      4  O   UNL     1      -6.769  34.624  44.432  1.00  0.00    -0.550 OA
ATOM      5  O   UNL     1      -7.893  33.974  42.550  1.00  0.00    -0.550 OA
ENDBRANCH   2   3
BRANCH   2   6
ATOM      6  C   UNL     1      -6.921  31.270  44.156  1.00  0.00     0.004 C 
ATOM      7  C   UNL     1      -8.246  31.651  44.817  1.00  0.00     0.006 C 
ATOM      8  C   UNL     1      -7.241  29.993  43.308  1.00  0.00    -0.020 C 
ATOM      9  C   UNL     1      -9.078  30.373  44.914  1.00  0.00     0.012 C 
ATOM     10  C   UNL     1      -8.304  29.238  44.196  1.00  0.00    -0.006 C 
ATOM     11  C   UNL     1      -7.885  30.369  41.957  1.00  0.00     0.012 C 
ATOM     12  C   UNL     1      -5.966  29.135  43.046  1.00  0.00     0.012 C 
ATOM     13  C   UNL     1      -7.608  28.353  45.281  1.00  0.00     0.017 C 
ATOM     14  C   UNL     1      -9.310  28.357  43.408  1.00  0.00    -0.064 C 
ATOM     15  C   UNL     1      -8.388  29.138  41.213  1.00  0.00     0.032 C 
ATOM     16  C   UNL     1      -9.377  28.330  42.040  1.00  0.00    -0.064 C 
ATOM     17  C   UNL     1     -10.247  27.475  44.221  1.00  0.00     0.032 C 
ATOM     18  C   UNL     1     -10.361  27.346  41.351  1.00  0.00    -0.008 C 
ATOM     19  C   UNL     1     -11.642  27.248  43.615  1.00  0.00     0.009 C 
ATOM     20  C   UNL     1     -11.741  27.495  42.087  1.00  0.00     0.007 C 
ATOM     21  C   UNL     1     -10.567  27.706  39.846  1.00  0.00     0.014 C 
ATOM     22  C   UNL     1      -9.739  25.921  41.460  1.00  0.00     0.016 C 
ATOM     23  C   UNL     1     -12.985  26.795  41.402  1.00  0.00    -0.006 C 
ATOM     24  C   UNL     1     -11.725  26.953  39.173  1.00  0.00     0.033 C 
ATOM     25  C   UNL     1     -13.055  27.207  39.898  1.00  0.00     0.120 C 
ATOM     26  C   UNL     1     -14.292  27.270  42.094  1.00  0.00     0.014 C 
ATOM     27  C   UNL     1     -12.972  25.245  41.507  1.00  0.00     0.014 C 
BRANCH  25  28
ATOM     28  O   UNL     1     -13.398  28.567  39.778  1.00  0.00    -0.393 OA
ATOM     29  H   UNL     1     -12.990  29.041  40.549  1.00  0.00     0.210 HD
ENDBRANCH  25  28
ENDBRANCH   2   6
ENDBRANCH   1   2
BRANCH   1  30
ATOM     30  C   UNL     1      -4.366  32.043  45.442  1.00  0.00     0.028 C 
BRANCH  30  31
ATOM     31  C   UNL     1      -4.838  32.824  46.646  1.00  0.00    -0.028 C 
ATOM     32  C   UNL     1      -5.626  32.319  47.620  1.00  0.00    -0.080 C 
ATOM     33  C   UNL     1      -6.044  33.226  48.748  1.00  0.00     0.039 C 
ATOM     34  C   UNL     1      -6.106  30.887  47.598  1.00  0.00     0.039 C 
ENDBRANCH  30  31
ENDBRANCH   1  30
TORSDOF 6
ENDMDL
MODEL 4
REMARK VINA RESULT:    -5.675     13.082     16.335
REMARK INTER + INTRA:          -8.446
REMARK INTER:                  -8.197
REMARK INTRA:                  -0.249
REMARK UNBOUND:                -0.946
REMARK SMILES CC(C)=CCC[C@H](C(=O)[O-])[C@H]1CC[C@@]2(C)C3=C(CC[C@@]12C)[C@]1(C)CC[C@H](O)C(C)(C)[C@H]1CC3
REMARK SMILES IDX 6 1 7 2 8 3 9 4 10 5 11 6 12 7 20 8 13 9 14 10 19 11 21 12
REMARK SMILES IDX 15 13 16 14 18 15 17 16 33 17 22 18 32 19 31 20 24 21 23 22
REMARK SMILES IDX 28 23 25 24 26 25 29 26 30 27 27 28 5 30 4 31 2 32 1 33 3 34
REMARK H PARENT 27 29
REMARK Flexibility Score: inf
ROOT
ATOM      1  C   UNL     1     -20.115  23.160  34.792  1.00  0.00     0.014 C 
ENDROOT
BRANCH   1   2
ATOM      2  C   UNL     1     -19.447  23.517  33.426  1.00  0.00     0.039 C 
BRANCH   2   3
ATOM      3  C   UNL     1     -18.129  22.801  33.259  1.00  0.00     0.045 C 
ATOM      4  O   UNL     1     -17.378  23.088  32.289  1.00  0.00    -0.550 OA
ATOM      5  O   UNL     1     -17.709  21.849  34.183  1.00  0.00    -0.550 OA
ENDBRANCH   2   3
BRANCH   2   6
ATOM      6  C   UNL     1     -19.331  25.039  33.033  1.00  0.00     0.004 C 
ATOM      7  C   UNL     1     -20.594  25.627  32.403  1.00  0.00     0.006 C 
ATOM      8  C   UNL     1     -18.844  26.122  34.055  1.00  0.00    -0.020 C 
ATOM      9  C   UNL     1     -20.482  27.147  32.517  1.00  0.00     0.012 C 
ATOM     10  C   UNL     1     -19.205  27.477  33.332  1.00  0.00    -0.006 C 
ATOM     11  C   UNL     1     -19.630  26.030  35.380  1.00  0.00     0.012 C 
ATOM     12  C   UNL     1     -17.320  25.994  34.355  1.00  0.00     0.012 C 
ATOM     13  C   UNL     1     -18.079  27.901  32.333  1.00  0.00     0.017 C 
ATOM     14  C   UNL     1     -19.502  28.668  34.281  1.00  0.00    -0.064 C 
ATOM     15  C   UNL     1     -19.314  27.200  36.302  1.00  0.00     0.032 C 
ATOM     16  C   UNL     1     -19.585  28.545  35.642  1.00  0.00    -0.064 C 
ATOM     17  C   UNL     1     -19.688  30.037  33.641  1.00  0.00     0.032 C 
ATOM     18  C   UNL     1     -19.799  29.817  36.506  1.00  0.00    -0.008 C 
ATOM     19  C   UNL     1     -20.683  30.973  34.347  1.00  0.00     0.009 C 
ATOM     20  C   UNL     1     -20.963  30.630  35.834  1.00  0.00     0.007 C 
ATOM     21  C   UNL     1     -20.232  29.454  37.961  1.00  0.00     0.014 C 
ATOM     22  C   UNL     1     -18.439  30.578  36.548  1.00  0.00     0.016 C 
ATOM     23  C   UNL     1     -21.555  31.837  36.671  1.00  0.00    -0.006 C 
ATOM     24  C   UNL     1     -20.723  30.652  38.788  1.00  0.00     0.033 C 
ATOM     25  C   UNL     1     -21.911  31.351  38.111  1.00  0.00     0.120 C 
ATOM     26  C   UNL     1     -22.859  32.345  35.996  1.00  0.00     0.014 C 
ATOM     27  C   UNL     1     -20.605  33.063  36.766  1.00  0.00     0.014 C 
BRANCH  25  28
ATOM     28  O   UNL     1     -23.009  30.471  38.073  1.00  0.00    -0.393 OA
ATOM     29  H   UNL     1     -23.799  31.001  37.791  1.00  0.00     0.210 HD
ENDBRANCH  25  28
ENDBRANCH   2   6
ENDBRANCH   1   2
BRANCH   1  30
ATOM     30  C   UNL     1     -21.149  22.008  34.708  1.00  0.00     0.028 C 
BRANCH  30  31
ATOM     31  C   UNL     1     -21.671  21.599  36.066  1.00  0.00    -0.028 C 
ATOM     32  C   UNL     1     -22.940  21.205  36.307  1.00  0.00    -0.080 C 
ATOM     33  C   UNL     1     -23.328  20.855  37.720  1.00  0.00     0.039 C 
ATOM     34  C   UNL     1     -23.974  21.124  35.209  1.00  0.00     0.039 C 
ENDBRANCH  30  31
ENDBRANCH   1  30
TORSDOF 6
ENDMDL
MODEL 5
REMARK VINA RESULT:    -5.672      2.742      4.459
REMARK INTER + INTRA:          -8.442
REMARK INTER:                  -6.722
REMARK INTRA:                  -1.719
REMARK UNBOUND:                -0.946
REMARK SMILES CC(C)=CCC[C@H](C(=O)[O-])[C@H]1CC[C@@]2(C)C3=C(CC[C@@]12C)[C@]1(C)CC[C@H](O)C(C)(C)[C@H]1CC3
REMARK SMILES IDX 6 1 7 2 8 3 9 4 10 5 11 6 12 7 20 8 13 9 14 10 19 11 21 12
REMARK SMILES IDX 15 13 16 14 18 15 17 16 33 17 22 18 32 19 31 20 24 21 23 22
REMARK SMILES IDX 28 23 25 24 26 25 29 26 30 27 27 28 5 30 4 31 2 32 1 33 3 34
REMARK H PARENT 27 29
REMARK Flexibility Score: inf
ROOT
ATOM      1  C   UNL     1      -5.276  32.702  44.596  1.00  0.00     0.014 C 
ENDROOT
BRANCH   1   2
ATOM      2  C   UNL     1      -6.748  32.431  45.043  1.00  0.00     0.039 C 
BRANCH   2   3
ATOM      3  C   UNL     1      -7.026  33.034  46.398  1.00  0.00     0.045 C 
ATOM      4  O   UNL     1      -7.906  33.929  46.518  1.00  0.00    -0.550 OA
ATOM      5  O   UNL     1      -6.350  32.593  47.531  1.00  0.00    -0.550 OA
ENDBRANCH   2   3
BRANCH   2   6
ATOM      6  C   UNL     1      -7.293  30.955  44.945  1.00  0.00     0.004 C 
ATOM      7  C   UNL     1      -8.462  30.650  45.884  1.00  0.00     0.006 C 
ATOM      8  C   UNL     1      -7.694  30.311  43.575  1.00  0.00    -0.020 C 
ATOM      9  C   UNL     1      -9.144  29.391  45.349  1.00  0.00     0.012 C 
ATOM     10  C   UNL     1      -8.464  29.005  44.011  1.00  0.00    -0.006 C 
ATOM     11  C   UNL     1      -8.655  31.227  42.788  1.00  0.00     0.012 C 
ATOM     12  C   UNL     1      -6.446  30.001  42.692  1.00  0.00     0.012 C 
ATOM     13  C   UNL     1      -7.471  27.828  44.284  1.00  0.00     0.017 C 
ATOM     14  C   UNL     1      -9.548  28.519  43.012  1.00  0.00    -0.064 C 
ATOM     15  C   UNL     1      -9.212  30.529  41.555  1.00  0.00     0.032 C 
ATOM     16  C   UNL     1      -9.920  29.227  41.900  1.00  0.00    -0.064 C 
ATOM     17  C   UNL     1     -10.203  27.175  43.297  1.00  0.00     0.032 C 
ATOM     18  C   UNL     1     -10.952  28.607  40.920  1.00  0.00    -0.008 C 
ATOM     19  C   UNL     1     -11.676  27.047  42.874  1.00  0.00     0.009 C 
ATOM     20  C   UNL     1     -12.137  28.061  41.794  1.00  0.00     0.007 C 
ATOM     21  C   UNL     1     -11.522  29.678  39.938  1.00  0.00     0.014 C 
ATOM     22  C   UNL     1     -10.208  27.506  40.105  1.00  0.00     0.016 C 
ATOM     23  C   UNL     1     -13.443  27.619  41.016  1.00  0.00    -0.006 C 
ATOM     24  C   UNL     1     -12.737  29.205  39.127  1.00  0.00     0.033 C 
ATOM     25  C   UNL     1     -13.885  28.760  40.046  1.00  0.00     0.120 C 
ATOM     26  C   UNL     1     -14.594  27.377  42.031  1.00  0.00     0.014 C 
ATOM     27  C   UNL     1     -13.282  26.299  40.212  1.00  0.00     0.014 C 
BRANCH  25  28
ATOM     28  O   UNL     1     -14.354  29.869  40.775  1.00  0.00    -0.393 OA
ATOM     29  H   UNL     1     -15.081  29.543  41.366  1.00  0.00     0.210 HD
ENDBRANCH  25  28
ENDBRANCH   2   6
ENDBRANCH   1   2
BRANCH   1  30
ATOM     30  C   UNL     1      -5.107  33.957  43.703  1.00  0.00     0.028 C 
BRANCH  30  31
ATOM     31  C   UNL     1      -6.368  34.304  42.946  1.00  0.00    -0.028 C 
ATOM     32  C   UNL     1      -6.610  33.949  41.666  1.00  0.00    -0.080 C 
ATOM     33  C   UNL     1      -7.901  34.393  41.029  1.00  0.00     0.039 C 
ATOM     34  C   UNL     1      -5.621  33.139  40.860  1.00  0.00     0.039 C 
ENDBRANCH  30  31
ENDBRANCH   1  30
TORSDOF 6
ENDMDL
MODEL 6
REMARK VINA RESULT:    -5.644      2.248      8.962
REMARK INTER + INTRA:          -8.405
REMARK INTER:                  -7.575
REMARK INTRA:                  -0.830
REMARK UNBOUND:                -0.946
REMARK SMILES CC(C)=CCC[C@H](C(=O)[O-])[C@H]1CC[C@@]2(C)C3=C(CC[C@@]12C)[C@]1(C)CC[C@H](O)C(C)(C)[C@H]1CC3
REMARK SMILES IDX 6 1 7 2 8 3 9 4 10 5 11 6 12 7 20 8 13 9 14 10 19 11 21 12
REMARK SMILES IDX 15 13 16 14 18 15 17 16 33 17 22 18 32 19 31 20 24 21 23 22
REMARK SMILES IDX 28 23 25 24 26 25 29 26 30 27 27 28 5 30 4 31 2 32 1 33 3 34
REMARK H PARENT 27 29
REMARK Flexibility Score: inf
ROOT
ATOM      1  C   UNL     1     -12.692  24.812  40.928  1.00  0.00     0.014 C 
ENDROOT
BRANCH   1   2
ATOM      2  C   UNL     1     -12.728  26.258  41.519  1.00  0.00     0.039 C 
BRANCH   2   3
ATOM      3  C   UNL     1     -14.082  26.894  41.323  1.00  0.00     0.045 C 
ATOM      4  O   UNL     1     -14.634  26.859  40.191  1.00  0.00    -0.550 OA
ATOM      5  O   UNL     1     -14.754  27.491  42.386  1.00  0.00    -0.550 OA
ENDBRANCH   2   3
BRANCH   2   6
ATOM      6  C   UNL     1     -11.564  27.247  41.129  1.00  0.00     0.004 C 
ATOM      7  C   UNL     1     -11.941  28.727  41.200  1.00  0.00     0.006 C 
ATOM      8  C   UNL     1     -10.146  27.157  41.790  1.00  0.00    -0.020 C 
ATOM      9  C   UNL     1     -10.635  29.517  41.254  1.00  0.00     0.012 C 
ATOM     10  C   UNL     1      -9.463  28.506  41.344  1.00  0.00    -0.006 C 
ATOM     11  C   UNL     1     -10.251  27.127  43.330  1.00  0.00     0.012 C 
ATOM     12  C   UNL     1      -9.359  25.901  41.307  1.00  0.00     0.012 C 
ATOM     13  C   UNL     1      -8.819  28.371  39.925  1.00  0.00     0.017 C 
ATOM     14  C   UNL     1      -8.393  29.055  42.325  1.00  0.00    -0.064 C 
ATOM     15  C   UNL     1      -8.882  27.246  43.987  1.00  0.00     0.032 C 
ATOM     16  C   UNL     1      -8.142  28.503  43.553  1.00  0.00    -0.064 C 
ATOM     17  C   UNL     1      -7.582  30.259  41.867  1.00  0.00     0.032 C 
ATOM     18  C   UNL     1      -6.988  29.076  44.418  1.00  0.00    -0.008 C 
ATOM     19  C   UNL     1      -7.154  31.236  42.974  1.00  0.00     0.009 C 
ATOM     20  C   UNL     1      -7.146  30.640  44.407  1.00  0.00     0.007 C 
ATOM     21  C   UNL     1      -7.086  28.586  45.897  1.00  0.00     0.014 C 
ATOM     22  C   UNL     1      -5.651  28.572  43.796  1.00  0.00     0.016 C 
ATOM     23  C   UNL     1      -6.251  31.447  45.433  1.00  0.00    -0.006 C 
ATOM     24  C   UNL     1      -6.148  29.322  46.867  1.00  0.00     0.033 C 
ATOM     25  C   UNL     1      -6.411  30.835  46.860  1.00  0.00     0.120 C 
ATOM     26  C   UNL     1      -6.728  32.925  45.485  1.00  0.00     0.014 C 
ATOM     27  C   UNL     1      -4.743  31.485  45.060  1.00  0.00     0.014 C 
BRANCH  25  28
ATOM     28  O   UNL     1      -7.704  31.085  47.358  1.00  0.00    -0.393 OA
ATOM     29  H   UNL     1      -8.031  31.914  46.921  1.00  0.00     0.210 HD
ENDBRANCH  25  28
ENDBRANCH   2   6
ENDBRANCH   1   2
BRANCH   1  30
ATOM     30  C   UNL     1     -12.580  23.695  41.997  1.00  0.00     0.028 C 
BRANCH  30  31
ATOM     31  C   UNL     1     -11.418  22.763  41.740  1.00  0.00    -0.028 C 
ATOM     32  C   UNL     1     -11.464  21.702  40.906  1.00  0.00    -0.080 C 
ATOM     33  C   UNL     1     -10.235  20.840  40.773  1.00  0.00     0.039 C 
ATOM     34  C   UNL     1     -12.708  21.352  40.124  1.00  0.00     0.039 C 
ENDBRANCH  30  31
ENDBRANCH   1  30
TORSDOF 6
ENDMDL
MODEL 7
REMARK VINA RESULT:    -5.599      6.243      9.810
REMARK INTER + INTRA:          -8.346
REMARK INTER:                  -6.831
REMARK INTRA:                  -1.514
REMARK UNBOUND:                -0.946
REMARK SMILES CC(C)=CCC[C@H](C(=O)[O-])[C@H]1CC[C@@]2(C)C3=C(CC[C@@]12C)[C@]1(C)CC[C@H](O)C(C)(C)[C@H]1CC3
REMARK SMILES IDX 6 1 7 2 8 3 9 4 10 5 11 6 12 7 20 8 13 9 14 10 19 11 21 12
REMARK SMILES IDX 15 13 16 14 18 15 17 16 33 17 22 18 32 19 31 20 24 21 23 22
REMARK SMILES IDX 28 23 25 24 26 25 29 26 30 27 27 28 5 30 4 31 2 32 1 33 3 34
REMARK H PARENT 27 29
REMARK Flexibility Score: inf
ROOT
ATOM      1  C   UNL     1     -12.724  25.901  42.059  1.00  0.00     0.014 C 
ENDROOT
BRANCH   1   2
ATOM      2  C   UNL     1     -13.609  25.029  41.112  1.00  0.00     0.039 C 
BRANCH   2   3
ATOM      3  C   UNL     1     -13.483  23.563  41.444  1.00  0.00     0.045 C 
ATOM      4  O   UNL     1     -12.445  23.136  42.016  1.00  0.00    -0.550 OA
ATOM      5  O   UNL     1     -14.515  22.673  41.161  1.00  0.00    -0.550 OA
ENDBRANCH   2   3
BRANCH   2   6
ATOM      6  C   UNL     1     -13.505  25.281  39.560  1.00  0.00     0.004 C 
ATOM      7  C   UNL     1     -12.926  24.109  38.767  1.00  0.00     0.006 C 
ATOM      8  C   UNL     1     -14.731  25.775  38.718  1.00  0.00    -0.020 C 
ATOM      9  C   UNL     1     -13.319  24.323  37.306  1.00  0.00     0.012 C 
ATOM     10  C   UNL     1     -14.246  25.563  37.232  1.00  0.00    -0.006 C 
ATOM     11  C   UNL     1     -15.974  24.898  38.977  1.00  0.00     0.012 C 
ATOM     12  C   UNL     1     -15.083  27.263  39.024  1.00  0.00     0.012 C 
ATOM     13  C   UNL     1     -13.402  26.781  36.733  1.00  0.00     0.017 C 
ATOM     14  C   UNL     1     -15.379  25.290  36.206  1.00  0.00    -0.064 C 
ATOM     15  C   UNL     1     -17.108  25.236  38.018  1.00  0.00     0.032 C 
ATOM     16  C   UNL     1     -16.689  25.107  36.561  1.00  0.00    -0.064 C 
ATOM     17  C   UNL     1     -14.988  25.246  34.736  1.00  0.00     0.032 C 
ATOM     18  C   UNL     1     -17.755  24.928  35.447  1.00  0.00    -0.008 C 
ATOM     19  C   UNL     1     -15.798  24.276  33.859  1.00  0.00     0.009 C 
ATOM     20  C   UNL     1     -17.182  23.873  34.434  1.00  0.00     0.007 C 
ATOM     21  C   UNL     1     -19.096  24.374  36.024  1.00  0.00     0.014 C 
ATOM     22  C   UNL     1     -18.006  26.333  34.821  1.00  0.00     0.016 C 
ATOM     23  C   UNL     1     -18.190  23.316  33.349  1.00  0.00    -0.006 C 
ATOM     24  C   UNL     1     -20.099  23.916  34.954  1.00  0.00     0.033 C 
ATOM     25  C   UNL     1     -19.498  22.830  34.050  1.00  0.00     0.120 C 
ATOM     26  C   UNL     1     -17.550  22.100  32.624  1.00  0.00     0.014 C 
ATOM     27  C   UNL     1     -18.556  24.343  32.242  1.00  0.00     0.014 C 
BRANCH  25  28
ATOM     28  O   UNL     1     -19.243  21.676  34.815  1.00  0.00    -0.393 OA
ATOM     29  H   UNL     1     -19.277  21.945  35.770  1.00  0.00     0.210 HD
ENDBRANCH  25  28
ENDBRANCH   2   6
ENDBRANCH   1   2
BRANCH   1  30
ATOM     30  C   UNL     1     -11.904  26.995  41.329  1.00  0.00     0.028 C 
BRANCH  30  31
ATOM     31  C   UNL     1     -12.518  28.369  41.468  1.00  0.00    -0.028 C 
ATOM     32  C   UNL     1     -12.475  29.322  40.512  1.00  0.00    -0.080 C 
ATOM     33  C   UNL     1     -13.106  30.659  40.802  1.00  0.00     0.039 C 
ATOM     34  C   UNL     1     -11.804  29.088  39.179  1.00  0.00     0.039 C 
ENDBRANCH  30  31
ENDBRANCH   1  30
TORSDOF 6
ENDMDL
MODEL 8
REMARK VINA RESULT:    -5.549      1.851      8.652
REMARK INTER + INTRA:          -8.279
REMARK INTER:                  -6.537
REMARK INTRA:                  -1.742
REMARK UNBOUND:                -0.946
REMARK SMILES CC(C)=CCC[C@H](C(=O)[O-])[C@H]1CC[C@@]2(C)C3=C(CC[C@@]12C)[C@]1(C)CC[C@H](O)C(C)(C)[C@H]1CC3
REMARK SMILES IDX 6 1 7 2 8 3 9 4 10 5 11 6 12 7 20 8 13 9 14 10 19 11 21 12
REMARK SMILES IDX 15 13 16 14 18 15 17 16 33 17 22 18 32 19 31 20 24 21 23 22
REMARK SMILES IDX 28 23 25 24 26 25 29 26 30 27 27 28 5 30 4 31 2 32 1 33 3 34
REMARK H PARENT 27 29
REMARK Flexibility Score: inf
ROOT
ATOM      1  C   UNL     1     -11.516  24.234  39.103  1.00  0.00     0.014 C 
ENDROOT
BRANCH   1   2
ATOM      2  C   UNL     1     -11.343  24.510  40.631  1.00  0.00     0.039 C 
BRANCH   2   3
ATOM      3  C   UNL     1     -12.405  23.802  41.436  1.00  0.00     0.045 C 
ATOM      4  O   UNL     1     -12.070  23.025  42.370  1.00  0.00    -0.550 OA
ATOM      5  O   UNL     1     -13.757  24.020  41.188  1.00  0.00    -0.550 OA
ENDBRANCH   2   3
BRANCH   2   6
ATOM      6  C   UNL     1     -11.163  26.004  41.099  1.00  0.00     0.004 C 
ATOM      7  C   UNL     1     -11.774  26.316  42.466  1.00  0.00     0.006 C 
ATOM      8  C   UNL     1      -9.762  26.704  41.111  1.00  0.00    -0.020 C 
ATOM      9  C   UNL     1     -11.129  27.611  42.957  1.00  0.00     0.012 C 
ATOM     10  C   UNL     1     -10.031  28.018  41.940  1.00  0.00    -0.006 C 
ATOM     11  C   UNL     1      -8.716  25.843  41.851  1.00  0.00     0.012 C 
ATOM     12  C   UNL     1      -9.250  27.003  39.669  1.00  0.00     0.012 C 
ATOM     13  C   UNL     1     -10.600  29.154  41.029  1.00  0.00     0.017 C 
ATOM     14  C   UNL     1      -8.803  28.569  42.713  1.00  0.00    -0.064 C 
ATOM     15  C   UNL     1      -7.408  26.597  42.049  1.00  0.00     0.032 C 
ATOM     16  C   UNL     1      -7.606  27.909  42.795  1.00  0.00    -0.064 C 
ATOM     17  C   UNL     1      -8.959  29.923  43.391  1.00  0.00     0.032 C 
ATOM     18  C   UNL     1      -6.414  28.591  43.519  1.00  0.00    -0.008 C 
ATOM     19  C   UNL     1      -8.170  30.109  44.698  1.00  0.00     0.009 C 
ATOM     20  C   UNL     1      -6.968  29.146  44.881  1.00  0.00     0.007 C 
ATOM     21  C   UNL     1      -5.277  27.569  43.834  1.00  0.00     0.014 C 
ATOM     22  C   UNL     1      -5.866  29.694  42.564  1.00  0.00     0.016 C 
ATOM     23  C   UNL     1      -5.893  29.652  45.927  1.00  0.00    -0.006 C 
ATOM     24  C   UNL     1      -4.195  28.106  44.783  1.00  0.00     0.033 C 
ATOM     25  C   UNL     1      -4.797  28.557  46.122  1.00  0.00     0.120 C 
ATOM     26  C   UNL     1      -6.580  29.898  47.298  1.00  0.00     0.014 C 
ATOM     27  C   UNL     1      -5.211  30.991  45.531  1.00  0.00     0.014 C 
BRANCH  25  28
ATOM     28  O   UNL     1      -5.334  27.440  46.790  1.00  0.00    -0.393 OA
ATOM     29  H   UNL     1      -5.751  27.773  47.627  1.00  0.00     0.210 HD
ENDBRANCH  25  28
ENDBRANCH   2   6
ENDBRANCH   1   2
BRANCH   1  30
ATOM     30  C   UNL     1     -10.362  23.413  38.473  1.00  0.00     0.028 C 
BRANCH  30  31
ATOM     31  C   UNL     1      -9.376  22.915  39.504  1.00  0.00    -0.028 C 
ATOM     32  C   UNL     1      -8.053  23.187  39.487  1.00  0.00    -0.080 C 
ATOM     33  C   UNL     1      -7.184  22.595  40.565  1.00  0.00     0.039 C 
ATOM     34  C   UNL     1      -7.428  24.049  38.414  1.00  0.00     0.039 C 
ENDBRANCH  30  31
ENDBRANCH   1  30
TORSDOF 6
ENDMDL
MODEL 9
REMARK VINA RESULT:    -5.506      1.884      8.859
REMARK INTER + INTRA:          -8.222
REMARK INTER:                  -6.837
REMARK INTRA:                  -1.385
REMARK UNBOUND:                -0.946
REMARK SMILES CC(C)=CCC[C@H](C(=O)[O-])[C@H]1CC[C@@]2(C)C3=C(CC[C@@]12C)[C@]1(C)CC[C@H](O)C(C)(C)[C@H]1CC3
REMARK SMILES IDX 6 1 7 2 8 3 9 4 10 5 11 6 12 7 20 8 13 9 14 10 19 11 21 12
REMARK SMILES IDX 15 13 16 14 18 15 17 16 33 17 22 18 32 19 31 20 24 21 23 22
REMARK SMILES IDX 28 23 25 24 26 25 29 26 30 27 27 28 5 30 4 31 2 32 1 33 3 34
REMARK H PARENT 27 29
REMARK Flexibility Score: inf
ROOT
ATOM      1  C   UNL     1     -12.181  24.101  39.132  1.00  0.00     0.014 C 
ENDROOT
BRANCH   1   2
ATOM      2  C   UNL     1     -11.552  24.339  40.542  1.00  0.00     0.039 C 
BRANCH   2   3
ATOM      3  C   UNL     1     -12.229  23.492  41.591  1.00  0.00     0.045 C 
ATOM      4  O   UNL     1     -11.533  22.833  42.410  1.00  0.00    -0.550 OA
ATOM      5  O   UNL     1     -13.616  23.452  41.695  1.00  0.00    -0.550 OA
ENDBRANCH   2   3
BRANCH   2   6
ATOM      6  C   UNL     1     -11.369  25.826  41.030  1.00  0.00     0.004 C 
ATOM      7  C   UNL     1     -11.961  26.116  42.410  1.00  0.00     0.006 C 
ATOM      8  C   UNL     1      -9.969  26.529  41.033  1.00  0.00    -0.020 C 
ATOM      9  C   UNL     1     -11.312  27.405  42.911  1.00  0.00     0.012 C 
ATOM     10  C   UNL     1     -10.229  27.830  41.886  1.00  0.00    -0.006 C 
ATOM     11  C   UNL     1      -8.911  25.660  41.744  1.00  0.00     0.012 C 
ATOM     12  C   UNL     1      -9.478  26.851  39.589  1.00  0.00     0.012 C 
ATOM     13  C   UNL     1     -10.814  28.979  41.000  1.00  0.00     0.017 C 
ATOM     14  C   UNL     1      -8.991  28.372  42.649  1.00  0.00    -0.064 C 
ATOM     15  C   UNL     1      -7.601  26.414  41.935  1.00  0.00     0.032 C 
ATOM     16  C   UNL     1      -7.792  27.714  42.704  1.00  0.00    -0.064 C 
ATOM     17  C   UNL     1      -9.140  29.716  43.349  1.00  0.00     0.032 C 
ATOM     18  C   UNL     1      -6.591  28.388  43.421  1.00  0.00    -0.008 C 
ATOM     19  C   UNL     1      -8.333  29.884  44.648  1.00  0.00     0.009 C 
ATOM     20  C   UNL     1      -7.127  28.920  44.799  1.00  0.00     0.007 C 
ATOM     21  C   UNL     1      -5.447  27.364  43.704  1.00  0.00     0.014 C 
ATOM     22  C   UNL     1      -6.060  29.507  42.475  1.00  0.00     0.016 C 
ATOM     23  C   UNL     1      -6.038  29.413  45.837  1.00  0.00    -0.006 C 
ATOM     24  C   UNL     1      -4.353  27.889  44.646  1.00  0.00     0.033 C 
ATOM     25  C   UNL     1      -4.937  28.318  45.999  1.00  0.00     0.120 C 
ATOM     26  C   UNL     1      -6.706  29.636  47.221  1.00  0.00     0.014 C 
ATOM     27  C   UNL     1      -5.365  30.760  45.452  1.00  0.00     0.014 C 
BRANCH  25  28
ATOM     28  O   UNL     1      -5.462  27.190  46.658  1.00  0.00    -0.393 OA
ATOM     29  H   UNL     1      -5.855  26.602  45.962  1.00  0.00     0.210 HD
ENDBRANCH  25  28
ENDBRANCH   2   6
ENDBRANCH   1   2
BRANCH   1  30
ATOM     30  C   UNL     1     -12.917  25.335  38.550  1.00  0.00     0.028 C 
BRANCH  30  31
ATOM     31  C   UNL     1     -14.420  25.206  38.634  1.00  0.00    -0.028 C 
ATOM     32  C   UNL     1     -15.214  26.015  39.368  1.00  0.00    -0.080 C 
ATOM     33  C   UNL     1     -16.697  25.747  39.381  1.00  0.00     0.039 C 
ATOM     34  C   UNL     1     -14.657  27.160  40.180  1.00  0.00     0.039 C 
ENDBRANCH  30  31
ENDBRANCH   1  30
TORSDOF 6
ENDMDL
