MODEL 1
REMARK VINA RESULT:    -4.181      0.000      0.000
REMARK INTER + INTRA:          -6.968
REMARK INTER:                  -6.381
REMARK INTRA:                  -0.588
REMARK UNBOUND:                -0.588
REMARK SMILES O=C([O-])CCCCCCCCC(=O)[O-]
REMARK SMILES IDX 7 1 6 2 5 3 4 4 2 5 1 6 3 7 8 8 9 9 10 10 11 11 12 12 13 13
REMARK SMILES IDX 14 14
REMARK H PARENT
REMARK Flexibility Score: inf
ROOT
ATOM      1  C   UNL     1      18.683 -42.716  25.436  1.00  0.00     0.000 C 
ENDROOT
BRANCH   1   2
ATOM      2  C   UNL     1      18.595 -41.973  26.781  1.00  0.00     0.000 C 
BRANCH   2   3
ATOM      3  C   UNL     1      18.252 -40.472  26.673  1.00  0.00     0.006 C 
BRANCH   3   4
ATOM      4  C   UNL     1      17.223 -40.129  25.586  1.00  0.00     0.053 C 
BRANCH   4   5
ATOM      5  C   UNL     1      17.681 -38.999  24.716  1.00  0.00     0.041 C 
ATOM      6  O   UNL     1      16.942 -37.995  24.540  1.00  0.00    -0.550 OA
ATOM      7  O   UNL     1      18.910 -39.070  24.072  1.00  0.00    -0.550 OA
ENDBRANCH   4   5
ENDBRANCH   3   4
ENDBRANCH   2   3
ENDBRANCH   1   2
BRANCH   1   8
ATOM      8  C   UNL     1      17.935 -44.060  25.445  1.00  0.00     0.000 C 
BRANCH   8   9
ATOM      9  C   UNL     1      16.971 -44.193  26.634  1.00  0.00     0.000 C 
BRANCH   9  10
ATOM     10  C   UNL     1      17.153 -45.517  27.396  1.00  0.00     0.006 C 
BRANCH  10  11
ATOM     11  C   UNL     1      17.401 -45.293  28.894  1.00  0.00     0.053 C 
BRANCH  11  12
ATOM     12  C   UNL     1      16.119 -45.136  29.652  1.00  0.00     0.041 C 
ATOM     13  O   UNL     1      16.122 -44.639  30.809  1.00  0.00    -0.550 OA
ATOM     14  O   UNL     1      14.922 -45.564  29.091  1.00  0.00    -0.550 OA
ENDBRANCH  11  12
ENDBRANCH  10  11
ENDBRANCH   9  10
ENDBRANCH   8   9
ENDBRANCH   1   8
TORSDOF 9
ENDMDL
MODEL 2
REMARK VINA RESULT:    -4.169      1.324      6.273
REMARK INTER + INTRA:          -6.951
REMARK INTER:                  -6.315
REMARK INTRA:                  -0.635
REMARK UNBOUND:                -0.588
REMARK SMILES O=C([O-])CCCCCCCCC(=O)[O-]
REMARK SMILES IDX 7 1 6 2 5 3 4 4 2 5 1 6 3 7 8 8 9 9 10 10 11 11 12 12 13 13
REMARK SMILES IDX 14 14
REMARK H PARENT
REMARK Flexibility Score: inf
ROOT
ATOM      1  C   UNL     1      17.898 -44.310  25.522  1.00  0.00     0.000 C 
ENDROOT
BRANCH   1   2
ATOM      2  C   UNL     1      17.013 -44.247  26.779  1.00  0.00     0.000 C 
BRANCH   2   3
ATOM      3  C   UNL     1      17.069 -45.500  27.677  1.00  0.00     0.006 C 
BRANCH   3   4
ATOM      4  C   UNL     1      17.561 -45.237  29.109  1.00  0.00     0.053 C 
BRANCH   4   5
ATOM      5  C   UNL     1      16.425 -45.118  30.078  1.00  0.00     0.041 C 
ATOM      6  O   UNL     1      16.650 -44.849  31.288  1.00  0.00    -0.550 OA
ATOM      7  O   UNL     1      15.120 -45.337  29.654  1.00  0.00    -0.550 OA
ENDBRANCH   4   5
ENDBRANCH   3   4
ENDBRANCH   2   3
ENDBRANCH   1   2
BRANCH   1   8
ATOM      8  C   UNL     1      18.668 -43.003  25.266  1.00  0.00     0.000 C 
BRANCH   8   9
ATOM      9  C   UNL     1      18.370 -41.925  26.319  1.00  0.00     0.000 C 
BRANCH   9  10
ATOM     10  C   UNL     1      18.489 -40.499  25.754  1.00  0.00     0.006 C 
BRANCH  10  11
ATOM     11  C   UNL     1      17.691 -40.321  24.456  1.00  0.00     0.053 C 
BRANCH  11  12
ATOM     12  C   UNL     1      16.213 -40.352  24.704  1.00  0.00     0.041 C 
ATOM     13  O   UNL     1      15.655 -39.414  25.333  1.00  0.00    -0.550 OA
ATOM     14  O   UNL     1      15.457 -41.430  24.264  1.00  0.00    -0.550 OA
ENDBRANCH  11  12
ENDBRANCH  10  11
ENDBRANCH   9  10
ENDBRANCH   8   9
ENDBRANCH   1   8
TORSDOF 9
ENDMDL
MODEL 3
REMARK VINA RESULT:    -4.161      1.498      6.124
REMARK INTER + INTRA:          -6.938
REMARK INTER:                  -6.185
REMARK INTRA:                  -0.753
REMARK UNBOUND:                -0.588
REMARK SMILES O=C([O-])CCCCCCCCC(=O)[O-]
REMARK SMILES IDX 7 1 6 2 5 3 4 4 2 5 1 6 3 7 8 8 9 9 10 10 11 11 12 12 13 13
REMARK SMILES IDX 14 14
REMARK H PARENT
REMARK Flexibility Score: inf
ROOT
ATOM      1  C   UNL     1      16.209 -44.299  27.282  1.00  0.00     0.000 C 
ENDROOT
BRANCH   1   2
ATOM      2  C   UNL     1      17.165 -45.440  27.673  1.00  0.00     0.000 C 
BRANCH   2   3
ATOM      3  C   UNL     1      17.537 -45.492  29.170  1.00  0.00     0.006 C 
BRANCH   3   4
ATOM      4  C   UNL     1      18.043 -44.163  29.749  1.00  0.00     0.053 C 
BRANCH   4   5
ATOM      5  C   UNL     1      17.179 -43.673  30.869  1.00  0.00     0.041 C 
ATOM      6  O   UNL     1      16.107 -43.060  30.621  1.00  0.00    -0.550 OA
ATOM      7  O   UNL     1      17.573 -43.862  32.188  1.00  0.00    -0.550 OA
ENDBRANCH   4   5
ENDBRANCH   3   4
ENDBRANCH   2   3
ENDBRANCH   1   2
BRANCH   1   8
ATOM      8  C   UNL     1      16.560 -43.663  25.926  1.00  0.00     0.000 C 
BRANCH   8   9
ATOM      9  C   UNL     1      17.972 -44.032  25.447  1.00  0.00     0.000 C 
BRANCH   9  10
ATOM     10  C   UNL     1      18.860 -42.797  25.220  1.00  0.00     0.006 C 
BRANCH  10  11
ATOM     11  C   UNL     1      18.496 -41.640  26.161  1.00  0.00     0.053 C 
BRANCH  11  12
ATOM     12  C   UNL     1      18.383 -40.340  25.424  1.00  0.00     0.041 C 
ATOM     13  O   UNL     1      18.061 -40.326  24.207  1.00  0.00    -0.550 OA
ATOM     14  O   UNL     1      18.661 -39.146  26.076  1.00  0.00    -0.550 OA
ENDBRANCH  11  12
ENDBRANCH  10  11
ENDBRANCH   9  10
ENDBRANCH   8   9
ENDBRANCH   1   8
TORSDOF 9
ENDMDL
MODEL 4
REMARK VINA RESULT:    -4.125      2.393      5.379
REMARK INTER + INTRA:          -6.883
REMARK INTER:                  -5.938
REMARK INTRA:                  -0.945
REMARK UNBOUND:                -0.588
REMARK SMILES O=C([O-])CCCCCCCCC(=O)[O-]
REMARK SMILES IDX 7 1 6 2 5 3 4 4 2 5 1 6 3 7 8 8 9 9 10 10 11 11 12 12 13 13
REMARK SMILES IDX 14 14
REMARK H PARENT
REMARK Flexibility Score: inf
ROOT
ATOM      1  C   UNL     1      17.960 -44.215  25.453  1.00  0.00     0.000 C 
ENDROOT
BRANCH   1   2
ATOM      2  C   UNL     1      16.932 -44.346  26.591  1.00  0.00     0.000 C 
BRANCH   2   3
ATOM      3  C   UNL     1      17.145 -45.556  27.524  1.00  0.00     0.006 C 
BRANCH   3   4
ATOM      4  C   UNL     1      17.513 -45.190  28.970  1.00  0.00     0.053 C 
BRANCH   4   5
ATOM      5  C   UNL     1      16.302 -45.069  29.843  1.00  0.00     0.041 C 
ATOM      6  O   UNL     1      15.175 -45.435  29.418  1.00  0.00    -0.550 OA
ATOM      7  O   UNL     1      16.413 -44.520  31.115  1.00  0.00    -0.550 OA
ENDBRANCH   4   5
ENDBRANCH   3   4
ENDBRANCH   2   3
ENDBRANCH   1   2
BRANCH   1   8
ATOM      8  C   UNL     1      18.711 -42.873  25.477  1.00  0.00     0.000 C 
BRANCH   8   9
ATOM      9  C   UNL     1      17.774 -41.673  25.679  1.00  0.00     0.000 C 
BRANCH   9  10
ATOM     10  C   UNL     1      18.215 -40.769  26.843  1.00  0.00     0.006 C 
BRANCH  10  11
ATOM     11  C   UNL     1      18.636 -41.577  28.077  1.00  0.00     0.053 C 
BRANCH  11  12
ATOM     12  C   UNL     1      17.585 -41.548  29.144  1.00  0.00     0.041 C 
ATOM     13  O   UNL     1      17.914 -41.517  30.359  1.00  0.00    -0.550 OA
ATOM     14  O   UNL     1      16.240 -41.584  28.797  1.00  0.00    -0.550 OA
ENDBRANCH  11  12
ENDBRANCH  10  11
ENDBRANCH   9  10
ENDBRANCH   8   9
ENDBRANCH   1   8
TORSDOF 9
ENDMDL
MODEL 5
REMARK VINA RESULT:    -4.124      1.346      2.175
REMARK INTER + INTRA:          -6.881
REMARK INTER:                  -6.193
REMARK INTRA:                  -0.688
REMARK UNBOUND:                -0.588
REMARK SMILES O=C([O-])CCCCCCCCC(=O)[O-]
REMARK SMILES IDX 7 1 6 2 5 3 4 4 2 5 1 6 3 7 8 8 9 9 10 10 11 11 12 12 13 13
REMARK SMILES IDX 14 14
REMARK H PARENT
REMARK Flexibility Score: inf
ROOT
ATOM      1  C   UNL     1      16.470 -43.673  26.197  1.00  0.00     0.000 C 
ENDROOT
BRANCH   1   2
ATOM      2  C   UNL     1      17.832 -44.075  25.605  1.00  0.00     0.000 C 
BRANCH   2   3
ATOM      3  C   UNL     1      18.796 -42.902  25.335  1.00  0.00     0.006 C 
BRANCH   3   4
ATOM      4  C   UNL     1      18.588 -41.682  26.245  1.00  0.00     0.053 C 
BRANCH   4   5
ATOM      5  C   UNL     1      18.372 -40.425  25.459  1.00  0.00     0.041 C 
ATOM      6  O   UNL     1      18.693 -39.310  25.947  1.00  0.00    -0.550 OA
ATOM      7  O   UNL     1      17.784 -40.483  24.201  1.00  0.00    -0.550 OA
ENDBRANCH   4   5
ENDBRANCH   3   4
ENDBRANCH   2   3
ENDBRANCH   1   2
BRANCH   1   8
ATOM      8  C   UNL     1      16.230 -44.259  27.599  1.00  0.00     0.000 C 
BRANCH   8   9
ATOM      9  C   UNL     1      17.175 -45.426  27.922  1.00  0.00     0.000 C 
BRANCH   9  10
ATOM     10  C   UNL     1      17.623 -45.433  29.394  1.00  0.00     0.006 C 
BRANCH  10  11
ATOM     11  C   UNL     1      17.127 -44.198  30.157  1.00  0.00     0.053 C 
BRANCH  11  12
ATOM     12  C   UNL     1      16.200 -44.570  31.274  1.00  0.00     0.041 C 
ATOM     13  O   UNL     1      16.466 -44.234  32.458  1.00  0.00    -0.550 OA
ATOM     14  O   UNL     1      15.057 -45.313  31.010  1.00  0.00    -0.550 OA
ENDBRANCH  11  12
ENDBRANCH  10  11
ENDBRANCH   9  10
ENDBRANCH   8   9
ENDBRANCH   1   8
TORSDOF 9
ENDMDL
MODEL 6
REMARK VINA RESULT:    -4.124      1.780      2.829
REMARK INTER + INTRA:          -6.881
REMARK INTER:                  -6.286
REMARK INTRA:                  -0.594
REMARK UNBOUND:                -0.588
REMARK SMILES O=C([O-])CCCCCCCCC(=O)[O-]
REMARK SMILES IDX 7 1 6 2 5 3 4 4 2 5 1 6 3 7 8 8 9 9 10 10 11 11 12 12 13 13
REMARK SMILES IDX 14 14
REMARK H PARENT
REMARK Flexibility Score: inf
ROOT
ATOM      1  C   UNL     1      17.027 -44.220  26.883  1.00  0.00     0.000 C 
ENDROOT
BRANCH   1   2
ATOM      2  C   UNL     1      17.868 -44.199  25.594  1.00  0.00     0.000 C 
BRANCH   2   3
ATOM      3  C   UNL     1      18.676 -42.905  25.366  1.00  0.00     0.006 C 
BRANCH   3   4
ATOM      4  C   UNL     1      18.338 -41.762  26.337  1.00  0.00     0.053 C 
BRANCH   4   5
ATOM      5  C   UNL     1      18.432 -40.421  25.678  1.00  0.00     0.041 C 
ATOM      6  O   UNL     1      18.743 -39.404  26.353  1.00  0.00    -0.550 OA
ATOM      7  O   UNL     1      18.142 -40.287  24.326  1.00  0.00    -0.550 OA
ENDBRANCH   4   5
ENDBRANCH   3   4
ENDBRANCH   2   3
ENDBRANCH   1   2
BRANCH   1   8
ATOM      8  C   UNL     1      17.108 -45.564  27.628  1.00  0.00     0.000 C 
BRANCH   8   9
ATOM      9  C   UNL     1      17.217 -45.390  29.151  1.00  0.00     0.000 C 
BRANCH   9  10
ATOM     10  C   UNL     1      17.915 -44.078  29.547  1.00  0.00     0.006 C 
BRANCH  10  11
ATOM     11  C   UNL     1      18.977 -44.292  30.634  1.00  0.00     0.053 C 
BRANCH  11  12
ATOM     12  C   UNL     1      18.358 -44.633  31.956  1.00  0.00     0.041 C 
ATOM     13  O   UNL     1      18.682 -45.693  32.553  1.00  0.00    -0.550 OA
ATOM     14  O   UNL     1      17.403 -43.793  32.513  1.00  0.00    -0.550 OA
ENDBRANCH  11  12
ENDBRANCH  10  11
ENDBRANCH   9  10
ENDBRANCH   8   9
ENDBRANCH   1   8
TORSDOF 9
ENDMDL
MODEL 7
REMARK VINA RESULT:    -4.101      1.713      1.968
REMARK INTER + INTRA:          -6.846
REMARK INTER:                  -6.346
REMARK INTRA:                  -0.500
REMARK UNBOUND:                -0.588
REMARK SMILES O=C([O-])CCCCCCCCC(=O)[O-]
REMARK SMILES IDX 7 1 6 2 5 3 4 4 2 5 1 6 3 7 8 8 9 9 10 10 11 11 12 12 13 13
REMARK SMILES IDX 14 14
REMARK H PARENT
REMARK Flexibility Score: inf
ROOT
ATOM      1  C   UNL     1      18.862 -42.640  25.593  1.00  0.00     0.000 C 
ENDROOT
BRANCH   1   2
ATOM      2  C   UNL     1      18.281 -41.418  24.859  1.00  0.00     0.000 C 
BRANCH   2   3
ATOM      3  C   UNL     1      18.137 -40.149  25.724  1.00  0.00     0.006 C 
BRANCH   3   4
ATOM      4  C   UNL     1      18.261 -40.389  27.237  1.00  0.00     0.053 C 
BRANCH   4   5
ATOM      5  C   UNL     1      18.193 -39.112  28.015  1.00  0.00     0.041 C 
ATOM      6  O   UNL     1      17.090 -38.701  28.464  1.00  0.00    -0.550 OA
ATOM      7  O   UNL     1      19.342 -38.357  28.217  1.00  0.00    -0.550 OA
ENDBRANCH   4   5
ENDBRANCH   3   4
ENDBRANCH   2   3
ENDBRANCH   1   2
BRANCH   1   8
ATOM      8  C   UNL     1      17.942 -43.871  25.524  1.00  0.00     0.000 C 
BRANCH   8   9
ATOM      9  C   UNL     1      17.095 -44.049  26.793  1.00  0.00     0.000 C 
BRANCH   9  10
ATOM     10  C   UNL     1      17.241 -45.452  27.409  1.00  0.00     0.006 C 
BRANCH  10  11
ATOM     11  C   UNL     1      17.439 -45.400  28.929  1.00  0.00     0.053 C 
BRANCH  11  12
ATOM     12  C   UNL     1      16.156 -45.111  29.646  1.00  0.00     0.041 C 
ATOM     13  O   UNL     1      16.159 -44.425  30.703  1.00  0.00    -0.550 OA
ATOM     14  O   UNL     1      14.959 -45.624  29.163  1.00  0.00    -0.550 OA
ENDBRANCH  11  12
ENDBRANCH  10  11
ENDBRANCH   9  10
ENDBRANCH   8   9
ENDBRANCH   1   8
TORSDOF 9
ENDMDL
MODEL 8
REMARK VINA RESULT:    -4.049      2.500      3.158
REMARK INTER + INTRA:          -6.767
REMARK INTER:                  -5.848
REMARK INTRA:                  -0.919
REMARK UNBOUND:                -0.588
REMARK SMILES O=C([O-])CCCCCCCCC(=O)[O-]
REMARK SMILES IDX 7 1 6 2 5 3 4 4 2 5 1 6 3 7 8 8 9 9 10 10 11 11 12 12 13 13
REMARK SMILES IDX 14 14
REMARK H PARENT
REMARK Flexibility Score: inf
ROOT
ATOM      1  C   UNL     1      17.504 -44.747  25.852  1.00  0.00     0.000 C 
ENDROOT
BRANCH   1   2
ATOM      2  C   UNL     1      17.245 -43.232  25.767  1.00  0.00     0.000 C 
BRANCH   2   3
ATOM      3  C   UNL     1      18.513 -42.360  25.663  1.00  0.00     0.006 C 
BRANCH   3   4
ATOM      4  C   UNL     1      18.461 -41.059  26.477  1.00  0.00     0.053 C 
BRANCH   4   5
ATOM      5  C   UNL     1      18.217 -41.316  27.932  1.00  0.00     0.041 C 
ATOM      6  O   UNL     1      17.213 -40.815  28.505  1.00  0.00    -0.550 OA
ATOM      7  O   UNL     1      19.116 -42.082  28.665  1.00  0.00    -0.550 OA
ENDBRANCH   4   5
ENDBRANCH   3   4
ENDBRANCH   2   3
ENDBRANCH   1   2
BRANCH   1   8
ATOM      8  C   UNL     1      17.144 -45.339  27.225  1.00  0.00     0.000 C 
BRANCH   8   9
ATOM      9  C   UNL     1      16.153 -44.463  28.007  1.00  0.00     0.000 C 
BRANCH   9  10
ATOM     10  C   UNL     1      16.532 -44.323  29.491  1.00  0.00     0.006 C 
BRANCH  10  11
ATOM     11  C   UNL     1      17.760 -45.167  29.858  1.00  0.00     0.053 C 
BRANCH  11  12
ATOM     12  C   UNL     1      18.292 -44.813  31.213  1.00  0.00     0.041 C 
ATOM     13  O   UNL     1      19.507 -44.513  31.359  1.00  0.00    -0.550 OA
ATOM     14  O   UNL     1      17.453 -44.840  32.319  1.00  0.00    -0.550 OA
ENDBRANCH  11  12
ENDBRANCH  10  11
ENDBRANCH   9  10
ENDBRANCH   8   9
ENDBRANCH   1   8
TORSDOF 9
ENDMDL
MODEL 9
REMARK VINA RESULT:    -4.048      1.817      6.561
REMARK INTER + INTRA:          -6.766
REMARK INTER:                  -6.235
REMARK INTRA:                  -0.531
REMARK UNBOUND:                -0.588
REMARK SMILES O=C([O-])CCCCCCCCC(=O)[O-]
REMARK SMILES IDX 7 1 6 2 5 3 4 4 2 5 1 6 3 7 8 8 9 9 10 10 11 11 12 12 13 13
REMARK SMILES IDX 14 14
REMARK H PARENT
REMARK Flexibility Score: inf
ROOT
ATOM      1  C   UNL     1      17.087 -45.559  27.663  1.00  0.00     0.000 C 
ENDROOT
BRANCH   1   2
ATOM      2  C   UNL     1      17.538 -45.443  29.130  1.00  0.00     0.000 C 
BRANCH   2   3
ATOM      3  C   UNL     1      16.855 -44.317  29.933  1.00  0.00     0.006 C 
BRANCH   3   4
ATOM      4  C   UNL     1      15.872 -44.805  31.009  1.00  0.00     0.053 C 
BRANCH   4   5
ATOM      5  C   UNL     1      16.362 -44.509  32.392  1.00  0.00     0.041 C 
ATOM      6  O   UNL     1      17.447 -45.002  32.800  1.00  0.00    -0.550 OA
ATOM      7  O   UNL     1      15.604 -43.716  33.245  1.00  0.00    -0.550 OA
ENDBRANCH   4   5
ENDBRANCH   3   4
ENDBRANCH   2   3
ENDBRANCH   1   2
BRANCH   1   8
ATOM      8  C   UNL     1      17.039 -44.199  26.944  1.00  0.00     0.000 C 
BRANCH   8   9
ATOM      9  C   UNL     1      17.791 -44.211  25.604  1.00  0.00     0.000 C 
BRANCH   9  10
ATOM     10  C   UNL     1      18.600 -42.924  25.370  1.00  0.00     0.006 C 
BRANCH  10  11
ATOM     11  C   UNL     1      18.623 -42.020  26.609  1.00  0.00     0.053 C 
BRANCH  11  12
ATOM     12  C   UNL     1      18.057 -40.663  26.316  1.00  0.00     0.041 C 
ATOM     13  O   UNL     1      18.739 -39.813  25.686  1.00  0.00    -0.550 OA
ATOM     14  O   UNL     1      16.785 -40.329  26.764  1.00  0.00    -0.550 OA
ENDBRANCH  11  12
ENDBRANCH  10  11
ENDBRANCH   9  10
ENDBRANCH   8   9
ENDBRANCH   1   8
TORSDOF 9
ENDMDL
