MODEL 1
REMARK VINA RESULT:    -4.001      0.000      0.000
REMARK INTER + INTRA:          -5.525
REMARK INTER:                  -5.170
REMARK INTRA:                  -0.354
REMARK UNBOUND:                -0.354
REMARK SMILES CCCCCCC(=O)[O-]
REMARK SMILES IDX 5 1 6 2 7 3 8 4 9 5 4 6 3 7 2 8 1 9
REMARK H PARENT
REMARK Flexibility Score: inf
ROOT
ATOM      1  C   UNL     1      88.983  76.601  69.462  1.00  0.00     0.006 C 
ENDROOT
BRANCH   1   2
ATOM      2  C   UNL     1      87.603  76.219  70.007  1.00  0.00     0.053 C 
BRANCH   2   3
ATOM      3  C   UNL     1      87.461  76.659  71.429  1.00  0.00     0.041 C 
ATOM      4  O   UNL     1      86.942  75.890  72.282  1.00  0.00    -0.550 OA
ATOM      5  O   UNL     1      87.857  77.937  71.804  1.00  0.00    -0.550 OA
ENDBRANCH   2   3
ENDBRANCH   1   2
BRANCH   1   6
ATOM      6  C   UNL     1      89.744  75.360  68.973  1.00  0.00     0.000 C 
BRANCH   6   7
ATOM      7  C   UNL     1      88.982  74.048  69.233  1.00  0.00    -0.000 C 
BRANCH   7   8
ATOM      8  C   UNL     1      89.712  73.047  70.147  1.00  0.00    -0.003 C 
ATOM      9  C   UNL     1      89.885  73.558  71.576  1.00  0.00     0.004 C 
ENDBRANCH   7   8
ENDBRANCH   6   7
ENDBRANCH   1   6
TORSDOF 5
ENDMDL
MODEL 2
REMARK VINA RESULT:    -3.971      1.624      2.214
REMARK INTER + INTRA:          -5.486
REMARK INTER:                  -5.255
REMARK INTRA:                  -0.231
REMARK UNBOUND:                -0.354
REMARK SMILES CCCCCCC(=O)[O-]
REMARK SMILES IDX 5 1 6 2 7 3 8 4 9 5 4 6 3 7 2 8 1 9
REMARK H PARENT
REMARK Flexibility Score: inf
ROOT
ATOM      1  C   UNL     1      87.436  76.199  70.515  1.00  0.00     0.006 C 
ENDROOT
BRANCH   1   2
ATOM      2  C   UNL     1      87.793  77.273  71.547  1.00  0.00     0.053 C 
BRANCH   2   3
ATOM      3  C   UNL     1      87.505  76.786  72.931  1.00  0.00     0.041 C 
ATOM      4  O   UNL     1      86.327  76.802  73.376  1.00  0.00    -0.550 OA
ATOM      5  O   UNL     1      88.545  76.358  73.748  1.00  0.00    -0.550 OA
ENDBRANCH   2   3
ENDBRANCH   1   2
BRANCH   1   6
ATOM      6  C   UNL     1      88.305  76.335  69.256  1.00  0.00     0.000 C 
BRANCH   6   7
ATOM      7  C   UNL     1      89.361  75.222  69.132  1.00  0.00    -0.000 C 
BRANCH   7   8
ATOM      8  C   UNL     1      90.595  75.398  70.035  1.00  0.00    -0.003 C 
ATOM      9  C   UNL     1      91.119  76.832  70.058  1.00  0.00     0.004 C 
ENDBRANCH   7   8
ENDBRANCH   6   7
ENDBRANCH   1   6
TORSDOF 5
ENDMDL
MODEL 3
REMARK VINA RESULT:    -3.949      1.882      2.815
REMARK INTER + INTRA:          -5.458
REMARK INTER:                  -5.062
REMARK INTRA:                  -0.396
REMARK UNBOUND:                -0.354
REMARK SMILES CCCCCCC(=O)[O-]
REMARK SMILES IDX 5 1 6 2 7 3 8 4 9 5 4 6 3 7 2 8 1 9
REMARK H PARENT
REMARK Flexibility Score: inf
ROOT
ATOM      1  C   UNL     1      89.418  74.371  69.612  1.00  0.00     0.006 C 
ENDROOT
BRANCH   1   2
ATOM      2  C   UNL     1      89.835  75.724  69.024  1.00  0.00     0.053 C 
BRANCH   2   3
ATOM      3  C   UNL     1      90.127  76.702  70.117  1.00  0.00     0.041 C 
ATOM      4  O   UNL     1      89.215  77.061  70.908  1.00  0.00    -0.550 OA
ATOM      5  O   UNL     1      91.397  77.255  70.233  1.00  0.00    -0.550 OA
ENDBRANCH   2   3
ENDBRANCH   1   2
BRANCH   1   6
ATOM      6  C   UNL     1      90.537  73.784  70.485  1.00  0.00     0.000 C 
BRANCH   6   7
ATOM      7  C   UNL     1      90.101  73.555  71.944  1.00  0.00    -0.000 C 
BRANCH   7   8
ATOM      8  C   UNL     1      88.594  73.736  72.204  1.00  0.00    -0.003 C 
ATOM      9  C   UNL     1      88.299  74.569  73.449  1.00  0.00     0.004 C 
ENDBRANCH   7   8
ENDBRANCH   6   7
ENDBRANCH   1   6
TORSDOF 5
ENDMDL
MODEL 4
REMARK VINA RESULT:    -3.911      2.286      3.716
REMARK INTER + INTRA:          -5.409
REMARK INTER:                  -5.009
REMARK INTRA:                  -0.401
REMARK UNBOUND:                -0.354
REMARK SMILES CCCCCCC(=O)[O-]
REMARK SMILES IDX 5 1 6 2 7 3 8 4 9 5 4 6 3 7 2 8 1 9
REMARK H PARENT
REMARK Flexibility Score: inf
ROOT
ATOM      1  C   UNL     1      89.307  75.407  68.970  1.00  0.00     0.006 C 
ENDROOT
BRANCH   1   2
ATOM      2  C   UNL     1      89.100  73.975  69.474  1.00  0.00     0.053 C 
BRANCH   2   3
ATOM      3  C   UNL     1      90.047  73.670  70.591  1.00  0.00     0.041 C 
ATOM      4  O   UNL     1      91.289  73.645  70.380  1.00  0.00    -0.550 OA
ATOM      5  O   UNL     1      89.557  73.367  71.855  1.00  0.00    -0.550 OA
ENDBRANCH   2   3
ENDBRANCH   1   2
BRANCH   1   6
ATOM      6  C   UNL     1      89.092  76.424  70.101  1.00  0.00     0.000 C 
BRANCH   6   7
ATOM      7  C   UNL     1      87.634  76.475  70.592  1.00  0.00    -0.000 C 
BRANCH   7   8
ATOM      8  C   UNL     1      87.468  76.554  72.120  1.00  0.00    -0.003 C 
ATOM      9  C   UNL     1      88.777  76.852  72.848  1.00  0.00     0.004 C 
ENDBRANCH   7   8
ENDBRANCH   6   7
ENDBRANCH   1   6
TORSDOF 5
ENDMDL
MODEL 5
REMARK VINA RESULT:    -3.907      2.557      3.528
REMARK INTER + INTRA:          -5.403
REMARK INTER:                  -4.964
REMARK INTRA:                  -0.438
REMARK UNBOUND:                -0.354
REMARK SMILES CCCCCCC(=O)[O-]
REMARK SMILES IDX 5 1 6 2 7 3 8 4 9 5 4 6 3 7 2 8 1 9
REMARK H PARENT
REMARK Flexibility Score: inf
ROOT
ATOM      1  C   UNL     1      87.895  75.760  69.548  1.00  0.00     0.006 C 
ENDROOT
BRANCH   1   2
ATOM      2  C   UNL     1      89.185  76.242  68.877  1.00  0.00     0.053 C 
BRANCH   2   3
ATOM      3  C   UNL     1      90.365  75.974  69.757  1.00  0.00     0.041 C 
ATOM      4  O   UNL     1      90.545  74.826  70.243  1.00  0.00    -0.550 OA
ATOM      5  O   UNL     1      91.239  77.004  70.081  1.00  0.00    -0.550 OA
ENDBRANCH   2   3
ENDBRANCH   1   2
BRANCH   1   6
ATOM      6  C   UNL     1      87.554  76.627  70.770  1.00  0.00     0.000 C 
BRANCH   6   7
ATOM      7  C   UNL     1      87.314  75.798  72.045  1.00  0.00    -0.000 C 
BRANCH   7   8
ATOM      8  C   UNL     1      88.298  76.081  73.194  1.00  0.00    -0.003 C 
ATOM      9  C   UNL     1      89.091  77.372  72.997  1.00  0.00     0.004 C 
ENDBRANCH   7   8
ENDBRANCH   6   7
ENDBRANCH   1   6
TORSDOF 5
ENDMDL
MODEL 6
REMARK VINA RESULT:    -3.902      2.325      3.278
REMARK INTER + INTRA:          -5.397
REMARK INTER:                  -5.043
REMARK INTRA:                  -0.354
REMARK UNBOUND:                -0.354
REMARK SMILES CCCCCCC(=O)[O-]
REMARK SMILES IDX 5 1 6 2 7 3 8 4 9 5 4 6 3 7 2 8 1 9
REMARK H PARENT
REMARK Flexibility Score: inf
ROOT
ATOM      1  C   UNL     1      87.107  76.241  72.020  1.00  0.00     0.006 C 
ENDROOT
BRANCH   1   2
ATOM      2  C   UNL     1      87.952  75.633  73.144  1.00  0.00     0.053 C 
BRANCH   2   3
ATOM      3  C   UNL     1      87.971  74.142  73.037  1.00  0.00     0.041 C 
ATOM      4  O   UNL     1      88.790  73.572  72.269  1.00  0.00    -0.550 OA
ATOM      5  O   UNL     1      87.052  73.381  73.750  1.00  0.00    -0.550 OA
ENDBRANCH   2   3
ENDBRANCH   1   2
BRANCH   1   6
ATOM      6  C   UNL     1      88.000  76.881  70.946  1.00  0.00     0.000 C 
BRANCH   6   7
ATOM      7  C   UNL     1      87.948  76.136  69.601  1.00  0.00    -0.000 C 
BRANCH   7   8
ATOM      8  C   UNL     1      89.321  75.741  69.027  1.00  0.00    -0.003 C 
ATOM      9  C   UNL     1      90.483  76.118  69.945  1.00  0.00     0.004 C 
ENDBRANCH   7   8
ENDBRANCH   6   7
ENDBRANCH   1   6
TORSDOF 5
ENDMDL
MODEL 7
REMARK VINA RESULT:    -3.881      2.004      3.508
REMARK INTER + INTRA:          -5.370
REMARK INTER:                  -5.035
REMARK INTRA:                  -0.335
REMARK UNBOUND:                -0.354
REMARK SMILES CCCCCCC(=O)[O-]
REMARK SMILES IDX 5 1 6 2 7 3 8 4 9 5 4 6 3 7 2 8 1 9
REMARK H PARENT
REMARK Flexibility Score: inf
ROOT
ATOM      1  C   UNL     1      89.015  73.554  69.638  1.00  0.00     0.006 C 
ENDROOT
BRANCH   1   2
ATOM      2  C   UNL     1      90.138  73.353  70.659  1.00  0.00     0.053 C 
BRANCH   2   3
ATOM      3  C   UNL     1      89.605  73.459  72.053  1.00  0.00     0.041 C 
ATOM      4  O   UNL     1      90.376  73.320  73.039  1.00  0.00    -0.550 OA
ATOM      5  O   UNL     1      88.247  73.663  72.264  1.00  0.00    -0.550 OA
ENDBRANCH   2   3
ENDBRANCH   1   2
BRANCH   1   6
ATOM      6  C   UNL     1      89.002  74.996  69.110  1.00  0.00     0.000 C 
BRANCH   6   7
ATOM      7  C   UNL     1      90.351  75.714  69.297  1.00  0.00    -0.000 C 
BRANCH   7   8
ATOM      8  C   UNL     1      90.312  76.929  70.241  1.00  0.00    -0.003 C 
ATOM      9  C   UNL     1      89.036  76.993  71.079  1.00  0.00     0.004 C 
ENDBRANCH   7   8
ENDBRANCH   6   7
ENDBRANCH   1   6
TORSDOF 5
ENDMDL
MODEL 8
REMARK VINA RESULT:    -3.796      1.593      2.924
REMARK INTER + INTRA:          -5.260
REMARK INTER:                  -4.796
REMARK INTRA:                  -0.464
REMARK UNBOUND:                -0.354
REMARK SMILES CCCCCCC(=O)[O-]
REMARK SMILES IDX 5 1 6 2 7 3 8 4 9 5 4 6 3 7 2 8 1 9
REMARK H PARENT
REMARK Flexibility Score: inf
ROOT
ATOM      1  C   UNL     1      89.030  73.468  71.301  1.00  0.00     0.006 C 
ENDROOT
BRANCH   1   2
ATOM      2  C   UNL     1      89.501  74.012  72.654  1.00  0.00     0.053 C 
BRANCH   2   3
ATOM      3  C   UNL     1      88.913  75.364  72.908  1.00  0.00     0.041 C 
ATOM      4  O   UNL     1      89.511  76.186  73.652  1.00  0.00    -0.550 OA
ATOM      5  O   UNL     1      87.681  75.701  72.361  1.00  0.00    -0.550 OA
ENDBRANCH   2   3
ENDBRANCH   1   2
BRANCH   1   6
ATOM      6  C   UNL     1      89.992  73.882  70.178  1.00  0.00     0.000 C 
BRANCH   6   7
ATOM      7  C   UNL     1      89.323  74.765  69.110  1.00  0.00    -0.000 C 
BRANCH   7   8
ATOM      8  C   UNL     1      89.496  76.280  69.323  1.00  0.00    -0.003 C 
ATOM      9  C   UNL     1      90.821  76.641  69.992  1.00  0.00     0.004 C 
ENDBRANCH   7   8
ENDBRANCH   6   7
ENDBRANCH   1   6
TORSDOF 5
ENDMDL
MODEL 9
REMARK VINA RESULT:    -3.785      1.635      2.720
REMARK INTER + INTRA:          -5.245
REMARK INTER:                  -4.813
REMARK INTRA:                  -0.432
REMARK UNBOUND:                -0.354
REMARK SMILES CCCCCCC(=O)[O-]
REMARK SMILES IDX 5 1 6 2 7 3 8 4 9 5 4 6 3 7 2 8 1 9
REMARK H PARENT
REMARK Flexibility Score: inf
ROOT
ATOM      1  C   UNL     1      87.928  75.416  73.283  1.00  0.00     0.006 C 
ENDROOT
BRANCH   1   2
ATOM      2  C   UNL     1      86.991  76.060  72.257  1.00  0.00     0.053 C 
BRANCH   2   3
ATOM      3  C   UNL     1      87.762  76.525  71.062  1.00  0.00     0.041 C 
ATOM      4  O   UNL     1      87.344  76.273  69.901  1.00  0.00    -0.550 OA
ATOM      5  O   UNL     1      88.968  77.194  71.230  1.00  0.00    -0.550 OA
ENDBRANCH   2   3
ENDBRANCH   1   2
BRANCH   1   6
ATOM      6  C   UNL     1      88.144  73.928  72.973  1.00  0.00     0.000 C 
BRANCH   6   7
ATOM      7  C   UNL     1      89.583  73.610  72.529  1.00  0.00    -0.000 C 
BRANCH   7   8
ATOM      8  C   UNL     1      89.756  73.368  71.019  1.00  0.00    -0.003 C 
ATOM      9  C   UNL     1      90.789  74.293  70.379  1.00  0.00     0.004 C 
ENDBRANCH   7   8
ENDBRANCH   6   7
ENDBRANCH   1   6
TORSDOF 5
ENDMDL
