MODEL 1
REMARK VINA RESULT:    -3.462      0.000      0.000
REMARK INTER + INTRA:          -3.737
REMARK INTER:                  -3.664
REMARK INTRA:                  -0.072
REMARK UNBOUND:                -0.072
REMARK SMILES C=C1CC[C@@H](C(C)C)[C@@H]2C=C(C)CC[C@@H]12
REMARK SMILES IDX 12 1 11 2 10 3 9 4 15 5 14 6 13 7 2 8 1 9 3 10 4 11 5 12
REMARK SMILES IDX 6 13 7 14 8 15
REMARK H PARENT
REMARK Flexibility Score: inf
ROOT
ATOM      1  C   UNL     1     138.140 137.506 119.628  1.00  0.00     0.039 C 
ATOM      2  C   UNL     1     138.305 137.123 121.073  1.00  0.00    -0.077 C 
ATOM      3  C   UNL     1     137.274 137.315 121.924  1.00  0.00    -0.024 C 
ATOM      4  C   UNL     1     137.381 137.011 123.411  1.00  0.00     0.022 C 
ATOM      5  C   UNL     1     138.207 135.704 123.525  1.00  0.00     0.022 C 
ATOM      6  C   UNL     1     139.621 135.974 122.969  1.00  0.00     0.013 C 
ATOM      7  C   UNL     1     139.575 136.401 121.490  1.00  0.00     0.031 C 
ATOM      8  C   UNL     1     138.161 135.164 124.932  1.00  0.00    -0.074 C 
ATOM      9  C   UNL     1     139.228 135.028 125.742  1.00  0.00     0.008 C 
ATOM     10  C   UNL     1     136.781 134.878 125.430  1.00  0.00     0.031 C 
ATOM     11  C   UNL     1     136.012 136.192 125.479  1.00  0.00     0.009 C 
ATOM     12  C   UNL     1     135.970 136.975 124.125  1.00  0.00    -0.001 C 
ENDROOT
BRANCH  12  13
ATOM     13  C   UNL     1     135.396 138.418 124.427  1.00  0.00    -0.014 C 
ATOM     14  C   UNL     1     136.377 139.377 125.120  1.00  0.00     0.007 C 
ATOM     15  C   UNL     1     134.878 139.109 123.146  1.00  0.00     0.007 C 
ENDBRANCH  12  13
TORSDOF 1
ENDMDL
MODEL 2
REMARK VINA RESULT:    -2.916     14.495     16.593
REMARK INTER + INTRA:          -3.159
REMARK INTER:                  -3.340
REMARK INTRA:                   0.181
REMARK UNBOUND:                -0.072
REMARK SMILES C=C1CC[C@@H](C(C)C)[C@@H]2C=C(C)CC[C@@H]12
REMARK SMILES IDX 12 1 11 2 10 3 9 4 15 5 14 6 13 7 2 8 1 9 3 10 4 11 5 12
REMARK SMILES IDX 6 13 7 14 8 15
REMARK H PARENT
REMARK Flexibility Score: inf
ROOT
ATOM      1  C   UNL     1     137.125 152.516 119.736  1.00  0.00     0.039 C 
ATOM      2  C   UNL     1     136.823 152.327 121.198  1.00  0.00    -0.077 C 
ATOM      3  C   UNL     1     137.091 153.333 122.058  1.00  0.00    -0.024 C 
ATOM      4  C   UNL     1     136.873 153.198 123.557  1.00  0.00     0.022 C 
ATOM      5  C   UNL     1     135.554 152.402 123.730  1.00  0.00     0.022 C 
ATOM      6  C   UNL     1     135.755 150.995 123.129  1.00  0.00     0.013 C 
ATOM      7  C   UNL     1     136.095 151.065 121.628  1.00  0.00     0.031 C 
ATOM      8  C   UNL     1     135.099 152.428 125.168  1.00  0.00    -0.074 C 
ATOM      9  C   UNL     1     134.984 151.345 125.960  1.00  0.00     0.008 C 
ATOM     10  C   UNL     1     134.878 153.802 125.713  1.00  0.00     0.031 C 
ATOM     11  C   UNL     1     136.212 154.537 125.700  1.00  0.00     0.009 C 
ATOM     12  C   UNL     1     136.915 154.592 124.303  1.00  0.00    -0.001 C 
ENDROOT
BRANCH  12  13
ATOM     13  C   UNL     1     138.387 155.124 124.531  1.00  0.00    -0.014 C 
ATOM     14  C   UNL     1     139.195 154.366 125.597  1.00  0.00     0.007 C 
ATOM     15  C   UNL     1     139.206 155.125 123.222  1.00  0.00     0.007 C 
ENDBRANCH  12  13
TORSDOF 1
ENDMDL
MODEL 3
REMARK VINA RESULT:    -2.582     14.092     16.236
REMARK INTER + INTRA:          -2.805
REMARK INTER:                  -2.558
REMARK INTRA:                  -0.247
REMARK UNBOUND:                -0.072
REMARK SMILES C=C1CC[C@@H](C(C)C)[C@@H]2C=C(C)CC[C@@H]12
REMARK SMILES IDX 12 1 11 2 10 3 9 4 15 5 14 6 13 7 2 8 1 9 3 10 4 11 5 12
REMARK SMILES IDX 6 13 7 14 8 15
REMARK H PARENT
REMARK Flexibility Score: inf
ROOT
ATOM      1  C   UNL     1     153.269 137.878 119.489  1.00  0.00     0.039 C 
ATOM      2  C   UNL     1     153.494 138.184 120.945  1.00  0.00    -0.077 C 
ATOM      3  C   UNL     1     153.032 137.320 121.875  1.00  0.00    -0.024 C 
ATOM      4  C   UNL     1     153.165 137.587 123.367  1.00  0.00     0.022 C 
ATOM      5  C   UNL     1     154.566 138.218 123.568  1.00  0.00     0.022 C 
ATOM      6  C   UNL     1     154.603 139.566 122.817  1.00  0.00     0.013 C 
ATOM      7  C   UNL     1     154.358 139.379 121.308  1.00  0.00     0.031 C 
ATOM      8  C   UNL     1     154.915 138.288 125.034  1.00  0.00    -0.074 C 
ATOM      9  C   UNL     1     155.125 139.426 125.723  1.00  0.00     0.008 C 
ATOM     10  C   UNL     1     154.907 136.964 125.727  1.00  0.00     0.031 C 
ATOM     11  C   UNL     1     153.489 136.412 125.677  1.00  0.00     0.009 C 
ATOM     12  C   UNL     1     152.880 136.298 124.240  1.00  0.00    -0.001 C 
ENDROOT
BRANCH  12  13
ATOM     13  C   UNL     1     151.337 135.991 124.398  1.00  0.00    -0.014 C 
ATOM     14  C   UNL     1     150.798 134.875 123.490  1.00  0.00     0.007 C 
ATOM     15  C   UNL     1     150.969 135.640 125.856  1.00  0.00     0.007 C 
ENDBRANCH  12  13
TORSDOF 1
ENDMDL
MODEL 4
REMARK VINA RESULT:    -1.268     13.907     16.354
REMARK INTER + INTRA:          -1.414
REMARK INTER:                  -1.320
REMARK INTRA:                  -0.094
REMARK UNBOUND:                -0.072
REMARK SMILES C=C1CC[C@@H](C(C)C)[C@@H]2C=C(C)CC[C@@H]12
REMARK SMILES IDX 12 1 11 2 10 3 9 4 15 5 14 6 13 7 2 8 1 9 3 10 4 11 5 12
REMARK SMILES IDX 6 13 7 14 8 15
REMARK H PARENT
REMARK Flexibility Score: inf
ROOT
ATOM      1  C   UNL     1     140.253 155.125 123.817  1.00  0.00     0.039 C 
ATOM      2  C   UNL     1     138.957 154.437 124.148  1.00  0.00    -0.077 C 
ATOM      3  C   UNL     1     138.399 153.615 123.233  1.00  0.00    -0.024 C 
ATOM      4  C   UNL     1     137.061 152.931 123.466  1.00  0.00     0.022 C 
ATOM      5  C   UNL     1     137.050 152.502 124.956  1.00  0.00     0.022 C 
ATOM      6  C   UNL     1     137.116 153.774 125.827  1.00  0.00     0.013 C 
ATOM      7  C   UNL     1     138.400 154.579 125.555  1.00  0.00     0.031 C 
ATOM      8  C   UNL     1     135.885 151.586 125.241  1.00  0.00    -0.074 C 
ATOM      9  C   UNL     1     134.875 151.865 126.086  1.00  0.00     0.008 C 
ATOM     10  C   UNL     1     135.867 150.346 124.408  1.00  0.00     0.031 C 
ATOM     11  C   UNL     1     135.709 150.756 122.949  1.00  0.00     0.009 C 
ATOM     12  C   UNL     1     136.789 151.764 122.433  1.00  0.00    -0.001 C 
ENDROOT
BRANCH  12  13
ATOM     13  C   UNL     1     136.310 152.293 121.021  1.00  0.00    -0.014 C 
ATOM     14  C   UNL     1     135.196 153.350 121.064  1.00  0.00     0.007 C 
ATOM     15  C   UNL     1     137.483 152.867 120.196  1.00  0.00     0.007 C 
ENDBRANCH  12  13
TORSDOF 1
ENDMDL
MODEL 5
REMARK VINA RESULT:    -1.236      1.239      4.458
REMARK INTER + INTRA:          -1.380
REMARK INTER:                  -1.086
REMARK INTRA:                  -0.294
REMARK UNBOUND:                -0.072
REMARK SMILES C=C1CC[C@@H](C(C)C)[C@@H]2C=C(C)CC[C@@H]12
REMARK SMILES IDX 12 1 11 2 10 3 9 4 15 5 14 6 13 7 2 8 1 9 3 10 4 11 5 12
REMARK SMILES IDX 6 13 7 14 8 15
REMARK H PARENT
REMARK Flexibility Score: inf
ROOT
ATOM      1  C   UNL     1     135.042 139.582 125.209  1.00  0.00     0.039 C 
ATOM      2  C   UNL     1     136.004 138.946 124.243  1.00  0.00    -0.077 C 
ATOM      3  C   UNL     1     136.795 137.939 124.673  1.00  0.00    -0.024 C 
ATOM      4  C   UNL     1     137.835 137.285 123.776  1.00  0.00     0.022 C 
ATOM      5  C   UNL     1     137.185 137.173 122.373  1.00  0.00     0.022 C 
ATOM      6  C   UNL     1     136.907 138.599 121.853  1.00  0.00     0.013 C 
ATOM      7  C   UNL     1     135.945 139.363 122.783  1.00  0.00     0.031 C 
ATOM      8  C   UNL     1     138.022 136.308 121.463  1.00  0.00    -0.074 C 
ATOM      9  C   UNL     1     138.619 136.731 120.333  1.00  0.00     0.008 C 
ATOM     10  C   UNL     1     138.244 134.922 121.975  1.00  0.00     0.031 C 
ATOM     11  C   UNL     1     139.031 135.018 123.275  1.00  0.00     0.009 C 
ATOM     12  C   UNL     1     138.378 135.923 124.371  1.00  0.00    -0.001 C 
ENDROOT
BRANCH  12  13
ATOM     13  C   UNL     1     139.449 136.136 125.515  1.00  0.00    -0.014 C 
ATOM     14  C   UNL     1     139.803 134.875 126.319  1.00  0.00     0.007 C 
ATOM     15  C   UNL     1     140.762 136.737 124.967  1.00  0.00     0.007 C 
ENDBRANCH  12  13
TORSDOF 1
ENDMDL
