MODEL 1
REMARK VINA RESULT:    15.038      0.000      0.000
REMARK INTER + INTRA:          18.432
REMARK INTER:                  18.115
REMARK INTRA:                   0.318
REMARK UNBOUND:                 0.318
REMARK SMILES O=c1c(O)c(-c2ccc(O)c(O)c2)oc2cc(O)cc(O)c12
REMARK SMILES IDX 5 1 3 2 2 3 1 4 22 5 20 6 19 7 17 8 16 9 15 10 14 11 6 12
REMARK SMILES IDX 7 13 8 14 9 15 13 16 11 17 10 18 12 20 4 22 21 24 18 26
REMARK H PARENT 10 19 12 21 4 23 21 25 18 27
REMARK Flexibility Score: inf
ROOT
ATOM      1  C   UNL     1      29.673  14.805   4.645  1.00  0.00     0.180 A 
ATOM      2  C   UNL     1      29.441  13.941   5.729  1.00  0.00     0.208 A 
ATOM      3  C   UNL     1      30.506  13.622   6.586  1.00  0.00     0.238 A 
ATOM      4  O   UNL     1      30.280  12.892   7.586  1.00  0.00    -0.285 OA
ATOM      5  C   UNL     1      31.794  14.157   6.338  1.00  0.00     0.111 A 
ATOM      6  C   UNL     1      32.954  13.869   7.117  1.00  0.00     0.134 A 
ATOM      7  C   UNL     1      34.147  14.556   6.860  1.00  0.00     0.093 A 
ATOM      8  C   UNL     1      34.239  15.471   5.813  1.00  0.00     0.123 A 
ATOM      9  C   UNL     1      33.127  15.716   5.006  1.00  0.00     0.094 A 
ATOM     10  C   UNL     1      31.913  15.073   5.262  1.00  0.00     0.146 A 
ATOM     11  O   UNL     1      30.876  15.342   4.478  1.00  0.00    -0.452 OA
ENDROOT
BRANCH   1  12
ATOM     12  C   UNL     1      28.606  15.168   3.684  1.00  0.00     0.025 A 
ATOM     13  C   UNL     1      27.250  15.154   4.056  1.00  0.00     0.016 A 
ATOM     14  C   UNL     1      26.258  15.478   3.127  1.00  0.00     0.051 A 
ATOM     15  C   UNL     1      26.603  15.805   1.811  1.00  0.00     0.157 A 
ATOM     16  C   UNL     1      28.946  15.477   2.358  1.00  0.00     0.062 A 
ATOM     17  C   UNL     1      27.952  15.802   1.422  1.00  0.00     0.158 A 
BRANCH  15  18
ATOM     18  O   UNL     1      25.591  16.125   0.907  1.00  0.00    -0.504 OA
ATOM     19  H   UNL     1      24.936  15.431   0.564  1.00  0.00     0.293 HD
ENDBRANCH  15  18
BRANCH  17  20
ATOM     20  O   UNL     1      28.301  16.120   0.111  1.00  0.00    -0.504 OA
ATOM     21  H   UNL     1      28.077  15.505  -0.663  1.00  0.00     0.293 HD
ENDBRANCH  17  20
ENDBRANCH   1  12
BRANCH   2  22
ATOM     22  O   UNL     1      28.158  13.442   5.968  1.00  0.00    -0.502 OA
ATOM     23  H   UNL     1      27.996  12.535   6.389  1.00  0.00     0.293 HD
ENDBRANCH   2  22
BRANCH   6  24
ATOM     24  O   UNL     1      32.995  12.905   8.130  1.00  0.00    -0.507 OA
ATOM     25  H   UNL     1      33.836  12.463   8.469  1.00  0.00     0.293 HD
ENDBRANCH   6  24
BRANCH   8  26
ATOM     26  O   UNL     1      35.446  16.125   5.575  1.00  0.00    -0.508 OA
ATOM     27  H   UNL     1      35.509  16.903   4.930  1.00  0.00     0.293 HD
ENDBRANCH   8  26
TORSDOF 6
ENDMDL
