MODEL 1
REMARK VINA RESULT:    -2.537      0.000      0.000
REMARK INTER + INTRA:          -3.501
REMARK INTER:                  -3.352
REMARK INTRA:                  -0.148
REMARK UNBOUND:                -0.148
REMARK SMILES CCCCCCCO
REMARK SMILES IDX 5 1 4 2 3 3 2 4 1 5 6 6 7 7 8 8
REMARK H PARENT 8 9
REMARK Flexibility Score: inf
ROOT
ATOM      1  C   UNL     1     128.575 127.038 116.880  1.00  0.00     0.002 C 
ENDROOT
BRANCH   1   2
ATOM      2  C   UNL     1     127.778 128.022 117.761  1.00  0.00     0.000 C 
BRANCH   2   3
ATOM      3  C   UNL     1     126.321 127.613 118.041  1.00  0.00    -0.000 C 
BRANCH   3   4
ATOM      4  C   UNL     1     125.431 128.802 118.426  1.00  0.00    -0.003 C 
ATOM      5  C   UNL     1     126.269 130.038 118.740  1.00  0.00     0.004 C 
ENDBRANCH   3   4
ENDBRANCH   2   3
ENDBRANCH   1   2
BRANCH   1   6
ATOM      6  C   UNL     1     127.904 126.669 115.544  1.00  0.00     0.028 C 
BRANCH   6   7
ATOM      7  C   UNL     1     128.422 125.360 114.932  1.00  0.00     0.156 C 
BRANCH   7   8
ATOM      8  O   UNL     1     127.474 124.335 115.053  1.00  0.00    -0.396 OA
ATOM      9  H   UNL     1     127.493 124.041 116.001  1.00  0.00     0.210 HD
ENDBRANCH   7   8
ENDBRANCH   6   7
ENDBRANCH   1   6
TORSDOF 6
ENDMDL
MODEL 2
REMARK VINA RESULT:    -2.483      0.761      1.302
REMARK INTER + INTRA:          -3.429
REMARK INTER:                  -3.324
REMARK INTRA:                  -0.105
REMARK UNBOUND:                -0.148
REMARK SMILES CCCCCCCO
REMARK SMILES IDX 5 1 4 2 3 3 2 4 1 5 6 6 7 7 8 8
REMARK H PARENT 8 9
REMARK Flexibility Score: inf
ROOT
ATOM      1  C   UNL     1     127.923 126.638 115.594  1.00  0.00     0.002 C 
ENDROOT
BRANCH   1   2
ATOM      2  C   UNL     1     127.979 126.646 117.135  1.00  0.00     0.000 C 
BRANCH   2   3
ATOM      3  C   UNL     1     127.636 127.994 117.792  1.00  0.00    -0.000 C 
BRANCH   3   4
ATOM      4  C   UNL     1     126.131 128.176 118.031  1.00  0.00    -0.003 C 
ATOM      5  C   UNL     1     125.847 129.465 118.798  1.00  0.00     0.004 C 
ENDBRANCH   3   4
ENDBRANCH   2   3
ENDBRANCH   1   2
BRANCH   1   6
ATOM      6  C   UNL     1     128.653 125.460 114.921  1.00  0.00     0.028 C 
BRANCH   6   7
ATOM      7  C   UNL     1     128.585 124.152 115.719  1.00  0.00     0.156 C 
BRANCH   7   8
ATOM      8  O   UNL     1     127.491 123.371 115.317  1.00  0.00    -0.396 OA
ATOM      9  H   UNL     1     126.939 123.942 114.721  1.00  0.00     0.210 HD
ENDBRANCH   7   8
ENDBRANCH   6   7
ENDBRANCH   1   6
TORSDOF 6
ENDMDL
MODEL 3
REMARK VINA RESULT:    -2.482     20.869     21.593
REMARK INTER + INTRA:          -3.428
REMARK INTER:                  -3.327
REMARK INTRA:                  -0.101
REMARK UNBOUND:                -0.148
REMARK SMILES CCCCCCCO
REMARK SMILES IDX 5 1 4 2 3 3 2 4 1 5 6 6 7 7 8 8
REMARK H PARENT 8 9
REMARK Flexibility Score: inf
ROOT
ATOM      1  C   UNL     1     110.963 112.382 115.460  1.00  0.00     0.002 C 
ENDROOT
BRANCH   1   2
ATOM      2  C   UNL     1     111.150 112.389 116.990  1.00  0.00     0.000 C 
BRANCH   2   3
ATOM      3  C   UNL     1     111.980 111.221 117.551  1.00  0.00    -0.000 C 
BRANCH   3   4
ATOM      4  C   UNL     1     113.011 111.669 118.596  1.00  0.00    -0.003 C 
ATOM      5  C   UNL     1     114.225 110.745 118.604  1.00  0.00     0.004 C 
ENDBRANCH   3   4
ENDBRANCH   2   3
ENDBRANCH   1   2
BRANCH   1   6
ATOM      6  C   UNL     1     110.311 113.649 114.876  1.00  0.00     0.028 C 
BRANCH   6   7
ATOM      7  C   UNL     1     110.457 114.888 115.769  1.00  0.00     0.156 C 
BRANCH   7   8
ATOM      8  O   UNL     1     111.515 115.701 115.337  1.00  0.00    -0.396 OA
ATOM      9  H   UNL     1     111.122 116.585 115.117  1.00  0.00     0.210 HD
ENDBRANCH   7   8
ENDBRANCH   6   7
ENDBRANCH   1   6
TORSDOF 6
ENDMDL
MODEL 4
REMARK VINA RESULT:    -2.477     21.150     21.864
REMARK INTER + INTRA:          -3.422
REMARK INTER:                  -3.320
REMARK INTRA:                  -0.102
REMARK UNBOUND:                -0.148
REMARK SMILES CCCCCCCO
REMARK SMILES IDX 5 1 4 2 3 3 2 4 1 5 6 6 7 7 8 8
REMARK H PARENT 8 9
REMARK Flexibility Score: inf
ROOT
ATOM      1  C   UNL     1     110.391 111.991 116.866  1.00  0.00     0.002 C 
ENDROOT
BRANCH   1   2
ATOM      2  C   UNL     1     111.170 111.040 117.796  1.00  0.00     0.000 C 
BRANCH   2   3
ATOM      3  C   UNL     1     112.516 111.585 118.306  1.00  0.00    -0.000 C 
BRANCH   3   4
ATOM      4  C   UNL     1     113.623 110.522 118.322  1.00  0.00    -0.003 C 
ATOM      5  C   UNL     1     114.785 110.951 119.213  1.00  0.00     0.004 C 
ENDBRANCH   3   4
ENDBRANCH   2   3
ENDBRANCH   1   2
BRANCH   1   6
ATOM      6  C   UNL     1     111.123 112.378 115.566  1.00  0.00     0.028 C 
BRANCH   6   7
ATOM      7  C   UNL     1     110.603 113.670 114.924  1.00  0.00     0.156 C 
BRANCH   7   8
ATOM      8  O   UNL     1     111.605 114.650 114.875  1.00  0.00    -0.396 OA
ATOM      9  H   UNL     1     112.393 114.228 114.443  1.00  0.00     0.210 HD
ENDBRANCH   7   8
ENDBRANCH   6   7
ENDBRANCH   1   6
TORSDOF 6
ENDMDL
MODEL 5
REMARK VINA RESULT:    -2.390     14.302     16.054
REMARK INTER + INTRA:          -3.306
REMARK INTER:                  -3.182
REMARK INTRA:                  -0.125
REMARK UNBOUND:                -0.148
REMARK SMILES CCCCCCCO
REMARK SMILES IDX 5 1 4 2 3 3 2 4 1 5 6 6 7 7 8 8
REMARK H PARENT 8 9
REMARK Flexibility Score: inf
ROOT
ATOM      1  C   UNL     1     126.754 110.968 115.526  1.00  0.00     0.002 C 
ENDROOT
BRANCH   1   2
ATOM      2  C   UNL     1     126.854 110.754 117.050  1.00  0.00     0.000 C 
BRANCH   2   3
ATOM      3  C   UNL     1     127.170 112.019 117.866  1.00  0.00    -0.000 C 
BRANCH   3   4
ATOM      4  C   UNL     1     128.657 112.143 118.225  1.00  0.00    -0.003 C 
ATOM      5  C   UNL     1     129.024 113.584 118.564  1.00  0.00     0.004 C 
ENDBRANCH   3   4
ENDBRANCH   2   3
ENDBRANCH   1   2
BRANCH   1   6
ATOM      6  C   UNL     1     125.464 110.434 114.875  1.00  0.00     0.028 C 
BRANCH   6   7
ATOM      7  C   UNL     1     124.228 110.534 115.779  1.00  0.00     0.156 C 
BRANCH   7   8
ATOM      8  O   UNL     1     123.361 111.544 115.339  1.00  0.00    -0.396 OA
ATOM      9  H   UNL     1     123.933 112.289 115.016  1.00  0.00     0.210 HD
ENDBRANCH   7   8
ENDBRANCH   6   7
ENDBRANCH   1   6
TORSDOF 6
ENDMDL
MODEL 6
REMARK VINA RESULT:    -2.364     15.429     16.290
REMARK INTER + INTRA:          -3.272
REMARK INTER:                  -3.119
REMARK INTRA:                  -0.154
REMARK UNBOUND:                -0.148
REMARK SMILES CCCCCCCO
REMARK SMILES IDX 5 1 4 2 3 3 2 4 1 5 6 6 7 7 8 8
REMARK H PARENT 8 9
REMARK Flexibility Score: inf
ROOT
ATOM      1  C   UNL     1     111.445 126.874 117.496  1.00  0.00     0.002 C 
ENDROOT
BRANCH   1   2
ATOM      2  C   UNL     1     110.214 126.635 118.392  1.00  0.00     0.000 C 
BRANCH   2   3
ATOM      3  C   UNL     1     110.291 125.385 119.287  1.00  0.00    -0.000 C 
BRANCH   3   4
ATOM      4  C   UNL     1     110.992 124.204 118.602  1.00  0.00    -0.003 C 
ATOM      5  C   UNL     1     112.206 123.744 119.403  1.00  0.00     0.004 C 
ENDBRANCH   3   4
ENDBRANCH   2   3
ENDBRANCH   1   2
BRANCH   1   6
ATOM      6  C   UNL     1     111.750 128.352 117.185  1.00  0.00     0.028 C 
BRANCH   6   7
ATOM      7  C   UNL     1     112.106 128.614 115.716  1.00  0.00     0.156 C 
BRANCH   7   8
ATOM      8  O   UNL     1     112.181 127.415 114.992  1.00  0.00    -0.396 OA
ATOM      9  H   UNL     1     111.959 126.686 115.627  1.00  0.00     0.210 HD
ENDBRANCH   7   8
ENDBRANCH   6   7
ENDBRANCH   1   6
TORSDOF 6
ENDMDL
MODEL 7
REMARK VINA RESULT:    -2.348     12.797     14.337
REMARK INTER + INTRA:          -3.251
REMARK INTER:                  -3.115
REMARK INTRA:                  -0.136
REMARK UNBOUND:                -0.148
REMARK SMILES CCCCCCCO
REMARK SMILES IDX 5 1 4 2 3 3 2 4 1 5 6 6 7 7 8 8
REMARK H PARENT 8 9
REMARK Flexibility Score: inf
ROOT
ATOM      1  C   UNL     1     127.280 112.200 118.080  1.00  0.00     0.002 C 
ENDROOT
BRANCH   1   2
ATOM      2  C   UNL     1     128.533 113.069 118.309  1.00  0.00     0.000 C 
BRANCH   2   3
ATOM      3  C   UNL     1     128.252 114.559 118.574  1.00  0.00    -0.000 C 
BRANCH   3   4
ATOM      4  C   UNL     1     127.162 114.782 119.632  1.00  0.00    -0.003 C 
ATOM      5  C   UNL     1     126.224 115.914 119.225  1.00  0.00     0.004 C 
ENDBRANCH   3   4
ENDBRANCH   2   3
ENDBRANCH   1   2
BRANCH   1   6
ATOM      6  C   UNL     1     127.474 111.019 117.110  1.00  0.00     0.028 C 
BRANCH   6   7
ATOM      7  C   UNL     1     126.405 110.940 116.012  1.00  0.00     0.156 C 
BRANCH   7   8
ATOM      8  O   UNL     1     126.785 111.676 114.881  1.00  0.00    -0.396 OA
ATOM      9  H   UNL     1     127.324 112.443 115.210  1.00  0.00     0.210 HD
ENDBRANCH   7   8
ENDBRANCH   6   7
ENDBRANCH   1   6
TORSDOF 6
ENDMDL
MODEL 8
REMARK VINA RESULT:    -2.340      2.112      3.740
REMARK INTER + INTRA:          -3.240
REMARK INTER:                  -2.993
REMARK INTRA:                  -0.247
REMARK UNBOUND:                -0.148
REMARK SMILES CCCCCCCO
REMARK SMILES IDX 5 1 4 2 3 3 2 4 1 5 6 6 7 7 8 8
REMARK H PARENT 8 9
REMARK Flexibility Score: inf
ROOT
ATOM      1  C   UNL     1     129.690 123.736 114.875  1.00  0.00     0.002 C 
ENDROOT
BRANCH   1   2
ATOM      2  C   UNL     1     129.475 125.263 114.886  1.00  0.00     0.000 C 
BRANCH   2   3
ATOM      3  C   UNL     1     128.043 125.716 115.222  1.00  0.00    -0.000 C 
BRANCH   3   4
ATOM      4  C   UNL     1     128.002 127.051 115.978  1.00  0.00    -0.003 C 
ATOM      5  C   UNL     1     127.855 126.830 117.480  1.00  0.00     0.004 C 
ENDBRANCH   3   4
ENDBRANCH   2   3
ENDBRANCH   1   2
BRANCH   1   6
ATOM      6  C   UNL     1     129.089 122.984 116.078  1.00  0.00     0.028 C 
BRANCH   6   7
ATOM      7  C   UNL     1     128.125 121.857 115.685  1.00  0.00     0.156 C 
BRANCH   7   8
ATOM      8  O   UNL     1     126.897 122.374 115.247  1.00  0.00    -0.396 OA
ATOM      9  H   UNL     1     126.729 121.984 114.349  1.00  0.00     0.210 HD
ENDBRANCH   7   8
ENDBRANCH   6   7
ENDBRANCH   1   6
TORSDOF 6
ENDMDL
MODEL 9
REMARK VINA RESULT:    -1.065     14.085     15.612
REMARK INTER + INTRA:          -1.556
REMARK INTER:                  -1.434
REMARK INTRA:                  -0.123
REMARK UNBOUND:                -0.148
REMARK SMILES CCCCCCCO
REMARK SMILES IDX 5 1 4 2 3 3 2 4 1 5 6 6 7 7 8 8
REMARK H PARENT 8 9
REMARK Flexibility Score: inf
ROOT
ATOM      1  C   UNL     1     112.086 128.451 116.773  1.00  0.00     0.002 C 
ENDROOT
BRANCH   1   2
ATOM      2  C   UNL     1     111.610 127.112 117.371  1.00  0.00     0.000 C 
BRANCH   2   3
ATOM      3  C   UNL     1     110.385 127.212 118.297  1.00  0.00    -0.000 C 
BRANCH   3   4
ATOM      4  C   UNL     1     109.875 125.841 118.762  1.00  0.00    -0.003 C 
ATOM      5  C   UNL     1     110.952 124.771 118.605  1.00  0.00     0.004 C 
ENDBRANCH   3   4
ENDBRANCH   2   3
ENDBRANCH   1   2
BRANCH   1   6
ATOM      6  C   UNL     1     112.355 128.430 115.256  1.00  0.00     0.028 C 
BRANCH   6   7
ATOM      7  C   UNL     1     113.819 128.697 114.883  1.00  0.00     0.156 C 
BRANCH   7   8
ATOM      8  O   UNL     1     114.564 127.509 114.877  1.00  0.00    -0.396 OA
ATOM      9  H   UNL     1     113.910 126.764 114.936  1.00  0.00     0.210 HD
ENDBRANCH   7   8
ENDBRANCH   6   7
ENDBRANCH   1   6
TORSDOF 6
ENDMDL
