MODEL 1
REMARK VINA RESULT:    -6.984      0.000      0.000
REMARK INTER + INTRA:          -8.722
REMARK INTER:                  -8.413
REMARK INTRA:                  -0.310
REMARK UNBOUND:                -0.310
REMARK SMILES O=c1c(O)c(-c2ccc(O)c(O)c2)oc2cc(O)cc(O)c12
REMARK SMILES IDX 5 1 3 2 2 3 1 4 22 5 20 6 19 7 17 8 16 9 15 10 14 11 6 12
REMARK SMILES IDX 7 13 8 14 9 15 13 16 11 17 10 18 12 20 4 22 21 24 18 26
REMARK H PARENT 10 19 12 21 4 23 21 25 18 27
REMARK Flexibility Score: inf
ROOT
ATOM      1  C   UNL     1      41.127 116.755  12.481  1.00  0.00     0.180 A 
ATOM      2  C   UNL     1      41.649 115.817  13.389  1.00  0.00     0.208 A 
ATOM      3  C   UNL     1      42.809 115.106  13.043  1.00  0.00     0.238 A 
ATOM      4  O   UNL     1      43.301 114.307  13.882  1.00  0.00    -0.285 OA
ATOM      5  C   UNL     1      43.424 115.330  11.787  1.00  0.00     0.111 A 
ATOM      6  C   UNL     1      44.579 114.637  11.316  1.00  0.00     0.134 A 
ATOM      7  C   UNL     1      45.179 115.032  10.114  1.00  0.00     0.093 A 
ATOM      8  C   UNL     1      44.629 116.048   9.335  1.00  0.00     0.123 A 
ATOM      9  C   UNL     1      43.466 116.692   9.757  1.00  0.00     0.094 A 
ATOM     10  C   UNL     1      42.865 116.346  10.969  1.00  0.00     0.146 A 
ATOM     11  O   UNL     1      41.764 116.990  11.340  1.00  0.00    -0.452 OA
ENDROOT
BRANCH   1  12
ATOM     12  C   UNL     1      39.894 117.525  12.764  1.00  0.00     0.025 A 
ATOM     13  C   UNL     1      39.977 118.712  13.510  1.00  0.00     0.016 A 
ATOM     14  C   UNL     1      38.830 119.466  13.770  1.00  0.00     0.051 A 
ATOM     15  C   UNL     1      37.586 119.052  13.276  1.00  0.00     0.157 A 
ATOM     16  C   UNL     1      38.647 117.124  12.253  1.00  0.00     0.062 A 
ATOM     17  C   UNL     1      37.496 117.881  12.514  1.00  0.00     0.158 A 
BRANCH  15  18
ATOM     18  O   UNL     1      36.439 119.799  13.536  1.00  0.00    -0.504 OA
ATOM     19  H   UNL     1      35.683 119.430  14.102  1.00  0.00     0.293 HD
ENDBRANCH  15  18
BRANCH  17  20
ATOM     20  O   UNL     1      36.258 117.479  12.011  1.00  0.00    -0.504 OA
ATOM     21  H   UNL     1      35.390 117.786  12.433  1.00  0.00     0.293 HD
ENDBRANCH  17  20
ENDBRANCH   1  12
BRANCH   2  22
ATOM     22  O   UNL     1      41.037 115.628  14.631  1.00  0.00    -0.502 OA
ATOM     23  H   UNL     1      40.930 114.712  15.051  1.00  0.00     0.293 HD
ENDBRANCH   2  22
BRANCH   6  24
ATOM     24  O   UNL     1      45.156 113.545  11.972  1.00  0.00    -0.507 OA
ATOM     25  H   UNL     1      45.997 113.587  12.528  1.00  0.00     0.293 HD
ENDBRANCH   6  24
BRANCH   8  26
ATOM     26  O   UNL     1      45.244 116.404   8.136  1.00  0.00    -0.508 OA
ATOM     27  H   UNL     1      44.902 116.065   7.244  1.00  0.00     0.293 HD
ENDBRANCH   8  26
TORSDOF 6
ENDMDL
MODEL 2
REMARK VINA RESULT:    -6.885      1.941      7.030
REMARK INTER + INTRA:          -8.603
REMARK INTER:                  -8.870
REMARK INTRA:                   0.266
REMARK UNBOUND:                -0.310
REMARK SMILES O=c1c(O)c(-c2ccc(O)c(O)c2)oc2cc(O)cc(O)c12
REMARK SMILES IDX 5 1 3 2 2 3 1 4 22 5 20 6 19 7 17 8 16 9 15 10 14 11 6 12
REMARK SMILES IDX 7 13 8 14 9 15 13 16 11 17 10 18 12 20 4 22 21 24 18 26
REMARK H PARENT 10 19 12 21 4 23 21 25 18 27
REMARK Flexibility Score: inf
ROOT
ATOM      1  C   UNL     1      40.132 117.484  12.916  1.00  0.00     0.180 A 
ATOM      2  C   UNL     1      40.333 117.557  14.305  1.00  0.00     0.208 A 
ATOM      3  C   UNL     1      39.255 117.912  15.132  1.00  0.00     0.238 A 
ATOM      4  O   UNL     1      39.428 117.923  16.379  1.00  0.00    -0.285 OA
ATOM      5  C   UNL     1      37.994 118.205  14.558  1.00  0.00     0.111 A 
ATOM      6  C   UNL     1      36.844 118.615  15.297  1.00  0.00     0.134 A 
ATOM      7  C   UNL     1      35.615 118.751  14.641  1.00  0.00     0.093 A 
ATOM      8  C   UNL     1      35.507 118.559  13.265  1.00  0.00     0.123 A 
ATOM      9  C   UNL     1      36.638 118.216  12.524  1.00  0.00     0.094 A 
ATOM     10  C   UNL     1      37.871 118.036  13.155  1.00  0.00     0.146 A 
ATOM     11  O   UNL     1      38.921 117.700  12.415  1.00  0.00    -0.452 OA
ENDROOT
BRANCH   1  12
ATOM     12  C   UNL     1      41.225 117.141  11.978  1.00  0.00     0.025 A 
ATOM     13  C   UNL     1      42.197 116.203  12.364  1.00  0.00     0.016 A 
ATOM     14  C   UNL     1      43.225 115.847  11.486  1.00  0.00     0.051 A 
ATOM     15  C   UNL     1      43.287 116.413  10.206  1.00  0.00     0.157 A 
ATOM     16  C   UNL     1      41.280 117.690  10.685  1.00  0.00     0.062 A 
ATOM     17  C   UNL     1      42.311 117.332   9.804  1.00  0.00     0.158 A 
BRANCH  15  18
ATOM     18  O   UNL     1      44.312 116.063   9.330  1.00  0.00    -0.504 OA
ATOM     19  H   UNL     1      44.164 116.028   8.327  1.00  0.00     0.293 HD
ENDBRANCH  15  18
BRANCH  17  20
ATOM     20  O   UNL     1      42.368 117.883   8.524  1.00  0.00    -0.504 OA
ATOM     21  H   UNL     1      41.528 118.146   8.022  1.00  0.00     0.293 HD
ENDBRANCH  17  20
ENDBRANCH   1  12
BRANCH   2  22
ATOM     22  O   UNL     1      41.580 117.242  14.851  1.00  0.00    -0.502 OA
ATOM     23  H   UNL     1      41.693 116.565  15.596  1.00  0.00     0.293 HD
ENDBRANCH   2  22
BRANCH   6  24
ATOM     24  O   UNL     1      36.861 118.923  16.661  1.00  0.00    -0.507 OA
ATOM     25  H   UNL     1      36.065 118.854  17.276  1.00  0.00     0.293 HD
ENDBRANCH   6  24
BRANCH   8  26
ATOM     26  O   UNL     1      34.271 118.719  12.643  1.00  0.00    -0.508 OA
ATOM     27  H   UNL     1      34.090 118.344  11.719  1.00  0.00     0.293 HD
ENDBRANCH   8  26
TORSDOF 6
ENDMDL
MODEL 3
REMARK VINA RESULT:    -6.857      3.714      8.800
REMARK INTER + INTRA:          -8.570
REMARK INTER:                  -8.939
REMARK INTRA:                   0.369
REMARK UNBOUND:                -0.310
REMARK SMILES O=c1c(O)c(-c2ccc(O)c(O)c2)oc2cc(O)cc(O)c12
REMARK SMILES IDX 5 1 3 2 2 3 1 4 22 5 20 6 19 7 17 8 16 9 15 10 14 11 6 12
REMARK SMILES IDX 7 13 8 14 9 15 13 16 11 17 10 18 12 20 4 22 21 24 18 26
REMARK H PARENT 10 19 12 21 4 23 21 25 18 27
REMARK Flexibility Score: inf
ROOT
ATOM      1  C   UNL     1      45.669 112.967   9.214  1.00  0.00     0.180 A 
ATOM      2  C   UNL     1      45.499 112.666  10.577  1.00  0.00     0.208 A 
ATOM      3  C   UNL     1      44.737 113.532  11.377  1.00  0.00     0.238 A 
ATOM      4  O   UNL     1      44.544 113.229  12.584  1.00  0.00    -0.285 OA
ATOM      5  C   UNL     1      44.168 114.698  10.808  1.00  0.00     0.111 A 
ATOM      6  C   UNL     1      43.413 115.667  11.534  1.00  0.00     0.134 A 
ATOM      7  C   UNL     1      42.787 116.712  10.844  1.00  0.00     0.093 A 
ATOM      8  C   UNL     1      42.943 116.862   9.467  1.00  0.00     0.123 A 
ATOM      9  C   UNL     1      43.729 115.954   8.757  1.00  0.00     0.094 A 
ATOM     10  C   UNL     1      44.336 114.879   9.411  1.00  0.00     0.146 A 
ATOM     11  O   UNL     1      45.068 114.032   8.697  1.00  0.00    -0.452 OA
ENDROOT
BRANCH   1  12
ATOM     12  C   UNL     1      46.478 112.115   8.314  1.00  0.00     0.025 A 
ATOM     13  C   UNL     1      46.610 110.744   8.593  1.00  0.00     0.016 A 
ATOM     14  C   UNL     1      47.350 109.917   7.744  1.00  0.00     0.051 A 
ATOM     15  C   UNL     1      47.956 110.445   6.597  1.00  0.00     0.157 A 
ATOM     16  C   UNL     1      47.071 112.636   7.150  1.00  0.00     0.062 A 
ATOM     17  C   UNL     1      47.814 111.805   6.298  1.00  0.00     0.158 A 
BRANCH  15  18
ATOM     18  O   UNL     1      48.698 109.624   5.750  1.00  0.00    -0.504 OA
ATOM     19  H   UNL     1      48.303 108.780   5.351  1.00  0.00     0.293 HD
ENDBRANCH  15  18
BRANCH  17  20
ATOM     20  O   UNL     1      48.407 112.325   5.148  1.00  0.00    -0.504 OA
ATOM     21  H   UNL     1      48.875 111.727   4.477  1.00  0.00     0.293 HD
ENDBRANCH  17  20
ENDBRANCH   1  12
BRANCH   2  22
ATOM     22  O   UNL     1      46.051 111.499  11.112  1.00  0.00    -0.502 OA
ATOM     23  H   UNL     1      45.580 110.948  11.820  1.00  0.00     0.293 HD
ENDBRANCH   2  22
BRANCH   6  24
ATOM     24  O   UNL     1      43.269 115.663  12.925  1.00  0.00    -0.507 OA
ATOM     25  H   UNL     1      42.819 116.391  13.459  1.00  0.00     0.293 HD
ENDBRANCH   6  24
BRANCH   8  26
ATOM     26  O   UNL     1      42.319 117.924   8.816  1.00  0.00    -0.508 OA
ATOM     27  H   UNL     1      41.872 118.673   9.332  1.00  0.00     0.293 HD
ENDBRANCH   8  26
TORSDOF 6
ENDMDL
MODEL 4
REMARK VINA RESULT:    -6.794      3.812      6.174
REMARK INTER + INTRA:          -8.493
REMARK INTER:                  -8.660
REMARK INTRA:                   0.167
REMARK UNBOUND:                -0.310
REMARK SMILES O=c1c(O)c(-c2ccc(O)c(O)c2)oc2cc(O)cc(O)c12
REMARK SMILES IDX 5 1 3 2 2 3 1 4 22 5 20 6 19 7 17 8 16 9 15 10 14 11 6 12
REMARK SMILES IDX 7 13 8 14 9 15 13 16 11 17 10 18 12 20 4 22 21 24 18 26
REMARK H PARENT 10 19 12 21 4 23 21 25 18 27
REMARK Flexibility Score: inf
ROOT
ATOM      1  C   UNL     1      45.056 114.219   8.666  1.00  0.00     0.180 A 
ATOM      2  C   UNL     1      45.312 113.123   9.509  1.00  0.00     0.208 A 
ATOM      3  C   UNL     1      46.192 112.119   9.073  1.00  0.00     0.238 A 
ATOM      4  O   UNL     1      46.458 111.168   9.854  1.00  0.00    -0.285 OA
ATOM      5  C   UNL     1      46.791 112.215   7.794  1.00  0.00     0.111 A 
ATOM      6  C   UNL     1      47.666 111.236   7.234  1.00  0.00     0.134 A 
ATOM      7  C   UNL     1      48.305 111.496   6.016  1.00  0.00     0.093 A 
ATOM      8  C   UNL     1      48.050 112.669   5.306  1.00  0.00     0.123 A 
ATOM      9  C   UNL     1      47.151 113.606   5.815  1.00  0.00     0.094 A 
ATOM     10  C   UNL     1      46.527 113.391   7.046  1.00  0.00     0.146 A 
ATOM     11  O   UNL     1      45.685 114.313   7.500  1.00  0.00    -0.452 OA
ENDROOT
BRANCH   1  12
ATOM     12  C   UNL     1      44.123 115.304   9.046  1.00  0.00     0.025 A 
ATOM     13  C   UNL     1      44.151 115.814  10.354  1.00  0.00     0.016 A 
ATOM     14  C   UNL     1      43.295 116.852  10.728  1.00  0.00     0.051 A 
ATOM     15  C   UNL     1      42.408 117.406   9.795  1.00  0.00     0.157 A 
ATOM     16  C   UNL     1      43.246 115.877   8.108  1.00  0.00     0.062 A 
ATOM     17  C   UNL     1      42.387 116.920   8.483  1.00  0.00     0.158 A 
BRANCH  15  18
ATOM     18  O   UNL     1      41.551 118.440  10.165  1.00  0.00    -0.504 OA
ATOM     19  H   UNL     1      41.408 119.249   9.570  1.00  0.00     0.293 HD
ENDBRANCH  15  18
BRANCH  17  20
ATOM     20  O   UNL     1      41.513 117.483   7.553  1.00  0.00    -0.504 OA
ATOM     21  H   UNL     1      40.524 117.584   7.748  1.00  0.00     0.293 HD
ENDBRANCH  17  20
ENDBRANCH   1  12
BRANCH   2  22
ATOM     22  O   UNL     1      44.726 113.060  10.776  1.00  0.00    -0.502 OA
ATOM     23  H   UNL     1      44.970 112.348  11.453  1.00  0.00     0.293 HD
ENDBRANCH   2  22
BRANCH   6  24
ATOM     24  O   UNL     1      47.918 109.990   7.817  1.00  0.00    -0.507 OA
ATOM     25  H   UNL     1      47.420 109.141   7.596  1.00  0.00     0.293 HD
ENDBRANCH   6  24
BRANCH   8  26
ATOM     26  O   UNL     1      48.692 112.887   4.088  1.00  0.00    -0.508 OA
ATOM     27  H   UNL     1      48.434 112.374   3.253  1.00  0.00     0.293 HD
ENDBRANCH   8  26
TORSDOF 6
ENDMDL
MODEL 5
REMARK VINA RESULT:    -6.790      3.426      5.536
REMARK INTER + INTRA:          -8.488
REMARK INTER:                  -8.278
REMARK INTRA:                  -0.210
REMARK UNBOUND:                -0.310
REMARK SMILES O=c1c(O)c(-c2ccc(O)c(O)c2)oc2cc(O)cc(O)c12
REMARK SMILES IDX 5 1 3 2 2 3 1 4 22 5 20 6 19 7 17 8 16 9 15 10 14 11 6 12
REMARK SMILES IDX 7 13 8 14 9 15 13 16 11 17 10 18 12 20 4 22 21 24 18 26
REMARK H PARENT 10 19 12 21 4 23 21 25 18 27
REMARK Flexibility Score: inf
ROOT
ATOM      1  C   UNL     1      44.816 115.453  11.855  1.00  0.00     0.180 A 
ATOM      2  C   UNL     1      45.516 116.261  12.767  1.00  0.00     0.208 A 
ATOM      3  C   UNL     1      46.301 115.649  13.757  1.00  0.00     0.238 A 
ATOM      4  O   UNL     1      46.968 116.378  14.537  1.00  0.00    -0.285 OA
ATOM      5  C   UNL     1      46.364 114.236  13.832  1.00  0.00     0.111 A 
ATOM      6  C   UNL     1      47.095 113.510  14.819  1.00  0.00     0.134 A 
ATOM      7  C   UNL     1      47.193 112.116  14.719  1.00  0.00     0.093 A 
ATOM      8  C   UNL     1      46.533 111.419  13.708  1.00  0.00     0.123 A 
ATOM      9  C   UNL     1      45.766 112.115  12.773  1.00  0.00     0.094 A 
ATOM     10  C   UNL     1      45.680 113.508  12.825  1.00  0.00     0.146 A 
ATOM     11  O   UNL     1      44.948 114.133  11.910  1.00  0.00    -0.452 OA
ENDROOT
BRANCH   1  12
ATOM     12  C   UNL     1      43.949 116.025  10.800  1.00  0.00     0.025 A 
ATOM     13  C   UNL     1      44.282 115.830   9.449  1.00  0.00     0.016 A 
ATOM     14  C   UNL     1      43.466 116.341   8.437  1.00  0.00     0.051 A 
ATOM     15  C   UNL     1      42.298 117.043   8.760  1.00  0.00     0.157 A 
ATOM     16  C   UNL     1      42.764 116.712  11.118  1.00  0.00     0.062 A 
ATOM     17  C   UNL     1      41.945 117.226  10.102  1.00  0.00     0.158 A 
BRANCH  15  18
ATOM     18  O   UNL     1      41.483 117.558   7.754  1.00  0.00    -0.504 OA
ATOM     19  H   UNL     1      41.149 116.977   6.993  1.00  0.00     0.293 HD
ENDBRANCH  15  18
BRANCH  17  20
ATOM     20  O   UNL     1      40.774 117.913  10.420  1.00  0.00    -0.504 OA
ATOM     21  H   UNL     1      40.642 118.884  10.162  1.00  0.00     0.293 HD
ENDBRANCH  17  20
ENDBRANCH   1  12
BRANCH   2  22
ATOM     22  O   UNL     1      45.457 117.654  12.661  1.00  0.00    -0.502 OA
ATOM     23  H   UNL     1      45.935 118.164  11.929  1.00  0.00     0.293 HD
ENDBRANCH   2  22
BRANCH   6  24
ATOM     24  O   UNL     1      47.716 114.101  15.923  1.00  0.00    -0.507 OA
ATOM     25  H   UNL     1      48.711 114.104  16.090  1.00  0.00     0.293 HD
ENDBRANCH   6  24
BRANCH   8  26
ATOM     26  O   UNL     1      46.639 110.031  13.649  1.00  0.00    -0.508 OA
ATOM     27  H   UNL     1      47.537 109.565  13.709  1.00  0.00     0.293 HD
ENDBRANCH   8  26
TORSDOF 6
ENDMDL
MODEL 6
REMARK VINA RESULT:    -6.710      1.207      2.843
REMARK INTER + INTRA:          -8.392
REMARK INTER:                  -8.069
REMARK INTRA:                  -0.323
REMARK UNBOUND:                -0.310
REMARK SMILES O=c1c(O)c(-c2ccc(O)c(O)c2)oc2cc(O)cc(O)c12
REMARK SMILES IDX 5 1 3 2 2 3 1 4 22 5 20 6 19 7 17 8 16 9 15 10 14 11 6 12
REMARK SMILES IDX 7 13 8 14 9 15 13 16 11 17 10 18 12 20 4 22 21 24 18 26
REMARK H PARENT 10 19 12 21 4 23 21 25 18 27
REMARK Flexibility Score: inf
ROOT
ATOM      1  C   UNL     1      41.168 116.932  12.056  1.00  0.00     0.180 A 
ATOM      2  C   UNL     1      41.775 117.296  10.842  1.00  0.00     0.208 A 
ATOM      3  C   UNL     1      42.960 116.652  10.451  1.00  0.00     0.238 A 
ATOM      4  O   UNL     1      43.468 116.944   9.337  1.00  0.00    -0.285 OA
ATOM      5  C   UNL     1      43.532 115.663  11.288  1.00  0.00     0.111 A 
ATOM      6  C   UNL     1      44.751 114.975  11.011  1.00  0.00     0.134 A 
ATOM      7  C   UNL     1      45.155 113.924  11.843  1.00  0.00     0.093 A 
ATOM      8  C   UNL     1      44.421 113.580  12.977  1.00  0.00     0.123 A 
ATOM      9  C   UNL     1      43.258 114.285  13.289  1.00  0.00     0.094 A 
ATOM     10  C   UNL     1      42.810 115.314  12.459  1.00  0.00     0.146 A 
ATOM     11  O   UNL     1      41.694 115.955  12.786  1.00  0.00    -0.452 OA
ENDROOT
BRANCH   1  12
ATOM     12  C   UNL     1      39.932 117.583  12.546  1.00  0.00     0.025 A 
ATOM     13  C   UNL     1      40.026 118.751  13.321  1.00  0.00     0.016 A 
ATOM     14  C   UNL     1      38.872 119.394  13.774  1.00  0.00     0.051 A 
ATOM     15  C   UNL     1      37.607 118.888  13.448  1.00  0.00     0.157 A 
ATOM     16  C   UNL     1      38.660 117.090  12.204  1.00  0.00     0.062 A 
ATOM     17  C   UNL     1      37.502 117.736  12.659  1.00  0.00     0.158 A 
BRANCH  15  18
ATOM     18  O   UNL     1      36.453 119.524  13.901  1.00  0.00    -0.504 OA
ATOM     19  H   UNL     1      35.577 119.457  13.396  1.00  0.00     0.293 HD
ENDBRANCH  15  18
BRANCH  17  20
ATOM     20  O   UNL     1      36.241 117.243  12.324  1.00  0.00    -0.504 OA
ATOM     21  H   UNL     1      35.401 117.789  12.474  1.00  0.00     0.293 HD
ENDBRANCH  17  20
ENDBRANCH   1  12
BRANCH   2  22
ATOM     22  O   UNL     1      41.181 118.259  10.021  1.00  0.00    -0.502 OA
ATOM     23  H   UNL     1      41.431 119.240  10.065  1.00  0.00     0.293 HD
ENDBRANCH   2  22
BRANCH   6  24
ATOM     24  O   UNL     1      45.609 115.300   9.956  1.00  0.00    -0.507 OA
ATOM     25  H   UNL     1      45.941 114.647   9.263  1.00  0.00     0.293 HD
ENDBRANCH   6  24
BRANCH   8  26
ATOM     26  O   UNL     1      44.861 112.539  13.791  1.00  0.00    -0.508 OA
ATOM     27  H   UNL     1      44.563 112.459  14.757  1.00  0.00     0.293 HD
ENDBRANCH   8  26
TORSDOF 6
ENDMDL
MODEL 7
REMARK VINA RESULT:    -6.701      3.449      5.511
REMARK INTER + INTRA:          -8.382
REMARK INTER:                  -8.121
REMARK INTRA:                  -0.261
REMARK UNBOUND:                -0.310
REMARK SMILES O=c1c(O)c(-c2ccc(O)c(O)c2)oc2cc(O)cc(O)c12
REMARK SMILES IDX 5 1 3 2 2 3 1 4 22 5 20 6 19 7 17 8 16 9 15 10 14 11 6 12
REMARK SMILES IDX 7 13 8 14 9 15 13 16 11 17 10 18 12 20 4 22 21 24 18 26
REMARK H PARENT 10 19 12 21 4 23 21 25 18 27
REMARK Flexibility Score: inf
ROOT
ATOM      1  C   UNL     1      44.753 115.142  11.862  1.00  0.00     0.180 A 
ATOM      2  C   UNL     1      44.688 113.758  12.103  1.00  0.00     0.208 A 
ATOM      3  C   UNL     1      45.516 113.199  13.089  1.00  0.00     0.238 A 
ATOM      4  O   UNL     1      45.415 111.969  13.338  1.00  0.00    -0.285 OA
ATOM      5  C   UNL     1      46.411 114.027  13.810  1.00  0.00     0.111 A 
ATOM      6  C   UNL     1      47.325 113.561  14.802  1.00  0.00     0.134 A 
ATOM      7  C   UNL     1      48.069 114.486  15.544  1.00  0.00     0.093 A 
ATOM      8  C   UNL     1      47.983 115.853  15.285  1.00  0.00     0.123 A 
ATOM      9  C   UNL     1      47.137 116.314  14.277  1.00  0.00     0.094 A 
ATOM     10  C   UNL     1      46.354 115.420  13.545  1.00  0.00     0.146 A 
ATOM     11  O   UNL     1      45.554 115.901  12.600  1.00  0.00    -0.452 OA
ENDROOT
BRANCH   1  12
ATOM     12  C   UNL     1      43.929 115.799  10.823  1.00  0.00     0.025 A 
ATOM     13  C   UNL     1      44.258 115.629   9.468  1.00  0.00     0.016 A 
ATOM     14  C   UNL     1      43.481 116.222   8.470  1.00  0.00     0.051 A 
ATOM     15  C   UNL     1      42.355 116.982   8.811  1.00  0.00     0.157 A 
ATOM     16  C   UNL     1      42.785 116.546  11.159  1.00  0.00     0.062 A 
ATOM     17  C   UNL     1      42.005 117.141  10.157  1.00  0.00     0.158 A 
BRANCH  15  18
ATOM     18  O   UNL     1      41.579 117.578   7.819  1.00  0.00    -0.504 OA
ATOM     19  H   UNL     1      40.826 117.076   7.362  1.00  0.00     0.293 HD
ENDBRANCH  15  18
BRANCH  17  20
ATOM     20  O   UNL     1      40.875 117.887  10.493  1.00  0.00    -0.504 OA
ATOM     21  H   UNL     1      40.936 118.700  11.094  1.00  0.00     0.293 HD
ENDBRANCH  17  20
ENDBRANCH   1  12
BRANCH   2  22
ATOM     22  O   UNL     1      43.782 112.964  11.395  1.00  0.00    -0.502 OA
ATOM     23  H   UNL     1      43.604 113.092  10.406  1.00  0.00     0.293 HD
ENDBRANCH   2  22
BRANCH   6  24
ATOM     24  O   UNL     1      47.557 112.210  15.077  1.00  0.00    -0.507 OA
ATOM     25  H   UNL     1      47.085 111.679  15.793  1.00  0.00     0.293 HD
ENDBRANCH   6  24
BRANCH   8  26
ATOM     26  O   UNL     1      48.751 116.743  16.033  1.00  0.00    -0.508 OA
ATOM     27  H   UNL     1      49.758 116.651  16.096  1.00  0.00     0.293 HD
ENDBRANCH   8  26
TORSDOF 6
ENDMDL
MODEL 8
REMARK VINA RESULT:    -6.667      1.581      3.029
REMARK INTER + INTRA:          -8.341
REMARK INTER:                  -8.415
REMARK INTRA:                   0.074
REMARK UNBOUND:                -0.310
REMARK SMILES O=c1c(O)c(-c2ccc(O)c(O)c2)oc2cc(O)cc(O)c12
REMARK SMILES IDX 5 1 3 2 2 3 1 4 22 5 20 6 19 7 17 8 16 9 15 10 14 11 6 12
REMARK SMILES IDX 7 13 8 14 9 15 13 16 11 17 10 18 12 20 4 22 21 24 18 26
REMARK H PARENT 10 19 12 21 4 23 21 25 18 27
REMARK Flexibility Score: inf
ROOT
ATOM      1  C   UNL     1      41.785 116.396  12.203  1.00  0.00     0.180 A 
ATOM      2  C   UNL     1      42.213 117.047  11.032  1.00  0.00     0.208 A 
ATOM      3  C   UNL     1      43.224 116.458  10.256  1.00  0.00     0.238 A 
ATOM      4  O   UNL     1      43.566 117.018   9.182  1.00  0.00    -0.285 OA
ATOM      5  C   UNL     1      43.805 115.233  10.668  1.00  0.00     0.111 A 
ATOM      6  C   UNL     1      44.863 114.568   9.979  1.00  0.00     0.134 A 
ATOM      7  C   UNL     1      45.271 113.297  10.404  1.00  0.00     0.093 A 
ATOM      8  C   UNL     1      44.706 112.698  11.528  1.00  0.00     0.123 A 
ATOM      9  C   UNL     1      43.712 113.366  12.243  1.00  0.00     0.094 A 
ATOM     10  C   UNL     1      43.258 114.618  11.823  1.00  0.00     0.146 A 
ATOM     11  O   UNL     1      42.303 115.217  12.526  1.00  0.00    -0.452 OA
ENDROOT
BRANCH   1  12
ATOM     12  C   UNL     1      40.742 116.967  13.085  1.00  0.00     0.025 A 
ATOM     13  C   UNL     1      40.971 117.040  14.469  1.00  0.00     0.016 A 
ATOM     14  C   UNL     1      40.010 117.595  15.317  1.00  0.00     0.051 A 
ATOM     15  C   UNL     1      38.813 118.099  14.793  1.00  0.00     0.157 A 
ATOM     16  C   UNL     1      39.548 117.493  12.561  1.00  0.00     0.062 A 
ATOM     17  C   UNL     1      38.583 118.051  13.413  1.00  0.00     0.158 A 
BRANCH  15  18
ATOM     18  O   UNL     1      37.851 118.651  15.636  1.00  0.00    -0.504 OA
ATOM     19  H   UNL     1      37.649 119.644  15.632  1.00  0.00     0.293 HD
ENDBRANCH  15  18
BRANCH  17  20
ATOM     20  O   UNL     1      37.396 118.566  12.893  1.00  0.00    -0.504 OA
ATOM     21  H   UNL     1      36.514 118.461  13.381  1.00  0.00     0.293 HD
ENDBRANCH  17  20
ENDBRANCH   1  12
BRANCH   2  22
ATOM     22  O   UNL     1      41.611 118.243  10.634  1.00  0.00    -0.502 OA
ATOM     23  H   UNL     1      41.207 118.369   9.714  1.00  0.00     0.293 HD
ENDBRANCH   2  22
BRANCH   6  24
ATOM     24  O   UNL     1      45.560 115.118   8.899  1.00  0.00    -0.507 OA
ATOM     25  H   UNL     1      45.148 115.701   8.186  1.00  0.00     0.293 HD
ENDBRANCH   6  24
BRANCH   8  26
ATOM     26  O   UNL     1      45.147 111.439  11.931  1.00  0.00    -0.508 OA
ATOM     27  H   UNL     1      45.103 110.639  11.311  1.00  0.00     0.293 HD
ENDBRANCH   8  26
TORSDOF 6
ENDMDL
MODEL 9
REMARK VINA RESULT:    -6.639      3.614      5.729
REMARK INTER + INTRA:          -8.307
REMARK INTER:                  -8.773
REMARK INTRA:                   0.465
REMARK UNBOUND:                -0.310
REMARK SMILES O=c1c(O)c(-c2ccc(O)c(O)c2)oc2cc(O)cc(O)c12
REMARK SMILES IDX 5 1 3 2 2 3 1 4 22 5 20 6 19 7 17 8 16 9 15 10 14 11 6 12
REMARK SMILES IDX 7 13 8 14 9 15 13 16 11 17 10 18 12 20 4 22 21 24 18 26
REMARK H PARENT 10 19 12 21 4 23 21 25 18 27
REMARK Flexibility Score: inf
ROOT
ATOM      1  C   UNL     1      44.843 113.988   9.625  1.00  0.00     0.180 A 
ATOM      2  C   UNL     1      45.219 113.246  10.759  1.00  0.00     0.208 A 
ATOM      3  C   UNL     1      46.060 112.134  10.598  1.00  0.00     0.238 A 
ATOM      4  O   UNL     1      46.436 111.506  11.622  1.00  0.00    -0.285 OA
ATOM      5  C   UNL     1      46.501 111.767   9.303  1.00  0.00     0.111 A 
ATOM      6  C   UNL     1      47.323 110.635   9.019  1.00  0.00     0.134 A 
ATOM      7  C   UNL     1      47.807 110.442   7.719  1.00  0.00     0.093 A 
ATOM      8  C   UNL     1      47.447 111.301   6.682  1.00  0.00     0.123 A 
ATOM      9  C   UNL     1      46.597 112.377   6.938  1.00  0.00     0.094 A 
ATOM     10  C   UNL     1      46.127 112.617   8.231  1.00  0.00     0.146 A 
ATOM     11  O   UNL     1      45.327 113.657   8.434  1.00  0.00    -0.452 OA
ENDROOT
BRANCH   1  12
ATOM     12  C   UNL     1      43.940 115.157   9.713  1.00  0.00     0.025 A 
ATOM     13  C   UNL     1      43.750 115.793  10.951  1.00  0.00     0.016 A 
ATOM     14  C   UNL     1      42.920 116.912  11.052  1.00  0.00     0.051 A 
ATOM     15  C   UNL     1      42.279 117.421   9.915  1.00  0.00     0.157 A 
ATOM     16  C   UNL     1      43.311 115.684   8.571  1.00  0.00     0.062 A 
ATOM     17  C   UNL     1      42.478 116.808   8.672  1.00  0.00     0.158 A 
BRANCH  15  18
ATOM     18  O   UNL     1      41.448 118.535  10.012  1.00  0.00    -0.504 OA
ATOM     19  H   UNL     1      40.633 118.642   9.418  1.00  0.00     0.293 HD
ENDBRANCH  15  18
BRANCH  17  20
ATOM     20  O   UNL     1      41.850 117.325   7.540  1.00  0.00    -0.504 OA
ATOM     21  H   UNL     1      41.540 116.725   6.785  1.00  0.00     0.293 HD
ENDBRANCH  17  20
ENDBRANCH   1  12
BRANCH   2  22
ATOM     22  O   UNL     1      44.788 113.639  12.029  1.00  0.00    -0.502 OA
ATOM     23  H   UNL     1      45.317 113.439  12.869  1.00  0.00     0.293 HD
ENDBRANCH   2  22
BRANCH   6  24
ATOM     24  O   UNL     1      47.667 109.663   9.963  1.00  0.00    -0.507 OA
ATOM     25  H   UNL     1      47.005 109.130  10.507  1.00  0.00     0.293 HD
ENDBRANCH   6  24
BRANCH   8  26
ATOM     26  O   UNL     1      47.935 111.071   5.398  1.00  0.00    -0.508 OA
ATOM     27  H   UNL     1      47.754 110.201   4.910  1.00  0.00     0.293 HD
ENDBRANCH   8  26
TORSDOF 6
ENDMDL
