MODEL 1
REMARK VINA RESULT:    -3.182      0.000      0.000
REMARK INTER + INTRA:          -4.147
REMARK INTER:                  -3.927
REMARK INTRA:                  -0.220
REMARK UNBOUND:                -0.220
REMARK SMILES CCCCC=CC(C)=O
REMARK SMILES IDX 4 1 3 2 2 3 1 4 5 5 6 6 7 7 9 8 8 9
REMARK H PARENT
REMARK Flexibility Score: inf
ROOT
ATOM      1  C   UNL     1     205.070 161.731 177.120  1.00  0.00     0.027 C 
ENDROOT
BRANCH   1   2
ATOM      2  C   UNL     1     205.271 163.016 176.303  1.00  0.00     0.004 C 
BRANCH   2   3
ATOM      3  C   UNL     1     204.667 162.919 174.894  1.00  0.00    -0.003 C 
ATOM      4  C   UNL     1     205.731 162.833 173.799  1.00  0.00     0.004 C 
ENDBRANCH   2   3
ENDBRANCH   1   2
BRANCH   1   5
ATOM      5  C   UNL     1     206.349 160.949 177.222  1.00  0.00    -0.023 C 
ATOM      6  C   UNL     1     206.435 159.689 176.776  1.00  0.00     0.042 C 
BRANCH   6   7
ATOM      7  C   UNL     1     207.665 158.878 176.867  1.00  0.00     0.152 C 
ATOM      8  O   UNL     1     208.602 159.282 177.604  1.00  0.00    -0.295 OA
ATOM      9  C   UNL     1     207.838 157.593 176.113  1.00  0.00     0.093 C 
ENDBRANCH   6   7
ENDBRANCH   1   5
TORSDOF 4
ENDMDL
MODEL 2
REMARK VINA RESULT:    -3.130      2.243      4.640
REMARK INTER + INTRA:          -4.081
REMARK INTER:                  -3.826
REMARK INTRA:                  -0.255
REMARK UNBOUND:                -0.220
REMARK SMILES CCCCC=CC(C)=O
REMARK SMILES IDX 4 1 3 2 2 3 1 4 5 5 6 6 7 7 9 8 8 9
REMARK H PARENT
REMARK Flexibility Score: inf
ROOT
ATOM      1  C   UNL     1     207.517 160.939 177.846  1.00  0.00     0.027 C 
ENDROOT
BRANCH   1   2
ATOM      2  C   UNL     1     207.070 159.489 177.613  1.00  0.00     0.004 C 
BRANCH   2   3
ATOM      3  C   UNL     1     208.135 158.654 176.885  1.00  0.00    -0.003 C 
ATOM      4  C   UNL     1     207.551 157.805 175.756  1.00  0.00     0.004 C 
ENDBRANCH   2   3
ENDBRANCH   1   2
BRANCH   1   5
ATOM      5  C   UNL     1     206.819 161.880 176.906  1.00  0.00    -0.023 C 
ATOM      6  C   UNL     1     205.746 161.496 176.203  1.00  0.00     0.042 C 
BRANCH   6   7
ATOM      7  C   UNL     1     205.036 162.380 175.258  1.00  0.00     0.152 C 
ATOM      8  O   UNL     1     203.875 162.768 175.551  1.00  0.00    -0.295 OA
ATOM      9  C   UNL     1     205.646 162.830 173.964  1.00  0.00     0.093 C 
ENDBRANCH   6   7
ENDBRANCH   1   5
TORSDOF 4
ENDMDL
MODEL 3
REMARK VINA RESULT:    -3.073     17.225     18.145
REMARK INTER + INTRA:          -4.011
REMARK INTER:                  -3.822
REMARK INTRA:                  -0.190
REMARK UNBOUND:                -0.220
REMARK SMILES CCCCC=CC(C)=O
REMARK SMILES IDX 4 1 3 2 2 3 1 4 5 5 6 6 7 7 9 8 8 9
REMARK H PARENT
REMARK Flexibility Score: inf
ROOT
ATOM      1  C   UNL     1     197.812 148.789 163.836  1.00  0.00     0.027 C 
ENDROOT
BRANCH   1   2
ATOM      2  C   UNL     1     197.119 149.020 162.485  1.00  0.00     0.004 C 
BRANCH   2   3
ATOM      3  C   UNL     1     197.818 150.096 161.640  1.00  0.00    -0.003 C 
ATOM      4  C   UNL     1     196.922 150.654 160.534  1.00  0.00     0.004 C 
ENDBRANCH   2   3
ENDBRANCH   1   2
BRANCH   1   5
ATOM      5  C   UNL     1     198.857 149.836 164.095  1.00  0.00    -0.023 C 
ATOM      6  C   UNL     1     199.043 150.351 165.316  1.00  0.00     0.042 C 
BRANCH   6   7
ATOM      7  C   UNL     1     200.048 151.390 165.615  1.00  0.00     0.152 C 
ATOM      8  O   UNL     1     201.247 151.043 165.776  1.00  0.00    -0.295 OA
ATOM      9  C   UNL     1     199.693 152.843 165.735  1.00  0.00     0.093 C 
ENDBRANCH   6   7
ENDBRANCH   1   5
TORSDOF 4
ENDMDL
MODEL 4
REMARK VINA RESULT:    -2.916     18.114     18.993
REMARK INTER + INTRA:          -3.818
REMARK INTER:                  -3.654
REMARK INTRA:                  -0.164
REMARK UNBOUND:                -0.220
REMARK SMILES CCCCC=CC(C)=O
REMARK SMILES IDX 4 1 3 2 2 3 1 4 5 5 6 6 7 7 9 8 8 9
REMARK H PARENT
REMARK Flexibility Score: inf
ROOT
ATOM      1  C   UNL     1     197.133 148.712 162.642  1.00  0.00     0.027 C 
ENDROOT
BRANCH   1   2
ATOM      2  C   UNL     1     197.725 149.482 161.452  1.00  0.00     0.004 C 
BRANCH   2   3
ATOM      3  C   UNL     1     196.728 150.477 160.840  1.00  0.00    -0.003 C 
ATOM      4  C   UNL     1     197.138 150.942 159.442  1.00  0.00     0.004 C 
ENDBRANCH   2   3
ENDBRANCH   1   2
BRANCH   1   5
ATOM      5  C   UNL     1     197.986 148.870 163.868  1.00  0.00    -0.023 C 
ATOM      6  C   UNL     1     198.750 149.954 164.052  1.00  0.00     0.042 C 
BRANCH   6   7
ATOM      7  C   UNL     1     199.613 150.147 165.234  1.00  0.00     0.152 C 
ATOM      8  O   UNL     1     200.435 149.243 165.537  1.00  0.00    -0.295 OA
ATOM      9  C   UNL     1     199.547 151.380 166.086  1.00  0.00     0.093 C 
ENDBRANCH   6   7
ENDBRANCH   1   5
TORSDOF 4
ENDMDL
MODEL 5
REMARK VINA RESULT:    -2.915     13.516     14.816
REMARK INTER + INTRA:          -3.817
REMARK INTER:                  -3.672
REMARK INTRA:                  -0.145
REMARK UNBOUND:                -0.220
REMARK SMILES CCCCC=CC(C)=O
REMARK SMILES IDX 4 1 3 2 2 3 1 4 5 5 6 6 7 7 9 8 8 9
REMARK H PARENT
REMARK Flexibility Score: inf
ROOT
ATOM      1  C   UNL     1     200.936 154.314 165.051  1.00  0.00     0.027 C 
ENDROOT
BRANCH   1   2
ATOM      2  C   UNL     1     199.625 153.747 165.615  1.00  0.00     0.004 C 
BRANCH   2   3
ATOM      3  C   UNL     1     199.756 152.277 166.045  1.00  0.00    -0.003 C 
ATOM      4  C   UNL     1     199.371 151.300 164.934  1.00  0.00     0.004 C 
ENDBRANCH   2   3
ENDBRANCH   1   2
BRANCH   1   5
ATOM      5  C   UNL     1     200.732 155.694 164.493  1.00  0.00    -0.023 C 
ATOM      6  C   UNL     1     200.229 156.683 165.241  1.00  0.00     0.042 C 
BRANCH   6   7
ATOM      7  C   UNL     1     199.999 158.050 164.733  1.00  0.00     0.152 C 
ATOM      8  O   UNL     1     199.503 158.908 165.509  1.00  0.00    -0.295 OA
ATOM      9  C   UNL     1     200.335 158.453 163.328  1.00  0.00     0.093 C 
ENDBRANCH   6   7
ENDBRANCH   1   5
TORSDOF 4
ENDMDL
MODEL 6
REMARK VINA RESULT:    -2.857     14.855     17.221
REMARK INTER + INTRA:          -3.745
REMARK INTER:                  -3.505
REMARK INTRA:                  -0.239
REMARK UNBOUND:                -0.220
REMARK SMILES CCCCC=CC(C)=O
REMARK SMILES IDX 4 1 3 2 2 3 1 4 5 5 6 6 7 7 9 8 8 9
REMARK H PARENT
REMARK Flexibility Score: inf
ROOT
ATOM      1  C   UNL     1     200.573 145.257 169.797  1.00  0.00     0.027 C 
ENDROOT
BRANCH   1   2
ATOM      2  C   UNL     1     201.772 144.511 169.194  1.00  0.00     0.004 C 
BRANCH   2   3
ATOM      3  C   UNL     1     202.473 143.600 170.212  1.00  0.00    -0.003 C 
ATOM      4  C   UNL     1     202.134 143.959 171.659  1.00  0.00     0.004 C 
ENDBRANCH   2   3
ENDBRANCH   1   2
BRANCH   1   5
ATOM      5  C   UNL     1     200.718 146.742 169.630  1.00  0.00    -0.023 C 
ATOM      6  C   UNL     1     201.463 147.265 168.648  1.00  0.00     0.042 C 
BRANCH   6   7
ATOM      7  C   UNL     1     201.645 148.717 168.452  1.00  0.00     0.152 C 
ATOM      8  O   UNL     1     201.159 149.253 167.422  1.00  0.00    -0.295 OA
ATOM      9  C   UNL     1     202.387 149.574 169.434  1.00  0.00     0.093 C 
ENDBRANCH   6   7
ENDBRANCH   1   5
TORSDOF 4
ENDMDL
MODEL 7
REMARK VINA RESULT:    -2.854     17.285     18.112
REMARK INTER + INTRA:          -3.741
REMARK INTER:                  -3.528
REMARK INTRA:                  -0.213
REMARK UNBOUND:                -0.220
REMARK SMILES CCCCC=CC(C)=O
REMARK SMILES IDX 4 1 3 2 2 3 1 4 5 5 6 6 7 7 9 8 8 9
REMARK H PARENT
REMARK Flexibility Score: inf
ROOT
ATOM      1  C   UNL     1     200.246 151.447 164.072  1.00  0.00     0.027 C 
ENDROOT
BRANCH   1   2
ATOM      2  C   UNL     1     199.507 151.716 165.391  1.00  0.00     0.004 C 
BRANCH   2   3
ATOM      3  C   UNL     1     199.683 153.161 165.882  1.00  0.00    -0.003 C 
ATOM      4  C   UNL     1     200.198 154.099 164.790  1.00  0.00     0.004 C 
ENDBRANCH   2   3
ENDBRANCH   1   2
BRANCH   1   5
ATOM      5  C   UNL     1     199.299 150.979 163.005  1.00  0.00    -0.023 C 
ATOM      6  C   UNL     1     198.437 149.978 163.226  1.00  0.00     0.042 C 
BRANCH   6   7
ATOM      7  C   UNL     1     197.497 149.475 162.206  1.00  0.00     0.152 C 
ATOM      8  O   UNL     1     196.888 148.395 162.425  1.00  0.00    -0.295 OA
ATOM      9  C   UNL     1     197.242 150.202 160.919  1.00  0.00     0.093 C 
ENDBRANCH   6   7
ENDBRANCH   1   5
TORSDOF 4
ENDMDL
MODEL 8
REMARK VINA RESULT:    -2.846     16.302     17.384
REMARK INTER + INTRA:          -3.731
REMARK INTER:                  -3.526
REMARK INTRA:                  -0.205
REMARK UNBOUND:                -0.220
REMARK SMILES CCCCC=CC(C)=O
REMARK SMILES IDX 4 1 3 2 2 3 1 4 5 5 6 6 7 7 9 8 8 9
REMARK H PARENT
REMARK Flexibility Score: inf
ROOT
ATOM      1  C   UNL     1     199.175 150.459 162.958  1.00  0.00     0.027 C 
ENDROOT
BRANCH   1   2
ATOM      2  C   UNL     1     198.689 149.643 164.165  1.00  0.00     0.004 C 
BRANCH   2   3
ATOM      3  C   UNL     1     197.688 148.547 163.772  1.00  0.00    -0.003 C 
ATOM      4  C   UNL     1     196.976 148.841 162.451  1.00  0.00     0.004 C 
ENDBRANCH   2   3
ENDBRANCH   1   2
BRANCH   1   5
ATOM      5  C   UNL     1     199.717 151.792 163.387  1.00  0.00    -0.023 C 
ATOM      6  C   UNL     1     199.988 152.056 164.672  1.00  0.00     0.042 C 
BRANCH   6   7
ATOM      7  C   UNL     1     200.508 153.354 165.142  1.00  0.00     0.152 C 
ATOM      8  O   UNL     1     201.745 153.471 165.347  1.00  0.00    -0.295 OA
ATOM      9  C   UNL     1     199.619 154.537 165.384  1.00  0.00     0.093 C 
ENDBRANCH   6   7
ENDBRANCH   1   5
TORSDOF 4
ENDMDL
MODEL 9
REMARK VINA RESULT:    -1.464     19.331     20.431
REMARK INTER + INTRA:          -2.026
REMARK INTER:                  -1.794
REMARK INTRA:                  -0.233
REMARK UNBOUND:                -0.220
REMARK SMILES CCCCC=CC(C)=O
REMARK SMILES IDX 4 1 3 2 2 3 1 4 5 5 6 6 7 7 9 8 8 9
REMARK H PARENT
REMARK Flexibility Score: inf
ROOT
ATOM      1  C   UNL     1     197.002 148.928 162.246  1.00  0.00     0.027 C 
ENDROOT
BRANCH   1   2
ATOM      2  C   UNL     1     197.807 148.902 163.554  1.00  0.00     0.004 C 
BRANCH   2   3
ATOM      3  C   UNL     1     198.874 150.005 163.612  1.00  0.00    -0.003 C 
ATOM      4  C   UNL     1     199.250 150.390 165.043  1.00  0.00     0.004 C 
ENDBRANCH   2   3
ENDBRANCH   1   2
BRANCH   1   5
ATOM      5  C   UNL     1     197.506 149.999 161.322  1.00  0.00    -0.023 C 
ATOM      6  C   UNL     1     196.668 150.724 160.569  1.00  0.00     0.042 C 
BRANCH   6   7
ATOM      7  C   UNL     1     197.118 151.777 159.638  1.00  0.00     0.152 C 
ATOM      8  O   UNL     1     196.270 152.311 158.875  1.00  0.00    -0.295 OA
ATOM      9  C   UNL     1     198.545 152.233 159.567  1.00  0.00     0.093 C 
ENDBRANCH   6   7
ENDBRANCH   1   5
TORSDOF 4
ENDMDL
