MODEL 1
REMARK VINA RESULT:    -5.758      0.000      0.000
REMARK INTER + INTRA:          -6.647
REMARK INTER:                  -6.600
REMARK INTRA:                  -0.047
REMARK UNBOUND:                -0.047
REMARK SMILES O=C([O-])c1cc(O)c(O)c(O)c1
REMARK SMILES IDX 4 1 5 2 12 3 6 4 10 5 8 6 2 7 1 8 3 9 7 10 11 12 9 14
REMARK H PARENT 7 11 11 13 9 15
REMARK Flexibility Score: inf
ROOT
ATOM      1  C   UNL     1      27.107  25.367  45.754  1.00  0.00     0.005 A 
ATOM      2  C   UNL     1      26.637  26.629  46.148  1.00  0.00     0.060 A 
ATOM      3  C   UNL     1      28.364  25.271  45.140  1.00  0.00     0.060 A 
ATOM      4  C   UNL     1      27.402  27.782  45.937  1.00  0.00     0.162 A 
ATOM      5  C   UNL     1      29.141  26.411  44.921  1.00  0.00     0.162 A 
ATOM      6  C   UNL     1      28.670  27.677  45.317  1.00  0.00     0.200 A 
ENDROOT
BRANCH   1   7
ATOM      7  C   UNL     1      26.284  24.158  45.984  1.00  0.00     0.072 C 
ATOM      8  O   UNL     1      25.102  24.096  45.555  1.00  0.00    -0.545 OA
ATOM      9  O   UNL     1      26.807  23.073  46.679  1.00  0.00    -0.545 OA
ENDBRANCH   1   7
BRANCH   4  10
ATOM     10  O   UNL     1      26.866  29.001  46.358  1.00  0.00    -0.504 OA
ATOM     11  H   UNL     1      26.935  29.356  47.301  1.00  0.00     0.293 HD
ENDBRANCH   4  10
BRANCH   5  12
ATOM     12  O   UNL     1      30.387  26.267  44.307  1.00  0.00    -0.504 OA
ATOM     13  H   UNL     1      30.747  25.365  44.021  1.00  0.00     0.293 HD
ENDBRANCH   5  12
BRANCH   6  14
ATOM     14  O   UNL     1      29.479  28.791  45.080  1.00  0.00    -0.502 OA
ATOM     15  H   UNL     1      30.352  28.972  45.556  1.00  0.00     0.293 HD
ENDBRANCH   6  14
TORSDOF 4
ENDMDL
MODEL 2
REMARK VINA RESULT:    -5.675      0.210      2.450
REMARK INTER + INTRA:          -6.552
REMARK INTER:                  -6.504
REMARK INTRA:                  -0.047
REMARK UNBOUND:                -0.047
REMARK SMILES O=C([O-])c1cc(O)c(O)c(O)c1
REMARK SMILES IDX 4 1 5 2 12 3 6 4 10 5 8 6 2 7 1 8 3 9 7 10 11 12 9 14
REMARK H PARENT 7 11 11 13 9 15
REMARK Flexibility Score: inf
ROOT
ATOM      1  C   UNL     1      27.086  25.209  45.826  1.00  0.00     0.005 A 
ATOM      2  C   UNL     1      28.375  25.076  45.289  1.00  0.00     0.060 A 
ATOM      3  C   UNL     1      26.604  26.490  46.130  1.00  0.00     0.060 A 
ATOM      4  C   UNL     1      29.179  26.199  45.057  1.00  0.00     0.162 A 
ATOM      5  C   UNL     1      27.393  27.622  45.905  1.00  0.00     0.162 A 
ATOM      6  C   UNL     1      28.686  27.489  45.365  1.00  0.00     0.200 A 
ENDROOT
BRANCH   1   7
ATOM      7  C   UNL     1      26.250  24.011  46.067  1.00  0.00     0.072 C 
ATOM      8  O   UNL     1      25.083  23.939  45.596  1.00  0.00    -0.545 OA
ATOM      9  O   UNL     1      26.741  22.947  46.815  1.00  0.00    -0.545 OA
ENDBRANCH   1   7
BRANCH   4  10
ATOM     10  O   UNL     1      30.450  25.985  44.519  1.00  0.00    -0.504 OA
ATOM     11  H   UNL     1      30.993  25.146  44.664  1.00  0.00     0.293 HD
ENDBRANCH   4  10
BRANCH   5  12
ATOM     12  O   UNL     1      26.871  28.877  46.222  1.00  0.00    -0.504 OA
ATOM     13  H   UNL     1      26.393  29.453  45.540  1.00  0.00     0.293 HD
ENDBRANCH   5  12
BRANCH   6  14
ATOM     14  O   UNL     1      29.440  28.646  45.155  1.00  0.00    -0.502 OA
ATOM     15  H   UNL     1      29.394  29.468  45.739  1.00  0.00     0.293 HD
ENDBRANCH   6  14
TORSDOF 4
ENDMDL
MODEL 3
REMARK VINA RESULT:    -5.147      1.628      4.112
REMARK INTER + INTRA:          -5.946
REMARK INTER:                  -5.896
REMARK INTRA:                  -0.050
REMARK UNBOUND:                -0.047
REMARK SMILES O=C([O-])c1cc(O)c(O)c(O)c1
REMARK SMILES IDX 4 1 5 2 12 3 6 4 10 5 8 6 2 7 1 8 3 9 7 10 11 12 9 14
REMARK H PARENT 7 11 11 13 9 15
REMARK Flexibility Score: inf
ROOT
ATOM      1  C   UNL     1      28.687  25.457  45.568  1.00  0.00     0.005 A 
ATOM      2  C   UNL     1      27.882  24.385  45.981  1.00  0.00     0.060 A 
ATOM      3  C   UNL     1      28.087  26.551  44.927  1.00  0.00     0.060 A 
ATOM      4  C   UNL     1      26.499  24.395  45.761  1.00  0.00     0.162 A 
ATOM      5  C   UNL     1      26.709  26.578  44.700  1.00  0.00     0.162 A 
ATOM      6  C   UNL     1      25.901  25.502  45.114  1.00  0.00     0.200 A 
ENDROOT
BRANCH   1   7
ATOM      7  C   UNL     1      30.148  25.431  45.807  1.00  0.00     0.072 C 
ATOM      8  O   UNL     1      30.939  25.992  45.004  1.00  0.00    -0.545 OA
ATOM      9  O   UNL     1      30.667  24.785  46.924  1.00  0.00    -0.545 OA
ENDBRANCH   1   7
BRANCH   4  10
ATOM     10  O   UNL     1      25.766  23.291  46.202  1.00  0.00    -0.504 OA
ATOM     11  H   UNL     1      25.778  22.386  45.754  1.00  0.00     0.293 HD
ENDBRANCH   4  10
BRANCH   5  12
ATOM     12  O   UNL     1      26.156  27.687  44.058  1.00  0.00    -0.504 OA
ATOM     13  H   UNL     1      25.507  28.313  44.521  1.00  0.00     0.293 HD
ENDBRANCH   5  12
BRANCH   6  14
ATOM     14  O   UNL     1      24.527  25.569  44.868  1.00  0.00    -0.502 OA
ATOM     15  H   UNL     1      24.110  25.502  43.951  1.00  0.00     0.293 HD
ENDBRANCH   6  14
TORSDOF 4
ENDMDL
MODEL 4
REMARK VINA RESULT:    -5.114      1.658      3.906
REMARK INTER + INTRA:          -5.908
REMARK INTER:                  -5.859
REMARK INTRA:                  -0.050
REMARK UNBOUND:                -0.047
REMARK SMILES O=C([O-])c1cc(O)c(O)c(O)c1
REMARK SMILES IDX 4 1 5 2 12 3 6 4 10 5 8 6 2 7 1 8 3 9 7 10 11 12 9 14
REMARK H PARENT 7 11 11 13 9 15
REMARK Flexibility Score: inf
ROOT
ATOM      1  C   UNL     1      28.633  25.387  45.627  1.00  0.00     0.005 A 
ATOM      2  C   UNL     1      28.090  26.507  44.980  1.00  0.00     0.060 A 
ATOM      3  C   UNL     1      27.782  24.335  45.997  1.00  0.00     0.060 A 
ATOM      4  C   UNL     1      26.719  26.587  44.704  1.00  0.00     0.162 A 
ATOM      5  C   UNL     1      26.412  24.398  45.729  1.00  0.00     0.162 A 
ATOM      6  C   UNL     1      25.867  25.522  45.080  1.00  0.00     0.200 A 
ENDROOT
BRANCH   1   7
ATOM      7  C   UNL     1      30.085  25.319  45.911  1.00  0.00     0.072 C 
ATOM      8  O   UNL     1      30.919  25.812  45.106  1.00  0.00    -0.545 OA
ATOM      9  O   UNL     1      30.547  24.710  47.073  1.00  0.00    -0.545 OA
ENDBRANCH   1   7
BRANCH   4  10
ATOM     10  O   UNL     1      26.254  27.734  44.057  1.00  0.00    -0.504 OA
ATOM     11  H   UNL     1      25.485  27.744  43.404  1.00  0.00     0.293 HD
ENDBRANCH   4  10
BRANCH   5  12
ATOM     12  O   UNL     1      25.603  23.328  46.116  1.00  0.00    -0.504 OA
ATOM     13  H   UNL     1      25.401  23.126  47.088  1.00  0.00     0.293 HD
ENDBRANCH   5  12
BRANCH   6  14
ATOM     14  O   UNL     1      24.492  25.544  44.831  1.00  0.00    -0.502 OA
ATOM     15  H   UNL     1      24.046  26.149  44.158  1.00  0.00     0.293 HD
ENDBRANCH   6  14
TORSDOF 4
ENDMDL
MODEL 5
REMARK VINA RESULT:    -4.831      9.607     11.213
REMARK INTER + INTRA:          -5.584
REMARK INTER:                  -5.536
REMARK INTRA:                  -0.048
REMARK UNBOUND:                -0.047
REMARK SMILES O=C([O-])c1cc(O)c(O)c(O)c1
REMARK SMILES IDX 4 1 5 2 12 3 6 4 10 5 8 6 2 7 1 8 3 9 7 10 11 12 9 14
REMARK H PARENT 7 11 11 13 9 15
REMARK Flexibility Score: inf
ROOT
ATOM      1  C   UNL     1      19.485  24.211  39.911  1.00  0.00     0.005 A 
ATOM      2  C   UNL     1      20.325  23.263  40.516  1.00  0.00     0.060 A 
ATOM      3  C   UNL     1      19.028  23.980  38.605  1.00  0.00     0.060 A 
ATOM      4  C   UNL     1      20.708  22.101  39.835  1.00  0.00     0.162 A 
ATOM      5  C   UNL     1      19.401  22.826  37.912  1.00  0.00     0.162 A 
ATOM      6  C   UNL     1      20.242  21.875  38.518  1.00  0.00     0.200 A 
ENDROOT
BRANCH   1   7
ATOM      7  C   UNL     1      19.090  25.435  40.644  1.00  0.00     0.072 C 
ATOM      8  O   UNL     1      18.732  25.371  41.850  1.00  0.00    -0.545 OA
ATOM      9  O   UNL     1      19.109  26.673  40.011  1.00  0.00    -0.545 OA
ENDBRANCH   1   7
BRANCH   4  10
ATOM     10  O   UNL     1      21.545  21.205  40.504  1.00  0.00    -0.504 OA
ATOM     11  H   UNL     1      21.351  20.220  40.613  1.00  0.00     0.293 HD
ENDBRANCH   4  10
BRANCH   5  12
ATOM     12  O   UNL     1      18.921  22.639  36.614  1.00  0.00    -0.504 OA
ATOM     13  H   UNL     1      19.183  23.247  35.848  1.00  0.00     0.293 HD
ENDBRANCH   5  12
BRANCH   6  14
ATOM     14  O   UNL     1      20.590  20.734  37.790  1.00  0.00    -0.502 OA
ATOM     15  H   UNL     1      21.056  19.929  38.183  1.00  0.00     0.293 HD
ENDBRANCH   6  14
TORSDOF 4
ENDMDL
MODEL 6
REMARK VINA RESULT:    -4.828      9.655     11.209
REMARK INTER + INTRA:          -5.580
REMARK INTER:                  -5.531
REMARK INTRA:                  -0.049
REMARK UNBOUND:                -0.047
REMARK SMILES O=C([O-])c1cc(O)c(O)c(O)c1
REMARK SMILES IDX 4 1 5 2 12 3 6 4 10 5 8 6 2 7 1 8 3 9 7 10 11 12 9 14
REMARK H PARENT 7 11 11 13 9 15
REMARK Flexibility Score: inf
ROOT
ATOM      1  C   UNL     1      19.427  24.220  39.875  1.00  0.00     0.005 A 
ATOM      2  C   UNL     1      18.976  23.991  38.566  1.00  0.00     0.060 A 
ATOM      3  C   UNL     1      20.269  23.276  40.480  1.00  0.00     0.060 A 
ATOM      4  C   UNL     1      19.353  22.839  37.865  1.00  0.00     0.162 A 
ATOM      5  C   UNL     1      20.656  22.121  39.794  1.00  0.00     0.162 A 
ATOM      6  C   UNL     1      20.204  21.891  38.481  1.00  0.00     0.200 A 
ENDROOT
BRANCH   1   7
ATOM      7  C   UNL     1      19.017  25.443  40.603  1.00  0.00     0.072 C 
ATOM      8  O   UNL     1      18.742  25.395  41.832  1.00  0.00    -0.545 OA
ATOM      9  O   UNL     1      18.931  26.662  39.940  1.00  0.00    -0.545 OA
ENDBRANCH   1   7
BRANCH   4  10
ATOM     10  O   UNL     1      18.864  22.683  36.566  1.00  0.00    -0.504 OA
ATOM     11  H   UNL     1      19.425  22.391  35.780  1.00  0.00     0.293 HD
ENDBRANCH   4  10
BRANCH   5  12
ATOM     12  O   UNL     1      21.495  21.209  40.436  1.00  0.00    -0.504 OA
ATOM     13  H   UNL     1      22.408  20.965  40.072  1.00  0.00     0.293 HD
ENDBRANCH   5  12
BRANCH   6  14
ATOM     14  O   UNL     1      20.615  20.724  37.832  1.00  0.00    -0.502 OA
ATOM     15  H   UNL     1      20.942  20.691  36.877  1.00  0.00     0.293 HD
ENDBRANCH   6  14
TORSDOF 4
ENDMDL
MODEL 7
REMARK VINA RESULT:    -4.783      8.776     10.216
REMARK INTER + INTRA:          -5.529
REMARK INTER:                  -5.477
REMARK INTRA:                  -0.053
REMARK UNBOUND:                -0.047
REMARK SMILES O=C([O-])c1cc(O)c(O)c(O)c1
REMARK SMILES IDX 4 1 5 2 12 3 6 4 10 5 8 6 2 7 1 8 3 9 7 10 11 12 9 14
REMARK H PARENT 7 11 11 13 9 15
REMARK Flexibility Score: inf
ROOT
ATOM      1  C   UNL     1      17.657  25.524  44.748  1.00  0.00     0.005 A 
ATOM      2  C   UNL     1      18.748  26.252  44.251  1.00  0.00     0.060 A 
ATOM      3  C   UNL     1      16.846  26.103  45.736  1.00  0.00     0.060 A 
ATOM      4  C   UNL     1      19.036  27.537  44.728  1.00  0.00     0.162 A 
ATOM      5  C   UNL     1      17.119  27.384  46.223  1.00  0.00     0.162 A 
ATOM      6  C   UNL     1      18.214  28.114  45.724  1.00  0.00     0.200 A 
ENDROOT
BRANCH   1   7
ATOM      7  C   UNL     1      17.367  24.166  44.234  1.00  0.00     0.072 C 
ATOM      8  O   UNL     1      17.950  23.734  43.205  1.00  0.00    -0.545 OA
ATOM      9  O   UNL     1      16.447  23.350  44.881  1.00  0.00    -0.545 OA
ENDBRANCH   1   7
BRANCH   4  10
ATOM     10  O   UNL     1      20.140  28.197  44.183  1.00  0.00    -0.504 OA
ATOM     11  H   UNL     1      20.982  27.734  43.875  1.00  0.00     0.293 HD
ENDBRANCH   4  10
BRANCH   5  12
ATOM     12  O   UNL     1      16.285  27.919  47.207  1.00  0.00    -0.504 OA
ATOM     13  H   UNL     1      16.210  27.514  48.132  1.00  0.00     0.293 HD
ENDBRANCH   5  12
BRANCH   6  14
ATOM     14  O   UNL     1      18.450  29.392  46.238  1.00  0.00    -0.502 OA
ATOM     15  H   UNL     1      19.184  30.007  45.916  1.00  0.00     0.293 HD
ENDBRANCH   6  14
TORSDOF 4
ENDMDL
MODEL 8
REMARK VINA RESULT:    -4.749      8.778      9.960
REMARK INTER + INTRA:          -5.491
REMARK INTER:                  -5.439
REMARK INTRA:                  -0.051
REMARK UNBOUND:                -0.047
REMARK SMILES O=C([O-])c1cc(O)c(O)c(O)c1
REMARK SMILES IDX 4 1 5 2 12 3 6 4 10 5 8 6 2 7 1 8 3 9 7 10 11 12 9 14
REMARK H PARENT 7 11 11 13 9 15
REMARK Flexibility Score: inf
ROOT
ATOM      1  C   UNL     1      17.683  25.536  44.797  1.00  0.00     0.005 A 
ATOM      2  C   UNL     1      16.857  26.123  45.767  1.00  0.00     0.060 A 
ATOM      3  C   UNL     1      18.772  26.264  44.298  1.00  0.00     0.060 A 
ATOM      4  C   UNL     1      17.107  27.418  46.238  1.00  0.00     0.162 A 
ATOM      5  C   UNL     1      19.036  27.558  44.757  1.00  0.00     0.162 A 
ATOM      6  C   UNL     1      18.208  28.147  45.730  1.00  0.00     0.200 A 
ENDROOT
BRANCH   1   7
ATOM      7  C   UNL     1      17.404  24.165  44.310  1.00  0.00     0.072 C 
ATOM      8  O   UNL     1      17.810  23.794  43.176  1.00  0.00    -0.545 OA
ATOM      9  O   UNL     1      16.691  23.269  45.098  1.00  0.00    -0.545 OA
ENDBRANCH   1   7
BRANCH   4  10
ATOM     10  O   UNL     1      16.240  27.934  47.204  1.00  0.00    -0.504 OA
ATOM     11  H   UNL     1      15.250  28.071  47.063  1.00  0.00     0.293 HD
ENDBRANCH   4  10
BRANCH   5  12
ATOM     12  O   UNL     1      20.132  28.245  44.231  1.00  0.00    -0.504 OA
ATOM     13  H   UNL     1      20.685  28.886  44.787  1.00  0.00     0.293 HD
ENDBRANCH   5  12
BRANCH   6  14
ATOM     14  O   UNL     1      18.508  29.442  46.161  1.00  0.00    -0.502 OA
ATOM     15  H   UNL     1      17.814  30.144  46.377  1.00  0.00     0.293 HD
ENDBRANCH   6  14
TORSDOF 4
ENDMDL
MODEL 9
REMARK VINA RESULT:    -4.466      7.929      9.363
REMARK INTER + INTRA:          -5.165
REMARK INTER:                  -5.121
REMARK INTRA:                  -0.045
REMARK UNBOUND:                -0.047
REMARK SMILES O=C([O-])c1cc(O)c(O)c(O)c1
REMARK SMILES IDX 4 1 5 2 12 3 6 4 10 5 8 6 2 7 1 8 3 9 7 10 11 12 9 14
REMARK H PARENT 7 11 11 13 9 15
REMARK Flexibility Score: inf
ROOT
ATOM      1  C   UNL     1      19.869  25.511  40.605  1.00  0.00     0.005 A 
ATOM      2  C   UNL     1      20.967  26.374  40.739  1.00  0.00     0.060 A 
ATOM      3  C   UNL     1      18.892  25.491  41.611  1.00  0.00     0.060 A 
ATOM      4  C   UNL     1      21.096  27.208  41.858  1.00  0.00     0.162 A 
ATOM      5  C   UNL     1      19.005  26.315  42.733  1.00  0.00     0.162 A 
ATOM      6  C   UNL     1      20.106  27.182  42.868  1.00  0.00     0.200 A 
ENDROOT
BRANCH   1   7
ATOM      7  C   UNL     1      19.748  24.636  39.417  1.00  0.00     0.072 C 
ATOM      8  O   UNL     1      20.068  23.419  39.482  1.00  0.00    -0.545 OA
ATOM      9  O   UNL     1      19.279  25.146  38.211  1.00  0.00    -0.545 OA
ENDBRANCH   1   7
BRANCH   4  10
ATOM     10  O   UNL     1      22.216  28.039  41.919  1.00  0.00    -0.504 OA
ATOM     11  H   UNL     1      22.514  28.646  41.169  1.00  0.00     0.293 HD
ENDBRANCH   4  10
BRANCH   5  12
ATOM     12  O   UNL     1      18.008  26.261  43.709  1.00  0.00    -0.504 OA
ATOM     13  H   UNL     1      17.246  26.928  43.742  1.00  0.00     0.293 HD
ENDBRANCH   5  12
BRANCH   6  14
ATOM     14  O   UNL     1      20.180  27.990  44.006  1.00  0.00    -0.502 OA
ATOM     15  H   UNL     1      20.407  27.651  44.929  1.00  0.00     0.293 HD
ENDBRANCH   6  14
TORSDOF 4
ENDMDL
