MODEL 1
REMARK VINA RESULT:    -4.396      0.000      0.000
REMARK INTER + INTRA:          -4.816
REMARK INTER:                  -4.782
REMARK INTRA:                  -0.034
REMARK UNBOUND:                -0.034
REMARK SMILES O=C([O-])c1ccc(O)cc1
REMARK SMILES IDX 4 1 5 2 10 3 6 4 9 5 7 6 2 7 1 8 3 9 8 10
REMARK H PARENT 8 11
REMARK Flexibility Score: inf
ROOT
ATOM      1  C   UNL     1     129.910 120.966 139.382  1.00  0.00    -0.003 A 
ATOM      2  C   UNL     1     130.788 121.249 138.320  1.00  0.00     0.014 A 
ATOM      3  C   UNL     1     130.118 121.590 140.624  1.00  0.00     0.014 A 
ATOM      4  C   UNL     1     131.852 122.138 138.499  1.00  0.00     0.047 A 
ATOM      5  C   UNL     1     131.184 122.478 140.799  1.00  0.00     0.047 A 
ATOM      6  C   UNL     1     132.054 122.754 139.737  1.00  0.00     0.115 A 
ENDROOT
BRANCH   1   7
ATOM      7  C   UNL     1     128.781 120.027 139.198  1.00  0.00     0.071 C 
ATOM      8  O   UNL     1     128.834 119.125 138.320  1.00  0.00    -0.545 OA
ATOM      9  O   UNL     1     127.644 120.127 139.992  1.00  0.00    -0.545 OA
ENDBRANCH   1   7
BRANCH   6  10
ATOM     10  O   UNL     1     133.119 123.637 139.901  1.00  0.00    -0.508 OA
ATOM     11  H   UNL     1     134.008 123.486 139.437  1.00  0.00     0.293 HD
ENDBRANCH   6  10
TORSDOF 2
ENDMDL
MODEL 2
REMARK VINA RESULT:    -4.118      2.161      2.753
REMARK INTER + INTRA:          -4.514
REMARK INTER:                  -4.487
REMARK INTRA:                  -0.027
REMARK UNBOUND:                -0.034
REMARK SMILES O=C([O-])c1ccc(O)cc1
REMARK SMILES IDX 4 1 5 2 10 3 6 4 9 5 7 6 2 7 1 8 3 9 8 10
REMARK H PARENT 8 11
REMARK Flexibility Score: inf
ROOT
ATOM      1  C   UNL     1     128.404 121.532 138.698  1.00  0.00    -0.003 A 
ATOM      2  C   UNL     1     128.072 121.996 139.984  1.00  0.00     0.014 A 
ATOM      3  C   UNL     1     129.750 121.259 138.396  1.00  0.00     0.014 A 
ATOM      4  C   UNL     1     129.068 122.182 140.948  1.00  0.00     0.047 A 
ATOM      5  C   UNL     1     130.743 121.448 139.363  1.00  0.00     0.047 A 
ATOM      6  C   UNL     1     130.404 121.909 140.641  1.00  0.00     0.115 A 
ENDROOT
BRANCH   1   7
ATOM      7  C   UNL     1     127.354 121.332 137.673  1.00  0.00     0.071 C 
ATOM      8  O   UNL     1     127.150 122.203 136.787  1.00  0.00    -0.545 OA
ATOM      9  O   UNL     1     126.577 120.179 137.676  1.00  0.00    -0.545 OA
ENDBRANCH   1   7
BRANCH   6  10
ATOM     10  O   UNL     1     131.386 122.100 141.611  1.00  0.00    -0.508 OA
ATOM     11  H   UNL     1     131.237 122.719 142.400  1.00  0.00     0.293 HD
ENDBRANCH   6  10
TORSDOF 2
ENDMDL
MODEL 3
REMARK VINA RESULT:    -4.008      1.944      2.477
REMARK INTER + INTRA:          -4.393
REMARK INTER:                  -4.358
REMARK INTRA:                  -0.035
REMARK UNBOUND:                -0.034
REMARK SMILES O=C([O-])c1ccc(O)cc1
REMARK SMILES IDX 4 1 5 2 10 3 6 4 9 5 7 6 2 7 1 8 3 9 8 10
REMARK H PARENT 8 11
REMARK Flexibility Score: inf
ROOT
ATOM      1  C   UNL     1     129.024 121.847 139.908  1.00  0.00    -0.003 A 
ATOM      2  C   UNL     1     129.052 120.941 138.832  1.00  0.00     0.014 A 
ATOM      3  C   UNL     1     130.229 122.430 140.340  1.00  0.00     0.014 A 
ATOM      4  C   UNL     1     130.260 120.624 138.204  1.00  0.00     0.047 A 
ATOM      5  C   UNL     1     131.435 122.110 139.708  1.00  0.00     0.047 A 
ATOM      6  C   UNL     1     131.453 121.207 138.639  1.00  0.00     0.115 A 
ENDROOT
BRANCH   1   7
ATOM      7  C   UNL     1     127.748 122.187 140.577  1.00  0.00     0.071 C 
ATOM      8  O   UNL     1     126.647 121.914 140.031  1.00  0.00    -0.545 OA
ATOM      9  O   UNL     1     127.749 122.813 141.818  1.00  0.00    -0.545 OA
ENDBRANCH   1   7
BRANCH   6  10
ATOM     10  O   UNL     1     132.650 120.882 138.003  1.00  0.00    -0.508 OA
ATOM     11  H   UNL     1     133.251 120.145 138.352  1.00  0.00     0.293 HD
ENDBRANCH   6  10
TORSDOF 2
ENDMDL
MODEL 4
REMARK VINA RESULT:    -3.939      1.435      4.294
REMARK INTER + INTRA:          -4.319
REMARK INTER:                  -4.291
REMARK INTRA:                  -0.027
REMARK UNBOUND:                -0.034
REMARK SMILES O=C([O-])c1ccc(O)cc1
REMARK SMILES IDX 4 1 5 2 10 3 6 4 9 5 7 6 2 7 1 8 3 9 8 10
REMARK H PARENT 8 11
REMARK Flexibility Score: inf
ROOT
ATOM      1  C   UNL     1     130.342 121.626 139.413  1.00  0.00    -0.003 A 
ATOM      2  C   UNL     1     130.673 120.361 138.895  1.00  0.00     0.014 A 
ATOM      3  C   UNL     1     129.029 122.104 139.260  1.00  0.00     0.014 A 
ATOM      4  C   UNL     1     129.709 119.591 138.237  1.00  0.00     0.047 A 
ATOM      5  C   UNL     1     128.068 121.331 138.601  1.00  0.00     0.047 A 
ATOM      6  C   UNL     1     128.405 120.073 138.088  1.00  0.00     0.115 A 
ENDROOT
BRANCH   1   7
ATOM      7  C   UNL     1     131.358 122.446 140.111  1.00  0.00     0.071 C 
ATOM      8  O   UNL     1     131.342 122.555 141.365  1.00  0.00    -0.545 OA
ATOM      9  O   UNL     1     132.345 123.108 139.390  1.00  0.00    -0.545 OA
ENDBRANCH   1   7
BRANCH   6  10
ATOM     10  O   UNL     1     127.455 119.295 137.430  1.00  0.00    -0.508 OA
ATOM     11  H   UNL     1     126.589 119.694 137.087  1.00  0.00     0.293 HD
ENDBRANCH   6  10
TORSDOF 2
ENDMDL
MODEL 5
REMARK VINA RESULT:    -3.931      1.434      4.401
REMARK INTER + INTRA:          -4.310
REMARK INTER:                  -4.283
REMARK INTRA:                  -0.027
REMARK UNBOUND:                -0.034
REMARK SMILES O=C([O-])c1ccc(O)cc1
REMARK SMILES IDX 4 1 5 2 10 3 6 4 9 5 7 6 2 7 1 8 3 9 8 10
REMARK H PARENT 8 11
REMARK Flexibility Score: inf
ROOT
ATOM      1  C   UNL     1     130.323 121.608 139.426  1.00  0.00    -0.003 A 
ATOM      2  C   UNL     1     129.017 122.079 139.196  1.00  0.00     0.014 A 
ATOM      3  C   UNL     1     130.673 120.322 138.976  1.00  0.00     0.014 A 
ATOM      4  C   UNL     1     128.083 121.279 138.531  1.00  0.00     0.047 A 
ATOM      5  C   UNL     1     129.735 119.526 138.312  1.00  0.00     0.047 A 
ATOM      6  C   UNL     1     128.438 120.003 138.087  1.00  0.00     0.115 A 
ENDROOT
BRANCH   1   7
ATOM      7  C   UNL     1     131.316 122.450 140.130  1.00  0.00     0.071 C 
ATOM      8  O   UNL     1     131.298 122.547 141.385  1.00  0.00    -0.545 OA
ATOM      9  O   UNL     1     132.283 123.146 139.413  1.00  0.00    -0.545 OA
ENDBRANCH   1   7
BRANCH   6  10
ATOM     10  O   UNL     1     127.496 119.217 137.426  1.00  0.00    -0.508 OA
ATOM     11  H   UNL     1     126.514 119.466 137.412  1.00  0.00     0.293 HD
ENDBRANCH   6  10
TORSDOF 2
ENDMDL
MODEL 6
REMARK VINA RESULT:    -3.786      3.016      3.822
REMARK INTER + INTRA:          -4.152
REMARK INTER:                  -4.121
REMARK INTRA:                  -0.031
REMARK UNBOUND:                -0.034
REMARK SMILES O=C([O-])c1ccc(O)cc1
REMARK SMILES IDX 4 1 5 2 10 3 6 4 9 5 7 6 2 7 1 8 3 9 8 10
REMARK H PARENT 8 11
REMARK Flexibility Score: inf
ROOT
ATOM      1  C   UNL     1     129.829 118.735 139.459  1.00  0.00    -0.003 A 
ATOM      2  C   UNL     1     130.562 119.863 139.049  1.00  0.00     0.014 A 
ATOM      3  C   UNL     1     128.467 118.646 139.119  1.00  0.00     0.014 A 
ATOM      4  C   UNL     1     129.944 120.881 138.316  1.00  0.00     0.047 A 
ATOM      5  C   UNL     1     127.854 119.666 138.386  1.00  0.00     0.047 A 
ATOM      6  C   UNL     1     128.591 120.786 137.982  1.00  0.00     0.115 A 
ENDROOT
BRANCH   1   7
ATOM      7  C   UNL     1     130.477 117.654 140.235  1.00  0.00     0.071 C 
ATOM      8  O   UNL     1     131.611 117.219 139.904  1.00  0.00    -0.545 OA
ATOM      9  O   UNL     1     129.841 117.103 141.342  1.00  0.00    -0.545 OA
ENDBRANCH   1   7
BRANCH   6  10
ATOM     10  O   UNL     1     127.989 121.808 137.252  1.00  0.00    -0.508 OA
ATOM     11  H   UNL     1     127.992 122.767 137.580  1.00  0.00     0.293 HD
ENDBRANCH   6  10
TORSDOF 2
ENDMDL
MODEL 7
REMARK VINA RESULT:    -3.710      1.564      4.136
REMARK INTER + INTRA:          -4.069
REMARK INTER:                  -4.037
REMARK INTRA:                  -0.032
REMARK UNBOUND:                -0.034
REMARK SMILES O=C([O-])c1ccc(O)cc1
REMARK SMILES IDX 4 1 5 2 10 3 6 4 9 5 7 6 2 7 1 8 3 9 8 10
REMARK H PARENT 8 11
REMARK Flexibility Score: inf
ROOT
ATOM      1  C   UNL     1     130.569 121.141 139.546  1.00  0.00    -0.003 A 
ATOM      2  C   UNL     1     130.599 119.817 139.070  1.00  0.00     0.014 A 
ATOM      3  C   UNL     1     129.600 121.502 140.498  1.00  0.00     0.014 A 
ATOM      4  C   UNL     1     129.678 118.876 139.539  1.00  0.00     0.047 A 
ATOM      5  C   UNL     1     128.680 120.558 140.964  1.00  0.00     0.047 A 
ATOM      6  C   UNL     1     128.717 119.242 140.485  1.00  0.00     0.115 A 
ENDROOT
BRANCH   1   7
ATOM      7  C   UNL     1     131.542 122.142 139.054  1.00  0.00     0.071 C 
ATOM      8  O   UNL     1     131.917 122.134 137.851  1.00  0.00    -0.545 OA
ATOM      9  O   UNL     1     132.057 123.106 139.913  1.00  0.00    -0.545 OA
ENDBRANCH   1   7
BRANCH   6  10
ATOM     10  O   UNL     1     127.805 118.294 140.943  1.00  0.00    -0.508 OA
ATOM     11  H   UNL     1     127.745 117.372 140.525  1.00  0.00     0.293 HD
ENDBRANCH   6  10
TORSDOF 2
ENDMDL
MODEL 8
REMARK VINA RESULT:    -3.612      2.107      3.934
REMARK INTER + INTRA:          -3.962
REMARK INTER:                  -3.936
REMARK INTRA:                  -0.027
REMARK UNBOUND:                -0.034
REMARK SMILES O=C([O-])c1ccc(O)cc1
REMARK SMILES IDX 4 1 5 2 10 3 6 4 9 5 7 6 2 7 1 8 3 9 8 10
REMARK H PARENT 8 11
REMARK Flexibility Score: inf
ROOT
ATOM      1  C   UNL     1     130.032 121.663 139.325  1.00  0.00    -0.003 A 
ATOM      2  C   UNL     1     130.072 121.998 140.690  1.00  0.00     0.014 A 
ATOM      3  C   UNL     1     128.808 121.745 138.638  1.00  0.00     0.014 A 
ATOM      4  C   UNL     1     128.911 122.407 141.354  1.00  0.00     0.047 A 
ATOM      5  C   UNL     1     127.649 122.155 139.305  1.00  0.00     0.047 A 
ATOM      6  C   UNL     1     127.698 122.486 140.664  1.00  0.00     0.115 A 
ENDROOT
BRANCH   1   7
ATOM      7  C   UNL     1     131.257 121.229 138.617  1.00  0.00     0.071 C 
ATOM      8  O   UNL     1     132.013 122.074 138.069  1.00  0.00    -0.545 OA
ATOM      9  O   UNL     1     131.590 119.881 138.546  1.00  0.00    -0.545 OA
ENDBRANCH   1   7
BRANCH   6  10
ATOM     10  O   UNL     1     126.549 122.895 141.339  1.00  0.00    -0.508 OA
ATOM     11  H   UNL     1     126.125 122.321 142.058  1.00  0.00     0.293 HD
ENDBRANCH   6  10
TORSDOF 2
ENDMDL
MODEL 9
REMARK VINA RESULT:    -3.543      1.745      2.631
REMARK INTER + INTRA:          -3.888
REMARK INTER:                  -3.853
REMARK INTRA:                  -0.034
REMARK UNBOUND:                -0.034
REMARK SMILES O=C([O-])c1ccc(O)cc1
REMARK SMILES IDX 4 1 5 2 10 3 6 4 9 5 7 6 2 7 1 8 3 9 8 10
REMARK H PARENT 8 11
REMARK Flexibility Score: inf
ROOT
ATOM      1  C   UNL     1     128.669 120.676 139.895  1.00  0.00    -0.003 A 
ATOM      2  C   UNL     1     129.434 121.836 140.121  1.00  0.00     0.014 A 
ATOM      3  C   UNL     1     129.154 119.702 139.004  1.00  0.00     0.014 A 
ATOM      4  C   UNL     1     130.657 122.015 139.469  1.00  0.00     0.047 A 
ATOM      5  C   UNL     1     130.378 119.887 138.353  1.00  0.00     0.047 A 
ATOM      6  C   UNL     1     131.132 121.043 138.584  1.00  0.00     0.115 A 
ENDROOT
BRANCH   1   7
ATOM      7  C   UNL     1     127.373 120.480 140.583  1.00  0.00     0.071 C 
ATOM      8  O   UNL     1     127.134 121.060 141.674  1.00  0.00    -0.545 OA
ATOM      9  O   UNL     1     126.402 119.651 140.033  1.00  0.00    -0.545 OA
ENDBRANCH   1   7
BRANCH   6  10
ATOM     10  O   UNL     1     132.353 121.236 137.940  1.00  0.00    -0.508 OA
ATOM     11  H   UNL     1     132.806 120.488 137.429  1.00  0.00     0.293 HD
ENDBRANCH   6  10
TORSDOF 2
ENDMDL
