MODEL 1
REMARK VINA RESULT:    -6.623      0.000      0.000
REMARK INTER + INTRA:          -8.443
REMARK INTER:                  -8.172
REMARK INTRA:                  -0.271
REMARK UNBOUND:                -0.271
REMARK SMILES O=c1c(O)c(-c2cc(O)c(O)c(O)c2)oc2cc(O)cc(O)c12
REMARK SMILES IDX 5 1 3 2 2 3 1 4 23 5 21 6 20 7 18 8 17 9 16 10 15 11 6 12
REMARK SMILES IDX 7 13 8 14 14 15 10 16 12 17 9 18 11 20 13 22 4 24 22 26
REMARK SMILES IDX 19 28
REMARK H PARENT 9 19 11 21 13 23 4 25 22 27 19 29
REMARK Flexibility Score: inf
ROOT
ATOM      1  C   UNL     1      22.799  16.216   4.226  1.00  0.00     0.180 A 
ATOM      2  C   UNL     1      23.843  15.315   3.948  1.00  0.00     0.208 A 
ATOM      3  C   UNL     1      23.526  14.019   3.511  1.00  0.00     0.238 A 
ATOM      4  O   UNL     1      24.461  13.201   3.314  1.00  0.00    -0.285 OA
ATOM      5  C   UNL     1      22.170  13.644   3.343  1.00  0.00     0.111 A 
ATOM      6  C   UNL     1      21.735  12.371   2.867  1.00  0.00     0.134 A 
ATOM      7  C   UNL     1      20.368  12.066   2.865  1.00  0.00     0.093 A 
ATOM      8  C   UNL     1      19.418  13.010   3.259  1.00  0.00     0.123 A 
ATOM      9  C   UNL     1      19.830  14.276   3.668  1.00  0.00     0.094 A 
ATOM     10  C   UNL     1      21.189  14.598   3.716  1.00  0.00     0.146 A 
ATOM     11  O   UNL     1      21.538  15.813   4.122  1.00  0.00    -0.452 OA
ENDROOT
BRANCH   1  12
ATOM     12  C   UNL     1      23.055  17.606   4.668  1.00  0.00     0.029 A 
ATOM     13  C   UNL     1      22.855  17.997   6.002  1.00  0.00     0.062 A 
ATOM     14  C   UNL     1      23.124  19.311   6.408  1.00  0.00     0.162 A 
ATOM     15  C   UNL     1      23.563  18.539   3.752  1.00  0.00     0.062 A 
ATOM     16  C   UNL     1      23.611  20.245   5.478  1.00  0.00     0.200 A 
ATOM     17  C   UNL     1      23.833  19.853   4.147  1.00  0.00     0.162 A 
BRANCH  14  18
ATOM     18  O   UNL     1      22.915  19.690   7.733  1.00  0.00    -0.504 OA
ATOM     19  H   UNL     1      23.450  19.286   8.492  1.00  0.00     0.293 HD
ENDBRANCH  14  18
BRANCH  16  20
ATOM     20  O   UNL     1      23.881  21.560   5.863  1.00  0.00    -0.502 OA
ATOM     21  H   UNL     1      24.541  21.783   6.598  1.00  0.00     0.293 HD
ENDBRANCH  16  20
BRANCH  17  22
ATOM     22  O   UNL     1      24.324  20.755   3.202  1.00  0.00    -0.504 OA
ATOM     23  H   UNL     1      24.445  20.503   2.229  1.00  0.00     0.293 HD
ENDBRANCH  17  22
ENDBRANCH   1  12
BRANCH   2  24
ATOM     24  O   UNL     1      25.172  15.699   4.141  1.00  0.00    -0.502 OA
ATOM     25  H   UNL     1      25.886  15.562   3.436  1.00  0.00     0.293 HD
ENDBRANCH   2  24
BRANCH   6  26
ATOM     26  O   UNL     1      22.595  11.390   2.365  1.00  0.00    -0.507 OA
ATOM     27  H   UNL     1      23.268  10.881   2.916  1.00  0.00     0.293 HD
ENDBRANCH   6  26
BRANCH   8  28
ATOM     28  O   UNL     1      18.059  12.703   3.239  1.00  0.00    -0.508 OA
ATOM     29  H   UNL     1      17.460  12.897   4.033  1.00  0.00     0.293 HD
ENDBRANCH   8  28
TORSDOF 7
ENDMDL
MODEL 2
REMARK VINA RESULT:    -6.566      0.067      1.756
REMARK INTER + INTRA:          -8.373
REMARK INTER:                  -8.068
REMARK INTRA:                  -0.304
REMARK UNBOUND:                -0.271
REMARK SMILES O=c1c(O)c(-c2cc(O)c(O)c(O)c2)oc2cc(O)cc(O)c12
REMARK SMILES IDX 5 1 3 2 2 3 1 4 23 5 21 6 20 7 18 8 17 9 16 10 15 11 6 12
REMARK SMILES IDX 7 13 8 14 14 15 10 16 12 17 9 18 11 20 13 22 4 24 22 26
REMARK SMILES IDX 19 28
REMARK H PARENT 9 19 11 21 13 23 4 25 22 27 19 29
REMARK Flexibility Score: inf
ROOT
ATOM      1  C   UNL     1      22.858  16.207   4.183  1.00  0.00     0.180 A 
ATOM      2  C   UNL     1      23.881  15.284   3.902  1.00  0.00     0.208 A 
ATOM      3  C   UNL     1      23.535  13.993   3.470  1.00  0.00     0.238 A 
ATOM      4  O   UNL     1      24.452  13.156   3.271  1.00  0.00    -0.285 OA
ATOM      5  C   UNL     1      22.171  13.647   3.310  1.00  0.00     0.111 A 
ATOM      6  C   UNL     1      21.707  12.382   2.839  1.00  0.00     0.134 A 
ATOM      7  C   UNL     1      20.334  12.106   2.845  1.00  0.00     0.093 A 
ATOM      8  C   UNL     1      19.406  13.071   3.242  1.00  0.00     0.123 A 
ATOM      9  C   UNL     1      19.846  14.329   3.646  1.00  0.00     0.094 A 
ATOM     10  C   UNL     1      21.211  14.623   3.685  1.00  0.00     0.146 A 
ATOM     11  O   UNL     1      21.588  15.831   4.087  1.00  0.00    -0.452 OA
ENDROOT
BRANCH   1  12
ATOM     12  C   UNL     1      23.146  17.592   4.620  1.00  0.00     0.029 A 
ATOM     13  C   UNL     1      23.628  18.557   3.719  1.00  0.00     0.062 A 
ATOM     14  C   UNL     1      23.872  19.870   4.144  1.00  0.00     0.162 A 
ATOM     15  C   UNL     1      22.877  17.969   5.943  1.00  0.00     0.062 A 
ATOM     16  C   UNL     1      23.622  20.232   5.478  1.00  0.00     0.200 A 
ATOM     17  C   UNL     1      23.119  19.276   6.377  1.00  0.00     0.162 A 
BRANCH  14  18
ATOM     18  O   UNL     1      24.357  20.817   3.242  1.00  0.00    -0.504 OA
ATOM     19  H   UNL     1      24.854  20.545   2.403  1.00  0.00     0.293 HD
ENDBRANCH  14  18
BRANCH  16  20
ATOM     20  O   UNL     1      23.864  21.534   5.919  1.00  0.00    -0.502 OA
ATOM     21  H   UNL     1      24.458  21.734   6.715  1.00  0.00     0.293 HD
ENDBRANCH  16  20
BRANCH  17  22
ATOM     22  O   UNL     1      22.854  19.608   7.706  1.00  0.00    -0.504 OA
ATOM     23  H   UNL     1      23.593  19.776   8.378  1.00  0.00     0.293 HD
ENDBRANCH  17  22
ENDBRANCH   1  12
BRANCH   2  24
ATOM     24  O   UNL     1      25.219  15.640   4.087  1.00  0.00    -0.502 OA
ATOM     25  H   UNL     1      25.849  15.811   3.312  1.00  0.00     0.293 HD
ENDBRANCH   2  24
BRANCH   6  26
ATOM     26  O   UNL     1      22.543  11.382   2.335  1.00  0.00    -0.507 OA
ATOM     27  H   UNL     1      22.583  10.437   2.687  1.00  0.00     0.293 HD
ENDBRANCH   6  26
BRANCH   8  28
ATOM     28  O   UNL     1      18.041  12.792   3.229  1.00  0.00    -0.508 OA
ATOM     29  H   UNL     1      17.678  11.903   3.553  1.00  0.00     0.293 HD
ENDBRANCH   8  28
TORSDOF 7
ENDMDL
MODEL 3
REMARK VINA RESULT:    -6.114      1.218      2.828
REMARK INTER + INTRA:          -7.814
REMARK INTER:                  -7.463
REMARK INTRA:                  -0.351
REMARK UNBOUND:                -0.271
REMARK SMILES O=c1c(O)c(-c2cc(O)c(O)c(O)c2)oc2cc(O)cc(O)c12
REMARK SMILES IDX 5 1 3 2 2 3 1 4 23 5 21 6 20 7 18 8 17 9 16 10 15 11 6 12
REMARK SMILES IDX 7 13 8 14 14 15 10 16 12 17 9 18 11 20 13 22 4 24 22 26
REMARK SMILES IDX 19 28
REMARK H PARENT 9 19 11 21 13 23 4 25 22 27 19 29
REMARK Flexibility Score: inf
ROOT
ATOM      1  C   UNL     1      22.517  16.472   4.213  1.00  0.00     0.180 A 
ATOM      2  C   UNL     1      21.177  16.158   3.924  1.00  0.00     0.208 A 
ATOM      3  C   UNL     1      20.864  14.871   3.458  1.00  0.00     0.238 A 
ATOM      4  O   UNL     1      19.672  14.612   3.151  1.00  0.00    -0.285 OA
ATOM      5  C   UNL     1      21.892  13.908   3.303  1.00  0.00     0.111 A 
ATOM      6  C   UNL     1      21.683  12.562   2.878  1.00  0.00     0.134 A 
ATOM      7  C   UNL     1      22.788  11.737   2.634  1.00  0.00     0.093 A 
ATOM      8  C   UNL     1      24.090  12.189   2.862  1.00  0.00     0.123 A 
ATOM      9  C   UNL     1      24.300  13.482   3.335  1.00  0.00     0.094 A 
ATOM     10  C   UNL     1      23.220  14.341   3.553  1.00  0.00     0.146 A 
ATOM     11  O   UNL     1      23.466  15.569   3.994  1.00  0.00    -0.452 OA
ENDROOT
BRANCH   1  12
ATOM     12  C   UNL     1      22.922  17.799   4.729  1.00  0.00     0.029 A 
ATOM     13  C   UNL     1      22.804  18.120   6.092  1.00  0.00     0.062 A 
ATOM     14  C   UNL     1      23.213  19.373   6.568  1.00  0.00     0.162 A 
ATOM     15  C   UNL     1      23.488  18.738   3.855  1.00  0.00     0.062 A 
ATOM     16  C   UNL     1      23.758  20.315   5.680  1.00  0.00     0.200 A 
ATOM     17  C   UNL     1      23.898  19.991   4.320  1.00  0.00     0.162 A 
BRANCH  14  18
ATOM     18  O   UNL     1      23.085  19.682   7.922  1.00  0.00    -0.504 OA
ATOM     19  H   UNL     1      23.874  19.636   8.555  1.00  0.00     0.293 HD
ENDBRANCH  14  18
BRANCH  16  20
ATOM     20  O   UNL     1      24.167  21.570   6.136  1.00  0.00    -0.502 OA
ATOM     21  H   UNL     1      24.792  22.162   5.602  1.00  0.00     0.293 HD
ENDBRANCH  16  20
BRANCH  17  22
ATOM     22  O   UNL     1      24.443  20.902   3.415  1.00  0.00    -0.504 OA
ATOM     23  H   UNL     1      25.315  21.385   3.595  1.00  0.00     0.293 HD
ENDBRANCH  17  22
ENDBRANCH   1  12
BRANCH   2  24
ATOM     24  O   UNL     1      20.182  17.129   4.064  1.00  0.00    -0.502 OA
ATOM     25  H   UNL     1      19.745  17.335   4.954  1.00  0.00     0.293 HD
ENDBRANCH   2  24
BRANCH   6  26
ATOM     26  O   UNL     1      20.423  11.984   2.708  1.00  0.00    -0.507 OA
ATOM     27  H   UNL     1      19.945  11.900   1.823  1.00  0.00     0.293 HD
ENDBRANCH   6  26
BRANCH   8  28
ATOM     28  O   UNL     1      25.183  11.355   2.632  1.00  0.00    -0.508 OA
ATOM     29  H   UNL     1      26.120  11.621   2.914  1.00  0.00     0.293 HD
ENDBRANCH   8  28
TORSDOF 7
ENDMDL
MODEL 4
REMARK VINA RESULT:    -5.877      1.225      3.319
REMARK INTER + INTRA:          -7.522
REMARK INTER:                  -7.198
REMARK INTRA:                  -0.324
REMARK UNBOUND:                -0.271
REMARK SMILES O=c1c(O)c(-c2cc(O)c(O)c(O)c2)oc2cc(O)cc(O)c12
REMARK SMILES IDX 5 1 3 2 2 3 1 4 23 5 21 6 20 7 18 8 17 9 16 10 15 11 6 12
REMARK SMILES IDX 7 13 8 14 14 15 10 16 12 17 9 18 11 20 13 22 4 24 22 26
REMARK SMILES IDX 19 28
REMARK H PARENT 9 19 11 21 13 23 4 25 22 27 19 29
REMARK Flexibility Score: inf
ROOT
ATOM      1  C   UNL     1      22.551  16.481   4.154  1.00  0.00     0.180 A 
ATOM      2  C   UNL     1      21.211  16.198   3.834  1.00  0.00     0.208 A 
ATOM      3  C   UNL     1      20.879  14.914   3.371  1.00  0.00     0.238 A 
ATOM      4  O   UNL     1      19.688  14.683   3.036  1.00  0.00    -0.285 OA
ATOM      5  C   UNL     1      21.886  13.926   3.250  1.00  0.00     0.111 A 
ATOM      6  C   UNL     1      21.655  12.582   2.831  1.00  0.00     0.134 A 
ATOM      7  C   UNL     1      22.744  11.727   2.621  1.00  0.00     0.093 A 
ATOM      8  C   UNL     1      24.051  12.149   2.879  1.00  0.00     0.123 A 
ATOM      9  C   UNL     1      24.281  13.440   3.347  1.00  0.00     0.094 A 
ATOM     10  C   UNL     1      23.217  14.328   3.530  1.00  0.00     0.146 A 
ATOM     11  O   UNL     1      23.482  15.553   3.967  1.00  0.00    -0.452 OA
ENDROOT
BRANCH   1  12
ATOM     12  C   UNL     1      22.975  17.803   4.670  1.00  0.00     0.029 A 
ATOM     13  C   UNL     1      23.546  18.768   3.824  1.00  0.00     0.062 A 
ATOM     14  C   UNL     1      23.920  20.023   4.325  1.00  0.00     0.162 A 
ATOM     15  C   UNL     1      22.750  18.123   6.017  1.00  0.00     0.062 A 
ATOM     16  C   UNL     1      23.712  20.326   5.681  1.00  0.00     0.200 A 
ATOM     17  C   UNL     1      23.121  19.371   6.526  1.00  0.00     0.162 A 
BRANCH  14  18
ATOM     18  O   UNL     1      24.493  20.971   3.477  1.00  0.00    -0.504 OA
ATOM     19  H   UNL     1      24.866  21.843   3.831  1.00  0.00     0.293 HD
ENDBRANCH  14  18
BRANCH  16  20
ATOM     20  O   UNL     1      24.083  21.569   6.197  1.00  0.00    -0.502 OA
ATOM     21  H   UNL     1      23.831  22.439   5.745  1.00  0.00     0.293 HD
ENDBRANCH  16  20
BRANCH  17  22
ATOM     22  O   UNL     1      22.895  19.645   7.875  1.00  0.00    -0.504 OA
ATOM     23  H   UNL     1      22.048  20.097   8.198  1.00  0.00     0.293 HD
ENDBRANCH  17  22
ENDBRANCH   1  12
BRANCH   2  24
ATOM     24  O   UNL     1      20.238  17.194   3.941  1.00  0.00    -0.502 OA
ATOM     25  H   UNL     1      20.119  17.750   4.778  1.00  0.00     0.293 HD
ENDBRANCH   2  24
BRANCH   6  26
ATOM     26  O   UNL     1      20.384  12.033   2.633  1.00  0.00    -0.507 OA
ATOM     27  H   UNL     1      19.561  12.563   2.392  1.00  0.00     0.293 HD
ENDBRANCH   6  26
BRANCH   8  28
ATOM     28  O   UNL     1      25.128  11.287   2.684  1.00  0.00    -0.508 OA
ATOM     29  H   UNL     1      26.076  11.563   2.913  1.00  0.00     0.293 HD
ENDBRANCH   8  28
TORSDOF 7
ENDMDL
MODEL 5
REMARK VINA RESULT:    -5.159      3.663      7.710
REMARK INTER + INTRA:          -6.637
REMARK INTER:                  -6.650
REMARK INTRA:                   0.013
REMARK UNBOUND:                -0.271
REMARK SMILES O=c1c(O)c(-c2cc(O)c(O)c(O)c2)oc2cc(O)cc(O)c12
REMARK SMILES IDX 5 1 3 2 2 3 1 4 23 5 21 6 20 7 18 8 17 9 16 10 15 11 6 12
REMARK SMILES IDX 7 13 8 14 14 15 10 16 12 17 9 18 11 20 13 22 4 24 22 26
REMARK SMILES IDX 19 28
REMARK H PARENT 9 19 11 21 13 23 4 25 22 27 19 29
REMARK Flexibility Score: inf
ROOT
ATOM      1  C   UNL     1      23.658  19.217   7.329  1.00  0.00     0.180 A 
ATOM      2  C   UNL     1      24.726  20.046   7.719  1.00  0.00     0.208 A 
ATOM      3  C   UNL     1      24.796  20.485   9.051  1.00  0.00     0.238 A 
ATOM      4  O   UNL     1      25.724  21.269   9.380  1.00  0.00    -0.285 OA
ATOM      5  C   UNL     1      23.808  20.078   9.980  1.00  0.00     0.111 A 
ATOM      6  C   UNL     1      23.804  20.430  11.363  1.00  0.00     0.134 A 
ATOM      7  C   UNL     1      22.707  20.079  12.160  1.00  0.00     0.093 A 
ATOM      8  C   UNL     1      21.647  19.334  11.640  1.00  0.00     0.123 A 
ATOM      9  C   UNL     1      21.671  18.934  10.306  1.00  0.00     0.094 A 
ATOM     10  C   UNL     1      22.734  19.300   9.477  1.00  0.00     0.146 A 
ATOM     11  O   UNL     1      22.712  18.907   8.208  1.00  0.00    -0.452 OA
ENDROOT
BRANCH   1  12
ATOM     12  C   UNL     1      23.529  18.695   5.950  1.00  0.00     0.029 A 
ATOM     13  C   UNL     1      24.632  18.155   5.267  1.00  0.00     0.062 A 
ATOM     14  C   UNL     1      24.487  17.644   3.970  1.00  0.00     0.162 A 
ATOM     15  C   UNL     1      22.271  18.683   5.331  1.00  0.00     0.062 A 
ATOM     16  C   UNL     1      23.227  17.657   3.349  1.00  0.00     0.200 A 
ATOM     17  C   UNL     1      22.116  18.176   4.037  1.00  0.00     0.162 A 
BRANCH  14  18
ATOM     18  O   UNL     1      25.590  17.117   3.299  1.00  0.00    -0.504 OA
ATOM     19  H   UNL     1      25.977  16.213   3.540  1.00  0.00     0.293 HD
ENDBRANCH  14  18
BRANCH  16  20
ATOM     20  O   UNL     1      23.065  17.156   2.056  1.00  0.00    -0.502 OA
ATOM     21  H   UNL     1      22.185  17.219   1.558  1.00  0.00     0.293 HD
ENDBRANCH  16  20
BRANCH  17  22
ATOM     22  O   UNL     1      20.851  18.196   3.450  1.00  0.00    -0.504 OA
ATOM     23  H   UNL     1      20.078  18.713   3.852  1.00  0.00     0.293 HD
ENDBRANCH  17  22
ENDBRANCH   1  12
BRANCH   2  24
ATOM     24  O   UNL     1      25.678  20.452   6.780  1.00  0.00    -0.502 OA
ATOM     25  H   UNL     1      25.501  20.435   5.784  1.00  0.00     0.293 HD
ENDBRANCH   2  24
BRANCH   6  26
ATOM     26  O   UNL     1      24.854  21.094  12.003  1.00  0.00    -0.507 OA
ATOM     27  H   UNL     1      25.375  20.725  12.784  1.00  0.00     0.293 HD
ENDBRANCH   6  26
BRANCH   8  28
ATOM     28  O   UNL     1      20.567  18.975  12.445  1.00  0.00    -0.508 OA
ATOM     29  H   UNL     1      20.672  18.320  13.211  1.00  0.00     0.293 HD
ENDBRANCH   8  28
TORSDOF 7
ENDMDL
MODEL 6
REMARK VINA RESULT:    -4.814      4.103      7.997
REMARK INTER + INTRA:          -6.211
REMARK INTER:                  -6.147
REMARK INTRA:                  -0.065
REMARK UNBOUND:                -0.271
REMARK SMILES O=c1c(O)c(-c2cc(O)c(O)c(O)c2)oc2cc(O)cc(O)c12
REMARK SMILES IDX 5 1 3 2 2 3 1 4 23 5 21 6 20 7 18 8 17 9 16 10 15 11 6 12
REMARK SMILES IDX 7 13 8 14 14 15 10 16 12 17 9 18 11 20 13 22 4 24 22 26
REMARK SMILES IDX 19 28
REMARK H PARENT 9 19 11 21 13 23 4 25 22 27 19 29
REMARK Flexibility Score: inf
ROOT
ATOM      1  C   UNL     1      22.791  19.744   8.758  1.00  0.00     0.180 A 
ATOM      2  C   UNL     1      23.708  20.151   9.743  1.00  0.00     0.208 A 
ATOM      3  C   UNL     1      23.281  20.237  11.078  1.00  0.00     0.238 A 
ATOM      4  O   UNL     1      24.091  20.652  11.947  1.00  0.00    -0.285 OA
ATOM      5  C   UNL     1      21.947  19.899  11.414  1.00  0.00     0.111 A 
ATOM      6  C   UNL     1      21.418  19.911  12.739  1.00  0.00     0.134 A 
ATOM      7  C   UNL     1      20.051  19.685  12.938  1.00  0.00     0.093 A 
ATOM      8  C   UNL     1      19.206  19.385  11.867  1.00  0.00     0.123 A 
ATOM      9  C   UNL     1      19.725  19.312  10.577  1.00  0.00     0.094 A 
ATOM     10  C   UNL     1      21.079  19.568  10.342  1.00  0.00     0.146 A 
ATOM     11  O   UNL     1      21.530  19.499   9.095  1.00  0.00    -0.452 OA
ENDROOT
BRANCH   1  12
ATOM     12  C   UNL     1      23.173  19.607   7.334  1.00  0.00     0.029 A 
ATOM     13  C   UNL     1      22.950  18.412   6.630  1.00  0.00     0.062 A 
ATOM     14  C   UNL     1      23.296  18.307   5.275  1.00  0.00     0.162 A 
ATOM     15  C   UNL     1      23.716  20.707   6.656  1.00  0.00     0.062 A 
ATOM     16  C   UNL     1      23.861  19.408   4.610  1.00  0.00     0.200 A 
ATOM     17  C   UNL     1      24.067  20.612   5.305  1.00  0.00     0.162 A 
BRANCH  14  18
ATOM     18  O   UNL     1      23.076  17.114   4.588  1.00  0.00    -0.504 OA
ATOM     19  H   UNL     1      23.760  16.367   4.589  1.00  0.00     0.293 HD
ENDBRANCH  14  18
BRANCH  16  20
ATOM     20  O   UNL     1      24.216  19.320   3.263  1.00  0.00    -0.502 OA
ATOM     21  H   UNL     1      23.967  18.524   2.689  1.00  0.00     0.293 HD
ENDBRANCH  16  20
BRANCH  17  22
ATOM     22  O   UNL     1      24.618  21.725   4.670  1.00  0.00    -0.504 OA
ATOM     23  H   UNL     1      24.891  22.557   5.180  1.00  0.00     0.293 HD
ENDBRANCH  17  22
ENDBRANCH   1  12
BRANCH   2  24
ATOM     24  O   UNL     1      25.014  20.499   9.387  1.00  0.00    -0.502 OA
ATOM     25  H   UNL     1      25.220  21.271   8.766  1.00  0.00     0.293 HD
ENDBRANCH   2  24
BRANCH   6  26
ATOM     26  O   UNL     1      22.191  20.110  13.887  1.00  0.00    -0.507 OA
ATOM     27  H   UNL     1      22.152  20.932  14.469  1.00  0.00     0.293 HD
ENDBRANCH   6  26
BRANCH   8  28
ATOM     28  O   UNL     1      17.850  19.146  12.076  1.00  0.00    -0.508 OA
ATOM     29  H   UNL     1      17.363  19.523  12.881  1.00  0.00     0.293 HD
ENDBRANCH   8  28
TORSDOF 7
ENDMDL
MODEL 7
REMARK VINA RESULT:    -4.384      1.596      2.078
REMARK INTER + INTRA:          -5.681
REMARK INTER:                  -6.116
REMARK INTRA:                   0.436
REMARK UNBOUND:                -0.271
REMARK SMILES O=c1c(O)c(-c2cc(O)c(O)c(O)c2)oc2cc(O)cc(O)c12
REMARK SMILES IDX 5 1 3 2 2 3 1 4 23 5 21 6 20 7 18 8 17 9 16 10 15 11 6 12
REMARK SMILES IDX 7 13 8 14 14 15 10 16 12 17 9 18 11 20 13 22 4 24 22 26
REMARK SMILES IDX 19 28
REMARK H PARENT 9 19 11 21 13 23 4 25 22 27 19 29
REMARK Flexibility Score: inf
ROOT
ATOM      1  C   UNL     1      23.342  16.535   4.206  1.00  0.00     0.180 A 
ATOM      2  C   UNL     1      24.670  16.183   3.904  1.00  0.00     0.208 A 
ATOM      3  C   UNL     1      24.929  14.926   3.335  1.00  0.00     0.238 A 
ATOM      4  O   UNL     1      26.124  14.596   3.116  1.00  0.00    -0.285 OA
ATOM      5  C   UNL     1      23.857  14.042   3.061  1.00  0.00     0.111 A 
ATOM      6  C   UNL     1      24.001  12.761   2.450  1.00  0.00     0.134 A 
ATOM      7  C   UNL     1      22.887  11.917   2.347  1.00  0.00     0.093 A 
ATOM      8  C   UNL     1      21.625  12.335   2.773  1.00  0.00     0.123 A 
ATOM      9  C   UNL     1      21.464  13.607   3.316  1.00  0.00     0.094 A 
ATOM     10  C   UNL     1      22.562  14.457   3.466  1.00  0.00     0.146 A 
ATOM     11  O   UNL     1      22.366  15.658   3.998  1.00  0.00    -0.452 OA
ENDROOT
BRANCH   1  12
ATOM     12  C   UNL     1      22.987  17.851   4.784  1.00  0.00     0.029 A 
ATOM     13  C   UNL     1      21.664  18.323   4.768  1.00  0.00     0.062 A 
ATOM     14  C   UNL     1      21.342  19.561   5.341  1.00  0.00     0.162 A 
ATOM     15  C   UNL     1      23.978  18.619   5.412  1.00  0.00     0.062 A 
ATOM     16  C   UNL     1      22.346  20.334   5.947  1.00  0.00     0.200 A 
ATOM     17  C   UNL     1      23.667  19.856   5.985  1.00  0.00     0.162 A 
BRANCH  14  18
ATOM     18  O   UNL     1      20.026  20.022   5.313  1.00  0.00    -0.504 OA
ATOM     19  H   UNL     1      19.808  21.010   5.357  1.00  0.00     0.293 HD
ENDBRANCH  14  18
BRANCH  16  20
ATOM     20  O   UNL     1      22.044  21.572   6.519  1.00  0.00    -0.502 OA
ATOM     21  H   UNL     1      21.268  22.139   6.200  1.00  0.00     0.293 HD
ENDBRANCH  16  20
BRANCH  17  22
ATOM     22  O   UNL     1      24.684  20.597   6.587  1.00  0.00    -0.504 OA
ATOM     23  H   UNL     1      24.712  21.609   6.543  1.00  0.00     0.293 HD
ENDBRANCH  17  22
ENDBRANCH   1  12
BRANCH   2  24
ATOM     24  O   UNL     1      25.714  17.063   4.202  1.00  0.00    -0.502 OA
ATOM     25  H   UNL     1      25.801  17.971   3.764  1.00  0.00     0.293 HD
ENDBRANCH   2  24
BRANCH   6  26
ATOM     26  O   UNL     1      25.198  12.283   1.908  1.00  0.00    -0.507 OA
ATOM     27  H   UNL     1      25.270  11.500   1.277  1.00  0.00     0.293 HD
ENDBRANCH   6  26
BRANCH   8  28
ATOM     28  O   UNL     1      20.520  11.495   2.652  1.00  0.00    -0.508 OA
ATOM     29  H   UNL     1      19.927  11.515   1.830  1.00  0.00     0.293 HD
ENDBRANCH   8  28
TORSDOF 7
ENDMDL
MODEL 8
REMARK VINA RESULT:    -4.283      1.407      7.124
REMARK INTER + INTRA:          -5.556
REMARK INTER:                  -5.416
REMARK INTRA:                  -0.140
REMARK UNBOUND:                -0.271
REMARK SMILES O=c1c(O)c(-c2cc(O)c(O)c(O)c2)oc2cc(O)cc(O)c12
REMARK SMILES IDX 5 1 3 2 2 3 1 4 23 5 21 6 20 7 18 8 17 9 16 10 15 11 6 12
REMARK SMILES IDX 7 13 8 14 14 15 10 16 12 17 9 18 11 20 13 22 4 24 22 26
REMARK SMILES IDX 19 28
REMARK H PARENT 9 19 11 21 13 23 4 25 22 27 19 29
REMARK Flexibility Score: inf
ROOT
ATOM      1  C   UNL     1      22.457  16.803   4.208  1.00  0.00     0.180 A 
ATOM      2  C   UNL     1      23.117  17.650   3.300  1.00  0.00     0.208 A 
ATOM      3  C   UNL     1      23.721  18.824   3.779  1.00  0.00     0.238 A 
ATOM      4  O   UNL     1      24.263  19.604   2.955  1.00  0.00    -0.285 OA
ATOM      5  C   UNL     1      23.672  19.128   5.162  1.00  0.00     0.111 A 
ATOM      6  C   UNL     1      24.284  20.268   5.762  1.00  0.00     0.134 A 
ATOM      7  C   UNL     1      24.060  20.538   7.118  1.00  0.00     0.093 A 
ATOM      8  C   UNL     1      23.300  19.673   7.909  1.00  0.00     0.123 A 
ATOM      9  C   UNL     1      22.748  18.525   7.345  1.00  0.00     0.094 A 
ATOM     10  C   UNL     1      22.924  18.248   5.987  1.00  0.00     0.146 A 
ATOM     11  O   UNL     1      22.371  17.149   5.487  1.00  0.00    -0.452 OA
ENDROOT
BRANCH   1  12
ATOM     12  C   UNL     1      21.817  15.537   3.782  1.00  0.00     0.029 A 
ATOM     13  C   UNL     1      22.549  14.534   3.124  1.00  0.00     0.062 A 
ATOM     14  C   UNL     1      21.934  13.332   2.749  1.00  0.00     0.162 A 
ATOM     15  C   UNL     1      20.469  15.306   4.091  1.00  0.00     0.062 A 
ATOM     16  C   UNL     1      20.576  13.120   3.043  1.00  0.00     0.200 A 
ATOM     17  C   UNL     1      19.846  14.111   3.720  1.00  0.00     0.162 A 
BRANCH  14  18
ATOM     18  O   UNL     1      22.668  12.347   2.090  1.00  0.00    -0.504 OA
ATOM     19  H   UNL     1      23.243  11.685   2.597  1.00  0.00     0.293 HD
ENDBRANCH  14  18
BRANCH  16  20
ATOM     20  O   UNL     1      19.946  11.930   2.673  1.00  0.00    -0.502 OA
ATOM     21  H   UNL     1      20.367  11.023   2.832  1.00  0.00     0.293 HD
ENDBRANCH  16  20
BRANCH  17  22
ATOM     22  O   UNL     1      18.499  13.926   4.033  1.00  0.00    -0.504 OA
ATOM     23  H   UNL     1      18.183  13.762   4.981  1.00  0.00     0.293 HD
ENDBRANCH  17  22
ENDBRANCH   1  12
BRANCH   2  24
ATOM     24  O   UNL     1      23.135  17.342   1.937  1.00  0.00    -0.502 OA
ATOM     25  H   UNL     1      22.848  16.439   1.580  1.00  0.00     0.293 HD
ENDBRANCH   2  24
BRANCH   6  26
ATOM     26  O   UNL     1      25.135  21.145   5.084  1.00  0.00    -0.507 OA
ATOM     27  H   UNL     1      24.980  21.486   4.147  1.00  0.00     0.293 HD
ENDBRANCH   6  26
BRANCH   8  28
ATOM     28  O   UNL     1      23.096  19.940   9.261  1.00  0.00    -0.508 OA
ATOM     29  H   UNL     1      22.638  20.790   9.569  1.00  0.00     0.293 HD
ENDBRANCH   8  28
TORSDOF 7
ENDMDL
MODEL 9
REMARK VINA RESULT:    -4.282      2.795      5.534
REMARK INTER + INTRA:          -5.554
REMARK INTER:                  -5.435
REMARK INTRA:                  -0.119
REMARK UNBOUND:                -0.271
REMARK SMILES O=c1c(O)c(-c2cc(O)c(O)c(O)c2)oc2cc(O)cc(O)c12
REMARK SMILES IDX 5 1 3 2 2 3 1 4 23 5 21 6 20 7 18 8 17 9 16 10 15 11 6 12
REMARK SMILES IDX 7 13 8 14 14 15 10 16 12 17 9 18 11 20 13 22 4 24 22 26
REMARK SMILES IDX 19 28
REMARK H PARENT 9 19 11 21 13 23 4 25 22 27 19 29
REMARK Flexibility Score: inf
ROOT
ATOM      1  C   UNL     1      23.035  19.135   7.244  1.00  0.00     0.180 A 
ATOM      2  C   UNL     1      23.787  19.961   6.389  1.00  0.00     0.208 A 
ATOM      3  C   UNL     1      23.986  19.561   5.058  1.00  0.00     0.238 A 
ATOM      4  O   UNL     1      24.703  20.277   4.312  1.00  0.00    -0.285 OA
ATOM      5  C   UNL     1      23.419  18.349   4.594  1.00  0.00     0.111 A 
ATOM      6  C   UNL     1      23.523  17.867   3.255  1.00  0.00     0.134 A 
ATOM      7  C   UNL     1      23.035  16.592   2.941  1.00  0.00     0.093 A 
ATOM      8  C   UNL     1      22.389  15.811   3.901  1.00  0.00     0.123 A 
ATOM      9  C   UNL     1      22.229  16.298   5.196  1.00  0.00     0.094 A 
ATOM     10  C   UNL     1      22.737  17.551   5.549  1.00  0.00     0.146 A 
ATOM     11  O   UNL     1      22.573  17.973   6.797  1.00  0.00    -0.452 OA
ENDROOT
BRANCH   1  12
ATOM     12  C   UNL     1      22.762  19.501   8.653  1.00  0.00     0.029 A 
ATOM     13  C   UNL     1      23.807  19.736   9.562  1.00  0.00     0.062 A 
ATOM     14  C   UNL     1      23.530  20.104  10.886  1.00  0.00     0.162 A 
ATOM     15  C   UNL     1      21.436  19.674   9.076  1.00  0.00     0.062 A 
ATOM     16  C   UNL     1      22.198  20.252  11.308  1.00  0.00     0.200 A 
ATOM     17  C   UNL     1      21.150  20.039  10.395  1.00  0.00     0.162 A 
BRANCH  14  18
ATOM     18  O   UNL     1      24.575  20.327  11.782  1.00  0.00    -0.504 OA
ATOM     19  H   UNL     1      24.561  19.946  12.720  1.00  0.00     0.293 HD
ENDBRANCH  14  18
BRANCH  16  20
ATOM     20  O   UNL     1      21.904  20.614  12.623  1.00  0.00    -0.502 OA
ATOM     21  H   UNL     1      22.492  21.244  13.155  1.00  0.00     0.293 HD
ENDBRANCH  16  20
BRANCH  17  22
ATOM     22  O   UNL     1      19.818  20.187  10.782  1.00  0.00    -0.504 OA
ATOM     23  H   UNL     1      19.280  21.015  10.556  1.00  0.00     0.293 HD
ENDBRANCH  17  22
ENDBRANCH   1  12
BRANCH   2  24
ATOM     24  O   UNL     1      24.354  21.142   6.873  1.00  0.00    -0.502 OA
ATOM     25  H   UNL     1      24.340  22.007   6.348  1.00  0.00     0.293 HD
ENDBRANCH   2  24
BRANCH   6  26
ATOM     26  O   UNL     1      24.069  18.603   2.200  1.00  0.00    -0.507 OA
ATOM     27  H   UNL     1      24.967  19.061   2.224  1.00  0.00     0.293 HD
ENDBRANCH   6  26
BRANCH   8  28
ATOM     28  O   UNL     1      21.891  14.551   3.575  1.00  0.00    -0.508 OA
ATOM     29  H   UNL     1      21.534  13.923   4.286  1.00  0.00     0.293 HD
ENDBRANCH   8  28
TORSDOF 7
ENDMDL
