MODEL 1
REMARK VINA RESULT:    -6.797      0.000      0.000
REMARK INTER + INTRA:          -8.502
REMARK INTER:                  -8.187
REMARK INTRA:                  -0.315
REMARK UNBOUND:                -0.315
REMARK SMILES O=c1c(O)c(-c2ccc(O)c(O)c2)oc2cc(O)cc(O)c12
REMARK SMILES IDX 5 1 3 2 2 3 1 4 22 5 20 6 19 7 17 8 16 9 15 10 14 11 6 12
REMARK SMILES IDX 7 13 8 14 9 15 13 16 11 17 10 18 12 20 4 22 21 24 18 26
REMARK H PARENT 10 19 12 21 4 23 21 25 18 27
REMARK Flexibility Score: inf
ROOT
ATOM      1  C   UNL     1     -19.601 -47.223 104.376  1.00  0.00     0.180 A 
ATOM      2  C   UNL     1     -18.484 -46.768 105.103  1.00  0.00     0.208 A 
ATOM      3  C   UNL     1     -18.246 -47.296 106.382  1.00  0.00     0.238 A 
ATOM      4  O   UNL     1     -17.243 -46.903 107.038  1.00  0.00    -0.285 OA
ATOM      5  C   UNL     1     -19.136 -48.249 106.919  1.00  0.00     0.111 A 
ATOM      6  C   UNL     1     -18.970 -48.825 108.202  1.00  0.00     0.134 A 
ATOM      7  C   UNL     1     -19.903 -49.761 108.669  1.00  0.00     0.093 A 
ATOM      8  C   UNL     1     -20.998 -50.131 107.883  1.00  0.00     0.123 A 
ATOM      9  C   UNL     1     -21.167 -49.564 106.615  1.00  0.00     0.094 A 
ATOM     10  C   UNL     1     -20.245 -48.631 106.130  1.00  0.00     0.146 A 
ATOM     11  O   UNL     1     -20.426 -48.112 104.921  1.00  0.00    -0.452 OA
ENDROOT
BRANCH   1  12
ATOM     12  C   UNL     1     -19.908 -46.730 103.014  1.00  0.00     0.025 A 
ATOM     13  C   UNL     1     -19.249 -47.244 101.883  1.00  0.00     0.016 A 
ATOM     14  C   UNL     1     -19.573 -46.781 100.606  1.00  0.00     0.051 A 
ATOM     15  C   UNL     1     -20.564 -45.810 100.436  1.00  0.00     0.157 A 
ATOM     16  C   UNL     1     -20.919 -45.770 102.838  1.00  0.00     0.062 A 
ATOM     17  C   UNL     1     -21.243 -45.303 101.555  1.00  0.00     0.158 A 
BRANCH  15  18
ATOM     18  O   UNL     1     -20.864 -45.365  99.148  1.00  0.00    -0.504 OA
ATOM     19  H   UNL     1     -21.585 -44.675  98.971  1.00  0.00     0.293 HD
ENDBRANCH  15  18
BRANCH  17  20
ATOM     20  O   UNL     1     -22.240 -44.341 101.393  1.00  0.00    -0.504 OA
ATOM     21  H   UNL     1     -22.337 -43.564 102.036  1.00  0.00     0.293 HD
ENDBRANCH  17  20
ENDBRANCH   1  12
BRANCH   2  22
ATOM     22  O   UNL     1     -17.646 -45.787 104.567  1.00  0.00    -0.502 OA
ATOM     23  H   UNL     1     -17.234 -45.056 105.135  1.00  0.00     0.293 HD
ENDBRANCH   2  22
BRANCH   6  24
ATOM     24  O   UNL     1     -17.888 -48.477 109.011  1.00  0.00    -0.507 OA
ATOM     25  H   UNL     1     -16.987 -48.231 108.619  1.00  0.00     0.293 HD
ENDBRANCH   6  24
BRANCH   8  26
ATOM     26  O   UNL     1     -21.912 -51.062 108.371  1.00  0.00    -0.508 OA
ATOM     27  H   UNL     1     -22.711 -50.779 108.926  1.00  0.00     0.293 HD
ENDBRANCH   8  26
TORSDOF 6
ENDMDL
MODEL 2
REMARK VINA RESULT:    -6.785      4.365      6.900
REMARK INTER + INTRA:          -8.488
REMARK INTER:                  -8.427
REMARK INTRA:                  -0.060
REMARK UNBOUND:                -0.315
REMARK SMILES O=c1c(O)c(-c2ccc(O)c(O)c2)oc2cc(O)cc(O)c12
REMARK SMILES IDX 5 1 3 2 2 3 1 4 22 5 20 6 19 7 17 8 16 9 15 10 14 11 6 12
REMARK SMILES IDX 7 13 8 14 9 15 13 16 11 17 10 18 12 20 4 22 21 24 18 26
REMARK H PARENT 10 19 12 21 4 23 21 25 18 27
REMARK Flexibility Score: inf
ROOT
ATOM      1  C   UNL     1     -23.017 -49.953 103.358  1.00  0.00     0.180 A 
ATOM      2  C   UNL     1     -22.203 -49.853 104.502  1.00  0.00     0.208 A 
ATOM      3  C   UNL     1     -21.464 -48.677 104.708  1.00  0.00     0.238 A 
ATOM      4  O   UNL     1     -20.739 -48.572 105.735  1.00  0.00    -0.285 OA
ATOM      5  C   UNL     1     -21.536 -47.634 103.762  1.00  0.00     0.111 A 
ATOM      6  C   UNL     1     -20.820 -46.419 103.894  1.00  0.00     0.134 A 
ATOM      7  C   UNL     1     -20.938 -45.433 102.904  1.00  0.00     0.093 A 
ATOM      8  C   UNL     1     -21.753 -45.636 101.788  1.00  0.00     0.123 A 
ATOM      9  C   UNL     1     -22.463 -46.834 101.653  1.00  0.00     0.094 A 
ATOM     10  C   UNL     1     -22.360 -47.828 102.630  1.00  0.00     0.146 A 
ATOM     11  O   UNL     1     -23.048 -48.955 102.479  1.00  0.00    -0.452 OA
ENDROOT
BRANCH   1  12
ATOM     12  C   UNL     1     -23.840 -51.152 103.080  1.00  0.00     0.025 A 
ATOM     13  C   UNL     1     -24.734 -51.665 104.037  1.00  0.00     0.016 A 
ATOM     14  C   UNL     1     -25.518 -52.783 103.744  1.00  0.00     0.051 A 
ATOM     15  C   UNL     1     -25.433 -53.397 102.491  1.00  0.00     0.157 A 
ATOM     16  C   UNL     1     -23.773 -51.759 101.814  1.00  0.00     0.062 A 
ATOM     17  C   UNL     1     -24.560 -52.882 101.519  1.00  0.00     0.158 A 
BRANCH  15  18
ATOM     18  O   UNL     1     -26.227 -54.514 102.228  1.00  0.00    -0.504 OA
ATOM     19  H   UNL     1     -25.986 -55.188 101.510  1.00  0.00     0.293 HD
ENDBRANCH  15  18
BRANCH  17  20
ATOM     20  O   UNL     1     -24.476 -53.484 100.264  1.00  0.00    -0.504 OA
ATOM     21  H   UNL     1     -24.891 -54.390 100.080  1.00  0.00     0.293 HD
ENDBRANCH  17  20
ENDBRANCH   1  12
BRANCH   2  22
ATOM     22  O   UNL     1     -22.111 -50.921 105.399  1.00  0.00    -0.502 OA
ATOM     23  H   UNL     1     -21.943 -50.785 106.388  1.00  0.00     0.293 HD
ENDBRANCH   2  22
BRANCH   6  24
ATOM     24  O   UNL     1     -19.997 -46.186 104.996  1.00  0.00    -0.507 OA
ATOM     25  H   UNL     1     -19.008 -45.997 104.891  1.00  0.00     0.293 HD
ENDBRANCH   6  24
BRANCH   8  26
ATOM     26  O   UNL     1     -21.851 -44.640 100.818  1.00  0.00    -0.508 OA
ATOM     27  H   UNL     1     -21.060 -44.056 100.576  1.00  0.00     0.293 HD
ENDBRANCH   8  26
TORSDOF 6
ENDMDL
MODEL 3
REMARK VINA RESULT:    -6.648      1.359      2.999
REMARK INTER + INTRA:          -8.323
REMARK INTER:                  -8.006
REMARK INTRA:                  -0.317
REMARK UNBOUND:                -0.315
REMARK SMILES O=c1c(O)c(-c2ccc(O)c(O)c2)oc2cc(O)cc(O)c12
REMARK SMILES IDX 5 1 3 2 2 3 1 4 22 5 20 6 19 7 17 8 16 9 15 10 14 11 6 12
REMARK SMILES IDX 7 13 8 14 9 15 13 16 11 17 10 18 12 20 4 22 21 24 18 26
REMARK H PARENT 10 19 12 21 4 23 21 25 18 27
REMARK Flexibility Score: inf
ROOT
ATOM      1  C   UNL     1     -20.727 -47.770 103.779  1.00  0.00     0.180 A 
ATOM      2  C   UNL     1     -21.699 -48.789 103.799  1.00  0.00     0.208 A 
ATOM      3  C   UNL     1     -21.804 -49.602 104.939  1.00  0.00     0.238 A 
ATOM      4  O   UNL     1     -22.678 -50.512 104.973  1.00  0.00    -0.285 OA
ATOM      5  C   UNL     1     -20.929 -49.398 106.025  1.00  0.00     0.111 A 
ATOM      6  C   UNL     1     -20.967 -50.176 107.207  1.00  0.00     0.134 A 
ATOM      7  C   UNL     1     -20.056 -49.916 108.240  1.00  0.00     0.093 A 
ATOM      8  C   UNL     1     -19.108 -48.897 108.116  1.00  0.00     0.123 A 
ATOM      9  C   UNL     1     -19.065 -48.125 106.950  1.00  0.00     0.094 A 
ATOM     10  C   UNL     1     -19.967 -48.367 105.910  1.00  0.00     0.146 A 
ATOM     11  O   UNL     1     -19.908 -47.616 104.816  1.00  0.00    -0.452 OA
ENDROOT
BRANCH   1  12
ATOM     12  C   UNL     1     -20.566 -46.859 102.623  1.00  0.00     0.025 A 
ATOM     13  C   UNL     1     -19.642 -47.133 101.598  1.00  0.00     0.016 A 
ATOM     14  C   UNL     1     -19.525 -46.271 100.505  1.00  0.00     0.051 A 
ATOM     15  C   UNL     1     -20.332 -45.133 100.411  1.00  0.00     0.157 A 
ATOM     16  C   UNL     1     -21.390 -45.726 102.515  1.00  0.00     0.062 A 
ATOM     17  C   UNL     1     -21.271 -44.860 101.418  1.00  0.00     0.158 A 
BRANCH  15  18
ATOM     18  O   UNL     1     -20.190 -44.290  99.309  1.00  0.00    -0.504 OA
ATOM     19  H   UNL     1     -19.628 -43.448  99.344  1.00  0.00     0.293 HD
ENDBRANCH  15  18
BRANCH  17  20
ATOM     20  O   UNL     1     -22.086 -43.732 101.327  1.00  0.00    -0.504 OA
ATOM     21  H   UNL     1     -21.754 -42.813 101.599  1.00  0.00     0.293 HD
ENDBRANCH  17  20
ENDBRANCH   1  12
BRANCH   2  22
ATOM     22  O   UNL     1     -22.521 -49.002 102.691  1.00  0.00    -0.502 OA
ATOM     23  H   UNL     1     -22.374 -48.530 101.807  1.00  0.00     0.293 HD
ENDBRANCH   2  22
BRANCH   6  24
ATOM     24  O   UNL     1     -21.901 -51.201 107.362  1.00  0.00    -0.507 OA
ATOM     25  H   UNL     1     -22.852 -51.015 107.660  1.00  0.00     0.293 HD
ENDBRANCH   6  24
BRANCH   8  26
ATOM     26  O   UNL     1     -18.212 -48.661 109.156  1.00  0.00    -0.508 OA
ATOM     27  H   UNL     1     -17.612 -49.393 109.517  1.00  0.00     0.293 HD
ENDBRANCH   8  26
TORSDOF 6
ENDMDL
MODEL 4
REMARK VINA RESULT:    -6.573      1.760      7.322
REMARK INTER + INTRA:          -8.232
REMARK INTER:                  -8.332
REMARK INTRA:                   0.100
REMARK UNBOUND:                -0.315
REMARK SMILES O=c1c(O)c(-c2ccc(O)c(O)c2)oc2cc(O)cc(O)c12
REMARK SMILES IDX 5 1 3 2 2 3 1 4 22 5 20 6 19 7 17 8 16 9 15 10 14 11 6 12
REMARK SMILES IDX 7 13 8 14 9 15 13 16 11 17 10 18 12 20 4 22 21 24 18 26
REMARK H PARENT 10 19 12 21 4 23 21 25 18 27
REMARK Flexibility Score: inf
ROOT
ATOM      1  C   UNL     1     -21.014 -47.399 104.161  1.00  0.00     0.180 A 
ATOM      2  C   UNL     1     -21.572 -47.985 103.008  1.00  0.00     0.208 A 
ATOM      3  C   UNL     1     -21.665 -47.220 101.835  1.00  0.00     0.238 A 
ATOM      4  O   UNL     1     -22.153 -47.738 100.793  1.00  0.00    -0.285 OA
ATOM      5  C   UNL     1     -21.221 -45.881 101.839  1.00  0.00     0.111 A 
ATOM      6  C   UNL     1     -21.284 -45.042 100.700  1.00  0.00     0.134 A 
ATOM      7  C   UNL     1     -20.830 -43.719 100.786  1.00  0.00     0.093 A 
ATOM      8  C   UNL     1     -20.316 -43.217 101.985  1.00  0.00     0.123 A 
ATOM      9  C   UNL     1     -20.252 -44.042 103.113  1.00  0.00     0.094 A 
ATOM     10  C   UNL     1     -20.697 -45.365 103.046  1.00  0.00     0.146 A 
ATOM     11  O   UNL     1     -20.620 -46.129 104.131  1.00  0.00    -0.452 OA
ENDROOT
BRANCH   1  12
ATOM     12  C   UNL     1     -20.864 -48.145 105.430  1.00  0.00     0.025 A 
ATOM     13  C   UNL     1     -21.891 -48.973 105.919  1.00  0.00     0.016 A 
ATOM     14  C   UNL     1     -21.716 -49.687 107.107  1.00  0.00     0.051 A 
ATOM     15  C   UNL     1     -20.515 -49.597 107.817  1.00  0.00     0.157 A 
ATOM     16  C   UNL     1     -19.651 -48.074 106.135  1.00  0.00     0.062 A 
ATOM     17  C   UNL     1     -19.475 -48.790 107.328  1.00  0.00     0.158 A 
BRANCH  15  18
ATOM     18  O   UNL     1     -20.372 -50.320 109.001  1.00  0.00    -0.504 OA
ATOM     19  H   UNL     1     -19.477 -50.420 109.466  1.00  0.00     0.293 HD
ENDBRANCH  15  18
BRANCH  17  20
ATOM     20  O   UNL     1     -18.271 -48.702 108.026  1.00  0.00    -0.504 OA
ATOM     21  H   UNL     1     -17.940 -47.822 108.405  1.00  0.00     0.293 HD
ENDBRANCH  17  20
ENDBRANCH   1  12
BRANCH   2  22
ATOM     22  O   UNL     1     -22.049 -49.298 103.045  1.00  0.00    -0.502 OA
ATOM     23  H   UNL     1     -22.008 -49.913 102.241  1.00  0.00     0.293 HD
ENDBRANCH   2  22
BRANCH   6  24
ATOM     24  O   UNL     1     -21.793 -45.512  99.488  1.00  0.00    -0.507 OA
ATOM     25  H   UNL     1     -21.197 -45.655  98.681  1.00  0.00     0.293 HD
ENDBRANCH   6  24
BRANCH   8  26
ATOM     26  O   UNL     1     -19.873 -41.898 102.045  1.00  0.00    -0.508 OA
ATOM     27  H   UNL     1     -18.962 -41.628 101.692  1.00  0.00     0.293 HD
ENDBRANCH   8  26
TORSDOF 6
ENDMDL
MODEL 5
REMARK VINA RESULT:    -6.545      1.640      3.474
REMARK INTER + INTRA:          -8.199
REMARK INTER:                  -7.890
REMARK INTRA:                  -0.309
REMARK UNBOUND:                -0.315
REMARK SMILES O=c1c(O)c(-c2ccc(O)c(O)c2)oc2cc(O)cc(O)c12
REMARK SMILES IDX 5 1 3 2 2 3 1 4 22 5 20 6 19 7 17 8 16 9 15 10 14 11 6 12
REMARK SMILES IDX 7 13 8 14 9 15 13 16 11 17 10 18 12 20 4 22 21 24 18 26
REMARK H PARENT 10 19 12 21 4 23 21 25 18 27
REMARK Flexibility Score: inf
ROOT
ATOM      1  C   UNL     1     -21.127 -48.047 103.691  1.00  0.00     0.180 A 
ATOM      2  C   UNL     1     -22.044 -49.116 103.707  1.00  0.00     0.208 A 
ATOM      3  C   UNL     1     -22.105 -49.942 104.841  1.00  0.00     0.238 A 
ATOM      4  O   UNL     1     -22.930 -50.895 104.870  1.00  0.00    -0.285 OA
ATOM      5  C   UNL     1     -21.238 -49.700 105.926  1.00  0.00     0.111 A 
ATOM      6  C   UNL     1     -21.232 -50.488 107.103  1.00  0.00     0.134 A 
ATOM      7  C   UNL     1     -20.333 -50.188 108.135  1.00  0.00     0.093 A 
ATOM      8  C   UNL     1     -19.440 -49.121 108.016  1.00  0.00     0.123 A 
ATOM      9  C   UNL     1     -19.440 -48.339 106.856  1.00  0.00     0.094 A 
ATOM     10  C   UNL     1     -20.331 -48.620 105.816  1.00  0.00     0.146 A 
ATOM     11  O   UNL     1     -20.315 -47.859 104.727  1.00  0.00    -0.452 OA
ENDROOT
BRANCH   1  12
ATOM     12  C   UNL     1     -21.016 -47.121 102.542  1.00  0.00     0.025 A 
ATOM     13  C   UNL     1     -21.930 -46.068 102.359  1.00  0.00     0.016 A 
ATOM     14  C   UNL     1     -21.792 -45.192 101.280  1.00  0.00     0.051 A 
ATOM     15  C   UNL     1     -20.737 -45.344 100.376  1.00  0.00     0.157 A 
ATOM     16  C   UNL     1     -19.945 -47.258 101.644  1.00  0.00     0.062 A 
ATOM     17  C   UNL     1     -19.806 -46.380 100.559  1.00  0.00     0.158 A 
BRANCH  15  18
ATOM     18  O   UNL     1     -20.626 -44.455  99.307  1.00  0.00    -0.504 OA
ATOM     19  H   UNL     1     -19.728 -44.179  98.927  1.00  0.00     0.293 HD
ENDBRANCH  15  18
BRANCH  17  20
ATOM     20  O   UNL     1     -18.745 -46.533  99.667  1.00  0.00    -0.504 OA
ATOM     21  H   UNL     1     -18.654 -47.359  99.087  1.00  0.00     0.293 HD
ENDBRANCH  17  20
ENDBRANCH   1  12
BRANCH   2  22
ATOM     22  O   UNL     1     -22.858 -49.364 102.598  1.00  0.00    -0.502 OA
ATOM     23  H   UNL     1     -23.553 -50.100 102.589  1.00  0.00     0.293 HD
ENDBRANCH   2  22
BRANCH   6  24
ATOM     24  O   UNL     1     -22.112 -51.561 107.252  1.00  0.00    -0.507 OA
ATOM     25  H   UNL     1     -22.748 -51.622 108.038  1.00  0.00     0.293 HD
ENDBRANCH   6  24
BRANCH   8  26
ATOM     26  O   UNL     1     -18.555 -48.845 109.056  1.00  0.00    -0.508 OA
ATOM     27  H   UNL     1     -17.674 -49.339 109.148  1.00  0.00     0.293 HD
ENDBRANCH   8  26
TORSDOF 6
ENDMDL
MODEL 6
REMARK VINA RESULT:    -6.447      1.674      7.218
REMARK INTER + INTRA:          -8.081
REMARK INTER:                  -8.148
REMARK INTRA:                   0.067
REMARK UNBOUND:                -0.315
REMARK SMILES O=c1c(O)c(-c2ccc(O)c(O)c2)oc2cc(O)cc(O)c12
REMARK SMILES IDX 5 1 3 2 2 3 1 4 22 5 20 6 19 7 17 8 16 9 15 10 14 11 6 12
REMARK SMILES IDX 7 13 8 14 9 15 13 16 11 17 10 18 12 20 4 22 21 24 18 26
REMARK H PARENT 10 19 12 21 4 23 21 25 18 27
REMARK Flexibility Score: inf
ROOT
ATOM      1  C   UNL     1     -20.778 -47.955 105.326  1.00  0.00     0.180 A 
ATOM      2  C   UNL     1     -22.084 -47.688 104.872  1.00  0.00     0.208 A 
ATOM      3  C   UNL     1     -22.259 -46.840 103.767  1.00  0.00     0.238 A 
ATOM      4  O   UNL     1     -23.424 -46.603 103.345  1.00  0.00    -0.285 OA
ATOM      5  C   UNL     1     -21.132 -46.259 103.150  1.00  0.00     0.111 A 
ATOM      6  C   UNL     1     -21.222 -45.391 102.035  1.00  0.00     0.134 A 
ATOM      7  C   UNL     1     -20.055 -44.846 101.482  1.00  0.00     0.093 A 
ATOM      8  C   UNL     1     -18.802 -45.150 102.020  1.00  0.00     0.123 A 
ATOM      9  C   UNL     1     -18.706 -46.007 103.121  1.00  0.00     0.094 A 
ATOM     10  C   UNL     1     -19.859 -46.562 103.685  1.00  0.00     0.146 A 
ATOM     11  O   UNL     1     -19.740 -47.377 104.727  1.00  0.00    -0.452 OA
ENDROOT
BRANCH   1  12
ATOM     12  C   UNL     1     -20.510 -48.853 106.471  1.00  0.00     0.025 A 
ATOM     13  C   UNL     1     -21.188 -50.077 106.616  1.00  0.00     0.016 A 
ATOM     14  C   UNL     1     -20.901 -50.920 107.693  1.00  0.00     0.051 A 
ATOM     15  C   UNL     1     -19.930 -50.562 108.632  1.00  0.00     0.157 A 
ATOM     16  C   UNL     1     -19.519 -48.507 107.405  1.00  0.00     0.062 A 
ATOM     17  C   UNL     1     -19.232 -49.352 108.487  1.00  0.00     0.158 A 
BRANCH  15  18
ATOM     18  O   UNL     1     -19.667 -51.423 109.698  1.00  0.00    -0.504 OA
ATOM     19  H   UNL     1     -18.916 -52.102 109.669  1.00  0.00     0.293 HD
ENDBRANCH  15  18
BRANCH  17  20
ATOM     20  O   UNL     1     -18.255 -48.992 109.415  1.00  0.00    -0.504 OA
ATOM     21  H   UNL     1     -18.293 -49.310 110.377  1.00  0.00     0.293 HD
ENDBRANCH  17  20
ENDBRANCH   1  12
BRANCH   2  22
ATOM     22  O   UNL     1     -23.186 -48.238 105.532  1.00  0.00    -0.502 OA
ATOM     23  H   UNL     1     -24.063 -47.740 105.632  1.00  0.00     0.293 HD
ENDBRANCH   2  22
BRANCH   6  24
ATOM     24  O   UNL     1     -22.459 -45.067 101.474  1.00  0.00    -0.507 OA
ATOM     25  H   UNL     1     -22.899 -45.658 100.779  1.00  0.00     0.293 HD
ENDBRANCH   6  24
BRANCH   8  26
ATOM     26  O   UNL     1     -17.657 -44.594 101.453  1.00  0.00    -0.508 OA
ATOM     27  H   UNL     1     -17.642 -44.278 100.490  1.00  0.00     0.293 HD
ENDBRANCH   8  26
TORSDOF 6
ENDMDL
MODEL 7
REMARK VINA RESULT:    -6.371      1.880      3.644
REMARK INTER + INTRA:          -7.990
REMARK INTER:                  -7.737
REMARK INTRA:                  -0.253
REMARK UNBOUND:                -0.315
REMARK SMILES O=c1c(O)c(-c2ccc(O)c(O)c2)oc2cc(O)cc(O)c12
REMARK SMILES IDX 5 1 3 2 2 3 1 4 22 5 20 6 19 7 17 8 16 9 15 10 14 11 6 12
REMARK SMILES IDX 7 13 8 14 9 15 13 16 11 17 10 18 12 20 4 22 21 24 18 26
REMARK H PARENT 10 19 12 21 4 23 21 25 18 27
REMARK Flexibility Score: inf
ROOT
ATOM      1  C   UNL     1     -20.276 -48.629 106.166  1.00  0.00     0.180 A 
ATOM      2  C   UNL     1     -20.776 -49.879 106.578  1.00  0.00     0.208 A 
ATOM      3  C   UNL     1     -20.370 -50.397 107.818  1.00  0.00     0.238 A 
ATOM      4  O   UNL     1     -20.819 -51.512 108.202  1.00  0.00    -0.285 OA
ATOM      5  C   UNL     1     -19.459 -49.671 108.612  1.00  0.00     0.111 A 
ATOM      6  C   UNL     1     -18.996 -50.125 109.871  1.00  0.00     0.134 A 
ATOM      7  C   UNL     1     -18.083 -49.348 110.597  1.00  0.00     0.093 A 
ATOM      8  C   UNL     1     -17.622 -48.130 110.092  1.00  0.00     0.123 A 
ATOM      9  C   UNL     1     -18.075 -47.676 108.848  1.00  0.00     0.094 A 
ATOM     10  C   UNL     1     -18.988 -48.436 108.111  1.00  0.00     0.146 A 
ATOM     11  O   UNL     1     -19.407 -47.979 106.935  1.00  0.00    -0.452 OA
ENDROOT
BRANCH   1  12
ATOM     12  C   UNL     1     -20.672 -48.007 104.883  1.00  0.00     0.025 A 
ATOM     13  C   UNL     1     -19.803 -47.994 103.776  1.00  0.00     0.016 A 
ATOM     14  C   UNL     1     -20.208 -47.422 102.567  1.00  0.00     0.051 A 
ATOM     15  C   UNL     1     -21.484 -46.868 102.440  1.00  0.00     0.157 A 
ATOM     16  C   UNL     1     -21.961 -47.467 104.744  1.00  0.00     0.062 A 
ATOM     17  C   UNL     1     -22.368 -46.892 103.531  1.00  0.00     0.158 A 
BRANCH  15  18
ATOM     18  O   UNL     1     -21.859 -46.302 101.221  1.00  0.00    -0.504 OA
ATOM     19  H   UNL     1     -22.793 -46.408 100.842  1.00  0.00     0.293 HD
ENDBRANCH  15  18
BRANCH  17  20
ATOM     20  O   UNL     1     -23.646 -46.348 103.409  1.00  0.00    -0.504 OA
ATOM     21  H   UNL     1     -23.853 -45.625 102.730  1.00  0.00     0.293 HD
ENDBRANCH  17  20
ENDBRANCH   1  12
BRANCH   2  22
ATOM     22  O   UNL     1     -21.640 -50.601 105.750  1.00  0.00    -0.502 OA
ATOM     23  H   UNL     1     -21.601 -50.539 104.740  1.00  0.00     0.293 HD
ENDBRANCH   2  22
BRANCH   6  24
ATOM     24  O   UNL     1     -19.436 -51.338 110.403  1.00  0.00    -0.507 OA
ATOM     25  H   UNL     1     -19.445 -51.509 111.402  1.00  0.00     0.293 HD
ENDBRANCH   6  24
BRANCH   8  26
ATOM     26  O   UNL     1     -16.713 -47.378 110.832  1.00  0.00    -0.508 OA
ATOM     27  H   UNL     1     -16.953 -47.002 111.742  1.00  0.00     0.293 HD
ENDBRANCH   8  26
TORSDOF 6
ENDMDL
MODEL 8
REMARK VINA RESULT:    -6.131      2.694      3.603
REMARK INTER + INTRA:          -7.700
REMARK INTER:                  -7.372
REMARK INTRA:                  -0.328
REMARK UNBOUND:                -0.315
REMARK SMILES O=c1c(O)c(-c2ccc(O)c(O)c2)oc2cc(O)cc(O)c12
REMARK SMILES IDX 5 1 3 2 2 3 1 4 22 5 20 6 19 7 17 8 16 9 15 10 14 11 6 12
REMARK SMILES IDX 7 13 8 14 9 15 13 16 11 17 10 18 12 20 4 22 21 24 18 26
REMARK H PARENT 10 19 12 21 4 23 21 25 18 27
REMARK Flexibility Score: inf
ROOT
ATOM      1  C   UNL     1     -21.085 -46.770 102.711  1.00  0.00     0.180 A 
ATOM      2  C   UNL     1     -20.436 -46.979 103.943  1.00  0.00     0.208 A 
ATOM      3  C   UNL     1     -20.769 -48.112 104.702  1.00  0.00     0.238 A 
ATOM      4  O   UNL     1     -20.187 -48.315 105.802  1.00  0.00    -0.285 OA
ATOM      5  C   UNL     1     -21.756 -49.001 104.229  1.00  0.00     0.111 A 
ATOM      6  C   UNL     1     -22.153 -50.163 104.935  1.00  0.00     0.134 A 
ATOM      7  C   UNL     1     -23.148 -50.994 104.402  1.00  0.00     0.093 A 
ATOM      8  C   UNL     1     -23.755 -50.688 103.182  1.00  0.00     0.123 A 
ATOM      9  C   UNL     1     -23.367 -49.541 102.480  1.00  0.00     0.094 A 
ATOM     10  C   UNL     1     -22.374 -48.702 102.994  1.00  0.00     0.146 A 
ATOM     11  O   UNL     1     -22.021 -47.622 102.305  1.00  0.00    -0.452 OA
ENDROOT
BRANCH   1  12
ATOM     12  C   UNL     1     -20.775 -45.611 101.845  1.00  0.00     0.025 A 
ATOM     13  C   UNL     1     -19.698 -45.639 100.940  1.00  0.00     0.016 A 
ATOM     14  C   UNL     1     -19.439 -44.542 100.116  1.00  0.00     0.051 A 
ATOM     15  C   UNL     1     -20.254 -43.408 100.170  1.00  0.00     0.157 A 
ATOM     16  C   UNL     1     -21.604 -44.477 101.882  1.00  0.00     0.062 A 
ATOM     17  C   UNL     1     -21.344 -43.375 101.055  1.00  0.00     0.158 A 
BRANCH  15  18
ATOM     18  O   UNL     1     -19.969 -42.327  99.336  1.00  0.00    -0.504 OA
ATOM     19  H   UNL     1     -20.516 -42.128  98.507  1.00  0.00     0.293 HD
ENDBRANCH  15  18
BRANCH  17  20
ATOM     20  O   UNL     1     -22.167 -42.250 101.109  1.00  0.00    -0.504 OA
ATOM     21  H   UNL     1     -23.129 -42.311 101.425  1.00  0.00     0.293 HD
ENDBRANCH  17  20
ENDBRANCH   1  12
BRANCH   2  22
ATOM     22  O   UNL     1     -19.497 -46.057 104.412  1.00  0.00    -0.502 OA
ATOM     23  H   UNL     1     -18.567 -46.330 104.706  1.00  0.00     0.293 HD
ENDBRANCH   2  22
BRANCH   6  24
ATOM     24  O   UNL     1     -21.567 -50.497 106.157  1.00  0.00    -0.507 OA
ATOM     25  H   UNL     1     -20.856 -49.914 106.583  1.00  0.00     0.293 HD
ENDBRANCH   6  24
BRANCH   8  26
ATOM     26  O   UNL     1     -24.743 -51.529 102.675  1.00  0.00    -0.508 OA
ATOM     27  H   UNL     1     -24.536 -52.223 101.965  1.00  0.00     0.293 HD
ENDBRANCH   8  26
TORSDOF 6
ENDMDL
MODEL 9
REMARK VINA RESULT:    -6.097      1.436      3.351
REMARK INTER + INTRA:          -7.659
REMARK INTER:                  -7.327
REMARK INTRA:                  -0.332
REMARK UNBOUND:                -0.315
REMARK SMILES O=c1c(O)c(-c2ccc(O)c(O)c2)oc2cc(O)cc(O)c12
REMARK SMILES IDX 5 1 3 2 2 3 1 4 22 5 20 6 19 7 17 8 16 9 15 10 14 11 6 12
REMARK SMILES IDX 7 13 8 14 9 15 13 16 11 17 10 18 12 20 4 22 21 24 18 26
REMARK H PARENT 10 19 12 21 4 23 21 25 18 27
REMARK Flexibility Score: inf
ROOT
ATOM      1  C   UNL     1     -19.763 -47.134 104.153  1.00  0.00     0.180 A 
ATOM      2  C   UNL     1     -20.389 -48.257 104.729  1.00  0.00     0.208 A 
ATOM      3  C   UNL     1     -20.064 -48.613 106.047  1.00  0.00     0.238 A 
ATOM      4  O   UNL     1     -20.626 -49.611 106.576  1.00  0.00    -0.285 OA
ATOM      5  C   UNL     1     -19.109 -47.858 106.757  1.00  0.00     0.111 A 
ATOM      6  C   UNL     1     -18.722 -48.155 108.088  1.00  0.00     0.134 A 
ATOM      7  C   UNL     1     -17.758 -47.360 108.724  1.00  0.00     0.093 A 
ATOM      8  C   UNL     1     -17.172 -46.280 108.060  1.00  0.00     0.123 A 
ATOM      9  C   UNL     1     -17.550 -45.983 106.746  1.00  0.00     0.094 A 
ATOM     10  C   UNL     1     -18.512 -46.761 106.095  1.00  0.00     0.146 A 
ATOM     11  O   UNL     1     -18.856 -46.455 104.849  1.00  0.00    -0.452 OA
ENDROOT
BRANCH   1  12
ATOM     12  C   UNL     1     -20.067 -46.683 102.777  1.00  0.00     0.025 A 
ATOM     13  C   UNL     1     -21.088 -45.750 102.520  1.00  0.00     0.016 A 
ATOM     14  C   UNL     1     -21.340 -45.321 101.215  1.00  0.00     0.051 A 
ATOM     15  C   UNL     1     -20.573 -45.803 100.151  1.00  0.00     0.157 A 
ATOM     16  C   UNL     1     -19.284 -47.149 101.707  1.00  0.00     0.062 A 
ATOM     17  C   UNL     1     -19.538 -46.720 100.396  1.00  0.00     0.158 A 
BRANCH  15  18
ATOM     18  O   UNL     1     -20.851 -45.358  98.858  1.00  0.00    -0.504 OA
ATOM     19  H   UNL     1     -21.766 -45.013  98.592  1.00  0.00     0.293 HD
ENDBRANCH  15  18
BRANCH  17  20
ATOM     20  O   UNL     1     -18.763 -47.199  99.341  1.00  0.00    -0.504 OA
ATOM     21  H   UNL     1     -17.967 -47.806  99.500  1.00  0.00     0.293 HD
ENDBRANCH  17  20
ENDBRANCH   1  12
BRANCH   2  22
ATOM     22  O   UNL     1     -21.296 -49.017 103.986  1.00  0.00    -0.502 OA
ATOM     23  H   UNL     1     -21.694 -48.688 103.114  1.00  0.00     0.293 HD
ENDBRANCH   2  22
BRANCH   6  24
ATOM     24  O   UNL     1     -19.288 -49.227 108.778  1.00  0.00    -0.507 OA
ATOM     25  H   UNL     1     -20.047 -49.772 108.386  1.00  0.00     0.293 HD
ENDBRANCH   6  24
BRANCH   8  26
ATOM     26  O   UNL     1     -16.215 -45.507 108.714  1.00  0.00    -0.508 OA
ATOM     27  H   UNL     1     -15.855 -45.768 109.625  1.00  0.00     0.293 HD
ENDBRANCH   8  26
TORSDOF 6
ENDMDL
