MODEL 1
REMARK VINA RESULT:    -4.229      0.000      0.000
REMARK INTER + INTRA:          -5.219
REMARK INTER:                  -4.970
REMARK INTRA:                  -0.249
REMARK UNBOUND:                -0.249
REMARK SMILES [NH3+][C@@H](CO)C(=O)[O-]
REMARK SMILES IDX 3 1 2 2 1 3 5 7 6 8 7 9 4 10
REMARK H PARENT 1 4 1 5 1 6 4 11
REMARK Flexibility Score: inf
ROOT
ATOM      1  C   UNL     1      22.737  11.760 -19.759  1.00  0.00     0.227 C 
ENDROOT
BRANCH   1   2
ATOM      2  C   UNL     1      21.382  12.480 -19.839  1.00  0.00     0.253 C 
BRANCH   2   3
ATOM      3  N   UNL     1      21.262  13.242 -21.088  1.00  0.00    -0.348 N 
ATOM      4  H   UNL     1      20.799  14.165 -20.917  1.00  0.00     0.345 HD
ATOM      5  H   UNL     1      22.210  13.407 -21.500  1.00  0.00     0.345 HD
ATOM      6  H   UNL     1      20.698  12.699 -21.781  1.00  0.00     0.345 HD
ENDBRANCH   2   3
BRANCH   2   7
ATOM      7  C   UNL     1      21.216  13.394 -18.654  1.00  0.00     0.102 C 
ATOM      8  O   UNL     1      21.650  14.575 -18.700  1.00  0.00    -0.544 OA
ATOM      9  O   UNL     1      20.572  12.943 -17.507  1.00  0.00    -0.544 OA
ENDBRANCH   2   7
ENDBRANCH   1   2
BRANCH   1  10
ATOM     10  O   UNL     1      23.742  12.668 -19.399  1.00  0.00    -0.390 OA
ATOM     11  H   UNL     1      24.601  12.250 -19.666  1.00  0.00     0.210 HD
ENDBRANCH   1  10
TORSDOF 4
ENDMDL
MODEL 2
REMARK VINA RESULT:    -4.211      1.957      2.343
REMARK INTER + INTRA:          -5.199
REMARK INTER:                  -5.181
REMARK INTRA:                  -0.018
REMARK UNBOUND:                -0.249
REMARK SMILES [NH3+][C@@H](CO)C(=O)[O-]
REMARK SMILES IDX 3 1 2 2 1 3 5 7 6 8 7 9 4 10
REMARK H PARENT 1 4 1 5 1 6 4 11
REMARK Flexibility Score: inf
ROOT
ATOM      1  C   UNL     1      20.753  13.926 -20.615  1.00  0.00     0.227 C 
ENDROOT
BRANCH   1   2
ATOM      2  C   UNL     1      21.565  13.176 -19.548  1.00  0.00     0.253 C 
BRANCH   2   3
ATOM      3  N   UNL     1      22.234  12.002 -20.122  1.00  0.00    -0.348 N 
ATOM      4  H   UNL     1      22.547  12.196 -21.102  1.00  0.00     0.345 HD
ATOM      5  H   UNL     1      23.066  11.745 -19.543  1.00  0.00     0.345 HD
ATOM      6  H   UNL     1      21.579  11.187 -20.126  1.00  0.00     0.345 HD
ENDBRANCH   2   3
BRANCH   2   7
ATOM      7  C   UNL     1      20.665  12.760 -18.415  1.00  0.00     0.102 C 
ATOM      8  O   UNL     1      19.640  12.066 -18.644  1.00  0.00    -0.544 OA
ATOM      9  O   UNL     1      20.967  13.129 -17.109  1.00  0.00    -0.544 OA
ENDBRANCH   2   7
ENDBRANCH   1   2
BRANCH   1  10
ATOM     10  O   UNL     1      21.166  13.534 -21.895  1.00  0.00    -0.390 OA
ATOM     11  H   UNL     1      20.395  13.699 -22.497  1.00  0.00     0.210 HD
ENDBRANCH   1  10
TORSDOF 4
ENDMDL
MODEL 3
REMARK VINA RESULT:    -4.181      2.164      2.803
REMARK INTER + INTRA:          -5.163
REMARK INTER:                  -4.909
REMARK INTRA:                  -0.254
REMARK UNBOUND:                -0.249
REMARK SMILES [NH3+][C@@H](CO)C(=O)[O-]
REMARK SMILES IDX 3 1 2 2 1 3 5 7 6 8 7 9 4 10
REMARK H PARENT 1 4 1 5 1 6 4 11
REMARK Flexibility Score: inf
ROOT
ATOM      1  C   UNL     1      22.465  15.042 -18.663  1.00  0.00     0.227 C 
ENDROOT
BRANCH   1   2
ATOM      2  C   UNL     1      21.251  14.109 -18.787  1.00  0.00     0.253 C 
BRANCH   2   3
ATOM      3  N   UNL     1      21.071  13.310 -17.569  1.00  0.00    -0.348 N 
ATOM      4  H   UNL     1      21.799  12.560 -17.506  1.00  0.00     0.345 HD
ATOM      5  H   UNL     1      21.140  13.924 -16.724  1.00  0.00     0.345 HD
ATOM      6  H   UNL     1      20.123  12.868 -17.571  1.00  0.00     0.345 HD
ENDBRANCH   2   3
BRANCH   2   7
ATOM      7  C   UNL     1      21.416  13.208 -19.981  1.00  0.00     0.102 C 
ATOM      8  O   UNL     1      22.002  12.100 -19.862  1.00  0.00    -0.544 OA
ATOM      9  O   UNL     1      20.912  13.587 -21.221  1.00  0.00    -0.544 OA
ENDBRANCH   2   7
ENDBRANCH   1   2
BRANCH   1  10
ATOM     10  O   UNL     1      23.640  14.342 -18.969  1.00  0.00    -0.390 OA
ATOM     11  H   UNL     1      23.477  13.400 -18.704  1.00  0.00     0.210 HD
ENDBRANCH   1  10
TORSDOF 4
ENDMDL
MODEL 4
REMARK VINA RESULT:    -4.173      1.648      2.165
REMARK INTER + INTRA:          -5.154
REMARK INTER:                  -4.925
REMARK INTRA:                  -0.230
REMARK UNBOUND:                -0.249
REMARK SMILES [NH3+][C@@H](CO)C(=O)[O-]
REMARK SMILES IDX 3 1 2 2 1 3 5 7 6 8 7 9 4 10
REMARK H PARENT 1 4 1 5 1 6 4 11
REMARK Flexibility Score: inf
ROOT
ATOM      1  C   UNL     1      22.029  14.501 -19.316  1.00  0.00     0.227 C 
ENDROOT
BRANCH   1   2
ATOM      2  C   UNL     1      21.922  13.004 -18.990  1.00  0.00     0.253 C 
BRANCH   2   3
ATOM      3  N   UNL     1      21.869  12.198 -20.216  1.00  0.00    -0.348 N 
ATOM      4  H   UNL     1      21.129  11.461 -20.145  1.00  0.00     0.345 HD
ATOM      5  H   UNL     1      21.661  12.811 -21.039  1.00  0.00     0.345 HD
ATOM      6  H   UNL     1      22.795  11.740 -20.380  1.00  0.00     0.345 HD
ENDBRANCH   2   3
BRANCH   2   7
ATOM      7  C   UNL     1      20.702  12.748 -18.146  1.00  0.00     0.102 C 
ATOM      8  O   UNL     1      19.671  12.241 -18.661  1.00  0.00    -0.544 OA
ATOM      9  O   UNL     1      20.709  13.060 -16.791  1.00  0.00    -0.544 OA
ENDBRANCH   2   7
ENDBRANCH   1   2
BRANCH   1  10
ATOM     10  O   UNL     1      22.283  15.229 -18.146  1.00  0.00    -0.390 OA
ATOM     11  H   UNL     1      22.116  16.181 -18.370  1.00  0.00     0.210 HD
ENDBRANCH   1  10
TORSDOF 4
ENDMDL
MODEL 5
REMARK VINA RESULT:    -4.131      2.227      2.955
REMARK INTER + INTRA:          -5.105
REMARK INTER:                  -5.079
REMARK INTRA:                  -0.025
REMARK UNBOUND:                -0.249
REMARK SMILES [NH3+][C@@H](CO)C(=O)[O-]
REMARK SMILES IDX 3 1 2 2 1 3 5 7 6 8 7 9 4 10
REMARK H PARENT 1 4 1 5 1 6 4 11
REMARK Flexibility Score: inf
ROOT
ATOM      1  C   UNL     1      20.801  12.644 -18.076  1.00  0.00     0.227 C 
ENDROOT
BRANCH   1   2
ATOM      2  C   UNL     1      21.579  13.499 -19.087  1.00  0.00     0.253 C 
BRANCH   2   3
ATOM      3  N   UNL     1      21.990  14.777 -18.492  1.00  0.00    -0.348 N 
ATOM      4  H   UNL     1      22.920  15.079 -18.867  1.00  0.00     0.345 HD
ATOM      5  H   UNL     1      21.280  15.515 -18.703  1.00  0.00     0.345 HD
ATOM      6  H   UNL     1      22.056  14.679 -17.453  1.00  0.00     0.345 HD
ENDBRANCH   2   3
BRANCH   2   7
ATOM      7  C   UNL     1      20.736  13.742 -20.310  1.00  0.00     0.102 C 
ATOM      8  O   UNL     1      19.565  14.189 -20.193  1.00  0.00    -0.544 OA
ATOM      9  O   UNL     1      21.250  13.487 -21.577  1.00  0.00    -0.544 OA
ENDBRANCH   2   7
ENDBRANCH   1   2
BRANCH   1  10
ATOM     10  O   UNL     1      20.859  13.232 -16.806  1.00  0.00    -0.390 OA
ATOM     11  H   UNL     1      21.475  12.670 -16.269  1.00  0.00     0.210 HD
ENDBRANCH   1  10
TORSDOF 4
ENDMDL
MODEL 6
REMARK VINA RESULT:    -4.101      2.238      2.532
REMARK INTER + INTRA:          -5.070
REMARK INTER:                  -4.841
REMARK INTRA:                  -0.228
REMARK UNBOUND:                -0.249
REMARK SMILES [NH3+][C@@H](CO)C(=O)[O-]
REMARK SMILES IDX 3 1 2 2 1 3 5 7 6 8 7 9 4 10
REMARK H PARENT 1 4 1 5 1 6 4 11
REMARK Flexibility Score: inf
ROOT
ATOM      1  C   UNL     1      22.124  12.137 -19.270  1.00  0.00     0.227 C 
ENDROOT
BRANCH   1   2
ATOM      2  C   UNL     1      21.837  13.628 -19.508  1.00  0.00     0.253 C 
BRANCH   2   3
ATOM      3  N   UNL     1      21.456  14.298 -18.259  1.00  0.00    -0.348 N 
ATOM      4  H   UNL     1      22.298  14.487 -17.666  1.00  0.00     0.345 HD
ATOM      5  H   UNL     1      20.977  15.204 -18.470  1.00  0.00     0.345 HD
ATOM      6  H   UNL     1      20.788  13.696 -17.723  1.00  0.00     0.345 HD
ENDBRANCH   2   3
BRANCH   2   7
ATOM      7  C   UNL     1      20.749  13.784 -20.536  1.00  0.00     0.102 C 
ATOM      8  O   UNL     1      19.599  14.161 -20.188  1.00  0.00    -0.544 OA
ATOM      9  O   UNL     1      21.010  13.524 -21.877  1.00  0.00    -0.544 OA
ENDBRANCH   2   7
ENDBRANCH   1   2
BRANCH   1  10
ATOM     10  O   UNL     1      22.742  11.582 -20.399  1.00  0.00    -0.390 OA
ATOM     11  H   UNL     1      23.572  12.105 -20.544  1.00  0.00     0.210 HD
ENDBRANCH   1  10
TORSDOF 4
ENDMDL
MODEL 7
REMARK VINA RESULT:    -3.836      1.408      2.296
REMARK INTER + INTRA:          -4.758
REMARK INTER:                  -4.368
REMARK INTRA:                  -0.390
REMARK UNBOUND:                -0.249
REMARK SMILES [NH3+][C@@H](CO)C(=O)[O-]
REMARK SMILES IDX 3 1 2 2 1 3 5 7 6 8 7 9 4 10
REMARK H PARENT 1 4 1 5 1 6 4 11
REMARK Flexibility Score: inf
ROOT
ATOM      1  C   UNL     1      21.943  14.874 -19.276  1.00  0.00     0.227 C 
ENDROOT
BRANCH   1   2
ATOM      2  C   UNL     1      21.326  13.797 -20.182  1.00  0.00     0.253 C 
BRANCH   2   3
ATOM      3  N   UNL     1      19.965  14.166 -20.589  1.00  0.00    -0.348 N 
ATOM      4  H   UNL     1      19.839  14.042 -21.622  1.00  0.00     0.345 HD
ATOM      5  H   UNL     1      19.266  13.571 -20.087  1.00  0.00     0.345 HD
ATOM      6  H   UNL     1      19.778  15.165 -20.339  1.00  0.00     0.345 HD
ENDBRANCH   2   3
BRANCH   2   7
ATOM      7  C   UNL     1      21.314  12.472 -19.469  1.00  0.00     0.102 C 
ATOM      8  O   UNL     1      22.312  11.707 -19.539  1.00  0.00    -0.544 OA
ATOM      9  O   UNL     1      20.208  12.089 -18.718  1.00  0.00    -0.544 OA
ENDBRANCH   2   7
ENDBRANCH   1   2
BRANCH   1  10
ATOM     10  O   UNL     1      21.944  14.437 -17.945  1.00  0.00    -0.390 OA
ATOM     11  H   UNL     1      22.756  13.877 -17.839  1.00  0.00     0.210 HD
ENDBRANCH   1  10
TORSDOF 4
ENDMDL
MODEL 8
REMARK VINA RESULT:    -3.784      1.344      2.528
REMARK INTER + INTRA:          -4.697
REMARK INTER:                  -4.459
REMARK INTRA:                  -0.237
REMARK UNBOUND:                -0.249
REMARK SMILES [NH3+][C@@H](CO)C(=O)[O-]
REMARK SMILES IDX 3 1 2 2 1 3 5 7 6 8 7 9 4 10
REMARK H PARENT 1 4 1 5 1 6 4 11
REMARK Flexibility Score: inf
ROOT
ATOM      1  C   UNL     1      20.181  12.728 -18.424  1.00  0.00     0.227 C 
ENDROOT
BRANCH   1   2
ATOM      2  C   UNL     1      20.697  13.828 -19.365  1.00  0.00     0.253 C 
BRANCH   2   3
ATOM      3  N   UNL     1      20.396  13.509 -20.766  1.00  0.00    -0.348 N 
ATOM      4  H   UNL     1      20.821  12.591 -21.037  1.00  0.00     0.345 HD
ATOM      5  H   UNL     1      19.361  13.461 -20.908  1.00  0.00     0.345 HD
ATOM      6  H   UNL     1      20.775  14.258 -21.390  1.00  0.00     0.345 HD
ENDBRANCH   2   3
BRANCH   2   7
ATOM      7  C   UNL     1      22.180  14.009 -19.179  1.00  0.00     0.102 C 
ATOM      8  O   UNL     1      22.957  13.025 -19.293  1.00  0.00    -0.544 OA
ATOM      9  O   UNL     1      22.702  15.266 -18.892  1.00  0.00    -0.544 OA
ENDBRANCH   2   7
ENDBRANCH   1   2
BRANCH   1  10
ATOM     10  O   UNL     1      20.736  12.892 -17.148  1.00  0.00    -0.390 OA
ATOM     11  H   UNL     1      20.724  11.995 -16.725  1.00  0.00     0.210 HD
ENDBRANCH   1  10
TORSDOF 4
ENDMDL
MODEL 9
REMARK VINA RESULT:    -3.132      1.957      2.937
REMARK INTER + INTRA:          -3.931
REMARK INTER:                  -3.922
REMARK INTRA:                  -0.009
REMARK UNBOUND:                -0.249
REMARK SMILES [NH3+][C@@H](CO)C(=O)[O-]
REMARK SMILES IDX 3 1 2 2 1 3 5 7 6 8 7 9 4 10
REMARK H PARENT 1 4 1 5 1 6 4 11
REMARK Flexibility Score: inf
ROOT
ATOM      1  C   UNL     1      21.383  13.409 -17.601  1.00  0.00     0.227 C 
ENDROOT
BRANCH   1   2
ATOM      2  C   UNL     1      20.462  13.082 -18.787  1.00  0.00     0.253 C 
BRANCH   2   3
ATOM      3  N   UNL     1      19.625  11.912 -18.498  1.00  0.00    -0.348 N 
ATOM      4  H   UNL     1      18.619  12.112 -18.711  1.00  0.00     0.345 HD
ATOM      5  H   UNL     1      19.939  11.096 -19.073  1.00  0.00     0.345 HD
ATOM      6  H   UNL     1      19.716  11.651 -17.489  1.00  0.00     0.345 HD
ENDBRANCH   2   3
BRANCH   2   7
ATOM      7  C   UNL     1      21.284  12.842 -20.024  1.00  0.00     0.102 C 
ATOM      8  O   UNL     1      21.063  13.508 -21.070  1.00  0.00    -0.544 OA
ATOM      9  O   UNL     1      22.301  11.893 -20.018  1.00  0.00    -0.544 OA
ENDBRANCH   2   7
ENDBRANCH   1   2
BRANCH   1  10
ATOM     10  O   UNL     1      20.764  13.044 -16.399  1.00  0.00    -0.390 OA
ATOM     11  H   UNL     1      21.042  13.720 -15.728  1.00  0.00     0.210 HD
ENDBRANCH   1  10
TORSDOF 4
ENDMDL
