MODEL 1
REMARK VINA RESULT:    -2.600      0.000      0.000
REMARK INTER + INTRA:          -2.468
REMARK INTER:                  -3.208
REMARK INTRA:                   0.740
REMARK UNBOUND:                 0.740
REMARK SMILES CC1=CC=CC(C)(C)CC1=O
REMARK SMILES IDX 1 1 2 2 3 3 10 4 11 5 9 6 4 8 5 9 6 10 7 11 8 12
REMARK H PARENT
REMARK Flexibility Score: 80.00
ROOT
ATOM      1  C   UNL     1      60.411  12.505  -1.219  1.00  0.00     0.048 C 
ATOM      2  C   UNL     1      61.242  13.764  -1.136  1.00  0.00    -0.008 C 
ATOM      3  C   UNL     1      60.655  14.868  -0.628  1.00  0.00     0.007 C 
ENDROOT
BRANCH   2   4
ATOM      4  C   UNL     1      62.664  13.664  -1.551  1.00  0.00     0.159 C 
ATOM      5  O   UNL     1      63.153  12.522  -1.775  1.00  0.00    -0.295 OA
BRANCH   4   6
ATOM      6  C   UNL     1      63.556  14.853  -1.734  1.00  0.00     0.091 CG0
ATOM      7  G   UNL     1      63.716  15.698  -0.452  1.00  0.00     0.000 G0
ENDBRANCH   4   6
ENDBRANCH   2   4
BRANCH   3   8
ATOM      8  C   UNL     1      61.212  16.223  -0.400  1.00  0.00    -0.003 C 
ATOM      9  C   UNL     1      62.492  16.605  -0.315  1.00  0.00    -0.020 C 
BRANCH   9  10
ATOM     10  C   UNL     1      63.706  15.719  -0.467  1.00  0.00    -0.010 CG0
ATOM     11  C   UNL     1      64.943  16.622  -0.678  1.00  0.00     0.016 C 
ATOM     12  C   UNL     1      63.927  14.902   0.828  1.00  0.00     0.016 C 
ATOM     13  G   UNL     1      63.545  14.824  -1.716  1.00  0.00     0.000 G0
ENDBRANCH   9  10
ENDBRANCH   3   8
TORSDOF 0
ENDMDL
MODEL 2
REMARK VINA RESULT:    -2.409      1.777      3.293
REMARK INTER + INTRA:          -2.232
REMARK INTER:                  -2.971
REMARK INTRA:                   0.739
REMARK UNBOUND:                 0.740
REMARK SMILES CC1=CC=CC(C)(C)CC1=O
REMARK SMILES IDX 1 1 2 2 3 3 10 4 11 5 9 6 4 8 5 9 6 10 7 11 8 12
REMARK H PARENT
REMARK Flexibility Score: 80.00
ROOT
ATOM      1  C   UNL     1      63.516  15.220  -3.052  1.00  0.00     0.048 C 
ATOM      2  C   UNL     1      62.665  15.105  -1.809  1.00  0.00    -0.008 C 
ATOM      3  C   UNL     1      61.927  16.178  -1.454  1.00  0.00     0.007 C 
ENDROOT
BRANCH   2   4
ATOM      4  C   UNL     1      62.651  13.790  -1.120  1.00  0.00     0.159 C 
ATOM      5  O   UNL     1      63.159  12.792  -1.702  1.00  0.00    -0.295 OA
BRANCH   4   6
ATOM      6  C   UNL     1      62.078  13.580   0.248  1.00  0.00     0.091 CG0
ATOM      7  G   UNL     1      60.575  13.925   0.337  1.00  0.00     0.000 G0
ENDBRANCH   4   6
ENDBRANCH   2   4
BRANCH   3   8
ATOM      8  C   UNL     1      60.990  16.355  -0.319  1.00  0.00    -0.003 C 
ATOM      9  C   UNL     1      60.398  15.425   0.440  1.00  0.00    -0.020 C 
BRANCH   9  10
ATOM     10  C   UNL     1      60.577  13.929   0.328  1.00  0.00    -0.010 CG0
ATOM     11  C   UNL     1      60.026  13.277   1.618  1.00  0.00     0.016 C 
ATOM     12  C   UNL     1      59.757  13.387  -0.867  1.00  0.00     0.016 C 
ATOM     13  G   UNL     1      62.080  13.590   0.222  1.00  0.00     0.000 G0
ENDBRANCH   9  10
ENDBRANCH   3   8
TORSDOF 0
ENDMDL
MODEL 3
REMARK VINA RESULT:    -2.397      1.714      3.606
REMARK INTER + INTRA:          -2.217
REMARK INTER:                  -2.971
REMARK INTRA:                   0.754
REMARK UNBOUND:                 0.740
REMARK SMILES CC1=CC=CC(C)(C)CC1=O
REMARK SMILES IDX 1 1 2 2 3 3 10 4 11 5 9 6 4 8 5 9 6 10 7 11 8 12
REMARK H PARENT
REMARK Flexibility Score: 80.00
ROOT
ATOM      1  C   UNL     1      65.678  17.019  -2.038  1.00  0.00     0.048 C 
ATOM      2  C   UNL     1      64.841  16.346  -0.976  1.00  0.00    -0.008 C 
ATOM      3  C   UNL     1      65.119  16.630   0.314  1.00  0.00     0.007 C 
ENDROOT
BRANCH   2   4
ATOM      4  C   UNL     1      63.726  15.483  -1.441  1.00  0.00     0.159 C 
ATOM      5  O   UNL     1      63.418  15.494  -2.665  1.00  0.00    -0.295 OA
BRANCH   4   6
ATOM      6  C   UNL     1      62.948  14.578  -0.535  1.00  0.00     0.091 CG0
ATOM      7  G   UNL     1      62.255  15.328   0.624  1.00  0.00     0.000 G0
ENDBRANCH   4   6
ENDBRANCH   2   4
BRANCH   3   8
ATOM      8  C   UNL     1      64.466  16.153   1.556  1.00  0.00    -0.003 C 
ATOM      9  C   UNL     1      63.253  15.609   1.716  1.00  0.00    -0.020 C 
BRANCH   9  10
ATOM     10  C   UNL     1      62.247  15.321   0.626  1.00  0.00    -0.010 CG0
ATOM     11  C   UNL     1      61.161  14.384   1.204  1.00  0.00     0.016 C 
ATOM     12  C   UNL     1      61.559  16.633   0.183  1.00  0.00     0.016 C 
ATOM     13  G   UNL     1      62.942  14.588  -0.542  1.00  0.00     0.000 G0
ENDBRANCH   9  10
ENDBRANCH   3   8
TORSDOF 0
ENDMDL
MODEL 4
REMARK VINA RESULT:    -2.373      1.829      3.056
REMARK INTER + INTRA:          -2.188
REMARK INTER:                  -2.945
REMARK INTRA:                   0.757
REMARK UNBOUND:                 0.740
REMARK SMILES CC1=CC=CC(C)(C)CC1=O
REMARK SMILES IDX 1 1 2 2 3 3 10 4 11 5 9 6 4 8 5 9 6 10 7 11 8 12
REMARK H PARENT
REMARK Flexibility Score: 80.00
ROOT
ATOM      1  C   UNL     1      63.131  15.134  -3.025  1.00  0.00     0.048 C 
ATOM      2  C   UNL     1      63.419  15.195  -1.544  1.00  0.00    -0.008 C 
ATOM      3  C   UNL     1      64.446  15.972  -1.137  1.00  0.00     0.007 C 
ENDROOT
BRANCH   2   4
ATOM      4  C   UNL     1      62.500  14.452  -0.645  1.00  0.00     0.159 C 
ATOM      5  O   UNL     1      61.426  13.991  -1.120  1.00  0.00    -0.295 OA
BRANCH   4   6
ATOM      6  C   UNL     1      62.783  14.204   0.805  1.00  0.00     0.091 CG0
ATOM      7  G   UNL     1      62.937  15.503   1.626  1.00  0.00     0.000 G0
ENDBRANCH   4   6
ENDBRANCH   2   4
BRANCH   3   8
ATOM      8  C   UNL     1      64.947  16.249   0.230  1.00  0.00    -0.003 C 
ATOM      9  C   UNL     1      64.329  16.077   1.405  1.00  0.00    -0.020 C 
BRANCH   9  10
ATOM     10  C   UNL     1      62.943  15.515   1.618  1.00  0.00    -0.010 CG0
ATOM     11  C   UNL     1      62.784  15.170   3.117  1.00  0.00     0.016 C 
ATOM     12  C   UNL     1      61.881  16.581   1.260  1.00  0.00     0.016 C 
ATOM     13  G   UNL     1      62.779  14.213   0.804  1.00  0.00     0.000 G0
ENDBRANCH   9  10
ENDBRANCH   3   8
TORSDOF 0
ENDMDL
MODEL 5
REMARK VINA RESULT:    -2.269      1.624      2.477
REMARK INTER + INTRA:          -2.059
REMARK INTER:                  -2.817
REMARK INTRA:                   0.758
REMARK UNBOUND:                 0.740
REMARK SMILES CC1=CC=CC(C)(C)CC1=O
REMARK SMILES IDX 1 1 2 2 3 3 10 4 11 5 9 6 4 8 5 9 6 10 7 11 8 12
REMARK H PARENT
REMARK Flexibility Score: 80.00
ROOT
ATOM      1  C   UNL     1      61.286  12.005  -2.285  1.00  0.00     0.048 C 
ATOM      2  C   UNL     1      61.945  13.131  -1.524  1.00  0.00    -0.008 C 
ATOM      3  C   UNL     1      62.750  13.966  -2.214  1.00  0.00     0.007 C 
ENDROOT
BRANCH   2   4
ATOM      4  C   UNL     1      61.592  13.274  -0.089  1.00  0.00     0.159 C 
ATOM      5  O   UNL     1      60.646  12.581   0.377  1.00  0.00    -0.295 OA
BRANCH   4   6
ATOM      6  C   UNL     1      62.312  14.191   0.852  1.00  0.00     0.091 CG0
ATOM      7  G   UNL     1      62.284  15.669   0.401  1.00  0.00     0.000 G0
ENDBRANCH   4   6
ENDBRANCH   2   4
BRANCH   3   8
ATOM      8  C   UNL     1      63.502  15.159  -1.756  1.00  0.00    -0.003 C 
ATOM      9  C   UNL     1      63.317  15.903  -0.659  1.00  0.00    -0.020 C 
BRANCH   9  10
ATOM     10  C   UNL     1      62.281  15.674   0.416  1.00  0.00    -0.010 CG0
ATOM     11  C   UNL     1      62.655  16.540   1.642  1.00  0.00     0.016 C 
ATOM     12  C   UNL     1      60.891  16.132  -0.085  1.00  0.00     0.016 C 
ATOM     13  G   UNL     1      62.300  14.192   0.851  1.00  0.00     0.000 G0
ENDBRANCH   9  10
ENDBRANCH   3   8
TORSDOF 0
ENDMDL
MODEL 6
REMARK VINA RESULT:    -2.136      2.179      3.327
REMARK INTER + INTRA:          -1.895
REMARK INTER:                  -2.659
REMARK INTRA:                   0.764
REMARK UNBOUND:                 0.740
REMARK SMILES CC1=CC=CC(C)(C)CC1=O
REMARK SMILES IDX 1 1 2 2 3 3 10 4 11 5 9 6 4 8 5 9 6 10 7 11 8 12
REMARK H PARENT
REMARK Flexibility Score: 80.00
ROOT
ATOM      1  C   UNL     1      63.331  15.110  -2.948  1.00  0.00     0.048 C 
ATOM      2  C   UNL     1      62.522  14.756  -1.722  1.00  0.00    -0.008 C 
ATOM      3  C   UNL     1      61.765  13.640  -1.773  1.00  0.00     0.007 C 
ENDROOT
BRANCH   2   4
ATOM      4  C   UNL     1      62.687  15.625  -0.529  1.00  0.00     0.159 C 
ATOM      5  O   UNL     1      63.620  16.474  -0.519  1.00  0.00    -0.295 OA
BRANCH   4   6
ATOM      6  C   UNL     1      61.790  15.562   0.669  1.00  0.00     0.091 CG0
ATOM      7  G   UNL     1      61.784  14.176   1.352  1.00  0.00     0.000 G0
ENDBRANCH   4   6
ENDBRANCH   2   4
BRANCH   3   8
ATOM      8  C   UNL     1      60.897  13.029  -0.737  1.00  0.00    -0.003 C 
ATOM      9  C   UNL     1      60.893  13.232   0.586  1.00  0.00    -0.020 C 
BRANCH   9  10
ATOM     10  C   UNL     1      61.784  14.182   1.352  1.00  0.00    -0.010 CG0
ATOM     11  C   UNL     1      61.200  14.356   2.773  1.00  0.00     0.016 C 
ATOM     12  C   UNL     1      63.202  13.581   1.490  1.00  0.00     0.016 C 
ATOM     13  G   UNL     1      61.786  15.564   0.661  1.00  0.00     0.000 G0
ENDBRANCH   9  10
ENDBRANCH   3   8
TORSDOF 0
ENDMDL
MODEL 7
REMARK VINA RESULT:    -2.060      2.642      3.829
REMARK INTER + INTRA:          -1.801
REMARK INTER:                  -2.548
REMARK INTRA:                   0.747
REMARK UNBOUND:                 0.740
REMARK SMILES CC1=CC=CC(C)(C)CC1=O
REMARK SMILES IDX 1 1 2 2 3 3 10 4 11 5 9 6 4 8 5 9 6 10 7 11 8 12
REMARK H PARENT
REMARK Flexibility Score: 80.00
ROOT
ATOM      1  C   UNL     1      60.498  18.575   0.024  1.00  0.00     0.048 C 
ATOM      2  C   UNL     1      61.116  17.205   0.173  1.00  0.00    -0.008 C 
ATOM      3  C   UNL     1      61.458  16.547  -0.955  1.00  0.00     0.007 C 
ENDROOT
BRANCH   2   4
ATOM      4  C   UNL     1      61.369  16.725   1.555  1.00  0.00     0.159 C 
ATOM      5  O   UNL     1      61.259  17.540   2.512  1.00  0.00    -0.295 OA
BRANCH   4   6
ATOM      6  C   UNL     1      61.737  15.310   1.883  1.00  0.00     0.091 CG0
ATOM      7  G   UNL     1      63.047  14.849   1.206  1.00  0.00     0.000 G0
ENDBRANCH   4   6
ENDBRANCH   2   4
BRANCH   3   8
ATOM      8  C   UNL     1      62.097  15.220  -1.126  1.00  0.00    -0.003 C 
ATOM      9  C   UNL     1      62.779  14.491  -0.235  1.00  0.00    -0.020 C 
BRANCH   9  10
ATOM     10  C   UNL     1      63.041  14.852   1.208  1.00  0.00    -0.010 CG0
ATOM     11  C   UNL     1      63.528  13.583   1.945  1.00  0.00     0.016 C 
ATOM     12  C   UNL     1      64.165  15.911   1.292  1.00  0.00     0.016 C 
ATOM     13  G   UNL     1      61.729  15.322   1.874  1.00  0.00     0.000 G0
ENDBRANCH   9  10
ENDBRANCH   3   8
TORSDOF 0
ENDMDL
MODEL 8
REMARK VINA RESULT:    -2.059      2.337      3.738
REMARK INTER + INTRA:          -1.800
REMARK INTER:                  -2.550
REMARK INTRA:                   0.750
REMARK UNBOUND:                 0.740
REMARK SMILES CC1=CC=CC(C)(C)CC1=O
REMARK SMILES IDX 1 1 2 2 3 3 10 4 11 5 9 6 4 8 5 9 6 10 7 11 8 12
REMARK H PARENT
REMARK Flexibility Score: 80.00
ROOT
ATOM      1  C   UNL     1      60.900  17.553  -0.272  1.00  0.00     0.048 C 
ATOM      2  C   UNL     1      61.205  16.110  -0.596  1.00  0.00    -0.008 C 
ATOM      3  C   UNL     1      62.146  15.864  -1.533  1.00  0.00     0.007 C 
ENDROOT
BRANCH   2   4
ATOM      4  C   UNL     1      60.499  15.075   0.200  1.00  0.00     0.159 C 
ATOM      5  O   UNL     1      59.839  15.433   1.215  1.00  0.00    -0.295 OA
BRANCH   4   6
ATOM      6  C   UNL     1      60.512  13.616  -0.143  1.00  0.00     0.091 CG0
ATOM      7  G   UNL     1      61.933  13.011  -0.170  1.00  0.00     0.000 G0
ENDBRANCH   4   6
ENDBRANCH   2   4
BRANCH   3   8
ATOM      8  C   UNL     1      62.672  14.573  -2.037  1.00  0.00    -0.003 C 
ATOM      9  C   UNL     1      62.607  13.359  -1.477  1.00  0.00    -0.020 C 
BRANCH   9  10
ATOM     10  C   UNL     1      61.936  13.007  -0.170  1.00  0.00    -0.010 CG0
ATOM     11  C   UNL     1      61.791  11.470  -0.098  1.00  0.00     0.016 C 
ATOM     12  C   UNL     1      62.820  13.459   1.015  1.00  0.00     0.016 C 
ATOM     13  G   UNL     1      60.521  13.626  -0.129  1.00  0.00     0.000 G0
ENDBRANCH   9  10
ENDBRANCH   3   8
TORSDOF 0
ENDMDL
MODEL 9
REMARK VINA RESULT:    -2.013     13.845     14.762
REMARK INTER + INTRA:          -1.743
REMARK INTER:                  -2.504
REMARK INTRA:                   0.761
REMARK UNBOUND:                 0.740
REMARK SMILES CC1=CC=CC(C)(C)CC1=O
REMARK SMILES IDX 1 1 2 2 3 3 10 4 11 5 9 6 4 8 5 9 6 10 7 11 8 12
REMARK H PARENT
REMARK Flexibility Score: 80.00
ROOT
ATOM      1  C   UNL     1      56.563   5.668   7.116  1.00  0.00     0.048 C 
ATOM      2  C   UNL     1      57.727   5.071   7.871  1.00  0.00    -0.008 C 
ATOM      3  C   UNL     1      58.617   4.336   7.171  1.00  0.00     0.007 C 
ENDROOT
BRANCH   2   4
ATOM      4  C   UNL     1      57.840   5.406   9.313  1.00  0.00     0.159 C 
ATOM      5  O   UNL     1      57.100   6.311   9.787  1.00  0.00    -0.295 OA
BRANCH   4   6
ATOM      6  C   UNL     1      58.780   4.713  10.251  1.00  0.00     0.091 CG0
ATOM      7  G   UNL     1      60.262   4.845   9.835  1.00  0.00     0.000 G0
ENDBRANCH   4   6
ENDBRANCH   2   4
BRANCH   3   8
ATOM      8  C   UNL     1      59.855   3.656   7.622  1.00  0.00    -0.003 C 
ATOM      9  C   UNL     1      60.573   3.861   8.733  1.00  0.00    -0.020 C 
BRANCH   9  10
ATOM     10  C   UNL     1      60.262   4.848   9.834  1.00  0.00    -0.010 CG0
ATOM     11  C   UNL     1      61.135   4.497  11.061  1.00  0.00     0.016 C 
ATOM     12  C   UNL     1      60.633   6.279   9.379  1.00  0.00     0.016 C 
ATOM     13  G   UNL     1      58.779   4.718  10.246  1.00  0.00     0.000 G0
ENDBRANCH   9  10
ENDBRANCH   3   8
TORSDOF 0
ENDMDL
