MODEL 1
REMARK VINA RESULT:    -4.153      0.000      0.000
REMARK INTER + INTRA:          -5.288
REMARK INTER:                  -5.124
REMARK INTRA:                  -0.163
REMARK UNBOUND:                -0.163
REMARK SMILES C=CCc1ccc(OC)c(OC)c1
REMARK SMILES IDX 7 1 10 2 13 3 4 4 5 5 6 6 8 7 9 8 11 9 12 10 3 11 2 12 1 13
REMARK H PARENT
REMARK Flexibility Score: inf
ROOT
ATOM      1  C   UNL     1      78.901  35.117  50.447  1.00  0.00     0.160 A 
ATOM      2  C   UNL     1      78.522  34.319  51.536  1.00  0.00     0.160 A 
ATOM      3  C   UNL     1      77.220  34.432  52.063  1.00  0.00     0.054 A 
ATOM      4  C   UNL     1      76.303  35.339  51.511  1.00  0.00    -0.040 A 
ATOM      5  C   UNL     1      76.687  36.125  50.417  1.00  0.00     0.008 A 
ATOM      6  C   UNL     1      77.975  36.020  49.890  1.00  0.00     0.051 A 
ENDROOT
BRANCH   1   7
ATOM      7  O   UNL     1      80.205  34.984  49.943  1.00  0.00    -0.493 OA
ATOM      8  C   UNL     1      80.636  33.933  49.085  1.00  0.00     0.278 C 
ENDBRANCH   1   7
BRANCH   2   9
ATOM      9  O   UNL     1      79.465  33.425  52.068  1.00  0.00    -0.493 OA
ATOM     10  C   UNL     1      79.221  32.043  52.309  1.00  0.00     0.278 C 
ENDBRANCH   2   9
BRANCH   4  11
ATOM     11  C   UNL     1      74.904  35.431  52.061  1.00  0.00     0.062 C 
BRANCH  11  12
ATOM     12  C   UNL     1      74.588  34.236  52.916  1.00  0.00    -0.030 C 
ATOM     13  C   UNL     1      73.329  33.889  53.199  1.00  0.00     0.004 C 
ENDBRANCH  11  12
ENDBRANCH   4  11
TORSDOF 4
ENDMDL
MODEL 2
REMARK VINA RESULT:    -3.953      1.344      2.718
REMARK INTER + INTRA:          -5.040
REMARK INTER:                  -4.731
REMARK INTRA:                  -0.309
REMARK UNBOUND:                -0.163
REMARK SMILES C=CCc1ccc(OC)c(OC)c1
REMARK SMILES IDX 7 1 10 2 13 3 4 4 5 5 6 6 8 7 9 8 11 9 12 10 3 11 2 12 1 13
REMARK H PARENT
REMARK Flexibility Score: inf
ROOT
ATOM      1  C   UNL     1      78.080  33.591  51.943  1.00  0.00     0.160 A 
ATOM      2  C   UNL     1      78.005  34.978  51.740  1.00  0.00     0.160 A 
ATOM      3  C   UNL     1      76.759  35.629  51.836  1.00  0.00     0.054 A 
ATOM      4  C   UNL     1      75.595  34.904  52.127  1.00  0.00    -0.040 A 
ATOM      5  C   UNL     1      75.680  33.521  52.338  1.00  0.00     0.008 A 
ATOM      6  C   UNL     1      76.910  32.868  52.244  1.00  0.00     0.051 A 
ENDROOT
BRANCH   1   7
ATOM      7  O   UNL     1      79.334  32.968  51.840  1.00  0.00    -0.493 OA
ATOM      8  C   UNL     1      79.624  31.656  52.310  1.00  0.00     0.278 C 
ENDBRANCH   1   7
BRANCH   2   9
ATOM      9  O   UNL     1      79.188  35.674  51.446  1.00  0.00    -0.493 OA
ATOM     10  C   UNL     1      79.642  35.974  50.131  1.00  0.00     0.278 C 
ENDBRANCH   2   9
BRANCH   4  11
ATOM     11  C   UNL     1      74.273  35.614  52.257  1.00  0.00     0.062 C 
BRANCH  11  12
ATOM     12  C   UNL     1      73.536  35.149  53.482  1.00  0.00    -0.030 C 
ATOM     13  C   UNL     1      73.804  35.646  54.693  1.00  0.00     0.004 C 
ENDBRANCH  11  12
ENDBRANCH   4  11
TORSDOF 4
ENDMDL
MODEL 3
REMARK VINA RESULT:    -3.928      2.804      5.514
REMARK INTER + INTRA:          -5.010
REMARK INTER:                  -4.854
REMARK INTRA:                  -0.155
REMARK UNBOUND:                -0.163
REMARK SMILES C=CCc1ccc(OC)c(OC)c1
REMARK SMILES IDX 7 1 10 2 13 3 4 4 5 5 6 6 8 7 9 8 11 9 12 10 3 11 2 12 1 13
REMARK H PARENT
REMARK Flexibility Score: inf
ROOT
ATOM      1  C   UNL     1      74.987  33.895  52.569  1.00  0.00     0.160 A 
ATOM      2  C   UNL     1      75.150  35.253  52.256  1.00  0.00     0.160 A 
ATOM      3  C   UNL     1      76.393  35.714  51.778  1.00  0.00     0.054 A 
ATOM      4  C   UNL     1      77.469  34.828  51.619  1.00  0.00    -0.040 A 
ATOM      5  C   UNL     1      77.294  33.472  51.924  1.00  0.00     0.008 A 
ATOM      6  C   UNL     1      76.066  33.008  52.398  1.00  0.00     0.051 A 
ENDROOT
BRANCH   1   7
ATOM      7  O   UNL     1      73.738  33.464  53.044  1.00  0.00    -0.493 OA
ATOM      8  C   UNL     1      73.472  33.090  54.392  1.00  0.00     0.278 C 
ENDBRANCH   1   7
BRANCH   2   9
ATOM      9  O   UNL     1      74.054  36.114  52.431  1.00  0.00    -0.493 OA
ATOM     10  C   UNL     1      72.896  36.125  51.605  1.00  0.00     0.278 C 
ENDBRANCH   2   9
BRANCH   4  11
ATOM     11  C   UNL     1      78.784  35.324  51.079  1.00  0.00     0.062 C 
BRANCH  11  12
ATOM     12  C   UNL     1      79.929  34.553  51.673  1.00  0.00    -0.030 C 
ATOM     13  C   UNL     1      80.606  35.006  52.732  1.00  0.00     0.004 C 
ENDBRANCH  11  12
ENDBRANCH   4  11
TORSDOF 4
ENDMDL
MODEL 4
REMARK VINA RESULT:    -3.758     15.383     17.951
REMARK INTER + INTRA:          -4.800
REMARK INTER:                  -4.693
REMARK INTRA:                  -0.107
REMARK UNBOUND:                -0.163
REMARK SMILES C=CCc1ccc(OC)c(OC)c1
REMARK SMILES IDX 7 1 10 2 13 3 4 4 5 5 6 6 8 7 9 8 11 9 12 10 3 11 2 12 1 13
REMARK H PARENT
REMARK Flexibility Score: inf
ROOT
ATOM      1  C   UNL     1      85.975  31.030  66.458  1.00  0.00     0.160 A 
ATOM      2  C   UNL     1      85.334  30.283  65.458  1.00  0.00     0.160 A 
ATOM      3  C   UNL     1      86.043  29.269  64.784  1.00  0.00     0.054 A 
ATOM      4  C   UNL     1      87.385  29.005  65.099  1.00  0.00    -0.040 A 
ATOM      5  C   UNL     1      88.014  29.750  66.105  1.00  0.00     0.008 A 
ATOM      6  C   UNL     1      87.319  30.756  66.778  1.00  0.00     0.051 A 
ENDROOT
BRANCH   1   7
ATOM      7  O   UNL     1      85.244  32.035  67.112  1.00  0.00    -0.493 OA
ATOM      8  C   UNL     1      84.267  31.796  68.120  1.00  0.00     0.278 C 
ENDBRANCH   1   7
BRANCH   2   9
ATOM      9  O   UNL     1      83.993  30.575  65.164  1.00  0.00    -0.493 OA
ATOM     10  C   UNL     1      83.142  29.752  64.373  1.00  0.00     0.278 C 
ENDBRANCH   2   9
BRANCH   4  11
ATOM     11  C   UNL     1      88.125  27.900  64.393  1.00  0.00     0.062 C 
BRANCH  11  12
ATOM     12  C   UNL     1      87.295  26.648  64.347  1.00  0.00    -0.030 C 
ATOM     13  C   UNL     1      87.492  25.710  63.416  1.00  0.00     0.004 C 
ENDBRANCH  11  12
ENDBRANCH   4  11
TORSDOF 4
ENDMDL
MODEL 5
REMARK VINA RESULT:    -3.554      2.793      5.117
REMARK INTER + INTRA:          -4.549
REMARK INTER:                  -4.420
REMARK INTRA:                  -0.129
REMARK UNBOUND:                -0.163
REMARK SMILES C=CCc1ccc(OC)c(OC)c1
REMARK SMILES IDX 7 1 10 2 13 3 4 4 5 5 6 6 8 7 9 8 11 9 12 10 3 11 2 12 1 13
REMARK H PARENT
REMARK Flexibility Score: inf
ROOT
ATOM      1  C   UNL     1      74.830  35.452  52.023  1.00  0.00     0.160 A 
ATOM      2  C   UNL     1      75.010  34.144  52.500  1.00  0.00     0.160 A 
ATOM      3  C   UNL     1      76.265  33.519  52.359  1.00  0.00     0.054 A 
ATOM      4  C   UNL     1      77.332  34.190  51.743  1.00  0.00    -0.040 A 
ATOM      5  C   UNL     1      77.145  35.498  51.279  1.00  0.00     0.008 A 
ATOM      6  C   UNL     1      75.906  36.125  51.413  1.00  0.00     0.051 A 
ENDROOT
BRANCH   1   7
ATOM      7  O   UNL     1      73.568  36.050  52.175  1.00  0.00    -0.493 OA
ATOM      8  C   UNL     1      72.581  36.123  51.151  1.00  0.00     0.278 C 
ENDBRANCH   1   7
BRANCH   2   9
ATOM      9  O   UNL     1      73.921  33.500  53.107  1.00  0.00    -0.493 OA
ATOM     10  C   UNL     1      73.465  33.760  54.430  1.00  0.00     0.278 C 
ENDBRANCH   2   9
BRANCH   4  11
ATOM     11  C   UNL     1      78.678  33.524  51.625  1.00  0.00     0.062 C 
BRANCH  11  12
ATOM     12  C   UNL     1      79.763  34.546  51.436  1.00  0.00    -0.030 C 
ATOM     13  C   UNL     1      80.402  35.092  52.475  1.00  0.00     0.004 C 
ENDBRANCH  11  12
ENDBRANCH   4  11
TORSDOF 4
ENDMDL
MODEL 6
REMARK VINA RESULT:    -3.399     15.708     17.375
REMARK INTER + INTRA:          -4.357
REMARK INTER:                  -4.092
REMARK INTRA:                  -0.266
REMARK UNBOUND:                -0.163
REMARK SMILES C=CCc1ccc(OC)c(OC)c1
REMARK SMILES IDX 7 1 10 2 13 3 4 4 5 5 6 6 8 7 9 8 11 9 12 10 3 11 2 12 1 13
REMARK H PARENT
REMARK Flexibility Score: inf
ROOT
ATOM      1  C   UNL     1      86.912  31.707  64.791  1.00  0.00     0.160 A 
ATOM      2  C   UNL     1      85.737  31.017  65.130  1.00  0.00     0.160 A 
ATOM      3  C   UNL     1      85.724  29.609  65.099  1.00  0.00     0.054 A 
ATOM      4  C   UNL     1      86.871  28.891  64.728  1.00  0.00    -0.040 A 
ATOM      5  C   UNL     1      88.041  29.588  64.401  1.00  0.00     0.008 A 
ATOM      6  C   UNL     1      88.064  30.983  64.428  1.00  0.00     0.051 A 
ENDROOT
BRANCH   1   7
ATOM      7  O   UNL     1      86.896  33.111  64.829  1.00  0.00    -0.493 OA
ATOM      8  C   UNL     1      88.029  33.922  65.121  1.00  0.00     0.278 C 
ENDBRANCH   1   7
BRANCH   2   9
ATOM      9  O   UNL     1      84.606  31.765  65.492  1.00  0.00    -0.493 OA
ATOM     10  C   UNL     1      83.262  31.353  65.272  1.00  0.00     0.278 C 
ENDBRANCH   2   9
BRANCH   4  11
ATOM     11  C   UNL     1      86.855  27.385  64.727  1.00  0.00     0.062 C 
BRANCH  11  12
ATOM     12  C   UNL     1      88.123  26.839  64.135  1.00  0.00    -0.030 C 
ATOM     13  C   UNL     1      88.125  25.748  63.364  1.00  0.00     0.004 C 
ENDBRANCH  11  12
ENDBRANCH   4  11
TORSDOF 4
ENDMDL
MODEL 7
REMARK VINA RESULT:    -3.388      1.916      4.709
REMARK INTER + INTRA:          -4.343
REMARK INTER:                  -4.139
REMARK INTRA:                  -0.205
REMARK UNBOUND:                -0.163
REMARK SMILES C=CCc1ccc(OC)c(OC)c1
REMARK SMILES IDX 7 1 10 2 13 3 4 4 5 5 6 6 8 7 9 8 11 9 12 10 3 11 2 12 1 13
REMARK H PARENT
REMARK Flexibility Score: inf
ROOT
ATOM      1  C   UNL     1      75.967  34.483  52.007  1.00  0.00     0.160 A 
ATOM      2  C   UNL     1      77.049  33.595  52.106  1.00  0.00     0.160 A 
ATOM      3  C   UNL     1      78.312  33.980  51.614  1.00  0.00     0.054 A 
ATOM      4  C   UNL     1      78.495  35.239  51.022  1.00  0.00    -0.040 A 
ATOM      5  C   UNL     1      77.411  36.122  50.937  1.00  0.00     0.008 A 
ATOM      6  C   UNL     1      76.156  35.749  51.421  1.00  0.00     0.051 A 
ENDROOT
BRANCH   1   7
ATOM      7  O   UNL     1      74.719  34.072  52.504  1.00  0.00    -0.493 OA
ATOM      8  C   UNL     1      73.932  34.820  53.425  1.00  0.00     0.278 C 
ENDBRANCH   1   7
BRANCH   2   9
ATOM      9  O   UNL     1      76.832  32.342  52.699  1.00  0.00    -0.493 OA
ATOM     10  C   UNL     1      76.871  31.101  52.002  1.00  0.00     0.278 C 
ENDBRANCH   2   9
BRANCH   4  11
ATOM     11  C   UNL     1      79.856  35.652  50.527  1.00  0.00     0.062 C 
BRANCH  11  12
ATOM     12  C   UNL     1      80.118  35.091  49.158  1.00  0.00    -0.030 C 
ATOM     13  C   UNL     1      80.640  33.872  48.988  1.00  0.00     0.004 C 
ENDBRANCH  11  12
ENDBRANCH   4  11
TORSDOF 4
ENDMDL
