MODEL 1
REMARK VINA RESULT:    -8.839      0.000      0.000
REMARK INTER + INTRA:         -17.839
REMARK INTER:                 -14.523
REMARK INTRA:                  -3.317
REMARK UNBOUND:                -3.317
REMARK SMILES C[C@@H]1O[C@@H](OC[C@H]2O[C@H](Oc3c(-c4ccc(O)c(O)c4)oc4cc(O)cc(O)c4c3=O)[C@@H](O)[C@@H](O)[C@@H]2O)[C@H](O)[C@@H](O)[C@@H]1O
REMARK SMILES IDX 7 1 36 2 34 3 32 4 9 5 8 6 6 7 5 8 4 9 1 10 2 11 42 12 3 13
REMARK SMILES IDX 40 14 38 15 43 16 41 18 39 20 37 22 35 24 10 26 11 27 12 28
REMARK SMILES IDX 30 29 21 30 29 31 31 32 22 33 27 34 23 35 26 36 24 37 13 38
REMARK SMILES IDX 20 39 14 40 18 41 15 42 16 43 19 44 17 46 28 48 25 50 33 52
REMARK H PARENT 43 17 41 19 39 21 37 23 35 25 19 45 17 47 28 49 25 51 33 53
REMARK Flexibility Score: inf
ROOT
ATOM      1  C   UNL     1      17.924  33.494   9.317  1.00  0.00     0.180 C 
ATOM      2  C   UNL     1      18.980  34.626   8.874  1.00  0.00     0.177 C 
ATOM      3  C   UNL     1      19.413  35.763   9.894  1.00  0.00     0.180 C 
ATOM      4  C   UNL     1      19.097  35.408  11.342  1.00  0.00     0.214 C 
ATOM      5  C   UNL     1      17.774  34.687  11.505  1.00  0.00     0.339 C 
ATOM      6  O   UNL     1      17.681  33.445  10.778  1.00  0.00    -0.332 OA
ENDROOT
BRANCH   1   7
ATOM      7  C   UNL     1      18.462  32.039   8.813  1.00  0.00     0.198 C 
BRANCH   7   8
ATOM      8  O   UNL     1      19.298  31.296   9.717  1.00  0.00    -0.347 OA
BRANCH   8   9
ATOM      9  C   UNL     1      18.627  30.301  10.521  1.00  0.00     0.281 C 
ATOM     10  C   UNL     1      16.853  27.958  11.143  1.00  0.00     0.041 C 
ATOM     11  C   UNL     1      16.429  29.287  10.418  1.00  0.00     0.150 C 
ATOM     12  C   UNL     1      15.889  30.373  11.286  1.00  0.00     0.174 C 
ATOM     13  O   UNL     1      17.509  29.870   9.736  1.00  0.00    -0.344 OA
ATOM     14  C   UNL     1      16.803  30.549  12.443  1.00  0.00     0.179 C 
ATOM     15  C   UNL     1      18.346  30.759  12.042  1.00  0.00     0.202 C 
BRANCH  12  16
ATOM     16  O   UNL     1      14.521  30.096  11.733  1.00  0.00    -0.388 OA
ATOM     17  H   UNL     1      14.363  29.130  11.593  1.00  0.00     0.211 HD
ENDBRANCH  12  16
BRANCH  14  18
ATOM     18  O   UNL     1      16.326  31.457  13.371  1.00  0.00    -0.387 OA
ATOM     19  H   UNL     1      15.359  31.446  13.298  1.00  0.00     0.211 HD
ENDBRANCH  14  18
BRANCH  15  20
ATOM     20  O   UNL     1      19.221  30.051  13.006  1.00  0.00    -0.385 OA
ATOM     21  H   UNL     1      18.730  29.218  13.408  1.00  0.00     0.211 HD
ENDBRANCH  15  20
ENDBRANCH   8   9
ENDBRANCH   7   8
ENDBRANCH   1   7
BRANCH   2  22
ATOM     22  O   UNL     1      18.636  35.150   7.612  1.00  0.00    -0.387 OA
ATOM     23  H   UNL     1      17.650  35.335   7.543  1.00  0.00     0.211 HD
ENDBRANCH   2  22
BRANCH   3  24
ATOM     24  O   UNL     1      20.778  36.138   9.829  1.00  0.00    -0.387 OA
ATOM     25  H   UNL     1      21.218  36.565  10.713  1.00  0.00     0.211 HD
ENDBRANCH   3  24
BRANCH   5  26
ATOM     26  O   UNL     1      16.633  35.636  11.422  1.00  0.00    -0.454 OA
BRANCH  26  27
ATOM     27  C   UNL     1      15.312  35.230  11.242  1.00  0.00     0.214 A 
ATOM     28  C   UNL     1      14.465  36.272  10.818  1.00  0.00     0.180 A 
ATOM     29  C   UNL     1      14.720  34.466  12.212  1.00  0.00     0.239 A 
ATOM     30  O   UNL     1      14.051  37.032  11.860  1.00  0.00    -0.452 OA
ATOM     31  C   UNL     1      14.394  35.169  13.353  1.00  0.00     0.111 A 
ATOM     32  O   UNL     1      14.519  33.227  12.129  1.00  0.00    -0.285 OA
ATOM     33  C   UNL     1      14.212  36.563  13.154  1.00  0.00     0.146 A 
ATOM     34  C   UNL     1      14.956  34.742  14.553  1.00  0.00     0.134 A 
ATOM     35  C   UNL     1      14.513  37.446  14.168  1.00  0.00     0.094 A 
ATOM     36  C   UNL     1      15.642  35.638  15.371  1.00  0.00     0.093 A 
ATOM     37  C   UNL     1      15.433  36.983  15.181  1.00  0.00     0.123 A 
BRANCH  28  38
ATOM     38  C   UNL     1      14.411  36.599   9.371  1.00  0.00     0.025 A 
ATOM     39  C   UNL     1      14.665  37.999   9.084  1.00  0.00     0.062 A 
ATOM     40  C   UNL     1      14.563  35.727   8.357  1.00  0.00     0.016 A 
ATOM     41  C   UNL     1      15.544  38.268   8.046  1.00  0.00     0.158 A 
ATOM     42  C   UNL     1      15.356  36.008   7.301  1.00  0.00     0.051 A 
ATOM     43  C   UNL     1      15.968  37.219   7.229  1.00  0.00     0.157 A 
BRANCH  41  44
ATOM     44  O   UNL     1      15.998  39.583   7.851  1.00  0.00    -0.504 OA
ATOM     45  H   UNL     1      15.429  40.355   8.137  1.00  0.00     0.293 HD
ENDBRANCH  41  44
BRANCH  43  46
ATOM     46  O   UNL     1      17.038  37.484   6.377  1.00  0.00    -0.504 OA
ATOM     47  H   UNL     1      17.273  38.454   5.983  1.00  0.00     0.293 HD
ENDBRANCH  43  46
ENDBRANCH  28  38
BRANCH  34  48
ATOM     48  O   UNL     1      14.759  33.427  15.021  1.00  0.00    -0.507 OA
ATOM     49  H   UNL     1      13.976  32.831  14.562  1.00  0.00     0.293 HD
ENDBRANCH  34  48
BRANCH  37  50
ATOM     50  O   UNL     1      16.083  37.935  15.972  1.00  0.00    -0.508 OA
ATOM     51  H   UNL     1      15.523  38.604  16.531  1.00  0.00     0.293 HD
ENDBRANCH  37  50
ENDBRANCH  26  27
ENDBRANCH   5  26
BRANCH   4  52
ATOM     52  O   UNL     1      20.069  34.627  12.011  1.00  0.00    -0.384 OA
ATOM     53  H   UNL     1      20.733  35.221  12.468  1.00  0.00     0.211 HD
ENDBRANCH   4  52
TORSDOF 16
ENDMDL
MODEL 2
REMARK VINA RESULT:    -8.776      0.847      1.234
REMARK INTER + INTRA:         -17.737
REMARK INTER:                 -14.935
REMARK INTRA:                  -2.802
REMARK UNBOUND:                -3.317
REMARK SMILES C[C@@H]1O[C@@H](OC[C@H]2O[C@H](Oc3c(-c4ccc(O)c(O)c4)oc4cc(O)cc(O)c4c3=O)[C@@H](O)[C@@H](O)[C@@H]2O)[C@H](O)[C@@H](O)[C@@H]1O
REMARK SMILES IDX 7 1 36 2 34 3 32 4 9 5 8 6 6 7 5 8 4 9 1 10 2 11 42 12 3 13
REMARK SMILES IDX 40 14 38 15 43 16 41 18 39 20 37 22 35 24 10 26 11 27 12 28
REMARK SMILES IDX 30 29 21 30 29 31 31 32 22 33 27 34 23 35 26 36 24 37 13 38
REMARK SMILES IDX 20 39 14 40 18 41 15 42 16 43 19 44 17 46 28 48 25 50 33 52
REMARK H PARENT 43 17 41 19 39 21 37 23 35 25 19 45 17 47 28 49 25 51 33 53
REMARK Flexibility Score: inf
ROOT
ATOM      1  C   UNL     1      18.010  33.342   9.434  1.00  0.00     0.180 C 
ATOM      2  C   UNL     1      19.023  34.486   8.928  1.00  0.00     0.177 C 
ATOM      3  C   UNL     1      19.457  35.662   9.902  1.00  0.00     0.180 C 
ATOM      4  C   UNL     1      19.192  35.341  11.369  1.00  0.00     0.214 C 
ATOM      5  C   UNL     1      17.894  34.593  11.591  1.00  0.00     0.339 C 
ATOM      6  O   UNL     1      17.812  33.329  10.903  1.00  0.00    -0.332 OA
ENDROOT
BRANCH   1   7
ATOM      7  C   UNL     1      18.570  31.886   8.956  1.00  0.00     0.198 C 
BRANCH   7   8
ATOM      8  O   UNL     1      17.597  30.862   8.684  1.00  0.00    -0.347 OA
BRANCH   8   9
ATOM      9  C   UNL     1      17.404  29.884   9.730  1.00  0.00     0.281 C 
ATOM     10  C   UNL     1      17.364  27.183  11.043  1.00  0.00     0.041 C 
ATOM     11  C   UNL     1      16.586  27.604   9.744  1.00  0.00     0.150 C 
ATOM     12  C   UNL     1      15.194  28.106   9.937  1.00  0.00     0.174 C 
ATOM     13  O   UNL     1      17.250  28.631   9.054  1.00  0.00    -0.344 OA
ATOM     14  C   UNL     1      15.206  29.120  11.021  1.00  0.00     0.179 C 
ATOM     15  C   UNL     1      16.287  30.293  10.820  1.00  0.00     0.202 C 
BRANCH  12  16
ATOM     16  O   UNL     1      14.252  27.024  10.236  1.00  0.00    -0.388 OA
ATOM     17  H   UNL     1      13.632  26.962   9.469  1.00  0.00     0.211 HD
ENDBRANCH  12  16
BRANCH  14  18
ATOM     18  O   UNL     1      13.940  29.562  11.357  1.00  0.00    -0.387 OA
ATOM     19  H   UNL     1      14.050  30.177  12.099  1.00  0.00     0.211 HD
ENDBRANCH  14  18
BRANCH  15  20
ATOM     20  O   UNL     1      16.891  30.656  12.124  1.00  0.00    -0.385 OA
ATOM     21  H   UNL     1      17.230  31.646  12.112  1.00  0.00     0.211 HD
ENDBRANCH  15  20
ENDBRANCH   8   9
ENDBRANCH   7   8
ENDBRANCH   1   7
BRANCH   2  22
ATOM     22  O   UNL     1      18.629  34.965   7.663  1.00  0.00    -0.387 OA
ATOM     23  H   UNL     1      17.793  35.520   7.720  1.00  0.00     0.211 HD
ENDBRANCH   2  22
BRANCH   3  24
ATOM     24  O   UNL     1      20.809  36.069   9.786  1.00  0.00    -0.387 OA
ATOM     25  H   UNL     1      21.035  36.843   9.074  1.00  0.00     0.211 HD
ENDBRANCH   3  24
BRANCH   5  26
ATOM     26  O   UNL     1      16.727  35.511  11.516  1.00  0.00    -0.454 OA
BRANCH  26  27
ATOM     27  C   UNL     1      15.417  35.070  11.335  1.00  0.00     0.214 A 
ATOM     28  C   UNL     1      14.548  36.082  10.885  1.00  0.00     0.180 A 
ATOM     29  C   UNL     1      14.837  34.312  12.317  1.00  0.00     0.239 A 
ATOM     30  O   UNL     1      14.109  36.853  11.908  1.00  0.00    -0.452 OA
ATOM     31  C   UNL     1      14.486  35.030  13.441  1.00  0.00     0.111 A 
ATOM     32  O   UNL     1      14.666  33.068  12.258  1.00  0.00    -0.285 OA
ATOM     33  C   UNL     1      14.272  36.415  13.212  1.00  0.00     0.146 A 
ATOM     34  C   UNL     1      15.049  34.642  14.653  1.00  0.00     0.134 A 
ATOM     35  C   UNL     1      14.544  37.326  14.209  1.00  0.00     0.094 A 
ATOM     36  C   UNL     1      15.708  35.570  15.457  1.00  0.00     0.093 A 
ATOM     37  C   UNL     1      15.468  36.906  15.238  1.00  0.00     0.123 A 
BRANCH  28  38
ATOM     38  C   UNL     1      14.497  36.378   9.431  1.00  0.00     0.025 A 
ATOM     39  C   UNL     1      14.600  37.793   9.123  1.00  0.00     0.062 A 
ATOM     40  C   UNL     1      14.774  35.513   8.437  1.00  0.00     0.016 A 
ATOM     41  C   UNL     1      15.471  38.143   8.103  1.00  0.00     0.158 A 
ATOM     42  C   UNL     1      15.559  35.865   7.396  1.00  0.00     0.051 A 
ATOM     43  C   UNL     1      16.032  37.136   7.317  1.00  0.00     0.157 A 
BRANCH  41  44
ATOM     44  O   UNL     1      15.779  39.497   7.894  1.00  0.00    -0.504 OA
ATOM     45  H   UNL     1      16.709  39.829   8.061  1.00  0.00     0.293 HD
ENDBRANCH  41  44
BRANCH  43  46
ATOM     46  O   UNL     1      17.088  37.507   6.487  1.00  0.00    -0.504 OA
ATOM     47  H   UNL     1      17.786  36.819   6.050  1.00  0.00     0.293 HD
ENDBRANCH  43  46
ENDBRANCH  28  38
BRANCH  34  48
ATOM     48  O   UNL     1      14.880  33.332  15.147  1.00  0.00    -0.507 OA
ATOM     49  H   UNL     1      14.016  33.127  15.771  1.00  0.00     0.293 HD
ENDBRANCH  34  48
BRANCH  37  50
ATOM     50  O   UNL     1      16.089  37.889  16.013  1.00  0.00    -0.508 OA
ATOM     51  H   UNL     1      16.070  37.814  17.047  1.00  0.00     0.293 HD
ENDBRANCH  37  50
ENDBRANCH  26  27
ENDBRANCH   5  26
BRANCH   4  52
ATOM     52  O   UNL     1      20.203  34.605  12.030  1.00  0.00    -0.384 OA
ATOM     53  H   UNL     1      19.792  33.932  12.647  1.00  0.00     0.211 HD
ENDBRANCH   4  52
TORSDOF 16
ENDMDL
MODEL 3
REMARK VINA RESULT:    -8.288      1.865      6.674
REMARK INTER + INTRA:         -16.935
REMARK INTER:                 -14.367
REMARK INTRA:                  -2.568
REMARK UNBOUND:                -3.317
REMARK SMILES C[C@@H]1O[C@@H](OC[C@H]2O[C@H](Oc3c(-c4ccc(O)c(O)c4)oc4cc(O)cc(O)c4c3=O)[C@@H](O)[C@@H](O)[C@@H]2O)[C@H](O)[C@@H](O)[C@@H]1O
REMARK SMILES IDX 7 1 36 2 34 3 32 4 9 5 8 6 6 7 5 8 4 9 1 10 2 11 42 12 3 13
REMARK SMILES IDX 40 14 38 15 43 16 41 18 39 20 37 22 35 24 10 26 11 27 12 28
REMARK SMILES IDX 30 29 21 30 29 31 31 32 22 33 27 34 23 35 26 36 24 37 13 38
REMARK SMILES IDX 20 39 14 40 18 41 15 42 16 43 19 44 17 46 28 48 25 50 33 52
REMARK H PARENT 43 17 41 19 39 21 37 23 35 25 19 45 17 47 28 49 25 51 33 53
REMARK Flexibility Score: inf
ROOT
ATOM      1  C   UNL     1      16.537  35.382  10.495  1.00  0.00     0.180 C 
ATOM      2  C   UNL     1      17.415  35.886   9.243  1.00  0.00     0.177 C 
ATOM      3  C   UNL     1      17.717  34.909   8.029  1.00  0.00     0.180 C 
ATOM      4  C   UNL     1      16.774  33.712   7.986  1.00  0.00     0.214 C 
ATOM      5  C   UNL     1      16.445  33.161   9.358  1.00  0.00     0.339 C 
ATOM      6  O   UNL     1      15.818  34.110  10.245  1.00  0.00    -0.332 OA
ENDROOT
BRANCH   1   7
ATOM      7  C   UNL     1      15.457  36.540  10.887  1.00  0.00     0.198 C 
BRANCH   7   8
ATOM      8  O   UNL     1      14.165  36.107  11.348  1.00  0.00    -0.347 OA
BRANCH   8   9
ATOM      9  C   UNL     1      13.880  36.350  12.743  1.00  0.00     0.281 C 
ATOM     10  C   UNL     1      13.893  37.793  15.378  1.00  0.00     0.041 C 
ATOM     11  C   UNL     1      15.152  37.342  14.551  1.00  0.00     0.150 C 
ATOM     12  C   UNL     1      15.720  36.004  14.884  1.00  0.00     0.174 C 
ATOM     13  O   UNL     1      14.874  37.286  13.176  1.00  0.00    -0.344 OA
ATOM     14  C   UNL     1      14.610  35.020  14.930  1.00  0.00     0.179 C 
ATOM     15  C   UNL     1      13.678  35.010  13.619  1.00  0.00     0.202 C 
BRANCH  12  16
ATOM     16  O   UNL     1      16.465  36.017  16.146  1.00  0.00    -0.388 OA
ATOM     17  H   UNL     1      15.985  36.629  16.757  1.00  0.00     0.211 HD
ENDBRANCH  12  16
BRANCH  14  18
ATOM     18  O   UNL     1      15.019  33.766  15.348  1.00  0.00    -0.387 OA
ATOM     19  H   UNL     1      15.953  33.849  15.596  1.00  0.00     0.211 HD
ENDBRANCH  14  18
BRANCH  15  20
ATOM     20  O   UNL     1      12.261  34.808  14.006  1.00  0.00    -0.385 OA
ATOM     21  H   UNL     1      11.674  34.604  13.163  1.00  0.00     0.211 HD
ENDBRANCH  15  20
ENDBRANCH   8   9
ENDBRANCH   7   8
ENDBRANCH   1   7
BRANCH   2  22
ATOM     22  O   UNL     1      18.575  36.547   9.693  1.00  0.00    -0.387 OA
ATOM     23  H   UNL     1      19.359  35.920   9.756  1.00  0.00     0.211 HD
ENDBRANCH   2  22
BRANCH   3  24
ATOM     24  O   UNL     1      17.701  35.518   6.750  1.00  0.00    -0.387 OA
ATOM     25  H   UNL     1      18.581  35.415   6.140  1.00  0.00     0.211 HD
ENDBRANCH   3  24
BRANCH   5  26
ATOM     26  O   UNL     1      17.565  32.339   9.887  1.00  0.00    -0.454 OA
BRANCH  26  27
ATOM     27  C   UNL     1      17.969  32.365  11.222  1.00  0.00     0.214 A 
ATOM     28  C   UNL     1      19.186  31.693  11.445  1.00  0.00     0.180 A 
ATOM     29  C   UNL     1      17.049  32.073  12.193  1.00  0.00     0.239 A 
ATOM     30  O   UNL     1      19.002  30.356  11.564  1.00  0.00    -0.452 OA
ATOM     31  C   UNL     1      16.728  30.733  12.271  1.00  0.00     0.111 A 
ATOM     32  O   UNL     1      16.491  32.922  12.933  1.00  0.00    -0.285 OA
ATOM     33  C   UNL     1      17.726  29.857  11.768  1.00  0.00     0.146 A 
ATOM     34  C   UNL     1      15.392  30.382  12.093  1.00  0.00     0.134 A 
ATOM     35  C   UNL     1      17.362  28.658  11.198  1.00  0.00     0.094 A 
ATOM     36  C   UNL     1      15.034  29.414  11.157  1.00  0.00     0.093 A 
ATOM     37  C   UNL     1      16.008  28.558  10.702  1.00  0.00     0.123 A 
BRANCH  28  38
ATOM     38  C   UNL     1      20.455  32.422  11.196  1.00  0.00     0.025 A 
ATOM     39  C   UNL     1      20.557  32.966   9.854  1.00  0.00     0.062 A 
ATOM     40  C   UNL     1      21.261  32.951  12.135  1.00  0.00     0.016 A 
ATOM     41  C   UNL     1      21.000  34.275   9.750  1.00  0.00     0.158 A 
ATOM     42  C   UNL     1      21.763  34.198  12.010  1.00  0.00     0.051 A 
ATOM     43  C   UNL     1      21.500  34.914  10.885  1.00  0.00     0.157 A 
BRANCH  41  44
ATOM     44  O   UNL     1      20.922  34.933   8.511  1.00  0.00    -0.504 OA
ATOM     45  H   UNL     1      20.035  35.238   8.163  1.00  0.00     0.293 HD
ENDBRANCH  41  44
BRANCH  43  46
ATOM     46  O   UNL     1      21.686  36.291  10.797  1.00  0.00    -0.504 OA
ATOM     47  H   UNL     1      22.467  36.831  11.297  1.00  0.00     0.293 HD
ENDBRANCH  43  46
ENDBRANCH  28  38
BRANCH  34  48
ATOM     48  O   UNL     1      14.383  30.917  12.920  1.00  0.00    -0.507 OA
ATOM     49  H   UNL     1      13.467  31.262  12.452  1.00  0.00     0.293 HD
ENDBRANCH  34  48
BRANCH  37  50
ATOM     50  O   UNL     1      15.715  27.559   9.770  1.00  0.00    -0.508 OA
ATOM     51  H   UNL     1      15.173  27.796   8.919  1.00  0.00     0.293 HD
ENDBRANCH  37  50
ENDBRANCH  26  27
ENDBRANCH   5  26
BRANCH   4  52
ATOM     52  O   UNL     1      15.539  33.925   7.328  1.00  0.00    -0.384 OA
ATOM     53  H   UNL     1      15.420  33.256   6.592  1.00  0.00     0.211 HD
ENDBRANCH   4  52
TORSDOF 16
ENDMDL
MODEL 4
REMARK VINA RESULT:    -8.174      1.858      6.641
REMARK INTER + INTRA:         -16.746
REMARK INTER:                 -14.047
REMARK INTRA:                  -2.699
REMARK UNBOUND:                -3.317
REMARK SMILES C[C@@H]1O[C@@H](OC[C@H]2O[C@H](Oc3c(-c4ccc(O)c(O)c4)oc4cc(O)cc(O)c4c3=O)[C@@H](O)[C@@H](O)[C@@H]2O)[C@H](O)[C@@H](O)[C@@H]1O
REMARK SMILES IDX 7 1 36 2 34 3 32 4 9 5 8 6 6 7 5 8 4 9 1 10 2 11 42 12 3 13
REMARK SMILES IDX 40 14 38 15 43 16 41 18 39 20 37 22 35 24 10 26 11 27 12 28
REMARK SMILES IDX 30 29 21 30 29 31 31 32 22 33 27 34 23 35 26 36 24 37 13 38
REMARK SMILES IDX 20 39 14 40 18 41 15 42 16 43 19 44 17 46 28 48 25 50 33 52
REMARK H PARENT 43 17 41 19 39 21 37 23 35 25 19 45 17 47 28 49 25 51 33 53
REMARK Flexibility Score: inf
ROOT
ATOM      1  C   UNL     1      15.698  35.999   9.867  1.00  0.00     0.180 C 
ATOM      2  C   UNL     1      16.339  36.185   8.402  1.00  0.00     0.177 C 
ATOM      3  C   UNL     1      16.689  34.918   7.511  1.00  0.00     0.180 C 
ATOM      4  C   UNL     1      15.977  33.654   7.979  1.00  0.00     0.214 C 
ATOM      5  C   UNL     1      15.894  33.539   9.488  1.00  0.00     0.339 C 
ATOM      6  O   UNL     1      15.199  34.628  10.129  1.00  0.00    -0.332 OA
ENDROOT
BRANCH   1   7
ATOM      7  C   UNL     1      14.472  37.059  10.049  1.00  0.00     0.198 C 
BRANCH   7   8
ATOM      8  O   UNL     1      14.316  37.670  11.342  1.00  0.00    -0.347 OA
BRANCH   8   9
ATOM      9  C   UNL     1      14.302  36.766  12.468  1.00  0.00     0.281 C 
ATOM     10  C   UNL     1      13.155  34.928  14.550  1.00  0.00     0.041 C 
ATOM     11  C   UNL     1      12.769  36.433  14.315  1.00  0.00     0.150 C 
ATOM     12  C   UNL     1      13.517  37.444  15.117  1.00  0.00     0.174 C 
ATOM     13  O   UNL     1      12.964  36.814  12.977  1.00  0.00    -0.344 OA
ATOM     14  C   UNL     1      14.967  37.142  15.018  1.00  0.00     0.179 C 
ATOM     15  C   UNL     1      15.512  36.991  13.512  1.00  0.00     0.202 C 
BRANCH  12  16
ATOM     16  O   UNL     1      13.079  37.475  16.515  1.00  0.00    -0.388 OA
ATOM     17  H   UNL     1      13.630  36.816  17.004  1.00  0.00     0.211 HD
ENDBRANCH  12  16
BRANCH  14  18
ATOM     18  O   UNL     1      15.742  37.956  15.825  1.00  0.00    -0.387 OA
ATOM     19  H   UNL     1      15.178  38.698  16.092  1.00  0.00     0.211 HD
ENDBRANCH  14  18
BRANCH  15  20
ATOM     20  O   UNL     1      16.515  35.902  13.443  1.00  0.00    -0.385 OA
ATOM     21  H   UNL     1      16.994  35.782  14.366  1.00  0.00     0.211 HD
ENDBRANCH  15  20
ENDBRANCH   8   9
ENDBRANCH   7   8
ENDBRANCH   1   7
BRANCH   2  22
ATOM     22  O   UNL     1      17.400  37.111   8.445  1.00  0.00    -0.387 OA
ATOM     23  H   UNL     1      18.191  36.746   8.948  1.00  0.00     0.211 HD
ENDBRANCH   2  22
BRANCH   3  24
ATOM     24  O   UNL     1      16.433  35.070   6.126  1.00  0.00    -0.387 OA
ATOM     25  H   UNL     1      16.015  34.228   5.603  1.00  0.00     0.211 HD
ENDBRANCH   3  24
BRANCH   5  26
ATOM     26  O   UNL     1      17.192  33.098  10.063  1.00  0.00    -0.454 OA
BRANCH  26  27
ATOM     27  C   UNL     1      17.501  33.196  11.420  1.00  0.00     0.214 A 
ATOM     28  C   UNL     1      18.843  32.883  11.707  1.00  0.00     0.180 A 
ATOM     29  C   UNL     1      16.648  32.632  12.330  1.00  0.00     0.239 A 
ATOM     30  O   UNL     1      19.033  31.545  11.797  1.00  0.00    -0.452 OA
ATOM     31  C   UNL     1      16.709  31.255  12.372  1.00  0.00     0.111 A 
ATOM     32  O   UNL     1      15.835  33.271  13.046  1.00  0.00    -0.285 OA
ATOM     33  C   UNL     1      17.938  30.705  11.918  1.00  0.00     0.146 A 
ATOM     34  C   UNL     1      15.537  30.551  12.110  1.00  0.00     0.134 A 
ATOM     35  C   UNL     1      17.955  29.469  11.312  1.00  0.00     0.094 A 
ATOM     36  C   UNL     1      15.514  29.549  11.141  1.00  0.00     0.093 A 
ATOM     37  C   UNL     1      16.711  29.011  10.734  1.00  0.00     0.123 A 
BRANCH  28  38
ATOM     38  C   UNL     1      19.870  33.942  11.543  1.00  0.00     0.025 A 
ATOM     39  C   UNL     1      21.178  33.430  11.180  1.00  0.00     0.062 A 
ATOM     40  C   UNL     1      19.631  35.245  11.298  1.00  0.00     0.016 A 
ATOM     41  C   UNL     1      21.837  34.089  10.154  1.00  0.00     0.158 A 
ATOM     42  C   UNL     1      20.319  35.920  10.354  1.00  0.00     0.051 A 
ATOM     43  C   UNL     1      21.316  35.292   9.676  1.00  0.00     0.157 A 
BRANCH  41  44
ATOM     44  O   UNL     1      23.003  33.526   9.610  1.00  0.00    -0.504 OA
ATOM     45  H   UNL     1      23.834  33.462  10.166  1.00  0.00     0.293 HD
ENDBRANCH  41  44
BRANCH  43  46
ATOM     46  O   UNL     1      21.853  35.778   8.487  1.00  0.00    -0.504 OA
ATOM     47  H   UNL     1      21.409  35.640   7.520  1.00  0.00     0.293 HD
ENDBRANCH  43  46
ENDBRANCH  28  38
BRANCH  34  48
ATOM     48  O   UNL     1      14.375  30.760  12.882  1.00  0.00    -0.507 OA
ATOM     49  H   UNL     1      14.442  30.620  13.956  1.00  0.00     0.293 HD
ENDBRANCH  34  48
BRANCH  37  50
ATOM     50  O   UNL     1      16.760  27.998   9.773  1.00  0.00    -0.508 OA
ATOM     51  H   UNL     1      17.656  27.784   9.299  1.00  0.00     0.293 HD
ENDBRANCH  37  50
ENDBRANCH  26  27
ENDBRANCH   5  26
BRANCH   4  52
ATOM     52  O   UNL     1      14.665  33.467   7.486  1.00  0.00    -0.384 OA
ATOM     53  H   UNL     1      14.188  34.346   7.431  1.00  0.00     0.211 HD
ENDBRANCH   4  52
TORSDOF 16
ENDMDL
MODEL 5
REMARK VINA RESULT:    -8.173      2.006      7.162
REMARK INTER + INTRA:         -16.745
REMARK INTER:                 -14.373
REMARK INTRA:                  -2.372
REMARK UNBOUND:                -3.317
REMARK SMILES C[C@@H]1O[C@@H](OC[C@H]2O[C@H](Oc3c(-c4ccc(O)c(O)c4)oc4cc(O)cc(O)c4c3=O)[C@@H](O)[C@@H](O)[C@@H]2O)[C@H](O)[C@@H](O)[C@@H]1O
REMARK SMILES IDX 7 1 36 2 34 3 32 4 9 5 8 6 6 7 5 8 4 9 1 10 2 11 42 12 3 13
REMARK SMILES IDX 40 14 38 15 43 16 41 18 39 20 37 22 35 24 10 26 11 27 12 28
REMARK SMILES IDX 30 29 21 30 29 31 31 32 22 33 27 34 23 35 26 36 24 37 13 38
REMARK SMILES IDX 20 39 14 40 18 41 15 42 16 43 19 44 17 46 28 48 25 50 33 52
REMARK H PARENT 43 17 41 19 39 21 37 23 35 25 19 45 17 47 28 49 25 51 33 53
REMARK Flexibility Score: inf
ROOT
ATOM      1  C   UNL     1      15.199  35.067  10.363  1.00  0.00     0.180 C 
ATOM      2  C   UNL     1      16.167  35.802  11.419  1.00  0.00     0.177 C 
ATOM      3  C   UNL     1      17.740  35.594  11.346  1.00  0.00     0.180 C 
ATOM      4  C   UNL     1      18.201  35.047   9.999  1.00  0.00     0.214 C 
ATOM      5  C   UNL     1      17.257  34.013   9.421  1.00  0.00     0.339 C 
ATOM      6  O   UNL     1      15.915  34.491   9.199  1.00  0.00    -0.332 OA
ENDROOT
BRANCH   1   7
ATOM      7  C   UNL     1      14.085  36.134   9.833  1.00  0.00     0.198 C 
BRANCH   7   8
ATOM      8  O   UNL     1      13.320  35.766   8.671  1.00  0.00    -0.347 OA
BRANCH   8   9
ATOM      9  C   UNL     1      13.587  36.530   7.474  1.00  0.00     0.281 C 
ATOM     10  C   UNL     1      14.419  37.062   4.638  1.00  0.00     0.041 C 
ATOM     11  C   UNL     1      15.294  36.395   5.760  1.00  0.00     0.150 C 
ATOM     12  C   UNL     1      16.163  37.309   6.556  1.00  0.00     0.174 C 
ATOM     13  O   UNL     1      14.498  35.733   6.710  1.00  0.00    -0.344 OA
ATOM     14  C   UNL     1      15.347  38.468   6.998  1.00  0.00     0.179 C 
ATOM     15  C   UNL     1      13.982  38.070   7.748  1.00  0.00     0.202 C 
BRANCH  12  16
ATOM     16  O   UNL     1      17.340  37.750   5.802  1.00  0.00    -0.388 OA
ATOM     17  H   UNL     1      18.083  37.831   6.448  1.00  0.00     0.211 HD
ENDBRANCH  12  16
BRANCH  14  18
ATOM     18  O   UNL     1      16.094  39.436   7.646  1.00  0.00    -0.387 OA
ATOM     19  H   UNL     1      15.941  39.312   8.596  1.00  0.00     0.211 HD
ENDBRANCH  14  18
BRANCH  15  20
ATOM     20  O   UNL     1      12.897  39.000   7.355  1.00  0.00    -0.385 OA
ATOM     21  H   UNL     1      12.526  38.755   6.408  1.00  0.00     0.211 HD
ENDBRANCH  15  20
ENDBRANCH   8   9
ENDBRANCH   7   8
ENDBRANCH   1   7
BRANCH   2  22
ATOM     22  O   UNL     1      15.673  35.644  12.729  1.00  0.00    -0.387 OA
ATOM     23  H   UNL     1      15.202  34.764  12.845  1.00  0.00     0.211 HD
ENDBRANCH   2  22
BRANCH   3  24
ATOM     24  O   UNL     1      18.511  36.748  11.630  1.00  0.00    -0.387 OA
ATOM     25  H   UNL     1      19.454  36.606  12.127  1.00  0.00     0.211 HD
ENDBRANCH   3  24
BRANCH   5  26
ATOM     26  O   UNL     1      17.432  32.696  10.087  1.00  0.00    -0.454 OA
BRANCH  26  27
ATOM     27  C   UNL     1      17.922  32.554  11.385  1.00  0.00     0.214 A 
ATOM     28  C   UNL     1      19.116  31.810  11.448  1.00  0.00     0.180 A 
ATOM     29  C   UNL     1      17.053  32.193  12.380  1.00  0.00     0.239 A 
ATOM     30  O   UNL     1      18.874  30.478  11.432  1.00  0.00    -0.452 OA
ATOM     31  C   UNL     1      16.672  30.868  12.333  1.00  0.00     0.111 A 
ATOM     32  O   UNL     1      16.586  32.976  13.246  1.00  0.00    -0.285 OA
ATOM     33  C   UNL     1      17.591  30.013  11.669  1.00  0.00     0.146 A 
ATOM     34  C   UNL     1      15.312  30.595  12.210  1.00  0.00     0.134 A 
ATOM     35  C   UNL     1      17.133  28.902  10.996  1.00  0.00     0.094 A 
ATOM     36  C   UNL     1      14.847  29.754  11.201  1.00  0.00     0.093 A 
ATOM     37  C   UNL     1      15.746  28.915  10.588  1.00  0.00     0.123 A 
BRANCH  28  38
ATOM     38  C   UNL     1      20.401  32.509  11.193  1.00  0.00     0.025 A 
ATOM     39  C   UNL     1      20.854  32.405   9.818  1.00  0.00     0.062 A 
ATOM     40  C   UNL     1      20.923  33.501  11.938  1.00  0.00     0.016 A 
ATOM     41  C   UNL     1      21.300  33.575   9.224  1.00  0.00     0.158 A 
ATOM     42  C   UNL     1      21.433  34.615  11.369  1.00  0.00     0.051 A 
ATOM     43  C   UNL     1      21.474  34.712  10.013  1.00  0.00     0.157 A 
BRANCH  41  44
ATOM     44  O   UNL     1      21.551  33.594   7.842  1.00  0.00    -0.504 OA
ATOM     45  H   UNL     1      22.359  34.069   7.487  1.00  0.00     0.293 HD
ENDBRANCH  41  44
BRANCH  43  46
ATOM     46  O   UNL     1      21.668  35.917   9.341  1.00  0.00    -0.504 OA
ATOM     47  H   UNL     1      22.560  36.509   9.403  1.00  0.00     0.293 HD
ENDBRANCH  43  46
ENDBRANCH  28  38
BRANCH  34  48
ATOM     48  O   UNL     1      14.385  31.075  13.159  1.00  0.00    -0.507 OA
ATOM     49  H   UNL     1      14.550  30.832  14.204  1.00  0.00     0.293 HD
ENDBRANCH  34  48
BRANCH  37  50
ATOM     50  O   UNL     1      15.345  28.041   9.574  1.00  0.00    -0.508 OA
ATOM     51  H   UNL     1      14.346  28.002   9.298  1.00  0.00     0.293 HD
ENDBRANCH  37  50
ENDBRANCH  26  27
ENDBRANCH   5  26
BRANCH   4  52
ATOM     52  O   UNL     1      18.418  36.009   8.986  1.00  0.00    -0.384 OA
ATOM     53  H   UNL     1      18.634  35.555   8.120  1.00  0.00     0.211 HD
ENDBRANCH   4  52
TORSDOF 16
ENDMDL
MODEL 6
REMARK VINA RESULT:    -8.119      1.909      7.605
REMARK INTER + INTRA:         -16.657
REMARK INTER:                 -14.428
REMARK INTRA:                  -2.229
REMARK UNBOUND:                -3.317
REMARK SMILES C[C@@H]1O[C@@H](OC[C@H]2O[C@H](Oc3c(-c4ccc(O)c(O)c4)oc4cc(O)cc(O)c4c3=O)[C@@H](O)[C@@H](O)[C@@H]2O)[C@H](O)[C@@H](O)[C@@H]1O
REMARK SMILES IDX 7 1 36 2 34 3 32 4 9 5 8 6 6 7 5 8 4 9 1 10 2 11 42 12 3 13
REMARK SMILES IDX 40 14 38 15 43 16 41 18 39 20 37 22 35 24 10 26 11 27 12 28
REMARK SMILES IDX 30 29 21 30 29 31 31 32 22 33 27 34 23 35 26 36 24 37 13 38
REMARK SMILES IDX 20 39 14 40 18 41 15 42 16 43 19 44 17 46 28 48 25 50 33 52
REMARK H PARENT 43 17 41 19 39 21 37 23 35 25 19 45 17 47 28 49 25 51 33 53
REMARK Flexibility Score: inf
ROOT
ATOM      1  C   UNL     1      15.120  34.863  10.767  1.00  0.00     0.180 C 
ATOM      2  C   UNL     1      14.885  35.263  12.309  1.00  0.00     0.177 C 
ATOM      3  C   UNL     1      16.122  35.553  13.260  1.00  0.00     0.180 C 
ATOM      4  C   UNL     1      17.405  35.838  12.489  1.00  0.00     0.214 C 
ATOM      5  C   UNL     1      17.566  34.972  11.256  1.00  0.00     0.339 C 
ATOM      6  O   UNL     1      16.503  35.109  10.292  1.00  0.00    -0.332 OA
ENDROOT
BRANCH   1   7
ATOM      7  C   UNL     1      14.076  35.700   9.835  1.00  0.00     0.198 C 
BRANCH   7   8
ATOM      8  O   UNL     1      13.796  35.177   8.525  1.00  0.00    -0.347 OA
BRANCH   8   9
ATOM      9  C   UNL     1      13.888  36.122   7.436  1.00  0.00     0.281 C 
ATOM     10  C   UNL     1      14.444  37.128   4.661  1.00  0.00     0.041 C 
ATOM     11  C   UNL     1      15.467  36.420   5.623  1.00  0.00     0.150 C 
ATOM     12  C   UNL     1      16.291  37.313   6.488  1.00  0.00     0.174 C 
ATOM     13  O   UNL     1      14.820  35.548   6.513  1.00  0.00    -0.344 OA
ATOM     14  C   UNL     1      15.391  38.299   7.139  1.00  0.00     0.179 C 
ATOM     15  C   UNL     1      14.136  37.646   7.904  1.00  0.00     0.202 C 
BRANCH  12  16
ATOM     16  O   UNL     1      17.354  37.986   5.736  1.00  0.00    -0.388 OA
ATOM     17  H   UNL     1      17.038  38.068   4.803  1.00  0.00     0.211 HD
ENDBRANCH  12  16
BRANCH  14  18
ATOM     18  O   UNL     1      16.077  39.249   7.874  1.00  0.00    -0.387 OA
ATOM     19  H   UNL     1      15.680  40.107   7.654  1.00  0.00     0.211 HD
ENDBRANCH  14  18
BRANCH  15  20
ATOM     20  O   UNL     1      12.932  38.489   7.714  1.00  0.00    -0.385 OA
ATOM     21  H   UNL     1      12.083  37.893   7.570  1.00  0.00     0.211 HD
ENDBRANCH  15  20
ENDBRANCH   8   9
ENDBRANCH   7   8
ENDBRANCH   1   7
BRANCH   2  22
ATOM     22  O   UNL     1      13.952  34.390  12.904  1.00  0.00    -0.387 OA
ATOM     23  H   UNL     1      14.391  33.771  13.564  1.00  0.00     0.211 HD
ENDBRANCH   2  22
BRANCH   3  24
ATOM     24  O   UNL     1      15.931  36.609  14.186  1.00  0.00    -0.387 OA
ATOM     25  H   UNL     1      15.379  36.389  15.083  1.00  0.00     0.211 HD
ENDBRANCH   3  24
BRANCH   5  26
ATOM     26  O   UNL     1      18.013  33.602  11.619  1.00  0.00    -0.454 OA
BRANCH  26  27
ATOM     27  C   UNL     1      18.263  32.604  10.678  1.00  0.00     0.214 A 
ATOM     28  C   UNL     1      18.760  31.417  11.248  1.00  0.00     0.180 A 
ATOM     29  C   UNL     1      18.941  32.933   9.535  1.00  0.00     0.239 A 
ATOM     30  O   UNL     1      20.094  31.491  11.470  1.00  0.00    -0.452 OA
ATOM     31  C   UNL     1      20.290  33.148   9.729  1.00  0.00     0.111 A 
ATOM     32  O   UNL     1      18.413  33.083   8.404  1.00  0.00    -0.285 OA
ATOM     33  C   UNL     1      20.832  32.499  10.870  1.00  0.00     0.146 A 
ATOM     34  C   UNL     1      20.798  34.395   9.378  1.00  0.00     0.134 A 
ATOM     35  C   UNL     1      21.889  33.067  11.546  1.00  0.00     0.094 A 
ATOM     36  C   UNL     1      21.541  35.141  10.292  1.00  0.00     0.093 A 
ATOM     37  C   UNL     1      22.080  34.489  11.376  1.00  0.00     0.123 A 
BRANCH  28  38
ATOM     38  C   UNL     1      17.793  30.442  11.813  1.00  0.00     0.025 A 
ATOM     39  C   UNL     1      16.796  31.048  12.676  1.00  0.00     0.062 A 
ATOM     40  C   UNL     1      17.511  29.225  11.311  1.00  0.00     0.016 A 
ATOM     41  C   UNL     1      15.483  30.653  12.477  1.00  0.00     0.158 A 
ATOM     42  C   UNL     1      16.238  28.795  11.182  1.00  0.00     0.051 A 
ATOM     43  C   UNL     1      15.220  29.581  11.623  1.00  0.00     0.157 A 
BRANCH  41  44
ATOM     44  O   UNL     1      14.448  31.348  13.124  1.00  0.00    -0.504 OA
ATOM     45  H   UNL     1      13.583  30.884  13.323  1.00  0.00     0.293 HD
ENDBRANCH  41  44
BRANCH  43  46
ATOM     46  O   UNL     1      13.892  29.388  11.251  1.00  0.00    -0.504 OA
ATOM     47  H   UNL     1      13.541  29.380  10.237  1.00  0.00     0.293 HD
ENDBRANCH  43  46
ENDBRANCH  28  38
BRANCH  34  48
ATOM     48  O   UNL     1      20.667  34.891   8.064  1.00  0.00    -0.507 OA
ATOM     49  H   UNL     1      21.066  34.295   7.249  1.00  0.00     0.293 HD
ENDBRANCH  34  48
BRANCH  37  50
ATOM     50  O   UNL     1      22.842  35.175  12.326  1.00  0.00    -0.508 OA
ATOM     51  H   UNL     1      23.862  35.001  12.386  1.00  0.00     0.293 HD
ENDBRANCH  37  50
ENDBRANCH  26  27
ENDBRANCH   5  26
BRANCH   4  52
ATOM     52  O   UNL     1      17.588  37.177  12.070  1.00  0.00    -0.384 OA
ATOM     53  H   UNL     1      16.984  37.383  11.298  1.00  0.00     0.211 HD
ENDBRANCH   4  52
TORSDOF 16
ENDMDL
MODEL 7
REMARK VINA RESULT:    -8.087      3.819      6.720
REMARK INTER + INTRA:         -16.605
REMARK INTER:                 -14.306
REMARK INTRA:                  -2.298
REMARK UNBOUND:                -3.317
REMARK SMILES C[C@@H]1O[C@@H](OC[C@H]2O[C@H](Oc3c(-c4ccc(O)c(O)c4)oc4cc(O)cc(O)c4c3=O)[C@@H](O)[C@@H](O)[C@@H]2O)[C@H](O)[C@@H](O)[C@@H]1O
REMARK SMILES IDX 7 1 36 2 34 3 32 4 9 5 8 6 6 7 5 8 4 9 1 10 2 11 42 12 3 13
REMARK SMILES IDX 40 14 38 15 43 16 41 18 39 20 37 22 35 24 10 26 11 27 12 28
REMARK SMILES IDX 30 29 21 30 29 31 31 32 22 33 27 34 23 35 26 36 24 37 13 38
REMARK SMILES IDX 20 39 14 40 18 41 15 42 16 43 19 44 17 46 28 48 25 50 33 52
REMARK H PARENT 43 17 41 19 39 21 37 23 35 25 19 45 17 47 28 49 25 51 33 53
REMARK Flexibility Score: inf
ROOT
ATOM      1  C   UNL     1      15.842  35.960   8.885  1.00  0.00     0.180 C 
ATOM      2  C   UNL     1      16.749  36.172   7.572  1.00  0.00     0.177 C 
ATOM      3  C   UNL     1      16.264  37.139   6.410  1.00  0.00     0.180 C 
ATOM      4  C   UNL     1      15.173  38.103   6.861  1.00  0.00     0.214 C 
ATOM      5  C   UNL     1      14.173  37.472   7.808  1.00  0.00     0.339 C 
ATOM      6  O   UNL     1      14.751  36.954   9.023  1.00  0.00    -0.332 OA
ENDROOT
BRANCH   1   7
ATOM      7  C   UNL     1      16.796  36.024  10.206  1.00  0.00     0.198 C 
BRANCH   7   8
ATOM      8  O   UNL     1      16.645  34.977  11.181  1.00  0.00    -0.347 OA
BRANCH   8   9
ATOM      9  C   UNL     1      16.094  35.378  12.455  1.00  0.00     0.281 C 
ATOM     10  C   UNL     1      15.607  35.325  15.419  1.00  0.00     0.041 C 
ATOM     11  C   UNL     1      15.353  34.149  14.407  1.00  0.00     0.150 C 
ATOM     12  C   UNL     1      13.982  34.056  13.827  1.00  0.00     0.174 C 
ATOM     13  O   UNL     1      16.212  34.226  13.299  1.00  0.00    -0.344 OA
ATOM     14  C   UNL     1      13.585  35.402  13.342  1.00  0.00     0.179 C 
ATOM     15  C   UNL     1      14.652  36.093  12.356  1.00  0.00     0.202 C 
BRANCH  12  16
ATOM     16  O   UNL     1      13.008  33.534  14.789  1.00  0.00    -0.388 OA
ATOM     17  H   UNL     1      13.256  33.897  15.675  1.00  0.00     0.211 HD
ENDBRANCH  12  16
BRANCH  14  18
ATOM     18  O   UNL     1      12.278  35.447  12.891  1.00  0.00    -0.387 OA
ATOM     19  H   UNL     1      11.721  35.159  13.630  1.00  0.00     0.211 HD
ENDBRANCH  14  18
BRANCH  15  20
ATOM     20  O   UNL     1      14.732  37.547  12.634  1.00  0.00    -0.385 OA
ATOM     21  H   UNL     1      14.170  38.088  11.936  1.00  0.00     0.211 HD
ENDBRANCH  15  20
ENDBRANCH   8   9
ENDBRANCH   7   8
ENDBRANCH   1   7
BRANCH   2  22
ATOM     22  O   UNL     1      17.191  34.930   7.076  1.00  0.00    -0.387 OA
ATOM     23  H   UNL     1      16.476  34.226   7.143  1.00  0.00     0.211 HD
ENDBRANCH   2  22
BRANCH   3  24
ATOM     24  O   UNL     1      17.290  37.902   5.799  1.00  0.00    -0.387 OA
ATOM     25  H   UNL     1      17.702  38.721   6.362  1.00  0.00     0.211 HD
ENDBRANCH   3  24
BRANCH   5  26
ATOM     26  O   UNL     1      13.203  36.619   7.072  1.00  0.00    -0.454 OA
BRANCH  26  27
ATOM     27  C   UNL     1      12.329  35.735   7.703  1.00  0.00     0.214 A 
ATOM     28  C   UNL     1      11.605  34.933   6.800  1.00  0.00     0.180 A 
ATOM     29  C   UNL     1      11.527  36.208   8.707  1.00  0.00     0.239 A 
ATOM     30  O   UNL     1      10.528  35.587   6.305  1.00  0.00    -0.452 OA
ATOM     31  C   UNL     1      10.483  36.992   8.264  1.00  0.00     0.111 A 
ATOM     32  O   UNL     1      11.718  36.008   9.934  1.00  0.00    -0.285 OA
ATOM     33  C   UNL     1      10.091  36.749   6.921  1.00  0.00     0.146 A 
ATOM     34  C   UNL     1      10.410  38.297   8.745  1.00  0.00     0.134 A 
ATOM     35  C   UNL     1       9.578  37.775   6.158  1.00  0.00     0.094 A 
ATOM     36  C   UNL     1      10.310  39.372   7.864  1.00  0.00     0.093 A 
ATOM     37  C   UNL     1       9.904  39.120   6.575  1.00  0.00     0.123 A 
BRANCH  28  38
ATOM     38  C   UNL     1      12.245  33.700   6.276  1.00  0.00     0.025 A 
ATOM     39  C   UNL     1      11.297  32.722   5.774  1.00  0.00     0.062 A 
ATOM     40  C   UNL     1      13.521  33.586   5.861  1.00  0.00     0.016 A 
ATOM     41  C   UNL     1      11.593  32.146   4.549  1.00  0.00     0.158 A 
ATOM     42  C   UNL     1      13.832  32.959   4.707  1.00  0.00     0.051 A 
ATOM     43  C   UNL     1      12.844  32.377   3.976  1.00  0.00     0.157 A 
BRANCH  41  44
ATOM     44  O   UNL     1      10.625  31.357   3.906  1.00  0.00    -0.504 OA
ATOM     45  H   UNL     1      10.049  30.738   4.442  1.00  0.00     0.293 HD
ENDBRANCH  41  44
BRANCH  43  46
ATOM     46  O   UNL     1      13.001  32.001   2.644  1.00  0.00    -0.504 OA
ATOM     47  H   UNL     1      12.592  31.107   2.214  1.00  0.00     0.293 HD
ENDBRANCH  43  46
ENDBRANCH  28  38
BRANCH  34  48
ATOM     48  O   UNL     1      10.333  38.559  10.129  1.00  0.00    -0.507 OA
ATOM     49  H   UNL     1       9.833  37.831  10.761  1.00  0.00     0.293 HD
ENDBRANCH  34  48
BRANCH  37  50
ATOM     50  O   UNL     1       9.774  40.153   5.643  1.00  0.00    -0.508 OA
ATOM     51  H   UNL     1       8.835  40.402   5.282  1.00  0.00     0.293 HD
ENDBRANCH  37  50
ENDBRANCH  26  27
ENDBRANCH   5  26
BRANCH   4  52
ATOM     52  O   UNL     1      15.621  39.294   7.479  1.00  0.00    -0.384 OA
ATOM     53  H   UNL     1      15.474  39.246   8.469  1.00  0.00     0.211 HD
ENDBRANCH   4  52
TORSDOF 16
ENDMDL
MODEL 8
REMARK VINA RESULT:    -8.014      1.844      7.199
REMARK INTER + INTRA:         -16.485
REMARK INTER:                 -13.745
REMARK INTRA:                  -2.740
REMARK UNBOUND:                -3.317
REMARK SMILES C[C@@H]1O[C@@H](OC[C@H]2O[C@H](Oc3c(-c4ccc(O)c(O)c4)oc4cc(O)cc(O)c4c3=O)[C@@H](O)[C@@H](O)[C@@H]2O)[C@H](O)[C@@H](O)[C@@H]1O
REMARK SMILES IDX 7 1 36 2 34 3 32 4 9 5 8 6 6 7 5 8 4 9 1 10 2 11 42 12 3 13
REMARK SMILES IDX 40 14 38 15 43 16 41 18 39 20 37 22 35 24 10 26 11 27 12 28
REMARK SMILES IDX 30 29 21 30 29 31 31 32 22 33 27 34 23 35 26 36 24 37 13 38
REMARK SMILES IDX 20 39 14 40 18 41 15 42 16 43 19 44 17 46 28 48 25 50 33 52
REMARK H PARENT 43 17 41 19 39 21 37 23 35 25 19 45 17 47 28 49 25 51 33 53
REMARK Flexibility Score: inf
ROOT
ATOM      1  C   UNL     1      15.995  35.824  10.213  1.00  0.00     0.180 C 
ATOM      2  C   UNL     1      16.361  36.063   8.663  1.00  0.00     0.177 C 
ATOM      3  C   UNL     1      16.708  34.833   7.721  1.00  0.00     0.180 C 
ATOM      4  C   UNL     1      16.237  33.501   8.294  1.00  0.00     0.214 C 
ATOM      5  C   UNL     1      16.417  33.400   9.795  1.00  0.00     0.339 C 
ATOM      6  O   UNL     1      15.712  34.408  10.547  1.00  0.00    -0.332 OA
ENDROOT
BRANCH   1   7
ATOM      7  C   UNL     1      14.698  36.735  10.600  1.00  0.00     0.198 C 
BRANCH   7   8
ATOM      8  O   UNL     1      13.598  36.074  11.250  1.00  0.00    -0.347 OA
BRANCH   8   9
ATOM      9  C   UNL     1      13.525  36.238  12.683  1.00  0.00     0.281 C 
ATOM     10  C   UNL     1      13.913  37.543  15.361  1.00  0.00     0.041 C 
ATOM     11  C   UNL     1      15.039  37.165  14.331  1.00  0.00     0.150 C 
ATOM     12  C   UNL     1      15.672  35.825  14.502  1.00  0.00     0.174 C 
ATOM     13  O   UNL     1      14.558  37.174  13.012  1.00  0.00    -0.344 OA
ATOM     14  C   UNL     1      14.596  34.814  14.660  1.00  0.00     0.179 C 
ATOM     15  C   UNL     1      13.478  34.850  13.505  1.00  0.00     0.202 C 
BRANCH  12  16
ATOM     16  O   UNL     1      16.598  35.791  15.637  1.00  0.00    -0.388 OA
ATOM     17  H   UNL     1      16.937  36.711  15.760  1.00  0.00     0.211 HD
ENDBRANCH  12  16
BRANCH  14  18
ATOM     18  O   UNL     1      15.084  33.550  14.942  1.00  0.00    -0.387 OA
ATOM     19  H   UNL     1      14.686  32.949  14.293  1.00  0.00     0.211 HD
ENDBRANCH  14  18
BRANCH  15  20
ATOM     20  O   UNL     1      12.139  34.595  14.088  1.00  0.00    -0.385 OA
ATOM     21  H   UNL     1      11.390  34.747  13.373  1.00  0.00     0.211 HD
ENDBRANCH  15  20
ENDBRANCH   8   9
ENDBRANCH   7   8
ENDBRANCH   1   7
BRANCH   2  22
ATOM     22  O   UNL     1      17.298  37.108   8.537  1.00  0.00    -0.387 OA
ATOM     23  H   UNL     1      17.527  37.287   7.574  1.00  0.00     0.211 HD
ENDBRANCH   2  22
BRANCH   3  24
ATOM     24  O   UNL     1      16.213  34.933   6.398  1.00  0.00    -0.387 OA
ATOM     25  H   UNL     1      16.929  35.094   5.611  1.00  0.00     0.211 HD
ENDBRANCH   3  24
BRANCH   5  26
ATOM     26  O   UNL     1      17.834  33.123  10.147  1.00  0.00    -0.454 OA
BRANCH  26  27
ATOM     27  C   UNL     1      18.470  31.914   9.870  1.00  0.00     0.214 A 
ATOM     28  C   UNL     1      18.859  31.213  11.027  1.00  0.00     0.180 A 
ATOM     29  C   UNL     1      19.452  31.891   8.916  1.00  0.00     0.239 A 
ATOM     30  O   UNL     1      20.033  31.676  11.519  1.00  0.00    -0.452 OA
ATOM     31  C   UNL     1      20.637  32.470   9.323  1.00  0.00     0.111 A 
ATOM     32  O   UNL     1      19.314  31.438   7.752  1.00  0.00    -0.285 OA
ATOM     33  C   UNL     1      20.831  32.489  10.729  1.00  0.00     0.146 A 
ATOM     34  C   UNL     1      21.116  33.543   8.577  1.00  0.00     0.134 A 
ATOM     35  C   UNL     1      21.551  33.510  11.310  1.00  0.00     0.094 A 
ATOM     36  C   UNL     1      21.445  34.746   9.199  1.00  0.00     0.093 A 
ATOM     37  C   UNL     1      21.656  34.739  10.557  1.00  0.00     0.123 A 
BRANCH  28  38
ATOM     38  C   UNL     1      17.854  30.363  11.714  1.00  0.00     0.025 A 
ATOM     39  C   UNL     1      16.915  31.116  12.526  1.00  0.00     0.062 A 
ATOM     40  C   UNL     1      17.491  29.118  11.351  1.00  0.00     0.016 A 
ATOM     41  C   UNL     1      15.577  30.779  12.396  1.00  0.00     0.158 A 
ATOM     42  C   UNL     1      16.193  28.752  11.295  1.00  0.00     0.051 A 
ATOM     43  C   UNL     1      15.232  29.639  11.669  1.00  0.00     0.157 A 
BRANCH  41  44
ATOM     44  O   UNL     1      14.600  31.598  12.985  1.00  0.00    -0.504 OA
ATOM     45  H   UNL     1      14.720  31.922  13.924  1.00  0.00     0.293 HD
ENDBRANCH  41  44
BRANCH  43  46
ATOM     46  O   UNL     1      13.886  29.486  11.346  1.00  0.00    -0.504 OA
ATOM     47  H   UNL     1      13.302  28.616  11.578  1.00  0.00     0.293 HD
ENDBRANCH  43  46
ENDBRANCH  28  38
BRANCH  34  48
ATOM     48  O   UNL     1      21.378  33.411   7.198  1.00  0.00    -0.507 OA
ATOM     49  H   UNL     1      21.687  34.295   6.648  1.00  0.00     0.293 HD
ENDBRANCH  34  48
BRANCH  37  50
ATOM     50  O   UNL     1      21.997  35.909  11.242  1.00  0.00    -0.508 OA
ATOM     51  H   UNL     1      22.744  36.522  10.867  1.00  0.00     0.293 HD
ENDBRANCH  37  50
ENDBRANCH  26  27
ENDBRANCH   5  26
BRANCH   4  52
ATOM     52  O   UNL     1      14.893  33.154   8.022  1.00  0.00    -0.384 OA
ATOM     53  H   UNL     1      14.478  33.833   7.414  1.00  0.00     0.211 HD
ENDBRANCH   4  52
TORSDOF 16
ENDMDL
MODEL 9
REMARK VINA RESULT:    -7.965      2.431      6.111
REMARK INTER + INTRA:         -16.404
REMARK INTER:                 -13.901
REMARK INTRA:                  -2.502
REMARK UNBOUND:                -3.317
REMARK SMILES C[C@@H]1O[C@@H](OC[C@H]2O[C@H](Oc3c(-c4ccc(O)c(O)c4)oc4cc(O)cc(O)c4c3=O)[C@@H](O)[C@@H](O)[C@@H]2O)[C@H](O)[C@@H](O)[C@@H]1O
REMARK SMILES IDX 7 1 36 2 34 3 32 4 9 5 8 6 6 7 5 8 4 9 1 10 2 11 42 12 3 13
REMARK SMILES IDX 40 14 38 15 43 16 41 18 39 20 37 22 35 24 10 26 11 27 12 28
REMARK SMILES IDX 30 29 21 30 29 31 31 32 22 33 27 34 23 35 26 36 24 37 13 38
REMARK SMILES IDX 20 39 14 40 18 41 15 42 16 43 19 44 17 46 28 48 25 50 33 52
REMARK H PARENT 43 17 41 19 39 21 37 23 35 25 19 45 17 47 28 49 25 51 33 53
REMARK Flexibility Score: inf
ROOT
ATOM      1  C   UNL     1      16.161  30.096  10.461  1.00  0.00     0.180 C 
ATOM      2  C   UNL     1      17.682  29.833  10.916  1.00  0.00     0.177 C 
ATOM      3  C   UNL     1      18.382  30.793  11.970  1.00  0.00     0.180 C 
ATOM      4  C   UNL     1      17.382  31.624  12.766  1.00  0.00     0.214 C 
ATOM      5  C   UNL     1      16.214  32.112  11.932  1.00  0.00     0.339 C 
ATOM      6  O   UNL     1      15.438  31.060  11.324  1.00  0.00    -0.332 OA
ENDROOT
BRANCH   1   7
ATOM      7  C   UNL     1      15.356  28.677  10.451  1.00  0.00     0.198 C 
BRANCH   7   8
ATOM      8  O   UNL     1      16.097  27.497  10.810  1.00  0.00    -0.347 OA
BRANCH   8   9
ATOM      9  C   UNL     1      16.221  26.494   9.777  1.00  0.00     0.281 C 
ATOM     10  C   UNL     1      17.580  24.564   7.921  1.00  0.00     0.041 C 
ATOM     11  C   UNL     1      17.845  26.110   8.021  1.00  0.00     0.150 C 
ATOM     12  C   UNL     1      17.055  26.979   7.102  1.00  0.00     0.174 C 
ATOM     13  O   UNL     1      17.571  26.598   9.309  1.00  0.00    -0.344 OA
ATOM     14  C   UNL     1      15.629  26.577   7.184  1.00  0.00     0.179 C 
ATOM     15  C   UNL     1      15.039  26.526   8.680  1.00  0.00     0.202 C 
BRANCH  12  16
ATOM     16  O   UNL     1      17.543  26.913   5.722  1.00  0.00    -0.388 OA
ATOM     17  H   UNL     1      17.401  27.806   5.323  1.00  0.00     0.211 HD
ENDBRANCH  12  16
BRANCH  14  18
ATOM     18  O   UNL     1      14.827  27.249   6.278  1.00  0.00    -0.387 OA
ATOM     19  H   UNL     1      15.301  27.241   5.432  1.00  0.00     0.211 HD
ENDBRANCH  14  18
BRANCH  15  20
ATOM     20  O   UNL     1      14.118  25.374   8.822  1.00  0.00    -0.385 OA
ATOM     21  H   UNL     1      14.524  24.653   9.464  1.00  0.00     0.211 HD
ENDBRANCH  15  20
ENDBRANCH   8   9
ENDBRANCH   7   8
ENDBRANCH   1   7
BRANCH   2  22
ATOM     22  O   UNL     1      18.497  29.599   9.791  1.00  0.00    -0.387 OA
ATOM     23  H   UNL     1      18.693  30.449   9.291  1.00  0.00     0.211 HD
ENDBRANCH   2  22
BRANCH   3  24
ATOM     24  O   UNL     1      19.238  30.146  12.895  1.00  0.00    -0.387 OA
ATOM     25  H   UNL     1      19.785  29.287  12.548  1.00  0.00     0.211 HD
ENDBRANCH   3  24
BRANCH   5  26
ATOM     26  O   UNL     1      16.605  33.272  11.090  1.00  0.00    -0.454 OA
BRANCH  26  27
ATOM     27  C   UNL     1      17.250  34.401  11.594  1.00  0.00     0.214 A 
ATOM     28  C   UNL     1      16.370  35.464  11.872  1.00  0.00     0.180 A 
ATOM     29  C   UNL     1      18.387  34.842  10.971  1.00  0.00     0.239 A 
ATOM     30  O   UNL     1      16.077  36.174  10.757  1.00  0.00    -0.452 OA
ATOM     31  C   UNL     1      18.155  35.462   9.761  1.00  0.00     0.111 A 
ATOM     32  O   UNL     1      19.555  34.675  11.405  1.00  0.00    -0.285 OA
ATOM     33  C   UNL     1      16.853  36.011   9.620  1.00  0.00     0.146 A 
ATOM     34  C   UNL     1      18.766  34.919   8.634  1.00  0.00     0.134 A 
ATOM     35  C   UNL     1      16.264  36.072   8.377  1.00  0.00     0.094 A 
ATOM     36  C   UNL     1      18.013  34.596   7.506  1.00  0.00     0.093 A 
ATOM     37  C   UNL     1      16.766  35.159   7.375  1.00  0.00     0.123 A 
BRANCH  28  38
ATOM     38  C   UNL     1      15.653  35.470  13.173  1.00  0.00     0.025 A 
ATOM     39  C   UNL     1      14.233  35.742  13.050  1.00  0.00     0.062 A 
ATOM     40  C   UNL     1      16.068  34.877  14.308  1.00  0.00     0.016 A 
ATOM     41  C   UNL     1      13.381  34.919  13.770  1.00  0.00     0.158 A 
ATOM     42  C   UNL     1      15.229  34.135  15.061  1.00  0.00     0.051 A 
ATOM     43  C   UNL     1      13.923  34.032  14.701  1.00  0.00     0.157 A 
BRANCH  41  44
ATOM     44  O   UNL     1      11.997  34.986  13.537  1.00  0.00    -0.504 OA
ATOM     45  H   UNL     1      11.635  35.629  12.861  1.00  0.00     0.293 HD
ENDBRANCH  41  44
BRANCH  43  46
ATOM     46  O   UNL     1      13.068  33.054  15.204  1.00  0.00    -0.504 OA
ATOM     47  H   UNL     1      13.042  32.037  14.863  1.00  0.00     0.293 HD
ENDBRANCH  43  46
ENDBRANCH  28  38
BRANCH  34  48
ATOM     48  O   UNL     1      20.168  34.779   8.563  1.00  0.00    -0.507 OA
ATOM     49  H   UNL     1      20.633  33.987   9.141  1.00  0.00     0.293 HD
ENDBRANCH  34  48
BRANCH  37  50
ATOM     50  O   UNL     1      15.962  34.884   6.265  1.00  0.00    -0.508 OA
ATOM     51  H   UNL     1      15.131  35.475   6.076  1.00  0.00     0.293 HD
ENDBRANCH  37  50
ENDBRANCH  26  27
ENDBRANCH   5  26
BRANCH   4  52
ATOM     52  O   UNL     1      16.831  30.998  13.908  1.00  0.00    -0.384 OA
ATOM     53  H   UNL     1      16.918  31.597  14.706  1.00  0.00     0.211 HD
ENDBRANCH   4  52
TORSDOF 16
ENDMDL
