MODEL 1
REMARK VINA RESULT:    -3.030      0.000      0.000
REMARK INTER + INTRA:          -3.118
REMARK INTER:                  -3.118
REMARK INTRA:                   0.000
REMARK UNBOUND:                 0.000
REMARK SMILES Nc1ncnc2nc[nH]c12
REMARK SMILES IDX 8 1 7 2 6 3 5 4 4 5 3 6 2 7 10 8 9 9 1 11
REMARK H PARENT 9 10 1 12 1 13
REMARK Flexibility Score: inf
ROOT
ATOM      1  C   UNL     1      -1.965  -9.727   0.900  1.00  0.00     0.199 A 
ATOM      2  N   UNL     1      -1.114  -9.741  -0.162  1.00  0.00    -0.217 NA
ATOM      3  C   UNL     1      -0.030  -9.121   0.334  1.00  0.00     0.182 A 
ATOM      4  N   UNL     1       1.128  -8.868  -0.322  1.00  0.00    -0.215 NA
ATOM      5  C   UNL     1       2.125  -8.222   0.353  1.00  0.00     0.226 A 
ATOM      6  N   UNL     1       1.949  -7.843   1.660  1.00  0.00    -0.217 NA
ATOM      7  C   UNL     1       0.781  -8.096   2.323  1.00  0.00     0.152 A 
ATOM      8  C   UNL     1      -0.223  -8.755   1.622  1.00  0.00     0.127 A 
ATOM      9  N   UNL     1      -1.450  -9.132   2.006  1.00  0.00    -0.340 N 
ATOM     10  H   UNL     1      -1.912  -9.002   2.933  1.00  0.00     0.168 HD
ENDROOT
BRANCH   7  11
ATOM     11  N   UNL     1       0.621  -7.692   3.685  1.00  0.00    -0.382 N 
ATOM     12  H   UNL     1      -0.257  -7.893   4.211  1.00  0.00     0.158 HD
ATOM     13  H   UNL     1       1.392  -7.185   4.173  1.00  0.00     0.158 HD
ENDBRANCH   7  11
TORSDOF 1
ENDMDL
MODEL 2
REMARK VINA RESULT:    -2.928      1.568      3.157
REMARK INTER + INTRA:          -3.014
REMARK INTER:                  -3.014
REMARK INTRA:                   0.000
REMARK UNBOUND:                 0.000
REMARK SMILES Nc1ncnc2nc[nH]c12
REMARK SMILES IDX 8 1 7 2 6 3 5 4 4 5 3 6 2 7 10 8 9 9 1 11
REMARK H PARENT 9 10 1 12 1 13
REMARK Flexibility Score: inf
ROOT
ATOM      1  C   UNL     1       1.621  -5.918   0.420  1.00  0.00     0.199 A 
ATOM      2  N   UNL     1       2.125  -6.668  -0.598  1.00  0.00    -0.217 NA
ATOM      3  C   UNL     1       1.393  -7.791  -0.514  1.00  0.00     0.182 A 
ATOM      4  N   UNL     1       1.494  -8.883  -1.309  1.00  0.00    -0.215 NA
ATOM      5  C   UNL     1       0.657  -9.937  -1.068  1.00  0.00     0.226 A 
ATOM      6  N   UNL     1      -0.255  -9.881  -0.046  1.00  0.00    -0.217 NA
ATOM      7  C   UNL     1      -0.358  -8.781   0.758  1.00  0.00     0.152 A 
ATOM      8  C   UNL     1       0.500  -7.717   0.500  1.00  0.00     0.127 A 
ATOM      9  N   UNL     1       0.625  -6.531   1.110  1.00  0.00    -0.340 N 
ATOM     10  H   UNL     1       0.091  -6.157   1.924  1.00  0.00     0.168 HD
ENDROOT
BRANCH   7  11
ATOM     11  N   UNL     1      -1.317  -8.746   1.818  1.00  0.00    -0.382 N 
ATOM     12  H   UNL     1      -1.339  -7.962   2.505  1.00  0.00     0.158 HD
ATOM     13  H   UNL     1      -2.014  -9.517   1.916  1.00  0.00     0.158 HD
ENDBRANCH   7  11
TORSDOF 1
ENDMDL
MODEL 3
REMARK VINA RESULT:    -2.845      0.738      2.784
REMARK INTER + INTRA:          -2.928
REMARK INTER:                  -2.928
REMARK INTRA:                   0.000
REMARK UNBOUND:                 0.000
REMARK SMILES Nc1ncnc2nc[nH]c12
REMARK SMILES IDX 8 1 7 2 6 3 5 4 4 5 3 6 2 7 10 8 9 9 1 11
REMARK H PARENT 9 10 1 12 1 13
REMARK Flexibility Score: inf
ROOT
ATOM      1  C   UNL     1       2.125  -8.344  -0.593  1.00  0.00     0.199 A 
ATOM      2  N   UNL     1       1.025  -8.976  -1.086  1.00  0.00    -0.217 NA
ATOM      3  C   UNL     1       0.246  -9.083   0.004  1.00  0.00     0.182 A 
ATOM      4  N   UNL     1      -0.984  -9.645   0.066  1.00  0.00    -0.215 NA
ATOM      5  C   UNL     1      -1.627  -9.661   1.273  1.00  0.00     0.226 A 
ATOM      6  N   UNL     1      -1.033  -9.119   2.384  1.00  0.00    -0.217 NA
ATOM      7  C   UNL     1       0.209  -8.552   2.324  1.00  0.00     0.152 A 
ATOM      8  C   UNL     1       0.849  -8.544   1.089  1.00  0.00     0.127 A 
ATOM      9  N   UNL     1       2.049  -8.065   0.733  1.00  0.00    -0.340 N 
ATOM     10  H   UNL     1       2.764  -7.590   1.326  1.00  0.00     0.168 HD
ENDROOT
BRANCH   7  11
ATOM     11  N   UNL     1       0.807  -7.994   3.496  1.00  0.00    -0.382 N 
ATOM     12  H   UNL     1       1.409  -8.569   4.124  1.00  0.00     0.158 HD
ATOM     13  H   UNL     1       0.645  -6.992   3.738  1.00  0.00     0.158 HD
ENDBRANCH   7  11
TORSDOF 1
ENDMDL
MODEL 4
REMARK VINA RESULT:    -2.833      1.118      2.963
REMARK INTER + INTRA:          -2.915
REMARK INTER:                  -2.915
REMARK INTRA:                   0.000
REMARK UNBOUND:                 0.000
REMARK SMILES Nc1ncnc2nc[nH]c12
REMARK SMILES IDX 8 1 7 2 6 3 5 4 4 5 3 6 2 7 10 8 9 9 1 11
REMARK H PARENT 9 10 1 12 1 13
REMARK Flexibility Score: inf
ROOT
ATOM      1  C   UNL     1       1.138  -8.002   3.285  1.00  0.00     0.199 A 
ATOM      2  N   UNL     1       2.123  -8.139   2.357  1.00  0.00    -0.217 NA
ATOM      3  C   UNL     1       1.465  -8.684   1.320  1.00  0.00     0.182 A 
ATOM      4  N   UNL     1       1.989  -9.028   0.120  1.00  0.00    -0.215 NA
ATOM      5  C   UNL     1       1.156  -9.573  -0.817  1.00  0.00     0.226 A 
ATOM      6  N   UNL     1      -0.174  -9.763  -0.539  1.00  0.00    -0.217 NA
ATOM      7  C   UNL     1      -0.705  -9.417   0.672  1.00  0.00     0.152 A 
ATOM      8  C   UNL     1       0.156  -8.863   1.614  1.00  0.00     0.127 A 
ATOM      9  N   UNL     1      -0.077  -8.435   2.862  1.00  0.00    -0.340 N 
ATOM     10  H   UNL     1      -0.975  -8.432   3.393  1.00  0.00     0.168 HD
ENDROOT
BRANCH   7  11
ATOM     11  N   UNL     1      -2.094  -9.625   0.938  1.00  0.00    -0.382 N 
ATOM     12  H   UNL     1      -2.692 -10.188   0.296  1.00  0.00     0.158 HD
ATOM     13  H   UNL     1      -2.529  -9.208   1.791  1.00  0.00     0.158 HD
ENDBRANCH   7  11
TORSDOF 1
ENDMDL
MODEL 5
REMARK VINA RESULT:    -2.781      1.739      2.643
REMARK INTER + INTRA:          -2.863
REMARK INTER:                  -2.863
REMARK INTRA:                   0.000
REMARK UNBOUND:                 0.000
REMARK SMILES Nc1ncnc2nc[nH]c12
REMARK SMILES IDX 8 1 7 2 6 3 5 4 4 5 3 6 2 7 10 8 9 9 1 11
REMARK H PARENT 9 10 1 12 1 13
REMARK Flexibility Score: inf
ROOT
ATOM      1  C   UNL     1       1.048 -10.428  -1.697  1.00  0.00     0.199 A 
ATOM      2  N   UNL     1       1.907  -9.408  -1.970  1.00  0.00    -0.217 NA
ATOM      3  C   UNL     1       1.567  -8.495  -1.046  1.00  0.00     0.182 A 
ATOM      4  N   UNL     1       2.124  -7.272  -0.874  1.00  0.00    -0.215 NA
ATOM      5  C   UNL     1       1.641  -6.477   0.127  1.00  0.00     0.226 A 
ATOM      6  N   UNL     1       0.620  -6.914   0.932  1.00  0.00    -0.217 NA
ATOM      7  C   UNL     1       0.057  -8.147   0.761  1.00  0.00     0.152 A 
ATOM      8  C   UNL     1       0.559  -8.944  -0.263  1.00  0.00     0.127 A 
ATOM      9  N   UNL     1       0.211 -10.176  -0.659  1.00  0.00    -0.340 N 
ATOM     10  H   UNL     1      -0.527 -10.802  -0.269  1.00  0.00     0.168 HD
ENDROOT
BRANCH   7  11
ATOM     11  N   UNL     1      -1.006  -8.581   1.612  1.00  0.00    -0.382 N 
ATOM     12  H   UNL     1      -0.815  -9.033   2.533  1.00  0.00     0.158 HD
ATOM     13  H   UNL     1      -1.999  -8.449   1.316  1.00  0.00     0.158 HD
ENDBRANCH   7  11
TORSDOF 1
ENDMDL
MODEL 6
REMARK VINA RESULT:    -2.744      6.273      7.309
REMARK INTER + INTRA:          -2.825
REMARK INTER:                  -2.825
REMARK INTRA:                   0.000
REMARK UNBOUND:                 0.000
REMARK SMILES Nc1ncnc2nc[nH]c12
REMARK SMILES IDX 8 1 7 2 6 3 5 4 4 5 3 6 2 7 10 8 9 9 1 11
REMARK H PARENT 9 10 1 12 1 13
REMARK Flexibility Score: inf
ROOT
ATOM      1  C   UNL     1      -4.587 -15.177   0.127  1.00  0.00     0.199 A 
ATOM      2  N   UNL     1      -3.504 -14.705  -0.548  1.00  0.00    -0.217 NA
ATOM      3  C   UNL     1      -3.946 -13.522  -1.005  1.00  0.00     0.182 A 
ATOM      4  N   UNL     1      -3.250 -12.632  -1.752  1.00  0.00    -0.215 NA
ATOM      5  C   UNL     1      -3.874 -11.474  -2.125  1.00  0.00     0.226 A 
ATOM      6  N   UNL     1      -5.171 -11.230  -1.749  1.00  0.00    -0.217 NA
ATOM      7  C   UNL     1      -5.875 -12.127  -0.997  1.00  0.00     0.152 A 
ATOM      8  C   UNL     1      -5.226 -13.300  -0.625  1.00  0.00     0.127 A 
ATOM      9  N   UNL     1      -5.656 -14.342   0.099  1.00  0.00    -0.340 N 
ATOM     10  H   UNL     1      -6.590 -14.488   0.541  1.00  0.00     0.168 HD
ENDROOT
BRANCH   7  11
ATOM     11  N   UNL     1      -7.225 -11.850  -0.617  1.00  0.00    -0.382 N 
ATOM     12  H   UNL     1      -7.546 -11.962   0.369  1.00  0.00     0.158 HD
ATOM     13  H   UNL     1      -7.913 -11.529  -1.334  1.00  0.00     0.158 HD
ENDBRANCH   7  11
TORSDOF 1
ENDMDL
MODEL 7
REMARK VINA RESULT:    -2.674      1.591      2.217
REMARK INTER + INTRA:          -2.753
REMARK INTER:                  -2.753
REMARK INTRA:                   0.000
REMARK UNBOUND:                 0.000
REMARK SMILES Nc1ncnc2nc[nH]c12
REMARK SMILES IDX 8 1 7 2 6 3 5 4 4 5 3 6 2 7 10 8 9 9 1 11
REMARK H PARENT 9 10 1 12 1 13
REMARK Flexibility Score: inf
ROOT
ATOM      1  C   UNL     1      -1.253  -8.831   1.500  1.00  0.00     0.199 A 
ATOM      2  N   UNL     1      -1.025  -9.866   0.647  1.00  0.00    -0.217 NA
ATOM      3  C   UNL     1       0.024  -9.424  -0.065  1.00  0.00     0.182 A 
ATOM      4  N   UNL     1       0.658 -10.081  -1.066  1.00  0.00    -0.215 NA
ATOM      5  C   UNL     1       1.714  -9.464  -1.676  1.00  0.00     0.226 A 
ATOM      6  N   UNL     1       2.113  -8.213  -1.280  1.00  0.00    -0.217 NA
ATOM      7  C   UNL     1       1.476  -7.548  -0.271  1.00  0.00     0.152 A 
ATOM      8  C   UNL     1       0.403  -8.189   0.340  1.00  0.00     0.127 A 
ATOM      9  N   UNL     1      -0.396  -7.790   1.338  1.00  0.00    -0.340 N 
ATOM     10  H   UNL     1      -0.376  -6.894   1.872  1.00  0.00     0.168 HD
ENDROOT
BRANCH   7  11
ATOM     11  N   UNL     1       1.910  -6.245   0.124  1.00  0.00    -0.382 N 
ATOM     12  H   UNL     1       2.379  -5.601  -0.550  1.00  0.00     0.158 HD
ATOM     13  H   UNL     1       1.761  -5.921   1.105  1.00  0.00     0.158 HD
ENDBRANCH   7  11
TORSDOF 1
ENDMDL
MODEL 8
REMARK VINA RESULT:    -2.636      0.919      3.727
REMARK INTER + INTRA:          -2.713
REMARK INTER:                  -2.713
REMARK INTRA:                   0.000
REMARK UNBOUND:                 0.000
REMARK SMILES Nc1ncnc2nc[nH]c12
REMARK SMILES IDX 8 1 7 2 6 3 5 4 4 5 3 6 2 7 10 8 9 9 1 11
REMARK H PARENT 9 10 1 12 1 13
REMARK Flexibility Score: inf
ROOT
ATOM      1  C   UNL     1       1.999  -8.135   2.448  1.00  0.00     0.199 A 
ATOM      2  N   UNL     1       0.742  -8.255   2.952  1.00  0.00    -0.217 NA
ATOM      3  C   UNL     1       0.070  -8.792   1.920  1.00  0.00     0.182 A 
ATOM      4  N   UNL     1      -1.244  -9.118   1.892  1.00  0.00    -0.215 NA
ATOM      5  C   UNL     1      -1.751  -9.658   0.743  1.00  0.00     0.226 A 
ATOM      6  N   UNL     1      -0.943  -9.859  -0.347  1.00  0.00    -0.217 NA
ATOM      7  C   UNL     1       0.383  -9.530  -0.321  1.00  0.00     0.152 A 
ATOM      8  C   UNL     1       0.884  -8.982   0.855  1.00  0.00     0.127 A 
ATOM      9  N   UNL     1       2.120  -8.571   1.168  1.00  0.00    -0.340 N 
ATOM     10  H   UNL     1       2.979  -8.578   0.576  1.00  0.00     0.168 HD
ENDROOT
BRANCH   7  11
ATOM     11  N   UNL     1       1.205  -9.748  -1.469  1.00  0.00    -0.382 N 
ATOM     12  H   UNL     1       1.781  -8.981  -1.879  1.00  0.00     0.158 HD
ATOM     13  H   UNL     1       1.238 -10.692  -1.916  1.00  0.00     0.158 HD
ENDBRANCH   7  11
TORSDOF 1
ENDMDL
MODEL 9
REMARK VINA RESULT:    -0.476      6.536      7.149
REMARK INTER + INTRA:          -0.490
REMARK INTER:                  -0.490
REMARK INTRA:                   0.000
REMARK UNBOUND:                 0.000
REMARK SMILES Nc1ncnc2nc[nH]c12
REMARK SMILES IDX 8 1 7 2 6 3 5 4 4 5 3 6 2 7 10 8 9 9 1 11
REMARK H PARENT 9 10 1 12 1 13
REMARK Flexibility Score: inf
ROOT
ATOM      1  C   UNL     1      -6.878 -12.125   0.161  1.00  0.00     0.199 A 
ATOM      2  N   UNL     1      -6.273 -11.396  -0.815  1.00  0.00    -0.217 NA
ATOM      3  C   UNL     1      -5.180 -12.129  -1.083  1.00  0.00     0.182 A 
ATOM      4  N   UNL     1      -4.219 -11.846  -1.995  1.00  0.00    -0.215 NA
ATOM      5  C   UNL     1      -3.175 -12.718  -2.125  1.00  0.00     0.226 A 
ATOM      6  N   UNL     1      -3.110 -13.847  -1.348  1.00  0.00    -0.217 NA
ATOM      7  C   UNL     1      -4.077 -14.134  -0.427  1.00  0.00     0.152 A 
ATOM      8  C   UNL     1      -5.134 -13.237  -0.307  1.00  0.00     0.127 A 
ATOM      9  N   UNL     1      -6.207 -13.257   0.494  1.00  0.00    -0.340 N 
ATOM     10  H   UNL     1      -6.473 -13.968   1.210  1.00  0.00     0.168 HD
ENDROOT
BRANCH   7  11
ATOM     11  N   UNL     1      -3.988 -15.317   0.370  1.00  0.00    -0.382 N 
ATOM     12  H   UNL     1      -4.282 -16.246  -0.001  1.00  0.00     0.158 HD
ATOM     13  H   UNL     1      -3.623 -15.261   1.347  1.00  0.00     0.158 HD
ENDBRANCH   7  11
TORSDOF 1
ENDMDL
