MODEL 1
REMARK VINA RESULT:    -4.577      0.000      0.000
REMARK INTER + INTRA:          -7.725
REMARK INTER:                  -6.584
REMARK INTRA:                  -1.141
REMARK UNBOUND:                -1.141
REMARK SMILES CC(C)=CCCC(C)=CCCC(C)=CCO
REMARK SMILES IDX 10 1 9 2 7 3 8 4 6 5 5 6 4 7 1 8 2 9 3 10 11 11 12 12 14 13
REMARK SMILES IDX 13 14 15 15 16 16
REMARK H PARENT 16 17
REMARK Flexibility Score: inf
ROOT
ATOM      1  C   UNL     1      -1.496  18.870  14.693  1.00  0.00     0.032 C 
ENDROOT
BRANCH   1   2
ATOM      2  C   UNL     1      -1.038  17.737  13.810  1.00  0.00    -0.028 C 
ATOM      3  C   UNL     1      -0.308  17.897  12.682  1.00  0.00    -0.077 C 
ATOM      4  C   UNL     1       0.193  19.252  12.241  1.00  0.00     0.039 C 
BRANCH   3   5
ATOM      5  C   UNL     1       0.022  16.681  11.840  1.00  0.00     0.034 C 
BRANCH   5   6
ATOM      6  C   UNL     1      -1.170  16.242  10.978  1.00  0.00     0.032 C 
BRANCH   6   7
ATOM      7  C   UNL     1      -1.133  16.873   9.604  1.00  0.00    -0.028 C 
ATOM      8  C   UNL     1      -2.865  18.595  10.160  1.00  0.00     0.039 C 
ATOM      9  C   UNL     1      -1.908  17.908   9.214  1.00  0.00    -0.080 C 
ATOM     10  C   UNL     1      -1.791  18.394   7.792  1.00  0.00     0.039 C 
ENDBRANCH   6   7
ENDBRANCH   5   6
ENDBRANCH   3   5
ENDBRANCH   1   2
BRANCH   1  11
ATOM     11  C   UNL     1      -1.441  18.458  16.168  1.00  0.00     0.034 C 
BRANCH  11  12
ATOM     12  C   UNL     1      -0.237  19.075  16.850  1.00  0.00    -0.075 C 
ATOM     13  C   UNL     1       0.354  18.522  17.933  1.00  0.00    -0.000 C 
ATOM     14  C   UNL     1       0.364  20.326  16.264  1.00  0.00     0.039 C 
BRANCH  13  15
ATOM     15  C   UNL     1      -0.136  17.269  18.606  1.00  0.00     0.183 C 
BRANCH  15  16
ATOM     16  O   UNL     1       0.949  16.427  18.879  1.00  0.00    -0.392 OA
ATOM     17  H   UNL     1       1.629  16.992  19.329  1.00  0.00     0.210 HD
ENDBRANCH  15  16
ENDBRANCH  13  15
ENDBRANCH  11  12
ENDBRANCH   1  11
TORSDOF 8
ENDMDL
MODEL 2
REMARK VINA RESULT:    -4.544      6.191      9.833
REMARK INTER + INTRA:          -7.677
REMARK INTER:                  -6.886
REMARK INTRA:                  -0.791
REMARK UNBOUND:                -1.141
REMARK SMILES CC(C)=CCCC(C)=CCCC(C)=CCO
REMARK SMILES IDX 10 1 9 2 7 3 8 4 6 5 5 6 4 7 1 8 2 9 3 10 11 11 12 12 14 13
REMARK SMILES IDX 13 14 15 15 16 16
REMARK H PARENT 16 17
REMARK Flexibility Score: inf
ROOT
ATOM      1  C   UNL     1       6.764  19.359  20.884  1.00  0.00     0.032 C 
ENDROOT
BRANCH   1   2
ATOM      2  C   UNL     1       5.369  19.747  21.305  1.00  0.00    -0.028 C 
ATOM      3  C   UNL     1       4.784  20.931  21.010  1.00  0.00    -0.077 C 
ATOM      4  C   UNL     1       5.467  21.962  20.141  1.00  0.00     0.039 C 
BRANCH   3   5
ATOM      5  C   UNL     1       3.405  21.228  21.561  1.00  0.00     0.034 C 
BRANCH   5   6
ATOM      6  C   UNL     1       2.536  21.989  20.549  1.00  0.00     0.032 C 
BRANCH   6   7
ATOM      7  C   UNL     1       1.851  21.052  19.580  1.00  0.00    -0.028 C 
ATOM      8  C   UNL     1       2.316  22.496  17.587  1.00  0.00     0.039 C 
ATOM      9  C   UNL     1       1.718  21.281  18.255  1.00  0.00    -0.080 C 
ATOM     10  C   UNL     1       0.961  20.274  17.428  1.00  0.00     0.039 C 
ENDBRANCH   6   7
ENDBRANCH   5   6
ENDBRANCH   3   5
ENDBRANCH   1   2
BRANCH   1  11
ATOM     11  C   UNL     1       6.831  17.864  20.555  1.00  0.00     0.034 C 
BRANCH  11  12
ATOM     12  C   UNL     1       8.185  17.504  19.977  1.00  0.00    -0.075 C 
ATOM     13  C   UNL     1       8.328  16.764  18.855  1.00  0.00    -0.000 C 
ATOM     14  C   UNL     1       9.423  18.042  20.646  1.00  0.00     0.039 C 
BRANCH  13  15
ATOM     15  C   UNL     1       7.176  16.179  18.084  1.00  0.00     0.183 C 
BRANCH  15  16
ATOM     16  O   UNL     1       6.931  14.872  18.525  1.00  0.00    -0.392 OA
ATOM     17  H   UNL     1       6.071  14.599  18.114  1.00  0.00     0.210 HD
ENDBRANCH  15  16
ENDBRANCH  13  15
ENDBRANCH  11  12
ENDBRANCH   1  11
TORSDOF 8
ENDMDL
MODEL 3
REMARK VINA RESULT:    -4.513      6.850     10.021
REMARK INTER + INTRA:          -7.632
REMARK INTER:                  -6.957
REMARK INTRA:                  -0.675
REMARK UNBOUND:                -1.141
REMARK SMILES CC(C)=CCCC(C)=CCCC(C)=CCO
REMARK SMILES IDX 10 1 9 2 7 3 8 4 6 5 5 6 4 7 1 8 2 9 3 10 11 11 12 12 14 13
REMARK SMILES IDX 13 14 15 15 16 16
REMARK H PARENT 16 17
REMARK Flexibility Score: inf
ROOT
ATOM      1  C   UNL     1       6.583  18.898  21.390  1.00  0.00     0.032 C 
ENDROOT
BRANCH   1   2
ATOM      2  C   UNL     1       5.469  19.896  21.199  1.00  0.00    -0.028 C 
ATOM      3  C   UNL     1       5.656  21.227  21.041  1.00  0.00    -0.077 C 
ATOM      4  C   UNL     1       7.037  21.834  20.957  1.00  0.00     0.039 C 
BRANCH   3   5
ATOM      5  C   UNL     1       4.446  22.133  20.938  1.00  0.00     0.034 C 
BRANCH   5   6
ATOM      6  C   UNL     1       3.399  21.580  19.960  1.00  0.00     0.032 C 
BRANCH   6   7
ATOM      7  C   UNL     1       3.062  22.578  18.875  1.00  0.00    -0.028 C 
ATOM      8  C   UNL     1       1.385  21.076  17.777  1.00  0.00     0.039 C 
ATOM      9  C   UNL     1       2.185  22.354  17.872  1.00  0.00    -0.080 C 
ATOM     10  C   UNL     1       1.995  23.429  16.834  1.00  0.00     0.039 C 
ENDBRANCH   6   7
ENDBRANCH   5   6
ENDBRANCH   3   5
ENDBRANCH   1   2
BRANCH   1  11
ATOM     11  C   UNL     1       6.571  17.857  20.266  1.00  0.00     0.034 C 
BRANCH  11  12
ATOM     12  C   UNL     1       7.983  17.434  19.913  1.00  0.00    -0.075 C 
ATOM     13  C   UNL     1       8.253  16.473  19.003  1.00  0.00    -0.000 C 
ATOM     14  C   UNL     1       9.136  18.155  20.562  1.00  0.00     0.039 C 
BRANCH  13  15
ATOM     15  C   UNL     1       7.196  15.688  18.274  1.00  0.00     0.183 C 
BRANCH  15  16
ATOM     16  O   UNL     1       7.692  14.418  17.953  1.00  0.00    -0.392 OA
ATOM     17  H   UNL     1       6.923  13.796  18.024  1.00  0.00     0.210 HD
ENDBRANCH  15  16
ENDBRANCH  13  15
ENDBRANCH  11  12
ENDBRANCH   1  11
TORSDOF 8
ENDMDL
MODEL 4
REMARK VINA RESULT:    -4.492     10.028     12.695
REMARK INTER + INTRA:          -7.603
REMARK INTER:                  -6.301
REMARK INTRA:                  -1.302
REMARK UNBOUND:                -1.141
REMARK SMILES CC(C)=CCCC(C)=CCCC(C)=CCO
REMARK SMILES IDX 10 1 9 2 7 3 8 4 6 5 5 6 4 7 1 8 2 9 3 10 11 11 12 12 14 13
REMARK SMILES IDX 13 14 15 15 16 16
REMARK H PARENT 16 17
REMARK Flexibility Score: inf
ROOT
ATOM      1  C   UNL     1       6.971  18.807  21.681  1.00  0.00     0.032 C 
ENDROOT
BRANCH   1   2
ATOM      2  C   UNL     1       6.774  20.244  21.268  1.00  0.00    -0.028 C 
ATOM      3  C   UNL     1       7.468  21.287  21.779  1.00  0.00    -0.077 C 
ATOM      4  C   UNL     1       8.586  21.088  22.776  1.00  0.00     0.039 C 
BRANCH   3   5
ATOM      5  C   UNL     1       7.118  22.693  21.335  1.00  0.00     0.034 C 
BRANCH   5   6
ATOM      6  C   UNL     1       7.724  23.027  19.965  1.00  0.00     0.032 C 
BRANCH   6   7
ATOM      7  C   UNL     1       9.112  23.612  20.093  1.00  0.00    -0.028 C 
ATOM      8  C   UNL     1      10.253  21.509  19.352  1.00  0.00     0.039 C 
ATOM      9  C   UNL     1      10.256  22.935  19.851  1.00  0.00    -0.080 C 
ATOM     10  C   UNL     1      11.568  23.641  20.073  1.00  0.00     0.039 C 
ENDBRANCH   6   7
ENDBRANCH   5   6
ENDBRANCH   3   5
ENDBRANCH   1   2
BRANCH   1  11
ATOM     11  C   UNL     1       6.857  17.878  20.467  1.00  0.00     0.034 C 
BRANCH  11  12
ATOM     12  C   UNL     1       8.231  17.455  19.988  1.00  0.00    -0.075 C 
ATOM     13  C   UNL     1       8.421  16.705  18.880  1.00  0.00    -0.000 C 
ATOM     14  C   UNL     1       9.441  17.940  20.743  1.00  0.00     0.039 C 
BRANCH  13  15
ATOM     15  C   UNL     1       7.301  16.170  18.029  1.00  0.00     0.183 C 
BRANCH  15  16
ATOM     16  O   UNL     1       6.928  14.900  18.488  1.00  0.00    -0.392 OA
ATOM     17  H   UNL     1       6.417  14.479  17.749  1.00  0.00     0.210 HD
ENDBRANCH  15  16
ENDBRANCH  13  15
ENDBRANCH  11  12
ENDBRANCH   1  11
TORSDOF 8
ENDMDL
MODEL 5
REMARK VINA RESULT:    -4.414     10.774     12.930
REMARK INTER + INTRA:          -7.490
REMARK INTER:                  -6.506
REMARK INTRA:                  -0.984
REMARK UNBOUND:                -1.141
REMARK SMILES CC(C)=CCCC(C)=CCCC(C)=CCO
REMARK SMILES IDX 10 1 9 2 7 3 8 4 6 5 5 6 4 7 1 8 2 9 3 10 11 11 12 12 14 13
REMARK SMILES IDX 13 14 15 15 16 16
REMARK H PARENT 16 17
REMARK Flexibility Score: inf
ROOT
ATOM      1  C   UNL     1      10.130  17.863  21.204  1.00  0.00     0.032 C 
ENDROOT
BRANCH   1   2
ATOM      2  C   UNL     1       8.644  18.117  21.227  1.00  0.00    -0.028 C 
ATOM      3  C   UNL     1       7.776  17.654  20.298  1.00  0.00    -0.077 C 
ATOM      4  C   UNL     1       8.221  16.750  19.172  1.00  0.00     0.039 C 
BRANCH   3   5
ATOM      5  C   UNL     1       6.316  18.049  20.393  1.00  0.00     0.034 C 
BRANCH   5   6
ATOM      6  C   UNL     1       6.076  19.094  21.491  1.00  0.00     0.032 C 
BRANCH   6   7
ATOM      7  C   UNL     1       5.464  20.360  20.936  1.00  0.00    -0.028 C 
ATOM      8  C   UNL     1       7.557  21.705  21.231  1.00  0.00     0.039 C 
ATOM      9  C   UNL     1       6.106  21.546  20.842  1.00  0.00    -0.080 C 
ATOM     10  C   UNL     1       5.343  22.733  20.315  1.00  0.00     0.039 C 
ENDBRANCH   6   7
ENDBRANCH   5   6
ENDBRANCH   3   5
ENDBRANCH   1   2
BRANCH   1  11
ATOM     11  C   UNL     1      10.563  17.095  22.458  1.00  0.00     0.034 C 
BRANCH  11  12
ATOM     12  C   UNL     1      10.140  15.642  22.368  1.00  0.00    -0.075 C 
ATOM     13  C   UNL     1      10.975  14.661  21.961  1.00  0.00    -0.000 C 
ATOM     14  C   UNL     1       8.748  15.266  22.806  1.00  0.00     0.039 C 
BRANCH  13  15
ATOM     15  C   UNL     1      12.391  14.899  21.511  1.00  0.00     0.183 C 
BRANCH  15  16
ATOM     16  O   UNL     1      13.210  13.860  21.970  1.00  0.00    -0.392 OA
ATOM     17  H   UNL     1      14.106  14.259  22.117  1.00  0.00     0.210 HD
ENDBRANCH  15  16
ENDBRANCH  13  15
ENDBRANCH  11  12
ENDBRANCH   1  11
TORSDOF 8
ENDMDL
MODEL 6
REMARK VINA RESULT:    -4.413      3.144      6.830
REMARK INTER + INTRA:          -7.489
REMARK INTER:                  -6.146
REMARK INTRA:                  -1.343
REMARK UNBOUND:                -1.141
REMARK SMILES CC(C)=CCCC(C)=CCCC(C)=CCO
REMARK SMILES IDX 10 1 9 2 7 3 8 4 6 5 5 6 4 7 1 8 2 9 3 10 11 11 12 12 14 13
REMARK SMILES IDX 13 14 15 15 16 16
REMARK H PARENT 16 17
REMARK Flexibility Score: inf
ROOT
ATOM      1  C   UNL     1      -0.641  19.835  11.166  1.00  0.00     0.032 C 
ENDROOT
BRANCH   1   2
ATOM      2  C   UNL     1      -0.380  20.530  12.478  1.00  0.00    -0.028 C 
ATOM      3  C   UNL     1       0.852  20.800  12.967  1.00  0.00    -0.077 C 
ATOM      4  C   UNL     1       2.106  20.493  12.181  1.00  0.00     0.039 C 
BRANCH   3   5
ATOM      5  C   UNL     1       0.978  21.434  14.337  1.00  0.00     0.034 C 
BRANCH   5   6
ATOM      6  C   UNL     1      -0.263  21.176  15.203  1.00  0.00     0.032 C 
BRANCH   6   7
ATOM      7  C   UNL     1       0.023  20.198  16.319  1.00  0.00    -0.028 C 
ATOM      8  C   UNL     1      -1.357  18.371  15.303  1.00  0.00     0.039 C 
ATOM      9  C   UNL     1      -0.484  18.948  16.393  1.00  0.00    -0.080 C 
ATOM     10  C   UNL     1      -0.147  18.108  17.598  1.00  0.00     0.039 C 
ENDBRANCH   6   7
ENDBRANCH   5   6
ENDBRANCH   3   5
ENDBRANCH   1   2
BRANCH   1  11
ATOM     11  C   UNL     1      -1.568  18.631  11.369  1.00  0.00     0.034 C 
BRANCH  11  12
ATOM     12  C   UNL     1      -0.857  17.342  11.010  1.00  0.00    -0.075 C 
ATOM     13  C   UNL     1      -0.983  16.749   9.803  1.00  0.00    -0.000 C 
ATOM     14  C   UNL     1       0.076  16.726  12.021  1.00  0.00     0.039 C 
BRANCH  13  15
ATOM     15  C   UNL     1      -1.870  17.267   8.703  1.00  0.00     0.183 C 
BRANCH  15  16
ATOM     16  O   UNL     1      -1.084  17.863   7.709  1.00  0.00    -0.392 OA
ATOM     17  H   UNL     1      -0.542  18.558   8.165  1.00  0.00     0.210 HD
ENDBRANCH  15  16
ENDBRANCH  13  15
ENDBRANCH  11  12
ENDBRANCH   1  11
TORSDOF 8
ENDMDL
MODEL 7
REMARK VINA RESULT:    -4.412     10.948     14.558
REMARK INTER + INTRA:          -7.488
REMARK INTER:                  -6.300
REMARK INTRA:                  -1.187
REMARK UNBOUND:                -1.141
REMARK SMILES CC(C)=CCCC(C)=CCCC(C)=CCO
REMARK SMILES IDX 10 1 9 2 7 3 8 4 6 5 5 6 4 7 1 8 2 9 3 10 11 11 12 12 14 13
REMARK SMILES IDX 13 14 15 15 16 16
REMARK H PARENT 16 17
REMARK Flexibility Score: inf
ROOT
ATOM      1  C   UNL     1       8.670  17.758  22.486  1.00  0.00     0.032 C 
ENDROOT
BRANCH   1   2
ATOM      2  C   UNL     1      10.174  17.818  22.579  1.00  0.00    -0.028 C 
ATOM      3  C   UNL     1      10.954  18.619  21.816  1.00  0.00    -0.077 C 
ATOM      4  C   UNL     1      10.365  19.606  20.835  1.00  0.00     0.039 C 
BRANCH   3   5
ATOM      5  C   UNL     1      12.460  18.526  21.953  1.00  0.00     0.034 C 
BRANCH   5   6
ATOM      6  C   UNL     1      12.878  17.435  22.950  1.00  0.00     0.032 C 
BRANCH   6   7
ATOM      7  C   UNL     1      13.820  16.433  22.323  1.00  0.00    -0.028 C 
ATOM      8  C   UNL     1      11.994  14.822  21.740  1.00  0.00     0.039 C 
ATOM      9  C   UNL     1      13.443  15.244  21.804  1.00  0.00    -0.080 C 
ATOM     10  C   UNL     1      14.509  14.329  21.261  1.00  0.00     0.039 C 
ENDBRANCH   6   7
ENDBRANCH   5   6
ENDBRANCH   3   5
ENDBRANCH   1   2
BRANCH   1  11
ATOM     11  C   UNL     1       8.238  16.782  21.386  1.00  0.00     0.034 C 
BRANCH  11  12
ATOM     12  C   UNL     1       7.276  17.451  20.425  1.00  0.00    -0.075 C 
ATOM     13  C   UNL     1       7.110  17.038  19.149  1.00  0.00    -0.000 C 
ATOM     14  C   UNL     1       6.426  18.589  20.928  1.00  0.00     0.039 C 
BRANCH  13  15
ATOM     15  C   UNL     1       7.885  15.907  18.528  1.00  0.00     0.183 C 
BRANCH  15  16
ATOM     16  O   UNL     1       7.057  14.784  18.402  1.00  0.00    -0.392 OA
ATOM     17  H   UNL     1       6.357  14.879  19.099  1.00  0.00     0.210 HD
ENDBRANCH  15  16
ENDBRANCH  13  15
ENDBRANCH  11  12
ENDBRANCH   1  11
TORSDOF 8
ENDMDL
MODEL 8
REMARK VINA RESULT:    -4.358      5.474      7.451
REMARK INTER + INTRA:          -7.410
REMARK INTER:                  -6.486
REMARK INTRA:                  -0.924
REMARK UNBOUND:                -1.141
REMARK SMILES CC(C)=CCCC(C)=CCCC(C)=CCO
REMARK SMILES IDX 10 1 9 2 7 3 8 4 6 5 5 6 4 7 1 8 2 9 3 10 11 11 12 12 14 13
REMARK SMILES IDX 13 14 15 15 16 16
REMARK H PARENT 16 17
REMARK Flexibility Score: inf
ROOT
ATOM      1  C   UNL     1       1.245  22.821  10.496  1.00  0.00     0.032 C 
ENDROOT
BRANCH   1   2
ATOM      2  C   UNL     1       0.315  21.947  11.297  1.00  0.00    -0.028 C 
ATOM      3  C   UNL     1       0.714  20.895  12.049  1.00  0.00    -0.077 C 
ATOM      4  C   UNL     1       2.174  20.546  12.220  1.00  0.00     0.039 C 
BRANCH   3   5
ATOM      5  C   UNL     1      -0.332  20.047  12.744  1.00  0.00     0.034 C 
BRANCH   5   6
ATOM      6  C   UNL     1      -1.545  19.781  11.841  1.00  0.00     0.032 C 
BRANCH   6   7
ATOM      7  C   UNL     1      -1.370  18.523  11.021  1.00  0.00    -0.028 C 
ATOM      8  C   UNL     1      -1.758  19.688   8.837  1.00  0.00     0.039 C 
ATOM      9  C   UNL     1      -1.492  18.460   9.677  1.00  0.00    -0.080 C 
ATOM     10  C   UNL     1      -1.340  17.120   9.007  1.00  0.00     0.039 C 
ENDBRANCH   6   7
ENDBRANCH   5   6
ENDBRANCH   3   5
ENDBRANCH   1   2
BRANCH   1  11
ATOM     11  C   UNL     1       0.788  24.283  10.548  1.00  0.00     0.034 C 
BRANCH  11  12
ATOM     12  C   UNL     1       1.256  25.034   9.318  1.00  0.00    -0.075 C 
ATOM     13  C   UNL     1       0.491  25.178   8.213  1.00  0.00    -0.000 C 
ATOM     14  C   UNL     1       2.608  25.699   9.348  1.00  0.00     0.039 C 
BRANCH  13  15
ATOM     15  C   UNL     1      -0.880  24.577   8.060  1.00  0.00     0.183 C 
BRANCH  15  16
ATOM     16  O   UNL     1      -1.791  25.575   7.691  1.00  0.00    -0.392 OA
ATOM     17  H   UNL     1      -1.849  26.195   8.463  1.00  0.00     0.210 HD
ENDBRANCH  15  16
ENDBRANCH  13  15
ENDBRANCH  11  12
ENDBRANCH   1  11
TORSDOF 8
ENDMDL
