MODEL 1
REMARK VINA RESULT:    -4.842      0.000      0.000
REMARK INTER + INTRA:          -5.822
REMARK INTER:                  -5.691
REMARK INTRA:                  -0.131
REMARK UNBOUND:                -0.131
REMARK SMILES O=C([O-])C=Cc1ccc(O)c(O)c1
REMARK SMILES IDX 6 1 13 2 7 3 11 4 8 5 9 6 5 7 4 8 2 9 1 10 3 11 12 12 10 14
REMARK H PARENT 12 13 10 15
REMARK Flexibility Score: inf
ROOT
ATOM      1  C   UNL     1     -24.578 -13.544   1.883  1.00  0.00    -0.022 A 
ATOM      2  C   UNL     1     -25.580 -14.275   2.544  1.00  0.00     0.058 A 
ATOM      3  C   UNL     1     -24.793 -13.152   0.546  1.00  0.00     0.012 A 
ATOM      4  C   UNL     1     -26.763 -14.631   1.880  1.00  0.00     0.157 A 
ATOM      5  C   UNL     1     -25.972 -13.508  -0.114  1.00  0.00     0.051 A 
ATOM      6  C   UNL     1     -26.958 -14.249   0.549  1.00  0.00     0.157 A 
ENDROOT
BRANCH   1   7
ATOM      7  C   UNL     1     -23.350 -13.182   2.633  1.00  0.00     0.010 C 
ATOM      8  C   UNL     1     -23.353 -12.754   3.904  1.00  0.00     0.025 C 
BRANCH   8   9
ATOM      9  C   UNL     1     -22.115 -12.392   4.614  1.00  0.00     0.064 C 
ATOM     10  O   UNL     1     -21.064 -12.096   3.984  1.00  0.00    -0.545 OA
ATOM     11  O   UNL     1     -22.104 -12.377   6.002  1.00  0.00    -0.545 OA
ENDBRANCH   8   9
ENDBRANCH   1   7
BRANCH   4  12
ATOM     12  O   UNL     1     -27.747 -15.365   2.540  1.00  0.00    -0.504 OA
ATOM     13  H   UNL     1     -27.803 -16.373   2.457  1.00  0.00     0.293 HD
ENDBRANCH   4  12
BRANCH   6  14
ATOM     14  O   UNL     1     -28.134 -14.607  -0.109  1.00  0.00    -0.504 OA
ATOM     15  H   UNL     1     -29.043 -14.447   0.308  1.00  0.00     0.293 HD
ENDBRANCH   6  14
TORSDOF 4
ENDMDL
MODEL 2
REMARK VINA RESULT:    -4.772     15.671     17.596
REMARK INTER + INTRA:          -5.740
REMARK INTER:                  -5.607
REMARK INTRA:                  -0.133
REMARK UNBOUND:                -0.131
REMARK SMILES O=C([O-])C=Cc1ccc(O)c(O)c1
REMARK SMILES IDX 6 1 13 2 7 3 11 4 8 5 9 6 5 7 4 8 2 9 1 10 3 11 12 12 10 14
REMARK H PARENT 12 13 10 15
REMARK Flexibility Score: inf
ROOT
ATOM      1  C   UNL     1     -15.785 -21.152  14.256  1.00  0.00    -0.022 A 
ATOM      2  C   UNL     1     -14.957 -21.373  15.369  1.00  0.00     0.058 A 
ATOM      3  C   UNL     1     -16.358 -19.876  14.078  1.00  0.00     0.012 A 
ATOM      4  C   UNL     1     -14.722 -20.352  16.302  1.00  0.00     0.157 A 
ATOM      5  C   UNL     1     -16.122 -18.860  15.007  1.00  0.00     0.051 A 
ATOM      6  C   UNL     1     -15.308 -19.094  16.121  1.00  0.00     0.157 A 
ENDROOT
BRANCH   1   7
ATOM      7  C   UNL     1     -15.992 -22.262  13.293  1.00  0.00     0.010 C 
ATOM      8  C   UNL     1     -17.117 -22.432  12.583  1.00  0.00     0.025 C 
BRANCH   8   9
ATOM      9  C   UNL     1     -17.292 -23.553  11.645  1.00  0.00     0.064 C 
ATOM     10  O   UNL     1     -16.813 -23.511  10.481  1.00  0.00    -0.545 OA
ATOM     11  O   UNL     1     -17.998 -24.678  12.050  1.00  0.00    -0.545 OA
ENDBRANCH   8   9
ENDBRANCH   1   7
BRANCH   4  12
ATOM     12  O   UNL     1     -13.907 -20.582  17.409  1.00  0.00    -0.504 OA
ATOM     13  H   UNL     1     -12.915 -20.382  17.388  1.00  0.00     0.293 HD
ENDBRANCH   4  12
BRANCH   6  14
ATOM     14  O   UNL     1     -15.074 -18.082  17.051  1.00  0.00    -0.504 OA
ATOM     15  H   UNL     1     -15.025 -17.109  16.773  1.00  0.00     0.293 HD
ENDBRANCH   6  14
TORSDOF 4
ENDMDL
MODEL 3
REMARK VINA RESULT:    -4.612     15.608     17.493
REMARK INTER + INTRA:          -5.552
REMARK INTER:                  -5.424
REMARK INTRA:                  -0.128
REMARK UNBOUND:                -0.131
REMARK SMILES O=C([O-])C=Cc1ccc(O)c(O)c1
REMARK SMILES IDX 6 1 13 2 7 3 11 4 8 5 9 6 5 7 4 8 2 9 1 10 3 11 12 12 10 14
REMARK H PARENT 12 13 10 15
REMARK Flexibility Score: inf
ROOT
ATOM      1  C   UNL     1     -15.374 -21.439  14.155  1.00  0.00    -0.022 A 
ATOM      2  C   UNL     1     -15.433 -20.129  13.651  1.00  0.00     0.058 A 
ATOM      3  C   UNL     1     -14.848 -21.646  15.447  1.00  0.00     0.012 A 
ATOM      4  C   UNL     1     -14.955 -19.048  14.405  1.00  0.00     0.157 A 
ATOM      5  C   UNL     1     -14.373 -20.568  16.198  1.00  0.00     0.051 A 
ATOM      6  C   UNL     1     -14.423 -19.269  15.680  1.00  0.00     0.157 A 
ENDROOT
BRANCH   1   7
ATOM      7  C   UNL     1     -15.903 -22.547  13.321  1.00  0.00     0.010 C 
ATOM      8  C   UNL     1     -17.070 -22.492  12.663  1.00  0.00     0.025 C 
BRANCH   8   9
ATOM      9  C   UNL     1     -17.570 -23.616  11.854  1.00  0.00     0.064 C 
ATOM     10  O   UNL     1     -17.142 -23.820  10.687  1.00  0.00    -0.545 OA
ATOM     11  O   UNL     1     -18.530 -24.466  12.386  1.00  0.00    -0.545 OA
ENDBRANCH   8   9
ENDBRANCH   1   7
BRANCH   4  12
ATOM     12  O   UNL     1     -15.008 -17.753  13.893  1.00  0.00    -0.504 OA
ATOM     13  H   UNL     1     -15.843 -17.392  13.447  1.00  0.00     0.293 HD
ENDBRANCH   4  12
BRANCH   6  14
ATOM     14  O   UNL     1     -13.947 -18.192  16.427  1.00  0.00    -0.504 OA
ATOM     15  H   UNL     1     -14.568 -17.622  16.989  1.00  0.00     0.293 HD
ENDBRANCH   6  14
TORSDOF 4
ENDMDL
MODEL 4
REMARK VINA RESULT:    -4.597      2.338      3.038
REMARK INTER + INTRA:          -5.534
REMARK INTER:                  -5.397
REMARK INTRA:                  -0.137
REMARK UNBOUND:                -0.131
REMARK SMILES O=C([O-])C=Cc1ccc(O)c(O)c1
REMARK SMILES IDX 6 1 13 2 7 3 11 4 8 5 9 6 5 7 4 8 2 9 1 10 3 11 12 12 10 14
REMARK H PARENT 12 13 10 15
REMARK Flexibility Score: inf
ROOT
ATOM      1  C   UNL     1     -24.462 -13.539   1.140  1.00  0.00    -0.022 A 
ATOM      2  C   UNL     1     -25.730 -13.405   0.549  1.00  0.00     0.058 A 
ATOM      3  C   UNL     1     -24.302 -14.446   2.206  1.00  0.00     0.012 A 
ATOM      4  C   UNL     1     -26.825 -14.139   1.027  1.00  0.00     0.157 A 
ATOM      5  C   UNL     1     -25.393 -15.178   2.681  1.00  0.00     0.051 A 
ATOM      6  C   UNL     1     -26.656 -15.025   2.096  1.00  0.00     0.157 A 
ENDROOT
BRANCH   1   7
ATOM      7  C   UNL     1     -23.334 -12.747   0.589  1.00  0.00     0.010 C 
ATOM      8  C   UNL     1     -22.214 -12.471   1.272  1.00  0.00     0.025 C 
BRANCH   8   9
ATOM      9  C   UNL     1     -21.119 -11.671   0.697  1.00  0.00     0.064 C 
ATOM     10  O   UNL     1     -21.322 -10.507   0.261  1.00  0.00    -0.545 OA
ATOM     11  O   UNL     1     -19.841 -12.210   0.634  1.00  0.00    -0.545 OA
ENDBRANCH   8   9
ENDBRANCH   1   7
BRANCH   4  12
ATOM     12  O   UNL     1     -28.081 -13.992   0.443  1.00  0.00    -0.504 OA
ATOM     13  H   UNL     1     -28.575 -14.779   0.040  1.00  0.00     0.293 HD
ENDBRANCH   4  12
BRANCH   6  14
ATOM     14  O   UNL     1     -27.747 -15.753   2.571  1.00  0.00    -0.504 OA
ATOM     15  H   UNL     1     -28.289 -16.352   1.960  1.00  0.00     0.293 HD
ENDBRANCH   6  14
TORSDOF 4
ENDMDL
MODEL 5
REMARK VINA RESULT:    -4.415      9.917     12.107
REMARK INTER + INTRA:          -5.320
REMARK INTER:                  -5.194
REMARK INTRA:                  -0.126
REMARK UNBOUND:                -0.131
REMARK SMILES O=C([O-])C=Cc1ccc(O)c(O)c1
REMARK SMILES IDX 6 1 13 2 7 3 11 4 8 5 9 6 5 7 4 8 2 9 1 10 3 11 12 12 10 14
REMARK H PARENT 12 13 10 15
REMARK Flexibility Score: inf
ROOT
ATOM      1  C   UNL     1     -20.983 -18.368  12.398  1.00  0.00    -0.022 A 
ATOM      2  C   UNL     1     -21.340 -17.137  12.974  1.00  0.00     0.058 A 
ATOM      3  C   UNL     1     -21.635 -18.782  11.219  1.00  0.00     0.012 A 
ATOM      4  C   UNL     1     -22.344 -16.343  12.401  1.00  0.00     0.157 A 
ATOM      5  C   UNL     1     -22.635 -17.989  10.650  1.00  0.00     0.051 A 
ATOM      6  C   UNL     1     -22.994 -16.771  11.239  1.00  0.00     0.157 A 
ENDROOT
BRANCH   1   7
ATOM      7  C   UNL     1     -19.906 -19.165  13.037  1.00  0.00     0.010 C 
ATOM      8  C   UNL     1     -18.635 -18.751  13.141  1.00  0.00     0.025 C 
BRANCH   8   9
ATOM      9  C   UNL     1     -17.589 -19.574  13.771  1.00  0.00     0.064 C 
ATOM     10  O   UNL     1     -17.255 -20.688  13.286  1.00  0.00    -0.545 OA
ATOM     11  O   UNL     1     -16.960 -19.116  14.921  1.00  0.00    -0.545 OA
ENDBRANCH   8   9
ENDBRANCH   1   7
BRANCH   4  12
ATOM     12  O   UNL     1     -22.699 -15.128  12.984  1.00  0.00    -0.504 OA
ATOM     13  H   UNL     1     -22.499 -14.244  12.532  1.00  0.00     0.293 HD
ENDBRANCH   4  12
BRANCH   6  14
ATOM     14  O   UNL     1     -23.993 -15.980  10.673  1.00  0.00    -0.504 OA
ATOM     15  H   UNL     1     -24.924 -15.939  11.070  1.00  0.00     0.293 HD
ENDBRANCH   6  14
TORSDOF 4
ENDMDL
MODEL 6
REMARK VINA RESULT:    -4.337      9.837     13.109
REMARK INTER + INTRA:          -5.229
REMARK INTER:                  -5.101
REMARK INTRA:                  -0.128
REMARK UNBOUND:                -0.131
REMARK SMILES O=C([O-])C=Cc1ccc(O)c(O)c1
REMARK SMILES IDX 6 1 13 2 7 3 11 4 8 5 9 6 5 7 4 8 2 9 1 10 3 11 12 12 10 14
REMARK H PARENT 12 13 10 15
REMARK Flexibility Score: inf
ROOT
ATOM      1  C   UNL     1     -18.673 -16.186  11.961  1.00  0.00    -0.022 A 
ATOM      2  C   UNL     1     -18.260 -15.729  13.224  1.00  0.00     0.058 A 
ATOM      3  C   UNL     1     -17.890 -17.153  11.299  1.00  0.00     0.012 A 
ATOM      4  C   UNL     1     -17.077 -16.205  13.807  1.00  0.00     0.157 A 
ATOM      5  C   UNL     1     -16.712 -17.628  11.882  1.00  0.00     0.051 A 
ATOM      6  C   UNL     1     -16.301 -17.155  13.133  1.00  0.00     0.157 A 
ENDROOT
BRANCH   1   7
ATOM      7  C   UNL     1     -19.939 -15.658  11.393  1.00  0.00     0.010 C 
ATOM      8  C   UNL     1     -21.092 -15.598  12.074  1.00  0.00     0.025 C 
BRANCH   8   9
ATOM      9  C   UNL     1     -22.333 -15.078  11.474  1.00  0.00     0.064 C 
ATOM     10  O   UNL     1     -22.432 -13.873  11.121  1.00  0.00    -0.545 OA
ATOM     11  O   UNL     1     -23.413 -15.932  11.294  1.00  0.00    -0.545 OA
ENDBRANCH   8   9
ENDBRANCH   1   7
BRANCH   4  12
ATOM     12  O   UNL     1     -16.669 -15.739  15.055  1.00  0.00    -0.504 OA
ATOM     13  H   UNL     1     -16.742 -14.760  15.306  1.00  0.00     0.293 HD
ENDBRANCH   4  12
BRANCH   6  14
ATOM     14  O   UNL     1     -15.125 -17.626  13.715  1.00  0.00    -0.504 OA
ATOM     15  H   UNL     1     -14.249 -17.634  13.207  1.00  0.00     0.293 HD
ENDBRANCH   6  14
TORSDOF 4
ENDMDL
MODEL 7
REMARK VINA RESULT:    -4.291     13.120     16.448
REMARK INTER + INTRA:          -5.174
REMARK INTER:                  -5.049
REMARK INTRA:                  -0.125
REMARK UNBOUND:                -0.131
REMARK SMILES O=C([O-])C=Cc1ccc(O)c(O)c1
REMARK SMILES IDX 6 1 13 2 7 3 11 4 8 5 9 6 5 7 4 8 2 9 1 10 3 11 12 12 10 14
REMARK H PARENT 12 13 10 15
REMARK Flexibility Score: inf
ROOT
ATOM      1  C   UNL     1     -16.859 -19.091  14.367  1.00  0.00    -0.022 A 
ATOM      2  C   UNL     1     -16.178 -20.306  14.177  1.00  0.00     0.058 A 
ATOM      3  C   UNL     1     -16.510 -18.283  15.468  1.00  0.00     0.012 A 
ATOM      4  C   UNL     1     -15.187 -20.721  15.077  1.00  0.00     0.157 A 
ATOM      5  C   UNL     1     -15.521 -18.697  16.364  1.00  0.00     0.051 A 
ATOM      6  C   UNL     1     -14.860 -19.917  16.174  1.00  0.00     0.157 A 
ENDROOT
BRANCH   1   7
ATOM      7  C   UNL     1     -17.891 -18.693  13.379  1.00  0.00     0.010 C 
ATOM      8  C   UNL     1     -19.152 -19.150  13.393  1.00  0.00     0.025 C 
BRANCH   8   9
ATOM      9  C   UNL     1     -20.147 -18.741  12.387  1.00  0.00     0.064 C 
ATOM     10  O   UNL     1     -21.000 -17.849  12.639  1.00  0.00    -0.545 OA
ATOM     11  O   UNL     1     -20.146 -19.350  11.140  1.00  0.00    -0.545 OA
ENDBRANCH   8   9
ENDBRANCH   1   7
BRANCH   4  12
ATOM     12  O   UNL     1     -14.524 -21.933  14.887  1.00  0.00    -0.504 OA
ATOM     13  H   UNL     1     -13.714 -22.005  14.283  1.00  0.00     0.293 HD
ENDBRANCH   4  12
BRANCH   6  14
ATOM     14  O   UNL     1     -13.875 -20.333  17.069  1.00  0.00    -0.504 OA
ATOM     15  H   UNL     1     -14.009 -20.270  18.071  1.00  0.00     0.293 HD
ENDBRANCH   6  14
TORSDOF 4
ENDMDL
MODEL 8
REMARK VINA RESULT:    -4.226      9.264     11.523
REMARK INTER + INTRA:          -5.098
REMARK INTER:                  -4.960
REMARK INTRA:                  -0.139
REMARK UNBOUND:                -0.131
REMARK SMILES O=C([O-])C=Cc1ccc(O)c(O)c1
REMARK SMILES IDX 6 1 13 2 7 3 11 4 8 5 9 6 5 7 4 8 2 9 1 10 3 11 12 12 10 14
REMARK H PARENT 12 13 10 15
REMARK Flexibility Score: inf
ROOT
ATOM      1  C   UNL     1     -21.736 -17.757  11.714  1.00  0.00    -0.022 A 
ATOM      2  C   UNL     1     -21.299 -16.652  12.464  1.00  0.00     0.058 A 
ATOM      3  C   UNL     1     -22.727 -17.561  10.731  1.00  0.00     0.012 A 
ATOM      4  C   UNL     1     -21.855 -15.381  12.259  1.00  0.00     0.157 A 
ATOM      5  C   UNL     1     -23.280 -16.295  10.527  1.00  0.00     0.051 A 
ATOM      6  C   UNL     1     -22.848 -15.203  11.291  1.00  0.00     0.157 A 
ENDROOT
BRANCH   1   7
ATOM      7  C   UNL     1     -21.107 -19.078  11.962  1.00  0.00     0.010 C 
ATOM      8  C   UNL     1     -21.403 -20.186  11.268  1.00  0.00     0.025 C 
BRANCH   8   9
ATOM      9  C   UNL     1     -20.767 -21.484  11.551  1.00  0.00     0.064 C 
ATOM     10  O   UNL     1     -19.523 -21.642  11.425  1.00  0.00    -0.545 OA
ATOM     11  O   UNL     1     -21.551 -22.553  11.962  1.00  0.00    -0.545 OA
ENDBRANCH   8   9
ENDBRANCH   1   7
BRANCH   4  12
ATOM     12  O   UNL     1     -21.423 -14.292  13.015  1.00  0.00    -0.504 OA
ATOM     13  H   UNL     1     -21.904 -13.402  12.985  1.00  0.00     0.293 HD
ENDBRANCH   4  12
BRANCH   6  14
ATOM     14  O   UNL     1     -23.401 -13.939  11.090  1.00  0.00    -0.504 OA
ATOM     15  H   UNL     1     -23.519 -13.554  10.161  1.00  0.00     0.293 HD
ENDBRANCH   6  14
TORSDOF 4
ENDMDL
MODEL 9
REMARK VINA RESULT:    -2.058     13.127     16.479
REMARK INTER + INTRA:          -2.550
REMARK INTER:                  -2.422
REMARK INTRA:                  -0.128
REMARK UNBOUND:                -0.131
REMARK SMILES O=C([O-])C=Cc1ccc(O)c(O)c1
REMARK SMILES IDX 6 1 13 2 7 3 11 4 8 5 9 6 5 7 4 8 2 9 1 10 3 11 12 12 10 14
REMARK H PARENT 12 13 10 15
REMARK Flexibility Score: inf
ROOT
ATOM      1  C   UNL     1     -16.722 -19.636  14.102  1.00  0.00    -0.022 A 
ATOM      2  C   UNL     1     -16.486 -18.695  15.118  1.00  0.00     0.058 A 
ATOM      3  C   UNL     1     -16.005 -20.849  14.120  1.00  0.00     0.012 A 
ATOM      4  C   UNL     1     -15.536 -18.944  16.119  1.00  0.00     0.157 A 
ATOM      5  C   UNL     1     -15.059 -21.097  15.118  1.00  0.00     0.051 A 
ATOM      6  C   UNL     1     -14.820 -20.146  16.117  1.00  0.00     0.157 A 
ENDROOT
BRANCH   1   7
ATOM      7  C   UNL     1     -17.746 -19.328  13.073  1.00  0.00     0.010 C 
ATOM      8  C   UNL     1     -19.044 -19.132  13.348  1.00  0.00     0.025 C 
BRANCH   8   9
ATOM      9  C   UNL     1     -20.034 -18.840  12.299  1.00  0.00     0.064 C 
ATOM     10  O   UNL     1     -19.887 -19.272  11.124  1.00  0.00    -0.545 OA
ATOM     11  O   UNL     1     -21.151 -18.075  12.608  1.00  0.00    -0.545 OA
ENDBRANCH   8   9
ENDBRANCH   1   7
BRANCH   4  12
ATOM     12  O   UNL     1     -15.300 -18.000  17.117  1.00  0.00    -0.504 OA
ATOM     13  H   UNL     1     -16.035 -17.393  17.459  1.00  0.00     0.293 HD
ENDBRANCH   4  12
BRANCH   6  14
ATOM     14  O   UNL     1     -13.875 -20.390  17.113  1.00  0.00    -0.504 OA
ATOM     15  H   UNL     1     -13.930 -21.210  17.705  1.00  0.00     0.293 HD
ENDBRANCH   6  14
TORSDOF 4
ENDMDL
