MODEL 1
REMARK VINA RESULT:    -6.820      0.000      0.000
REMARK INTER + INTRA:          -8.434
REMARK INTER:                  -8.215
REMARK INTRA:                  -0.220
REMARK UNBOUND:                -0.220
REMARK SMILES O=c1c(O)c(-c2ccc(O)c(O)c2)oc2cc(O)cc(O)c12
REMARK SMILES IDX 5 1 3 2 2 3 1 4 22 5 20 6 19 7 17 8 16 9 15 10 14 11 6 12
REMARK SMILES IDX 7 13 8 14 9 15 13 16 11 17 10 18 12 20 4 22 21 24 18 26
REMARK H PARENT 10 19 12 21 4 23 21 25 18 27
REMARK Flexibility Score: inf
ROOT
ATOM      1  C   UNL     1      86.932  73.216  19.090  1.00  0.00     0.180 A 
ATOM      2  C   UNL     1      86.967  72.112  18.220  1.00  0.00     0.208 A 
ATOM      3  C   UNL     1      87.663  72.225  17.006  1.00  0.00     0.238 A 
ATOM      4  O   UNL     1      87.644  71.254  16.206  1.00  0.00    -0.285 OA
ATOM      5  C   UNL     1      88.329  73.432  16.685  1.00  0.00     0.111 A 
ATOM      6  C   UNL     1      89.098  73.643  15.501  1.00  0.00     0.134 A 
ATOM      7  C   UNL     1      89.604  74.919  15.225  1.00  0.00     0.093 A 
ATOM      8  C   UNL     1      89.425  75.975  16.123  1.00  0.00     0.123 A 
ATOM      9  C   UNL     1      88.727  75.763  17.308  1.00  0.00     0.094 A 
ATOM     10  C   UNL     1      88.179  74.510  17.595  1.00  0.00     0.146 A 
ATOM     11  O   UNL     1      87.511  74.355  18.732  1.00  0.00    -0.452 OA
ENDROOT
BRANCH   1  12
ATOM     12  C   UNL     1      86.240  73.166  20.399  1.00  0.00     0.025 A 
ATOM     13  C   UNL     1      84.837  73.163  20.439  1.00  0.00     0.016 A 
ATOM     14  C   UNL     1      84.164  73.137  21.663  1.00  0.00     0.051 A 
ATOM     15  C   UNL     1      84.880  73.127  22.864  1.00  0.00     0.157 A 
ATOM     16  C   UNL     1      86.959  73.177  21.608  1.00  0.00     0.062 A 
ATOM     17  C   UNL     1      86.284  73.152  22.838  1.00  0.00     0.158 A 
BRANCH  15  18
ATOM     18  O   UNL     1      84.181  73.099  24.070  1.00  0.00    -0.504 OA
ATOM     19  H   UNL     1      83.527  73.827  24.331  1.00  0.00     0.293 HD
ENDBRANCH  15  18
BRANCH  17  20
ATOM     20  O   UNL     1      87.005  73.158  24.032  1.00  0.00    -0.504 OA
ATOM     21  H   UNL     1      86.736  72.577  24.817  1.00  0.00     0.293 HD
ENDBRANCH  17  20
ENDBRANCH   1  12
BRANCH   2  22
ATOM     22  O   UNL     1      86.283  70.938  18.546  1.00  0.00    -0.502 OA
ATOM     23  H   UNL     1      86.750  70.043  18.635  1.00  0.00     0.293 HD
ENDBRANCH   2  22
BRANCH   6  24
ATOM     24  O   UNL     1      89.415  72.635  14.586  1.00  0.00    -0.507 OA
ATOM     25  H   UNL     1      90.237  72.627  14.001  1.00  0.00     0.293 HD
ENDBRANCH   6  24
BRANCH   8  26
ATOM     26  O   UNL     1      89.946  77.237  15.848  1.00  0.00    -0.508 OA
ATOM     27  H   UNL     1      90.434  77.432  14.981  1.00  0.00     0.293 HD
ENDBRANCH   8  26
TORSDOF 6
ENDMDL
MODEL 2
REMARK VINA RESULT:    -6.783      0.973      1.610
REMARK INTER + INTRA:          -8.390
REMARK INTER:                  -8.476
REMARK INTRA:                   0.086
REMARK UNBOUND:                -0.220
REMARK SMILES O=c1c(O)c(-c2ccc(O)c(O)c2)oc2cc(O)cc(O)c12
REMARK SMILES IDX 5 1 3 2 2 3 1 4 22 5 20 6 19 7 17 8 16 9 15 10 14 11 6 12
REMARK SMILES IDX 7 13 8 14 9 15 13 16 11 17 10 18 12 20 4 22 21 24 18 26
REMARK H PARENT 10 19 12 21 4 23 21 25 18 27
REMARK Flexibility Score: inf
ROOT
ATOM      1  C   UNL     1      87.733  73.340  19.229  1.00  0.00     0.180 A 
ATOM      2  C   UNL     1      87.673  72.207  18.399  1.00  0.00     0.208 A 
ATOM      3  C   UNL     1      88.021  72.336  17.044  1.00  0.00     0.238 A 
ATOM      4  O   UNL     1      87.913  71.332  16.295  1.00  0.00    -0.285 OA
ATOM      5  C   UNL     1      88.440  73.591  16.542  1.00  0.00     0.111 A 
ATOM      6  C   UNL     1      88.853  73.828  15.196  1.00  0.00     0.134 A 
ATOM      7  C   UNL     1      89.122  75.136  14.776  1.00  0.00     0.093 A 
ATOM      8  C   UNL     1      89.055  76.208  15.670  1.00  0.00     0.123 A 
ATOM      9  C   UNL     1      88.710  75.978  16.999  1.00  0.00     0.094 A 
ATOM     10  C   UNL     1      88.401  74.689  17.439  1.00  0.00     0.146 A 
ATOM     11  O   UNL     1      88.066  74.517  18.713  1.00  0.00    -0.452 OA
ENDROOT
BRANCH   1  12
ATOM     12  C   UNL     1      87.407  73.278  20.672  1.00  0.00     0.025 A 
ATOM     13  C   UNL     1      88.276  73.867  21.603  1.00  0.00     0.016 A 
ATOM     14  C   UNL     1      87.999  73.803  22.971  1.00  0.00     0.051 A 
ATOM     15  C   UNL     1      86.858  73.138  23.431  1.00  0.00     0.157 A 
ATOM     16  C   UNL     1      86.271  72.592  21.137  1.00  0.00     0.062 A 
ATOM     17  C   UNL     1      85.991  72.525  22.510  1.00  0.00     0.158 A 
BRANCH  15  18
ATOM     18  O   UNL     1      86.605  73.092  24.800  1.00  0.00    -0.504 OA
ATOM     19  H   UNL     1      85.864  73.633  25.230  1.00  0.00     0.293 HD
ENDBRANCH  15  18
BRANCH  17  20
ATOM     20  O   UNL     1      84.859  71.847  22.962  1.00  0.00    -0.504 OA
ATOM     21  H   UNL     1      84.057  71.694  22.362  1.00  0.00     0.293 HD
ENDBRANCH  17  20
ENDBRANCH   1  12
BRANCH   2  22
ATOM     22  O   UNL     1      87.236  70.983  18.911  1.00  0.00    -0.502 OA
ATOM     23  H   UNL     1      86.696  70.912  19.766  1.00  0.00     0.293 HD
ENDBRANCH   2  22
BRANCH   6  24
ATOM     24  O   UNL     1      89.042  72.817  14.248  1.00  0.00    -0.507 OA
ATOM     25  H   UNL     1      89.842  72.204  14.212  1.00  0.00     0.293 HD
ENDBRANCH   6  24
BRANCH   8  26
ATOM     26  O   UNL     1      89.339  77.504  15.248  1.00  0.00    -0.508 OA
ATOM     27  H   UNL     1      89.293  77.765  14.270  1.00  0.00     0.293 HD
ENDBRANCH   8  26
TORSDOF 6
ENDMDL
MODEL 3
REMARK VINA RESULT:    -6.413      1.256      6.804
REMARK INTER + INTRA:          -7.945
REMARK INTER:                  -8.062
REMARK INTRA:                   0.117
REMARK UNBOUND:                -0.220
REMARK SMILES O=c1c(O)c(-c2ccc(O)c(O)c2)oc2cc(O)cc(O)c12
REMARK SMILES IDX 5 1 3 2 2 3 1 4 22 5 20 6 19 7 17 8 16 9 15 10 14 11 6 12
REMARK SMILES IDX 7 13 8 14 9 15 13 16 11 17 10 18 12 20 4 22 21 24 18 26
REMARK H PARENT 10 19 12 21 4 23 21 25 18 27
REMARK Flexibility Score: inf
ROOT
ATOM      1  C   UNL     1      87.233  73.454  18.699  1.00  0.00     0.180 A 
ATOM      2  C   UNL     1      86.122  72.626  18.465  1.00  0.00     0.208 A 
ATOM      3  C   UNL     1      85.398  72.131  19.562  1.00  0.00     0.238 A 
ATOM      4  O   UNL     1      84.439  71.346  19.349  1.00  0.00    -0.285 OA
ATOM      5  C   UNL     1      85.785  72.485  20.877  1.00  0.00     0.111 A 
ATOM      6  C   UNL     1      85.101  72.074  22.061  1.00  0.00     0.134 A 
ATOM      7  C   UNL     1      85.648  72.374  23.314  1.00  0.00     0.093 A 
ATOM      8  C   UNL     1      86.819  73.127  23.427  1.00  0.00     0.123 A 
ATOM      9  C   UNL     1      87.462  73.582  22.279  1.00  0.00     0.094 A 
ATOM     10  C   UNL     1      86.960  73.268  21.014  1.00  0.00     0.146 A 
ATOM     11  O   UNL     1      87.610  73.714  19.945  1.00  0.00    -0.452 OA
ENDROOT
BRANCH   1  12
ATOM     12  C   UNL     1      88.030  74.035  17.593  1.00  0.00     0.025 A 
ATOM     13  C   UNL     1      88.385  75.392  17.637  1.00  0.00     0.016 A 
ATOM     14  C   UNL     1      89.119  75.965  16.595  1.00  0.00     0.051 A 
ATOM     15  C   UNL     1      89.497  75.197  15.489  1.00  0.00     0.157 A 
ATOM     16  C   UNL     1      88.393  73.269  16.471  1.00  0.00     0.062 A 
ATOM     17  C   UNL     1      89.128  73.843  15.424  1.00  0.00     0.158 A 
BRANCH  15  18
ATOM     18  O   UNL     1      90.230  75.796  14.467  1.00  0.00    -0.504 OA
ATOM     19  H   UNL     1      89.917  75.786  13.502  1.00  0.00     0.293 HD
ENDBRANCH  15  18
BRANCH  17  20
ATOM     20  O   UNL     1      89.488  73.074  14.317  1.00  0.00    -0.504 OA
ATOM     21  H   UNL     1      88.877  72.978  13.516  1.00  0.00     0.293 HD
ENDBRANCH  17  20
ENDBRANCH   1  12
BRANCH   2  22
ATOM     22  O   UNL     1      85.771  72.272  17.159  1.00  0.00    -0.502 OA
ATOM     23  H   UNL     1      84.823  72.029  16.897  1.00  0.00     0.293 HD
ENDBRANCH   2  22
BRANCH   6  24
ATOM     24  O   UNL     1      83.876  71.398  22.060  1.00  0.00    -0.507 OA
ATOM     25  H   UNL     1      83.703  70.524  21.588  1.00  0.00     0.293 HD
ENDBRANCH   6  24
BRANCH   8  26
ATOM     26  O   UNL     1      87.348  73.435  24.679  1.00  0.00    -0.508 OA
ATOM     27  H   UNL     1      87.335  74.381  25.041  1.00  0.00     0.293 HD
ENDBRANCH   8  26
TORSDOF 6
ENDMDL
MODEL 4
REMARK VINA RESULT:    -6.168      1.797      2.341
REMARK INTER + INTRA:          -7.649
REMARK INTER:                  -8.114
REMARK INTRA:                   0.465
REMARK UNBOUND:                -0.220
REMARK SMILES O=c1c(O)c(-c2ccc(O)c(O)c2)oc2cc(O)cc(O)c12
REMARK SMILES IDX 5 1 3 2 2 3 1 4 22 5 20 6 19 7 17 8 16 9 15 10 14 11 6 12
REMARK SMILES IDX 7 13 8 14 9 15 13 16 11 17 10 18 12 20 4 22 21 24 18 26
REMARK H PARENT 10 19 12 21 4 23 21 25 18 27
REMARK Flexibility Score: inf
ROOT
ATOM      1  C   UNL     1      86.943  74.089  19.128  1.00  0.00     0.180 A 
ATOM      2  C   UNL     1      85.776  73.878  18.373  1.00  0.00     0.208 A 
ATOM      3  C   UNL     1      85.819  74.076  16.983  1.00  0.00     0.238 A 
ATOM      4  O   UNL     1      84.758  73.939  16.321  1.00  0.00    -0.285 OA
ATOM      5  C   UNL     1      87.031  74.466  16.365  1.00  0.00     0.111 A 
ATOM      6  C   UNL     1      87.199  74.656  14.960  1.00  0.00     0.134 A 
ATOM      7  C   UNL     1      88.407  75.169  14.473  1.00  0.00     0.093 A 
ATOM      8  C   UNL     1      89.475  75.437  15.332  1.00  0.00     0.123 A 
ATOM      9  C   UNL     1      89.340  75.199  16.697  1.00  0.00     0.094 A 
ATOM     10  C   UNL     1      88.135  74.721  17.218  1.00  0.00     0.146 A 
ATOM     11  O   UNL     1      88.046  74.518  18.527  1.00  0.00    -0.452 OA
ENDROOT
BRANCH   1  12
ATOM     12  C   UNL     1      86.983  73.876  20.593  1.00  0.00     0.025 A 
ATOM     13  C   UNL     1      88.173  74.123  21.294  1.00  0.00     0.016 A 
ATOM     14  C   UNL     1      88.240  73.909  22.674  1.00  0.00     0.051 A 
ATOM     15  C   UNL     1      87.124  73.434  23.370  1.00  0.00     0.157 A 
ATOM     16  C   UNL     1      85.868  73.379  21.292  1.00  0.00     0.062 A 
ATOM     17  C   UNL     1      85.933  73.162  22.676  1.00  0.00     0.158 A 
BRANCH  15  18
ATOM     18  O   UNL     1      87.219  73.232  24.746  1.00  0.00    -0.504 OA
ATOM     19  H   UNL     1      86.757  72.459  25.211  1.00  0.00     0.293 HD
ENDBRANCH  15  18
BRANCH  17  20
ATOM     20  O   UNL     1      84.821  72.674  23.362  1.00  0.00    -0.504 OA
ATOM     21  H   UNL     1      84.236  71.945  22.972  1.00  0.00     0.293 HD
ENDBRANCH  17  20
ENDBRANCH   1  12
BRANCH   2  22
ATOM     22  O   UNL     1      84.585  73.515  19.007  1.00  0.00    -0.502 OA
ATOM     23  H   UNL     1      83.678  73.831  18.684  1.00  0.00     0.293 HD
ENDBRANCH   2  22
BRANCH   6  24
ATOM     24  O   UNL     1      86.228  74.333  14.007  1.00  0.00    -0.507 OA
ATOM     25  H   UNL     1      86.324  73.606  13.313  1.00  0.00     0.293 HD
ENDBRANCH   6  24
BRANCH   8  26
ATOM     26  O   UNL     1      90.679  75.932  14.837  1.00  0.00    -0.508 OA
ATOM     27  H   UNL     1      90.898  76.921  14.866  1.00  0.00     0.293 HD
ENDBRANCH   8  26
TORSDOF 6
ENDMDL
MODEL 5
REMARK VINA RESULT:    -6.104      3.082      5.990
REMARK INTER + INTRA:          -7.572
REMARK INTER:                  -7.352
REMARK INTRA:                  -0.220
REMARK UNBOUND:                -0.220
REMARK SMILES O=c1c(O)c(-c2ccc(O)c(O)c2)oc2cc(O)cc(O)c12
REMARK SMILES IDX 5 1 3 2 2 3 1 4 22 5 20 6 19 7 17 8 16 9 15 10 14 11 6 12
REMARK SMILES IDX 7 13 8 14 9 15 13 16 11 17 10 18 12 20 4 22 21 24 18 26
REMARK H PARENT 10 19 12 21 4 23 21 25 18 27
REMARK Flexibility Score: inf
ROOT
ATOM      1  C   UNL     1      87.424  70.812  16.439  1.00  0.00     0.180 A 
ATOM      2  C   UNL     1      87.013  71.218  17.721  1.00  0.00     0.208 A 
ATOM      3  C   UNL     1      87.316  72.521  18.151  1.00  0.00     0.238 A 
ATOM      4  O   UNL     1      86.995  72.861  19.319  1.00  0.00    -0.285 OA
ATOM      5  C   UNL     1      88.008  73.404  17.288  1.00  0.00     0.111 A 
ATOM      6  C   UNL     1      88.331  74.758  17.605  1.00  0.00     0.134 A 
ATOM      7  C   UNL     1      89.133  75.499  16.729  1.00  0.00     0.093 A 
ATOM      8  C   UNL     1      89.569  74.957  15.517  1.00  0.00     0.123 A 
ATOM      9  C   UNL     1      89.209  73.657  15.173  1.00  0.00     0.094 A 
ATOM     10  C   UNL     1      88.440  72.880  16.043  1.00  0.00     0.146 A 
ATOM     11  O   UNL     1      88.129  71.641  15.679  1.00  0.00    -0.452 OA
ENDROOT
BRANCH   1  12
ATOM     12  C   UNL     1      87.120  69.464  15.905  1.00  0.00     0.025 A 
ATOM     13  C   UNL     1      85.795  69.130  15.585  1.00  0.00     0.016 A 
ATOM     14  C   UNL     1      85.483  67.858  15.099  1.00  0.00     0.051 A 
ATOM     15  C   UNL     1      86.485  66.896  14.939  1.00  0.00     0.157 A 
ATOM     16  C   UNL     1      88.124  68.489  15.763  1.00  0.00     0.062 A 
ATOM     17  C   UNL     1      87.812  67.210  15.277  1.00  0.00     0.158 A 
BRANCH  15  18
ATOM     18  O   UNL     1      86.144  65.636  14.451  1.00  0.00    -0.504 OA
ATOM     19  H   UNL     1      85.202  65.410  14.154  1.00  0.00     0.293 HD
ENDBRANCH  15  18
BRANCH  17  20
ATOM     20  O   UNL     1      88.815  66.252  15.135  1.00  0.00    -0.504 OA
ATOM     21  H   UNL     1      88.631  65.266  15.278  1.00  0.00     0.293 HD
ENDBRANCH  17  20
ENDBRANCH   1  12
BRANCH   2  22
ATOM     22  O   UNL     1      86.350  70.322  18.564  1.00  0.00    -0.502 OA
ATOM     23  H   UNL     1      86.552  70.257  19.554  1.00  0.00     0.293 HD
ENDBRANCH   2  22
BRANCH   6  24
ATOM     24  O   UNL     1      87.870  75.425  18.745  1.00  0.00    -0.507 OA
ATOM     25  H   UNL     1      87.347  76.287  18.733  1.00  0.00     0.293 HD
ENDBRANCH   6  24
BRANCH   8  26
ATOM     26  O   UNL     1      90.353  75.707  14.644  1.00  0.00    -0.508 OA
ATOM     27  H   UNL     1      91.360  75.757  14.745  1.00  0.00     0.293 HD
ENDBRANCH   8  26
TORSDOF 6
ENDMDL
MODEL 6
REMARK VINA RESULT:    -5.967      3.242      6.528
REMARK INTER + INTRA:          -7.408
REMARK INTER:                  -7.082
REMARK INTRA:                  -0.325
REMARK UNBOUND:                -0.220
REMARK SMILES O=c1c(O)c(-c2ccc(O)c(O)c2)oc2cc(O)cc(O)c12
REMARK SMILES IDX 5 1 3 2 2 3 1 4 22 5 20 6 19 7 17 8 16 9 15 10 14 11 6 12
REMARK SMILES IDX 7 13 8 14 9 15 13 16 11 17 10 18 12 20 4 22 21 24 18 26
REMARK H PARENT 10 19 12 21 4 23 21 25 18 27
REMARK Flexibility Score: inf
ROOT
ATOM      1  C   UNL     1      87.201  70.641  16.723  1.00  0.00     0.180 A 
ATOM      2  C   UNL     1      87.477  71.769  15.930  1.00  0.00     0.208 A 
ATOM      3  C   UNL     1      87.741  72.996  16.561  1.00  0.00     0.238 A 
ATOM      4  O   UNL     1      87.933  74.013  15.847  1.00  0.00    -0.285 OA
ATOM      5  C   UNL     1      87.742  73.074  17.975  1.00  0.00     0.111 A 
ATOM      6  C   UNL     1      88.036  74.256  18.720  1.00  0.00     0.134 A 
ATOM      7  C   UNL     1      87.878  74.252  20.111  1.00  0.00     0.093 A 
ATOM      8  C   UNL     1      87.502  73.090  20.790  1.00  0.00     0.123 A 
ATOM      9  C   UNL     1      87.271  71.917  20.077  1.00  0.00     0.094 A 
ATOM     10  C   UNL     1      87.384  71.900  18.684  1.00  0.00     0.146 A 
ATOM     11  O   UNL     1      87.144  70.762  18.043  1.00  0.00    -0.452 OA
ENDROOT
BRANCH   1  12
ATOM     12  C   UNL     1      86.938  69.308  16.131  1.00  0.00     0.025 A 
ATOM     13  C   UNL     1      85.614  68.869  15.980  1.00  0.00     0.016 A 
ATOM     14  C   UNL     1      85.343  67.607  15.444  1.00  0.00     0.051 A 
ATOM     15  C   UNL     1      86.390  66.761  15.064  1.00  0.00     0.157 A 
ATOM     16  C   UNL     1      87.989  68.448  15.769  1.00  0.00     0.062 A 
ATOM     17  C   UNL     1      87.720  67.180  15.232  1.00  0.00     0.158 A 
BRANCH  15  18
ATOM     18  O   UNL     1      86.090  65.509  14.531  1.00  0.00    -0.504 OA
ATOM     19  H   UNL     1      85.320  65.368  13.886  1.00  0.00     0.293 HD
ENDBRANCH  15  18
BRANCH  17  20
ATOM     20  O   UNL     1      88.769  66.336  14.870  1.00  0.00    -0.504 OA
ATOM     21  H   UNL     1      89.125  65.630  15.504  1.00  0.00     0.293 HD
ENDBRANCH  17  20
ENDBRANCH   1  12
BRANCH   2  22
ATOM     22  O   UNL     1      87.449  71.673  14.537  1.00  0.00    -0.502 OA
ATOM     23  H   UNL     1      88.276  71.469  13.988  1.00  0.00     0.293 HD
ENDBRANCH   2  22
BRANCH   6  24
ATOM     24  O   UNL     1      88.508  75.442  18.148  1.00  0.00    -0.507 OA
ATOM     25  H   UNL     1      89.257  76.003  18.526  1.00  0.00     0.293 HD
ENDBRANCH   6  24
BRANCH   8  26
ATOM     26  O   UNL     1      87.364  73.091  22.176  1.00  0.00    -0.508 OA
ATOM     27  H   UNL     1      88.124  72.810  22.785  1.00  0.00     0.293 HD
ENDBRANCH   8  26
TORSDOF 6
ENDMDL
MODEL 7
REMARK VINA RESULT:    -5.955      1.876      2.225
REMARK INTER + INTRA:          -7.393
REMARK INTER:                  -7.100
REMARK INTRA:                  -0.293
REMARK UNBOUND:                -0.220
REMARK SMILES O=c1c(O)c(-c2ccc(O)c(O)c2)oc2cc(O)cc(O)c12
REMARK SMILES IDX 5 1 3 2 2 3 1 4 22 5 20 6 19 7 17 8 16 9 15 10 14 11 6 12
REMARK SMILES IDX 7 13 8 14 9 15 13 16 11 17 10 18 12 20 4 22 21 24 18 26
REMARK H PARENT 10 19 12 21 4 23 21 25 18 27
REMARK Flexibility Score: inf
ROOT
ATOM      1  C   UNL     1      86.653  74.020  18.084  1.00  0.00     0.180 A 
ATOM      2  C   UNL     1      85.903  73.734  16.930  1.00  0.00     0.208 A 
ATOM      3  C   UNL     1      86.347  74.225  15.691  1.00  0.00     0.238 A 
ATOM      4  O   UNL     1      85.644  74.013  14.670  1.00  0.00    -0.285 OA
ATOM      5  C   UNL     1      87.544  74.978  15.620  1.00  0.00     0.111 A 
ATOM      6  C   UNL     1      88.108  75.489  14.413  1.00  0.00     0.134 A 
ATOM      7  C   UNL     1      89.225  76.333  14.476  1.00  0.00     0.093 A 
ATOM      8  C   UNL     1      89.835  76.629  15.697  1.00  0.00     0.123 A 
ATOM      9  C   UNL     1      89.326  76.087  16.874  1.00  0.00     0.094 A 
ATOM     10  C   UNL     1      88.192  75.272  16.847  1.00  0.00     0.146 A 
ATOM     11  O   UNL     1      87.734  74.785  17.994  1.00  0.00    -0.452 OA
ENDROOT
BRANCH   1  12
ATOM     12  C   UNL     1      86.262  73.517  19.422  1.00  0.00     0.025 A 
ATOM     13  C   UNL     1      86.868  72.356  19.926  1.00  0.00     0.016 A 
ATOM     14  C   UNL     1      86.500  71.852  21.177  1.00  0.00     0.051 A 
ATOM     15  C   UNL     1      85.514  72.492  21.935  1.00  0.00     0.157 A 
ATOM     16  C   UNL     1      85.257  74.147  20.176  1.00  0.00     0.062 A 
ATOM     17  C   UNL     1      84.885  73.642  21.431  1.00  0.00     0.158 A 
BRANCH  15  18
ATOM     18  O   UNL     1      85.170  71.968  23.180  1.00  0.00    -0.504 OA
ATOM     19  H   UNL     1      84.468  71.243  23.284  1.00  0.00     0.293 HD
ENDBRANCH  15  18
BRANCH  17  20
ATOM     20  O   UNL     1      83.890  74.277  22.174  1.00  0.00    -0.504 OA
ATOM     21  H   UNL     1      83.271  74.961  21.757  1.00  0.00     0.293 HD
ENDBRANCH  17  20
ENDBRANCH   1  12
BRANCH   2  22
ATOM     22  O   UNL     1      84.713  73.008  17.026  1.00  0.00    -0.502 OA
ATOM     23  H   UNL     1      84.619  72.067  16.661  1.00  0.00     0.293 HD
ENDBRANCH   2  22
BRANCH   6  24
ATOM     24  O   UNL     1      87.632  75.179  13.135  1.00  0.00    -0.507 OA
ATOM     25  H   UNL     1      87.691  75.792  12.335  1.00  0.00     0.293 HD
ENDBRANCH   6  24
BRANCH   8  26
ATOM     26  O   UNL     1      90.955  77.456  15.749  1.00  0.00    -0.508 OA
ATOM     27  H   UNL     1      91.549  77.596  14.940  1.00  0.00     0.293 HD
ENDBRANCH   8  26
TORSDOF 6
ENDMDL
MODEL 8
REMARK VINA RESULT:    -5.811      1.667      6.609
REMARK INTER + INTRA:          -7.220
REMARK INTER:                  -6.916
REMARK INTRA:                  -0.304
REMARK UNBOUND:                -0.220
REMARK SMILES O=c1c(O)c(-c2ccc(O)c(O)c2)oc2cc(O)cc(O)c12
REMARK SMILES IDX 5 1 3 2 2 3 1 4 22 5 20 6 19 7 17 8 16 9 15 10 14 11 6 12
REMARK SMILES IDX 7 13 8 14 9 15 13 16 11 17 10 18 12 20 4 22 21 24 18 26
REMARK H PARENT 10 19 12 21 4 23 21 25 18 27
REMARK Flexibility Score: inf
ROOT
ATOM      1  C   UNL     1      86.945  74.050  17.970  1.00  0.00     0.180 A 
ATOM      2  C   UNL     1      87.477  72.749  17.955  1.00  0.00     0.208 A 
ATOM      3  C   UNL     1      87.141  71.863  18.992  1.00  0.00     0.238 A 
ATOM      4  O   UNL     1      87.664  70.719  19.003  1.00  0.00    -0.285 OA
ATOM      5  C   UNL     1      86.264  72.284  20.020  1.00  0.00     0.111 A 
ATOM      6  C   UNL     1      85.824  71.458  21.098  1.00  0.00     0.134 A 
ATOM      7  C   UNL     1      85.061  72.018  22.130  1.00  0.00     0.093 A 
ATOM      8  C   UNL     1      84.667  73.357  22.090  1.00  0.00     0.123 A 
ATOM      9  C   UNL     1      85.042  74.156  21.013  1.00  0.00     0.094 A 
ATOM     10  C   UNL     1      85.834  73.636  19.986  1.00  0.00     0.146 A 
ATOM     11  O   UNL     1      86.178  74.435  18.983  1.00  0.00    -0.452 OA
ENDROOT
BRANCH   1  12
ATOM     12  C   UNL     1      87.232  75.032  16.899  1.00  0.00     0.025 A 
ATOM     13  C   UNL     1      86.333  75.172  15.831  1.00  0.00     0.016 A 
ATOM     14  C   UNL     1      86.595  76.077  14.799  1.00  0.00     0.051 A 
ATOM     15  C   UNL     1      87.763  76.845  14.811  1.00  0.00     0.157 A 
ATOM     16  C   UNL     1      88.417  75.790  16.899  1.00  0.00     0.062 A 
ATOM     17  C   UNL     1      88.682  76.698  15.864  1.00  0.00     0.158 A 
BRANCH  15  18
ATOM     18  O   UNL     1      87.996  77.742  13.770  1.00  0.00    -0.504 OA
ATOM     19  H   UNL     1      87.511  77.675  12.883  1.00  0.00     0.293 HD
ENDBRANCH  15  18
BRANCH  17  20
ATOM     20  O   UNL     1      89.857  77.450  15.875  1.00  0.00    -0.504 OA
ATOM     21  H   UNL     1      90.729  77.066  16.220  1.00  0.00     0.293 HD
ENDBRANCH  17  20
ENDBRANCH   1  12
BRANCH   2  22
ATOM     22  O   UNL     1      88.359  72.362  16.942  1.00  0.00    -0.502 OA
ATOM     23  H   UNL     1      89.365  72.400  17.053  1.00  0.00     0.293 HD
ENDBRANCH   2  22
BRANCH   6  24
ATOM     24  O   UNL     1      86.083  70.087  21.186  1.00  0.00    -0.507 OA
ATOM     25  H   UNL     1      86.597  69.553  20.501  1.00  0.00     0.293 HD
ENDBRANCH   6  24
BRANCH   8  26
ATOM     26  O   UNL     1      83.894  73.902  23.112  1.00  0.00    -0.508 OA
ATOM     27  H   UNL     1      84.286  74.098  24.026  1.00  0.00     0.293 HD
ENDBRANCH   8  26
TORSDOF 6
ENDMDL
MODEL 9
REMARK VINA RESULT:    -5.708      3.696      8.448
REMARK INTER + INTRA:          -7.096
REMARK INTER:                  -6.955
REMARK INTRA:                  -0.140
REMARK UNBOUND:                -0.220
REMARK SMILES O=c1c(O)c(-c2ccc(O)c(O)c2)oc2cc(O)cc(O)c12
REMARK SMILES IDX 5 1 3 2 2 3 1 4 22 5 20 6 19 7 17 8 16 9 15 10 14 11 6 12
REMARK SMILES IDX 7 13 8 14 9 15 13 16 11 17 10 18 12 20 4 22 21 24 18 26
REMARK H PARENT 10 19 12 21 4 23 21 25 18 27
REMARK Flexibility Score: inf
ROOT
ATOM      1  C   UNL     1      85.338  71.238  22.283  1.00  0.00     0.180 A 
ATOM      2  C   UNL     1      84.939  71.741  23.534  1.00  0.00     0.208 A 
ATOM      3  C   UNL     1      84.583  70.837  24.548  1.00  0.00     0.238 A 
ATOM      4  O   UNL     1      84.174  71.293  25.647  1.00  0.00    -0.285 OA
ATOM      5  C   UNL     1      84.647  69.444  24.304  1.00  0.00     0.111 A 
ATOM      6  C   UNL     1      84.347  68.438  25.272  1.00  0.00     0.134 A 
ATOM      7  C   UNL     1      84.317  67.093  24.883  1.00  0.00     0.093 A 
ATOM      8  C   UNL     1      84.639  66.714  23.578  1.00  0.00     0.123 A 
ATOM      9  C   UNL     1      84.989  67.683  22.642  1.00  0.00     0.094 A 
ATOM     10  C   UNL     1      84.993  69.037  22.991  1.00  0.00     0.146 A 
ATOM     11  O   UNL     1      85.324  69.929  22.065  1.00  0.00    -0.452 OA
ENDROOT
BRANCH   1  12
ATOM     12  C   UNL     1      85.752  72.127  21.172  1.00  0.00     0.025 A 
ATOM     13  C   UNL     1      84.813  72.997  20.597  1.00  0.00     0.016 A 
ATOM     14  C   UNL     1      85.176  73.828  19.535  1.00  0.00     0.051 A 
ATOM     15  C   UNL     1      86.477  73.795  19.023  1.00  0.00     0.157 A 
ATOM     16  C   UNL     1      87.054  72.079  20.643  1.00  0.00     0.062 A 
ATOM     17  C   UNL     1      87.421  72.913  19.576  1.00  0.00     0.158 A 
BRANCH  15  18
ATOM     18  O   UNL     1      86.812  74.638  17.965  1.00  0.00    -0.504 OA
ATOM     19  H   UNL     1      86.425  75.571  17.876  1.00  0.00     0.293 HD
ENDBRANCH  15  18
BRANCH  17  20
ATOM     20  O   UNL     1      88.715  72.862  19.061  1.00  0.00    -0.504 OA
ATOM     21  H   UNL     1      89.404  72.211  19.418  1.00  0.00     0.293 HD
ENDBRANCH  17  20
ENDBRANCH   1  12
BRANCH   2  22
ATOM     22  O   UNL     1      84.862  73.120  23.745  1.00  0.00    -0.502 OA
ATOM     23  H   UNL     1      85.231  73.564  24.577  1.00  0.00     0.293 HD
ENDBRANCH   2  22
BRANCH   6  24
ATOM     24  O   UNL     1      84.102  68.703  26.623  1.00  0.00    -0.507 OA
ATOM     25  H   UNL     1      84.812  68.739  27.339  1.00  0.00     0.293 HD
ENDBRANCH   6  24
BRANCH   8  26
ATOM     26  O   UNL     1      84.622  65.372  23.203  1.00  0.00    -0.508 OA
ATOM     27  H   UNL     1      85.160  65.035  22.414  1.00  0.00     0.293 HD
ENDBRANCH   8  26
TORSDOF 6
ENDMDL
