MODEL 1
REMARK VINA RESULT:    -6.084      0.000      0.000
REMARK INTER + INTRA:         -11.686
REMARK INTER:                  -9.640
REMARK INTRA:                  -2.046
REMARK UNBOUND:                -2.046
REMARK SMILES C[C@H]1O[C@H](O[C@@H]2[C@@H](Oc3cc(O)c4c(c3)O[C@@H](c3ccc(O)cc3)CC4=O)O[C@@H](CO)[C@@H](O)[C@H]2O)[C@H](O)[C@H](O)[C@H]1O
REMARK SMILES IDX 6 1 34 2 32 3 29 4 28 5 7 6 5 7 4 8 1 9 2 10 40 11 3 12
REMARK SMILES IDX 38 13 36 14 41 15 39 17 37 19 35 21 8 23 9 24 10 25 15 26
REMARK SMILES IDX 11 27 14 28 13 29 16 30 26 31 17 32 27 33 25 34 12 35 18 37
REMARK SMILES IDX 19 38 24 39 20 40 23 41 21 42 22 43 33 45 30 47 31 48
REMARK H PARENT 41 16 39 18 37 20 35 22 12 36 22 44 33 46 31 49
REMARK Flexibility Score: inf
ROOT
ATOM      1  C   UNL     1      16.197  49.201  28.273  1.00  0.00     0.221 C 
ATOM      2  C   UNL     1      15.461  47.877  27.966  1.00  0.00     0.181 C 
ATOM      3  C   UNL     1      16.369  46.686  28.312  1.00  0.00     0.177 C 
ATOM      4  C   UNL     1      16.977  46.812  29.729  1.00  0.00     0.179 C 
ATOM      5  O   UNL     1      17.624  48.063  29.943  1.00  0.00    -0.332 OA
ATOM      6  C   UNL     1      16.807  49.199  29.696  1.00  0.00     0.339 C 
ENDROOT
BRANCH   1   7
ATOM      7  O   UNL     1      17.260  49.349  27.340  1.00  0.00    -0.337 OA
BRANCH   7   8
ATOM      8  C   UNL     1      16.871  50.115  26.210  1.00  0.00     0.282 C 
ATOM      9  C   UNL     1      16.283  53.345  27.892  1.00  0.00     0.041 C 
ATOM     10  C   UNL     1      17.082  52.148  27.375  1.00  0.00     0.150 C 
ATOM     11  C   UNL     1      18.299  52.615  26.542  1.00  0.00     0.174 C 
ATOM     12  O   UNL     1      16.220  51.317  26.608  1.00  0.00    -0.344 OA
ATOM     13  C   UNL     1      19.070  51.388  26.014  1.00  0.00     0.179 C 
ATOM     14  C   UNL     1      18.090  50.425  25.313  1.00  0.00     0.202 C 
BRANCH  11  15
ATOM     15  O   UNL     1      17.864  53.412  25.469  1.00  0.00    -0.388 OA
ATOM     16  H   UNL     1      17.641  54.303  25.847  1.00  0.00     0.211 HD
ENDBRANCH  11  15
BRANCH  13  17
ATOM     17  O   UNL     1      19.721  50.748  27.084  1.00  0.00    -0.387 OA
ATOM     18  H   UNL     1      20.379  51.388  27.459  1.00  0.00     0.211 HD
ENDBRANCH  13  17
BRANCH  14  19
ATOM     19  O   UNL     1      18.734  49.253  24.875  1.00  0.00    -0.385 OA
ATOM     20  H   UNL     1      19.625  49.205  25.309  1.00  0.00     0.211 HD
ENDBRANCH  14  19
ENDBRANCH   7   8
ENDBRANCH   1   7
BRANCH   2  21
ATOM     21  O   UNL     1      14.208  47.744  28.603  1.00  0.00    -0.387 OA
ATOM     22  H   UNL     1      13.637  47.096  28.115  1.00  0.00     0.211 HD
ENDBRANCH   2  21
BRANCH   6  23
ATOM     23  O   UNL     1      15.819  49.343  30.720  1.00  0.00    -0.462 OA
BRANCH  23  24
ATOM     24  C   UNL     1      14.994  50.465  30.918  1.00  0.00     0.130 A 
ATOM     25  C   UNL     1      13.595  50.422  30.759  1.00  0.00     0.093 A 
ATOM     26  C   UNL     1      15.601  51.665  31.293  1.00  0.00     0.094 A 
ATOM     27  C   UNL     1      12.814  51.561  31.001  1.00  0.00     0.133 A 
ATOM     28  C   UNL     1      14.833  52.806  31.539  1.00  0.00     0.138 A 
ATOM     29  C   UNL     1      13.433  52.764  31.395  1.00  0.00     0.102 A 
ATOM     30  O   UNL     1      15.468  53.995  31.921  1.00  0.00    -0.484 OA
ATOM     31  C   UNL     1      12.675  54.012  31.636  1.00  0.00     0.174 C 
ATOM     32  C   UNL     1      14.752  55.103  32.472  1.00  0.00     0.211 C 
ATOM     33  O   UNL     1      11.420  54.005  31.718  1.00  0.00    -0.294 OA
ATOM     34  C   UNL     1      13.416  55.313  31.741  1.00  0.00     0.131 C 
BRANCH  27  35
ATOM     35  O   UNL     1      11.429  51.495  30.838  1.00  0.00    -0.507 OA
ATOM     36  H   UNL     1      10.830  51.053  31.526  1.00  0.00     0.293 HD
ENDBRANCH  27  35
BRANCH  32  37
ATOM     37  C   UNL     1      15.601  56.348  32.396  1.00  0.00    -0.007 A 
ATOM     38  C   UNL     1      15.229  57.505  33.104  1.00  0.00     0.011 A 
ATOM     39  C   UNL     1      16.790  56.355  31.647  1.00  0.00     0.011 A 
ATOM     40  C   UNL     1      16.028  58.651  33.056  1.00  0.00     0.046 A 
ATOM     41  C   UNL     1      17.584  57.506  31.598  1.00  0.00     0.046 A 
ATOM     42  C   UNL     1      17.205  58.656  32.302  1.00  0.00     0.115 A 
BRANCH  42  43
ATOM     43  O   UNL     1      17.989  59.807  32.260  1.00  0.00    -0.508 OA
ATOM     44  H   UNL     1      18.728  59.918  31.576  1.00  0.00     0.293 HD
ENDBRANCH  42  43
ENDBRANCH  32  37
ENDBRANCH  23  24
ENDBRANCH   6  23
BRANCH   3  45
ATOM     45  O   UNL     1      15.675  45.472  28.184  1.00  0.00    -0.387 OA
ATOM     46  H   UNL     1      16.281  44.758  28.512  1.00  0.00     0.211 HD
ENDBRANCH   3  45
BRANCH   4  47
ATOM     47  C   UNL     1      16.021  46.428  30.877  1.00  0.00     0.191 C 
BRANCH  47  48
ATOM     48  O   UNL     1      16.641  46.664  32.109  1.00  0.00    -0.394 OA
ATOM     49  H   UNL     1      15.987  46.393  32.804  1.00  0.00     0.210 HD
ENDBRANCH  47  48
ENDBRANCH   4  47
TORSDOF 14
ENDMDL
MODEL 2
REMARK VINA RESULT:    -6.038      2.346      8.824
REMARK INTER + INTRA:         -11.613
REMARK INTER:                 -10.229
REMARK INTRA:                  -1.384
REMARK UNBOUND:                -2.046
REMARK SMILES C[C@H]1O[C@H](O[C@@H]2[C@@H](Oc3cc(O)c4c(c3)O[C@@H](c3ccc(O)cc3)CC4=O)O[C@@H](CO)[C@@H](O)[C@H]2O)[C@H](O)[C@H](O)[C@H]1O
REMARK SMILES IDX 6 1 34 2 32 3 29 4 28 5 7 6 5 7 4 8 1 9 2 10 40 11 3 12
REMARK SMILES IDX 38 13 36 14 41 15 39 17 37 19 35 21 8 23 9 24 10 25 15 26
REMARK SMILES IDX 11 27 14 28 13 29 16 30 26 31 17 32 27 33 25 34 12 35 18 37
REMARK SMILES IDX 19 38 24 39 20 40 23 41 21 42 22 43 33 45 30 47 31 48
REMARK H PARENT 41 16 39 18 37 20 35 22 12 36 22 44 33 46 31 49
REMARK Flexibility Score: inf
ROOT
ATOM      1  C   UNL     1      15.473  55.097  32.316  1.00  0.00     0.221 C 
ATOM      2  C   UNL     1      15.573  54.620  33.783  1.00  0.00     0.181 C 
ATOM      3  C   UNL     1      14.583  55.408  34.654  1.00  0.00     0.177 C 
ATOM      4  C   UNL     1      13.161  55.428  34.043  1.00  0.00     0.179 C 
ATOM      5  O   UNL     1      13.149  55.862  32.687  1.00  0.00    -0.332 OA
ATOM      6  C   UNL     1      14.005  55.125  31.825  1.00  0.00     0.339 C 
ENDROOT
BRANCH   1   7
ATOM      7  O   UNL     1      15.987  56.420  32.239  1.00  0.00    -0.337 OA
BRANCH   7   8
ATOM      8  C   UNL     1      16.759  56.621  31.065  1.00  0.00     0.282 C 
ATOM      9  C   UNL     1      14.070  57.757  28.809  1.00  0.00     0.041 C 
ATOM     10  C   UNL     1      15.032  57.809  29.998  1.00  0.00     0.150 C 
ATOM     11  C   UNL     1      15.798  59.151  30.029  1.00  0.00     0.174 C 
ATOM     12  O   UNL     1      15.924  56.706  29.914  1.00  0.00    -0.344 OA
ATOM     13  C   UNL     1      16.776  59.165  31.221  1.00  0.00     0.179 C 
ATOM     14  C   UNL     1      17.637  57.885  31.197  1.00  0.00     0.202 C 
BRANCH  11  15
ATOM     15  O   UNL     1      16.501  59.326  28.825  1.00  0.00    -0.388 OA
ATOM     16  H   UNL     1      17.468  59.316  29.052  1.00  0.00     0.211 HD
ENDBRANCH  11  15
BRANCH  13  17
ATOM     17  O   UNL     1      16.049  59.255  32.422  1.00  0.00    -0.387 OA
ATOM     18  H   UNL     1      15.854  60.215  32.581  1.00  0.00     0.211 HD
ENDBRANCH  13  17
BRANCH  14  19
ATOM     19  O   UNL     1      18.499  57.815  32.308  1.00  0.00    -0.385 OA
ATOM     20  H   UNL     1      18.872  58.719  32.472  1.00  0.00     0.211 HD
ENDBRANCH  14  19
ENDBRANCH   7   8
ENDBRANCH   1   7
BRANCH   2  21
ATOM     21  O   UNL     1      15.391  53.231  33.961  1.00  0.00    -0.387 OA
ATOM     22  H   UNL     1      15.572  52.974  34.901  1.00  0.00     0.211 HD
ENDBRANCH   2  21
BRANCH   6  23
ATOM     23  O   UNL     1      13.477  53.816  31.588  1.00  0.00    -0.462 OA
BRANCH  23  24
ATOM     24  C   UNL     1      14.154  52.754  30.962  1.00  0.00     0.130 A 
ATOM     25  C   UNL     1      14.843  52.900  29.743  1.00  0.00     0.093 A 
ATOM     26  C   UNL     1      14.138  51.507  31.592  1.00  0.00     0.094 A 
ATOM     27  C   UNL     1      15.531  51.817  29.177  1.00  0.00     0.133 A 
ATOM     28  C   UNL     1      14.821  50.421  31.038  1.00  0.00     0.138 A 
ATOM     29  C   UNL     1      15.523  50.567  29.827  1.00  0.00     0.102 A 
ATOM     30  O   UNL     1      14.794  49.184  31.695  1.00  0.00    -0.484 OA
ATOM     31  C   UNL     1      16.200  49.374  29.271  1.00  0.00     0.174 C 
ATOM     32  C   UNL     1      15.694  48.123  31.365  1.00  0.00     0.211 C 
ATOM     33  O   UNL     1      17.002  49.470  28.307  1.00  0.00    -0.294 OA
ATOM     34  C   UNL     1      15.890  48.021  29.844  1.00  0.00     0.131 C 
BRANCH  27  35
ATOM     35  O   UNL     1      16.208  51.986  27.968  1.00  0.00    -0.507 OA
ATOM     36  H   UNL     1      16.145  51.304  27.220  1.00  0.00     0.293 HD
ENDBRANCH  27  35
BRANCH  32  37
ATOM     37  C   UNL     1      15.172  46.821  31.922  1.00  0.00    -0.007 A 
ATOM     38  C   UNL     1      14.606  46.775  33.209  1.00  0.00     0.011 A 
ATOM     39  C   UNL     1      15.213  45.648  31.149  1.00  0.00     0.011 A 
ATOM     40  C   UNL     1      14.098  45.576  33.716  1.00  0.00     0.046 A 
ATOM     41  C   UNL     1      14.707  44.449  31.662  1.00  0.00     0.046 A 
ATOM     42  C   UNL     1      14.150  44.409  32.946  1.00  0.00     0.115 A 
BRANCH  42  43
ATOM     43  O   UNL     1      13.644  43.221  33.467  1.00  0.00    -0.508 OA
ATOM     44  H   UNL     1      13.558  43.077  34.467  1.00  0.00     0.293 HD
ENDBRANCH  42  43
ENDBRANCH  32  37
ENDBRANCH  23  24
ENDBRANCH   6  23
BRANCH   3  45
ATOM     45  O   UNL     1      14.546  54.895  35.962  1.00  0.00    -0.387 OA
ATOM     46  H   UNL     1      15.307  55.301  36.451  1.00  0.00     0.211 HD
ENDBRANCH   3  45
BRANCH   4  47
ATOM     47  C   UNL     1      12.346  54.138  34.267  1.00  0.00     0.191 C 
BRANCH  47  48
ATOM     48  O   UNL     1      11.160  54.193  33.525  1.00  0.00    -0.394 OA
ATOM     49  H   UNL     1      10.421  54.089  34.178  1.00  0.00     0.210 HD
ENDBRANCH  47  48
ENDBRANCH   4  47
TORSDOF 14
ENDMDL
MODEL 3
REMARK VINA RESULT:    -5.960      2.226      8.703
REMARK INTER + INTRA:         -11.491
REMARK INTER:                  -9.758
REMARK INTRA:                  -1.733
REMARK UNBOUND:                -2.046
REMARK SMILES C[C@H]1O[C@H](O[C@@H]2[C@@H](Oc3cc(O)c4c(c3)O[C@@H](c3ccc(O)cc3)CC4=O)O[C@@H](CO)[C@@H](O)[C@H]2O)[C@H](O)[C@H](O)[C@H]1O
REMARK SMILES IDX 6 1 34 2 32 3 29 4 28 5 7 6 5 7 4 8 1 9 2 10 40 11 3 12
REMARK SMILES IDX 38 13 36 14 41 15 39 17 37 19 35 21 8 23 9 24 10 25 15 26
REMARK SMILES IDX 11 27 14 28 13 29 16 30 26 31 17 32 27 33 25 34 12 35 18 37
REMARK SMILES IDX 19 38 24 39 20 40 23 41 21 42 22 43 33 45 30 47 31 48
REMARK H PARENT 41 16 39 18 37 20 35 22 12 36 22 44 33 46 31 49
REMARK Flexibility Score: inf
ROOT
ATOM      1  C   UNL     1      15.545  54.259  28.531  1.00  0.00     0.221 C 
ATOM      2  C   UNL     1      15.127  55.156  27.342  1.00  0.00     0.181 C 
ATOM      3  C   UNL     1      16.378  55.707  26.643  1.00  0.00     0.177 C 
ATOM      4  C   UNL     1      17.404  54.593  26.325  1.00  0.00     0.179 C 
ATOM      5  O   UNL     1      17.728  53.800  27.462  1.00  0.00    -0.332 OA
ATOM      6  C   UNL     1      16.607  53.215  28.111  1.00  0.00     0.339 C 
ENDROOT
BRANCH   1   7
ATOM      7  O   UNL     1      16.115  55.086  29.537  1.00  0.00    -0.337 OA
BRANCH   7   8
ATOM      8  C   UNL     1      15.168  55.999  30.072  1.00  0.00     0.282 C 
ATOM      9  C   UNL     1      14.762  54.495  33.416  1.00  0.00     0.041 C 
ATOM     10  C   UNL     1      15.476  55.205  32.265  1.00  0.00     0.150 C 
ATOM     11  C   UNL     1      16.142  56.513  32.753  1.00  0.00     0.174 C 
ATOM     12  O   UNL     1      14.538  55.459  31.229  1.00  0.00    -0.344 OA
ATOM     13  C   UNL     1      16.832  57.220  31.568  1.00  0.00     0.179 C 
ATOM     14  C   UNL     1      15.837  57.353  30.397  1.00  0.00     0.202 C 
BRANCH  11  15
ATOM     15  O   UNL     1      15.172  57.357  33.322  1.00  0.00    -0.388 OA
ATOM     16  H   UNL     1      15.186  57.191  34.300  1.00  0.00     0.211 HD
ENDBRANCH  11  15
BRANCH  13  17
ATOM     17  O   UNL     1      17.965  56.483  31.180  1.00  0.00    -0.387 OA
ATOM     18  H   UNL     1      18.737  57.107  31.169  1.00  0.00     0.211 HD
ENDBRANCH  13  17
BRANCH  14  19
ATOM     19  O   UNL     1      16.441  57.928  29.263  1.00  0.00    -0.385 OA
ATOM     20  H   UNL     1      16.533  57.227  28.568  1.00  0.00     0.211 HD
ENDBRANCH  14  19
ENDBRANCH   7   8
ENDBRANCH   1   7
BRANCH   2  21
ATOM     21  O   UNL     1      14.274  54.528  26.408  1.00  0.00    -0.387 OA
ATOM     22  H   UNL     1      14.804  54.091  25.693  1.00  0.00     0.211 HD
ENDBRANCH   2  21
BRANCH   6  23
ATOM     23  O   UNL     1      16.060  52.157  27.319  1.00  0.00    -0.462 OA
BRANCH  23  24
ATOM     24  C   UNL     1      16.352  50.788  27.455  1.00  0.00     0.130 A 
ATOM     25  C   UNL     1      16.976  50.035  26.441  1.00  0.00     0.093 A 
ATOM     26  C   UNL     1      16.008  50.162  28.655  1.00  0.00     0.094 A 
ATOM     27  C   UNL     1      17.275  48.680  26.640  1.00  0.00     0.133 A 
ATOM     28  C   UNL     1      16.303  48.812  28.865  1.00  0.00     0.138 A 
ATOM     29  C   UNL     1      16.939  48.061  27.860  1.00  0.00     0.102 A 
ATOM     30  O   UNL     1      15.952  48.212  30.082  1.00  0.00    -0.484 OA
ATOM     31  C   UNL     1      17.197  46.628  28.125  1.00  0.00     0.174 C 
ATOM     32  C   UNL     1      16.475  46.945  30.489  1.00  0.00     0.211 C 
ATOM     33  O   UNL     1      17.930  45.946  27.364  1.00  0.00    -0.294 OA
ATOM     34  C   UNL     1      16.537  45.969  29.302  1.00  0.00     0.131 C 
BRANCH  27  35
ATOM     35  O   UNL     1      17.895  47.955  25.621  1.00  0.00    -0.507 OA
ATOM     36  H   UNL     1      18.609  48.366  25.030  1.00  0.00     0.293 HD
ENDBRANCH  27  35
BRANCH  32  37
ATOM     37  C   UNL     1      15.628  46.377  31.600  1.00  0.00    -0.007 A 
ATOM     38  C   UNL     1      15.403  47.122  32.773  1.00  0.00     0.011 A 
ATOM     39  C   UNL     1      15.025  45.115  31.464  1.00  0.00     0.011 A 
ATOM     40  C   UNL     1      14.596  46.609  33.792  1.00  0.00     0.046 A 
ATOM     41  C   UNL     1      14.222  44.603  32.488  1.00  0.00     0.046 A 
ATOM     42  C   UNL     1      14.006  45.348  33.655  1.00  0.00     0.115 A 
BRANCH  42  43
ATOM     43  O   UNL     1      13.209  44.849  34.682  1.00  0.00    -0.508 OA
ATOM     44  H   UNL     1      13.361  45.118  35.647  1.00  0.00     0.293 HD
ENDBRANCH  42  43
ENDBRANCH  32  37
ENDBRANCH  23  24
ENDBRANCH   6  23
BRANCH   3  45
ATOM     45  O   UNL     1      16.034  56.403  25.472  1.00  0.00    -0.387 OA
ATOM     46  H   UNL     1      16.652  56.094  24.761  1.00  0.00     0.211 HD
ENDBRANCH   3  45
BRANCH   4  47
ATOM     47  C   UNL     1      17.069  53.747  25.079  1.00  0.00     0.191 C 
BRANCH  47  48
ATOM     48  O   UNL     1      18.068  52.787  24.876  1.00  0.00    -0.394 OA
ATOM     49  H   UNL     1      18.528  52.678  25.748  1.00  0.00     0.210 HD
ENDBRANCH  47  48
ENDBRANCH   4  47
TORSDOF 14
ENDMDL
MODEL 4
REMARK VINA RESULT:    -5.866      2.960      9.084
REMARK INTER + INTRA:         -11.342
REMARK INTER:                  -9.442
REMARK INTRA:                  -1.900
REMARK UNBOUND:                -2.046
REMARK SMILES C[C@H]1O[C@H](O[C@@H]2[C@@H](Oc3cc(O)c4c(c3)O[C@@H](c3ccc(O)cc3)CC4=O)O[C@@H](CO)[C@@H](O)[C@H]2O)[C@H](O)[C@H](O)[C@H]1O
REMARK SMILES IDX 6 1 34 2 32 3 29 4 28 5 7 6 5 7 4 8 1 9 2 10 40 11 3 12
REMARK SMILES IDX 38 13 36 14 41 15 39 17 37 19 35 21 8 23 9 24 10 25 15 26
REMARK SMILES IDX 11 27 14 28 13 29 16 30 26 31 17 32 27 33 25 34 12 35 18 37
REMARK SMILES IDX 19 38 24 39 20 40 23 41 21 42 22 43 33 45 30 47 31 48
REMARK H PARENT 41 16 39 18 37 20 35 22 12 36 22 44 33 46 31 49
REMARK Flexibility Score: inf
ROOT
ATOM      1  C   UNL     1      13.647  54.251  30.292  1.00  0.00     0.221 C 
ATOM      2  C   UNL     1      13.318  55.236  29.147  1.00  0.00     0.181 C 
ATOM      3  C   UNL     1      14.421  56.300  29.045  1.00  0.00     0.177 C 
ATOM      4  C   UNL     1      15.834  55.670  29.012  1.00  0.00     0.179 C 
ATOM      5  O   UNL     1      16.059  54.763  30.087  1.00  0.00    -0.332 OA
ATOM      6  C   UNL     1      15.098  53.721  30.189  1.00  0.00     0.339 C 
ENDROOT
BRANCH   1   7
ATOM      7  O   UNL     1      13.519  54.941  31.528  1.00  0.00    -0.337 OA
BRANCH   7   8
ATOM      8  C   UNL     1      12.893  54.141  32.520  1.00  0.00     0.282 C 
ATOM      9  C   UNL     1      15.860  53.353  34.565  1.00  0.00     0.041 C 
ATOM     10  C   UNL     1      14.773  54.222  33.931  1.00  0.00     0.150 C 
ATOM     11  C   UNL     1      14.057  55.078  35.002  1.00  0.00     0.174 C 
ATOM     12  O   UNL     1      13.855  53.382  33.244  1.00  0.00    -0.344 OA
ATOM     13  C   UNL     1      12.951  55.924  34.340  1.00  0.00     0.179 C 
ATOM     14  C   UNL     1      12.052  55.014  33.478  1.00  0.00     0.202 C 
BRANCH  11  15
ATOM     15  O   UNL     1      13.503  54.242  35.987  1.00  0.00    -0.388 OA
ATOM     16  H   UNL     1      12.518  54.365  35.946  1.00  0.00     0.211 HD
ENDBRANCH  11  15
BRANCH  13  17
ATOM     17  O   UNL     1      13.541  56.933  33.555  1.00  0.00    -0.387 OA
ATOM     18  H   UNL     1      13.405  56.687  32.604  1.00  0.00     0.211 HD
ENDBRANCH  13  17
BRANCH  14  19
ATOM     19  O   UNL     1      11.068  55.752  32.792  1.00  0.00    -0.385 OA
ATOM     20  H   UNL     1      11.206  55.626  31.818  1.00  0.00     0.211 HD
ENDBRANCH  14  19
ENDBRANCH   7   8
ENDBRANCH   1   7
BRANCH   2  21
ATOM     21  O   UNL     1      13.103  54.624  27.893  1.00  0.00    -0.387 OA
ATOM     22  H   UNL     1      13.680  55.038  27.201  1.00  0.00     0.211 HD
ENDBRANCH   2  21
BRANCH   6  23
ATOM     23  O   UNL     1      15.267  52.774  29.130  1.00  0.00    -0.462 OA
BRANCH  23  24
ATOM     24  C   UNL     1      15.563  51.408  29.286  1.00  0.00     0.130 A 
ATOM     25  C   UNL     1      16.459  50.719  28.445  1.00  0.00     0.093 A 
ATOM     26  C   UNL     1      14.938  50.717  30.327  1.00  0.00     0.094 A 
ATOM     27  C   UNL     1      16.746  49.364  28.663  1.00  0.00     0.133 A 
ATOM     28  C   UNL     1      15.217  49.366  30.554  1.00  0.00     0.138 A 
ATOM     29  C   UNL     1      16.123  48.680  29.725  1.00  0.00     0.102 A 
ATOM     30  O   UNL     1      14.581  48.701  31.611  1.00  0.00    -0.484 OA
ATOM     31  C   UNL     1      16.355  47.243  29.994  1.00  0.00     0.174 C 
ATOM     32  C   UNL     1      15.024  47.430  32.092  1.00  0.00     0.211 C 
ATOM     33  O   UNL     1      17.287  46.616  29.427  1.00  0.00    -0.294 OA
ATOM     34  C   UNL     1      15.433  46.513  30.927  1.00  0.00     0.131 C 
BRANCH  27  35
ATOM     35  O   UNL     1      17.638  48.704  27.817  1.00  0.00    -0.507 OA
ATOM     36  H   UNL     1      18.028  49.153  26.996  1.00  0.00     0.293 HD
ENDBRANCH  27  35
BRANCH  32  37
ATOM     37  C   UNL     1      13.935  46.788  32.917  1.00  0.00    -0.007 A 
ATOM     38  C   UNL     1      12.590  47.150  32.720  1.00  0.00     0.011 A 
ATOM     39  C   UNL     1      14.248  45.799  33.864  1.00  0.00     0.011 A 
ATOM     40  C   UNL     1      11.578  46.538  33.464  1.00  0.00     0.046 A 
ATOM     41  C   UNL     1      13.232  45.192  34.610  1.00  0.00     0.046 A 
ATOM     42  C   UNL     1      11.895  45.560  34.412  1.00  0.00     0.115 A 
BRANCH  42  43
ATOM     43  O   UNL     1      10.875  44.963  35.149  1.00  0.00    -0.508 OA
ATOM     44  H   UNL     1      10.917  43.986  35.414  1.00  0.00     0.293 HD
ENDBRANCH  42  43
ENDBRANCH  32  37
ENDBRANCH  23  24
ENDBRANCH   6  23
BRANCH   3  45
ATOM     45  O   UNL     1      14.226  57.120  27.921  1.00  0.00    -0.387 OA
ATOM     46  H   UNL     1      13.889  57.991  28.255  1.00  0.00     0.211 HD
ENDBRANCH   3  45
BRANCH   4  47
ATOM     47  C   UNL     1      16.250  55.094  27.644  1.00  0.00     0.191 C 
BRANCH  47  48
ATOM     48  O   UNL     1      17.416  54.331  27.786  1.00  0.00    -0.394 OA
ATOM     49  H   UNL     1      17.969  54.794  28.466  1.00  0.00     0.210 HD
ENDBRANCH  47  48
ENDBRANCH   4  47
TORSDOF 14
ENDMDL
MODEL 5
REMARK VINA RESULT:    -5.824      1.958      5.413
REMARK INTER + INTRA:         -11.274
REMARK INTER:                  -9.534
REMARK INTRA:                  -1.740
REMARK UNBOUND:                -2.046
REMARK SMILES C[C@H]1O[C@H](O[C@@H]2[C@@H](Oc3cc(O)c4c(c3)O[C@@H](c3ccc(O)cc3)CC4=O)O[C@@H](CO)[C@@H](O)[C@H]2O)[C@H](O)[C@H](O)[C@H]1O
REMARK SMILES IDX 6 1 34 2 32 3 29 4 28 5 7 6 5 7 4 8 1 9 2 10 40 11 3 12
REMARK SMILES IDX 38 13 36 14 41 15 39 17 37 19 35 21 8 23 9 24 10 25 15 26
REMARK SMILES IDX 11 27 14 28 13 29 16 30 26 31 17 32 27 33 25 34 12 35 18 37
REMARK SMILES IDX 19 38 24 39 20 40 23 41 21 42 22 43 33 45 30 47 31 48
REMARK H PARENT 41 16 39 18 37 20 35 22 12 36 22 44 33 46 31 49
REMARK Flexibility Score: inf
ROOT
ATOM      1  C   UNL     1      15.435  47.578  30.745  1.00  0.00     0.221 C 
ATOM      2  C   UNL     1      16.725  47.317  29.933  1.00  0.00     0.181 C 
ATOM      3  C   UNL     1      16.369  47.083  28.457  1.00  0.00     0.177 C 
ATOM      4  C   UNL     1      15.430  48.182  27.904  1.00  0.00     0.179 C 
ATOM      5  O   UNL     1      14.274  48.377  28.712  1.00  0.00    -0.332 OA
ATOM      6  C   UNL     1      14.549  48.658  30.078  1.00  0.00     0.339 C 
ENDROOT
BRANCH   1   7
ATOM      7  O   UNL     1      14.688  46.370  30.800  1.00  0.00    -0.337 OA
BRANCH   7   8
ATOM      8  C   UNL     1      15.322  45.391  31.610  1.00  0.00     0.282 C 
ATOM      9  C   UNL     1      13.139  45.611  34.576  1.00  0.00     0.041 C 
ATOM     10  C   UNL     1      13.524  45.317  33.124  1.00  0.00     0.150 C 
ATOM     11  C   UNL     1      13.115  43.880  32.726  1.00  0.00     0.174 C 
ATOM     12  O   UNL     1      14.922  45.518  32.971  1.00  0.00    -0.344 OA
ATOM     13  C   UNL     1      13.537  43.604  31.269  1.00  0.00     0.179 C 
ATOM     14  C   UNL     1      15.024  43.969  31.084  1.00  0.00     0.202 C 
BRANCH  11  15
ATOM     15  O   UNL     1      13.726  42.955  33.590  1.00  0.00    -0.388 OA
ATOM     16  H   UNL     1      12.995  42.502  34.088  1.00  0.00     0.211 HD
ENDBRANCH  11  15
BRANCH  13  17
ATOM     17  O   UNL     1      12.727  44.353  30.397  1.00  0.00    -0.387 OA
ATOM     18  H   UNL     1      13.218  44.446  29.540  1.00  0.00     0.211 HD
ENDBRANCH  13  17
BRANCH  14  19
ATOM     19  O   UNL     1      15.441  43.803  29.749  1.00  0.00    -0.385 OA
ATOM     20  H   UNL     1      14.756  44.206  29.156  1.00  0.00     0.211 HD
ENDBRANCH  14  19
ENDBRANCH   7   8
ENDBRANCH   1   7
BRANCH   2  21
ATOM     21  O   UNL     1      17.705  48.326  30.052  1.00  0.00    -0.387 OA
ATOM     22  H   UNL     1      17.325  49.130  30.491  1.00  0.00     0.211 HD
ENDBRANCH   2  21
BRANCH   6  23
ATOM     23  O   UNL     1      15.082  49.977  30.224  1.00  0.00    -0.462 OA
BRANCH  23  24
ATOM     24  C   UNL     1      14.366  51.113  30.645  1.00  0.00     0.130 A 
ATOM     25  C   UNL     1      12.959  51.157  30.689  1.00  0.00     0.093 A 
ATOM     26  C   UNL     1      15.096  52.237  31.038  1.00  0.00     0.094 A 
ATOM     27  C   UNL     1      12.295  52.303  31.148  1.00  0.00     0.133 A 
ATOM     28  C   UNL     1      14.444  53.385  31.498  1.00  0.00     0.138 A 
ATOM     29  C   UNL     1      13.039  53.427  31.558  1.00  0.00     0.102 A 
ATOM     30  O   UNL     1      15.202  54.495  31.893  1.00  0.00    -0.484 OA
ATOM     31  C   UNL     1      12.403  54.680  32.022  1.00  0.00     0.174 C 
ATOM     32  C   UNL     1      14.643  55.575  32.644  1.00  0.00     0.211 C 
ATOM     33  O   UNL     1      11.174  54.727  32.287  1.00  0.00    -0.294 OA
ATOM     34  C   UNL     1      13.233  55.925  32.139  1.00  0.00     0.131 C 
BRANCH  27  35
ATOM     35  O   UNL     1      10.899  52.322  31.184  1.00  0.00    -0.507 OA
ATOM     36  H   UNL     1      10.340  51.809  30.512  1.00  0.00     0.293 HD
ENDBRANCH  27  35
BRANCH  32  37
ATOM     37  C   UNL     1      15.551  56.778  32.561  1.00  0.00    -0.007 A 
ATOM     38  C   UNL     1      15.150  58.009  33.112  1.00  0.00     0.011 A 
ATOM     39  C   UNL     1      16.819  56.674  31.965  1.00  0.00     0.011 A 
ATOM     40  C   UNL     1      16.001  59.116  33.060  1.00  0.00     0.046 A 
ATOM     41  C   UNL     1      17.665  57.786  31.911  1.00  0.00     0.046 A 
ATOM     42  C   UNL     1      17.258  59.010  32.457  1.00  0.00     0.115 A 
BRANCH  42  43
ATOM     43  O   UNL     1      18.092  60.125  32.409  1.00  0.00    -0.508 OA
ATOM     44  H   UNL     1      18.433  60.491  31.528  1.00  0.00     0.293 HD
ENDBRANCH  42  43
ENDBRANCH  32  37
ENDBRANCH  23  24
ENDBRANCH   6  23
BRANCH   3  45
ATOM     45  O   UNL     1      17.530  46.991  27.670  1.00  0.00    -0.387 OA
ATOM     46  H   UNL     1      18.158  46.395  28.153  1.00  0.00     0.211 HD
ENDBRANCH   3  45
BRANCH   4  47
ATOM     47  C   UNL     1      16.134  49.504  27.536  1.00  0.00     0.191 C 
BRANCH  47  48
ATOM     48  O   UNL     1      16.670  49.412  26.246  1.00  0.00    -0.394 OA
ATOM     49  H   UNL     1      15.929  49.111  25.659  1.00  0.00     0.210 HD
ENDBRANCH  47  48
ENDBRANCH   4  47
TORSDOF 14
ENDMDL
MODEL 6
REMARK VINA RESULT:    -5.680      3.170      6.845
REMARK INTER + INTRA:         -11.047
REMARK INTER:                  -9.228
REMARK INTRA:                  -1.819
REMARK UNBOUND:                -2.046
REMARK SMILES C[C@H]1O[C@H](O[C@@H]2[C@@H](Oc3cc(O)c4c(c3)O[C@@H](c3ccc(O)cc3)CC4=O)O[C@@H](CO)[C@@H](O)[C@H]2O)[C@H](O)[C@H](O)[C@H]1O
REMARK SMILES IDX 6 1 34 2 32 3 29 4 28 5 7 6 5 7 4 8 1 9 2 10 40 11 3 12
REMARK SMILES IDX 38 13 36 14 41 15 39 17 37 19 35 21 8 23 9 24 10 25 15 26
REMARK SMILES IDX 11 27 14 28 13 29 16 30 26 31 17 32 27 33 25 34 12 35 18 37
REMARK SMILES IDX 19 38 24 39 20 40 23 41 21 42 22 43 33 45 30 47 31 48
REMARK H PARENT 41 16 39 18 37 20 35 22 12 36 22 44 33 46 31 49
REMARK Flexibility Score: inf
ROOT
ATOM      1  C   UNL     1      15.348  45.126  30.757  1.00  0.00     0.221 C 
ATOM      2  C   UNL     1      15.979  44.129  29.759  1.00  0.00     0.181 C 
ATOM      3  C   UNL     1      15.026  43.906  28.574  1.00  0.00     0.177 C 
ATOM      4  C   UNL     1      14.524  45.241  27.974  1.00  0.00     0.179 C 
ATOM      5  O   UNL     1      13.970  46.113  28.954  1.00  0.00    -0.332 OA
ATOM      6  C   UNL     1      14.837  46.401  30.044  1.00  0.00     0.339 C 
ENDROOT
BRANCH   1   7
ATOM      7  O   UNL     1      14.235  44.494  31.378  1.00  0.00    -0.337 OA
BRANCH   7   8
ATOM      8  C   UNL     1      14.255  44.652  32.788  1.00  0.00     0.282 C 
ATOM      9  C   UNL     1      11.396  46.957  33.138  1.00  0.00     0.041 C 
ATOM     10  C   UNL     1      12.125  45.651  32.818  1.00  0.00     0.150 C 
ATOM     11  C   UNL     1      11.465  44.457  33.546  1.00  0.00     0.174 C 
ATOM     12  O   UNL     1      13.492  45.787  33.185  1.00  0.00    -0.344 OA
ATOM     13  C   UNL     1      12.235  43.160  33.225  1.00  0.00     0.179 C 
ATOM     14  C   UNL     1      13.739  43.375  33.489  1.00  0.00     0.202 C 
BRANCH  11  15
ATOM     15  O   UNL     1      11.461  44.688  34.932  1.00  0.00    -0.388 OA
ATOM     16  H   UNL     1      10.511  44.780  35.205  1.00  0.00     0.211 HD
ENDBRANCH  11  15
BRANCH  13  17
ATOM     17  O   UNL     1      12.009  42.802  31.884  1.00  0.00    -0.387 OA
ATOM     18  H   UNL     1      12.555  43.407  31.317  1.00  0.00     0.211 HD
ENDBRANCH  13  17
BRANCH  14  19
ATOM     19  O   UNL     1      14.497  42.241  33.142  1.00  0.00    -0.385 OA
ATOM     20  H   UNL     1      13.964  41.432  33.353  1.00  0.00     0.211 HD
ENDBRANCH  14  19
ENDBRANCH   7   8
ENDBRANCH   1   7
BRANCH   2  21
ATOM     21  O   UNL     1      17.263  44.496  29.298  1.00  0.00    -0.387 OA
ATOM     22  H   UNL     1      17.966  44.102  29.876  1.00  0.00     0.211 HD
ENDBRANCH   2  21
BRANCH   6  23
ATOM     23  O   UNL     1      15.899  47.265  29.629  1.00  0.00    -0.462 OA
BRANCH  23  24
ATOM     24  C   UNL     1      15.837  48.668  29.550  1.00  0.00     0.130 A 
ATOM     25  C   UNL     1      16.305  49.392  28.437  1.00  0.00     0.093 A 
ATOM     26  C   UNL     1      15.280  49.360  30.629  1.00  0.00     0.094 A 
ATOM     27  C   UNL     1      16.190  50.789  28.394  1.00  0.00     0.133 A 
ATOM     28  C   UNL     1      15.159  50.752  30.596  1.00  0.00     0.138 A 
ATOM     29  C   UNL     1      15.612  51.478  29.479  1.00  0.00     0.102 A 
ATOM     30  O   UNL     1      14.589  51.419  31.689  1.00  0.00    -0.484 OA
ATOM     31  C   UNL     1      15.488  52.952  29.514  1.00  0.00     0.174 C 
ATOM     32  C   UNL     1      14.160  52.781  31.615  1.00  0.00     0.211 C 
ATOM     33  O   UNL     1      15.687  53.647  28.485  1.00  0.00    -0.294 OA
ATOM     34  C   UNL     1      15.160  53.630  30.813  1.00  0.00     0.131 C 
BRANCH  27  35
ATOM     35  O   UNL     1      16.660  51.485  27.279  1.00  0.00    -0.507 OA
ATOM     36  H   UNL     1      17.574  51.925  27.269  1.00  0.00     0.293 HD
ENDBRANCH  27  35
BRANCH  32  37
ATOM     37  C   UNL     1      13.987  53.337  33.007  1.00  0.00    -0.007 A 
ATOM     38  C   UNL     1      12.837  54.077  33.338  1.00  0.00     0.011 A 
ATOM     39  C   UNL     1      14.953  53.093  33.997  1.00  0.00     0.011 A 
ATOM     40  C   UNL     1      12.662  54.570  34.633  1.00  0.00     0.046 A 
ATOM     41  C   UNL     1      14.777  53.592  35.292  1.00  0.00     0.046 A 
ATOM     42  C   UNL     1      13.631  54.332  35.613  1.00  0.00     0.115 A 
BRANCH  42  43
ATOM     43  O   UNL     1      13.445  54.834  36.899  1.00  0.00    -0.508 OA
ATOM     44  H   UNL     1      13.114  54.245  37.653  1.00  0.00     0.293 HD
ENDBRANCH  42  43
ENDBRANCH  32  37
ENDBRANCH  23  24
ENDBRANCH   6  23
BRANCH   3  45
ATOM     45  O   UNL     1      15.635  43.121  27.580  1.00  0.00    -0.387 OA
ATOM     46  H   UNL     1      16.352  43.675  27.176  1.00  0.00     0.211 HD
ENDBRANCH   3  45
BRANCH   4  47
ATOM     47  C   UNL     1      15.531  45.947  27.043  1.00  0.00     0.191 C 
BRANCH  47  48
ATOM     48  O   UNL     1      15.574  45.291  25.807  1.00  0.00    -0.394 OA
ATOM     49  H   UNL     1      16.482  44.899  25.734  1.00  0.00     0.210 HD
ENDBRANCH  47  48
ENDBRANCH   4  47
TORSDOF 14
ENDMDL
MODEL 7
REMARK VINA RESULT:    -5.649      2.228      8.733
REMARK INTER + INTRA:         -10.998
REMARK INTER:                  -9.316
REMARK INTRA:                  -1.682
REMARK UNBOUND:                -2.046
REMARK SMILES C[C@H]1O[C@H](O[C@@H]2[C@@H](Oc3cc(O)c4c(c3)O[C@@H](c3ccc(O)cc3)CC4=O)O[C@@H](CO)[C@@H](O)[C@H]2O)[C@H](O)[C@H](O)[C@H]1O
REMARK SMILES IDX 6 1 34 2 32 3 29 4 28 5 7 6 5 7 4 8 1 9 2 10 40 11 3 12
REMARK SMILES IDX 38 13 36 14 41 15 39 17 37 19 35 21 8 23 9 24 10 25 15 26
REMARK SMILES IDX 11 27 14 28 13 29 16 30 26 31 17 32 27 33 25 34 12 35 18 37
REMARK SMILES IDX 19 38 24 39 20 40 23 41 21 42 22 43 33 45 30 47 31 48
REMARK H PARENT 41 16 39 18 37 20 35 22 12 36 22 44 33 46 31 49
REMARK Flexibility Score: inf
ROOT
ATOM      1  C   UNL     1      14.590  53.413  29.094  1.00  0.00     0.221 C 
ATOM      2  C   UNL     1      13.822  54.218  28.020  1.00  0.00     0.181 C 
ATOM      3  C   UNL     1      14.449  55.613  27.870  1.00  0.00     0.177 C 
ATOM      4  C   UNL     1      15.985  55.543  27.696  1.00  0.00     0.179 C 
ATOM      5  O   UNL     1      16.621  54.773  28.711  1.00  0.00    -0.332 OA
ATOM      6  C   UNL     1      16.118  53.451  28.850  1.00  0.00     0.339 C 
ENDROOT
BRANCH   1   7
ATOM      7  O   UNL     1      14.333  54.000  30.363  1.00  0.00    -0.337 OA
BRANCH   7   8
ATOM      8  C   UNL     1      15.349  53.692  31.305  1.00  0.00     0.282 C 
ATOM      9  C   UNL     1      15.401  56.890  33.144  1.00  0.00     0.041 C 
ATOM     10  C   UNL     1      14.835  55.562  32.637  1.00  0.00     0.150 C 
ATOM     11  C   UNL     1      14.301  54.706  33.809  1.00  0.00     0.174 C 
ATOM     12  O   UNL     1      15.851  54.875  31.918  1.00  0.00    -0.344 OA
ATOM     13  C   UNL     1      13.762  53.365  33.272  1.00  0.00     0.179 C 
ATOM     14  C   UNL     1      14.826  52.705  32.372  1.00  0.00     0.202 C 
BRANCH  11  15
ATOM     15  O   UNL     1      15.330  54.476  34.738  1.00  0.00    -0.388 OA
ATOM     16  H   UNL     1      14.983  53.816  35.394  1.00  0.00     0.211 HD
ENDBRANCH  11  15
BRANCH  13  17
ATOM     17  O   UNL     1      12.572  53.593  32.556  1.00  0.00    -0.387 OA
ATOM     18  H   UNL     1      12.136  54.392  32.950  1.00  0.00     0.211 HD
ENDBRANCH  13  17
BRANCH  14  19
ATOM     19  O   UNL     1      14.353  51.510  31.796  1.00  0.00    -0.385 OA
ATOM     20  H   UNL     1      13.452  51.679  31.420  1.00  0.00     0.211 HD
ENDBRANCH  14  19
ENDBRANCH   7   8
ENDBRANCH   1   7
BRANCH   2  21
ATOM     21  O   UNL     1      13.731  53.579  26.764  1.00  0.00    -0.387 OA
ATOM     22  H   UNL     1      14.551  53.741  26.231  1.00  0.00     0.211 HD
ENDBRANCH   2  21
BRANCH   6  23
ATOM     23  O   UNL     1      16.522  52.638  27.744  1.00  0.00    -0.462 OA
BRANCH  23  24
ATOM     24  C   UNL     1      16.687  51.242  27.765  1.00  0.00     0.130 A 
ATOM     25  C   UNL     1      17.206  50.518  26.673  1.00  0.00     0.093 A 
ATOM     26  C   UNL     1      16.321  50.556  28.925  1.00  0.00     0.094 A 
ATOM     27  C   UNL     1      17.382  49.129  26.757  1.00  0.00     0.133 A 
ATOM     28  C   UNL     1      16.493  49.173  29.020  1.00  0.00     0.138 A 
ATOM     29  C   UNL     1      17.025  48.448  27.937  1.00  0.00     0.102 A 
ATOM     30  O   UNL     1      16.123  48.513  30.199  1.00  0.00    -0.484 OA
ATOM     31  C   UNL     1      17.153  46.981  28.082  1.00  0.00     0.174 C 
ATOM     32  C   UNL     1      16.535  47.174  30.488  1.00  0.00     0.211 C 
ATOM     33  O   UNL     1      17.795  46.297  27.244  1.00  0.00    -0.294 OA
ATOM     34  C   UNL     1      16.469  46.295  29.229  1.00  0.00     0.131 C 
BRANCH  27  35
ATOM     35  O   UNL     1      17.899  48.433  25.663  1.00  0.00    -0.507 OA
ATOM     36  H   UNL     1      18.730  48.747  25.174  1.00  0.00     0.293 HD
ENDBRANCH  27  35
BRANCH  32  37
ATOM     37  C   UNL     1      15.671  46.600  31.584  1.00  0.00    -0.007 A 
ATOM     38  C   UNL     1      15.142  45.302  31.464  1.00  0.00     0.011 A 
ATOM     39  C   UNL     1      15.414  47.340  32.751  1.00  0.00     0.011 A 
ATOM     40  C   UNL     1      14.364  44.759  32.489  1.00  0.00     0.046 A 
ATOM     41  C   UNL     1      14.631  46.794  33.773  1.00  0.00     0.046 A 
ATOM     42  C   UNL     1      14.103  45.502  33.645  1.00  0.00     0.115 A 
BRANCH  42  43
ATOM     43  O   UNL     1      13.322  44.948  34.656  1.00  0.00    -0.508 OA
ATOM     44  H   UNL     1      12.706  45.521  35.221  1.00  0.00     0.293 HD
ENDBRANCH  42  43
ENDBRANCH  32  37
ENDBRANCH  23  24
ENDBRANCH   6  23
BRANCH   3  45
ATOM     45  O   UNL     1      13.867  56.312  26.799  1.00  0.00    -0.387 OA
ATOM     46  H   UNL     1      14.469  56.196  26.019  1.00  0.00     0.211 HD
ENDBRANCH   3  45
BRANCH   4  47
ATOM     47  C   UNL     1      16.456  55.168  26.276  1.00  0.00     0.191 C 
BRANCH  47  48
ATOM     48  O   UNL     1      16.572  56.324  25.494  1.00  0.00    -0.394 OA
ATOM     49  H   UNL     1      16.614  57.084  26.130  1.00  0.00     0.210 HD
ENDBRANCH  47  48
ENDBRANCH   4  47
TORSDOF 14
ENDMDL
MODEL 8
REMARK VINA RESULT:    -5.591      2.672      3.886
REMARK INTER + INTRA:         -10.905
REMARK INTER:                  -9.213
REMARK INTRA:                  -1.692
REMARK UNBOUND:                -2.046
REMARK SMILES C[C@H]1O[C@H](O[C@@H]2[C@@H](Oc3cc(O)c4c(c3)O[C@@H](c3ccc(O)cc3)CC4=O)O[C@@H](CO)[C@@H](O)[C@H]2O)[C@H](O)[C@H](O)[C@H]1O
REMARK SMILES IDX 6 1 34 2 32 3 29 4 28 5 7 6 5 7 4 8 1 9 2 10 40 11 3 12
REMARK SMILES IDX 38 13 36 14 41 15 39 17 37 19 35 21 8 23 9 24 10 25 15 26
REMARK SMILES IDX 11 27 14 28 13 29 16 30 26 31 17 32 27 33 25 34 12 35 18 37
REMARK SMILES IDX 19 38 24 39 20 40 23 41 21 42 22 43 33 45 30 47 31 48
REMARK H PARENT 41 16 39 18 37 20 35 22 12 36 22 44 33 46 31 49
REMARK Flexibility Score: inf
ROOT
ATOM      1  C   UNL     1      14.832  47.112  30.074  1.00  0.00     0.221 C 
ATOM      2  C   UNL     1      13.821  46.035  30.531  1.00  0.00     0.181 C 
ATOM      3  C   UNL     1      14.440  45.186  31.652  1.00  0.00     0.177 C 
ATOM      4  C   UNL     1      15.052  46.061  32.772  1.00  0.00     0.179 C 
ATOM      5  O   UNL     1      15.960  47.039  32.275  1.00  0.00    -0.332 OA
ATOM      6  C   UNL     1      15.417  47.892  31.276  1.00  0.00     0.339 C 
ENDROOT
BRANCH   1   7
ATOM      7  O   UNL     1      15.906  46.464  29.406  1.00  0.00    -0.337 OA
BRANCH   7   8
ATOM      8  C   UNL     1      15.475  45.800  28.227  1.00  0.00     0.282 C 
ATOM      9  C   UNL     1      17.151  47.936  25.730  1.00  0.00     0.041 C 
ATOM     10  C   UNL     1      17.034  46.937  26.882  1.00  0.00     0.150 C 
ATOM     11  C   UNL     1      17.865  45.664  26.594  1.00  0.00     0.174 C 
ATOM     12  O   UNL     1      15.662  46.623  27.081  1.00  0.00    -0.344 OA
ATOM     13  C   UNL     1      17.709  44.666  27.759  1.00  0.00     0.179 C 
ATOM     14  C   UNL     1      16.211  44.452  28.058  1.00  0.00     0.202 C 
BRANCH  11  15
ATOM     15  O   UNL     1      17.435  45.077  25.392  1.00  0.00    -0.388 OA
ATOM     16  H   UNL     1      18.252  44.828  24.886  1.00  0.00     0.211 HD
ENDBRANCH  11  15
BRANCH  13  17
ATOM     17  O   UNL     1      18.379  45.161  28.893  1.00  0.00    -0.387 OA
ATOM     18  H   UNL     1      17.809  45.868  29.291  1.00  0.00     0.211 HD
ENDBRANCH  13  17
BRANCH  14  19
ATOM     19  O   UNL     1      16.015  43.602  29.163  1.00  0.00    -0.385 OA
ATOM     20  H   UNL     1      16.904  43.342  29.518  1.00  0.00     0.211 HD
ENDBRANCH  14  19
ENDBRANCH   7   8
ENDBRANCH   1   7
BRANCH   2  21
ATOM     21  O   UNL     1      12.566  46.543  30.930  1.00  0.00    -0.387 OA
ATOM     22  H   UNL     1      12.129  45.926  31.572  1.00  0.00     0.211 HD
ENDBRANCH   2  21
BRANCH   6  23
ATOM     23  O   UNL     1      14.480  48.808  31.849  1.00  0.00    -0.462 OA
BRANCH  23  24
ATOM     24  C   UNL     1      14.062  50.025  31.281  1.00  0.00     0.130 A 
ATOM     25  C   UNL     1      13.089  50.100  30.266  1.00  0.00     0.093 A 
ATOM     26  C   UNL     1      14.645  51.203  31.755  1.00  0.00     0.094 A 
ATOM     27  C   UNL     1      12.684  51.342  29.755  1.00  0.00     0.133 A 
ATOM     28  C   UNL     1      14.248  52.446  31.255  1.00  0.00     0.138 A 
ATOM     29  C   UNL     1      13.264  52.526  30.252  1.00  0.00     0.102 A 
ATOM     30  O   UNL     1      14.844  53.611  31.756  1.00  0.00    -0.484 OA
ATOM     31  C   UNL     1      12.908  53.867  29.737  1.00  0.00     0.174 C 
ATOM     32  C   UNL     1      14.296  54.911  31.523  1.00  0.00     0.211 C 
ATOM     33  O   UNL     1      11.910  54.034  28.990  1.00  0.00    -0.294 OA
ATOM     34  C   UNL     1      13.780  55.040  30.081  1.00  0.00     0.131 C 
BRANCH  27  35
ATOM     35  O   UNL     1      11.716  51.392  28.751  1.00  0.00    -0.507 OA
ATOM     36  H   UNL     1      11.962  51.525  27.777  1.00  0.00     0.293 HD
ENDBRANCH  27  35
BRANCH  32  37
ATOM     37  C   UNL     1      15.340  55.963  31.810  1.00  0.00    -0.007 A 
ATOM     38  C   UNL     1      16.531  56.003  31.062  1.00  0.00     0.011 A 
ATOM     39  C   UNL     1      15.120  56.934  32.801  1.00  0.00     0.011 A 
ATOM     40  C   UNL     1      17.487  56.992  31.308  1.00  0.00     0.046 A 
ATOM     41  C   UNL     1      16.081  57.920  33.047  1.00  0.00     0.046 A 
ATOM     42  C   UNL     1      17.267  57.951  32.302  1.00  0.00     0.115 A 
BRANCH  42  43
ATOM     43  O   UNL     1      18.232  58.928  32.538  1.00  0.00    -0.508 OA
ATOM     44  H   UNL     1      18.353  59.713  31.910  1.00  0.00     0.293 HD
ENDBRANCH  42  43
ENDBRANCH  32  37
ENDBRANCH  23  24
ENDBRANCH   6  23
BRANCH   3  45
ATOM     45  O   UNL     1      13.494  44.297  32.189  1.00  0.00    -0.387 OA
ATOM     46  H   UNL     1      12.714  44.842  32.470  1.00  0.00     0.211 HD
ENDBRANCH   3  45
BRANCH   4  47
ATOM     47  C   UNL     1      14.028  46.644  33.766  1.00  0.00     0.191 C 
BRANCH  47  48
ATOM     48  O   UNL     1      13.649  45.661  34.688  1.00  0.00    -0.394 OA
ATOM     49  H   UNL     1      12.854  45.211  34.302  1.00  0.00     0.210 HD
ENDBRANCH  47  48
ENDBRANCH   4  47
TORSDOF 14
ENDMDL
MODEL 9
REMARK VINA RESULT:    -5.368      2.842      8.502
REMARK INTER + INTRA:         -10.552
REMARK INTER:                  -8.973
REMARK INTRA:                  -1.579
REMARK UNBOUND:                -2.046
REMARK SMILES C[C@H]1O[C@H](O[C@@H]2[C@@H](Oc3cc(O)c4c(c3)O[C@@H](c3ccc(O)cc3)CC4=O)O[C@@H](CO)[C@@H](O)[C@H]2O)[C@H](O)[C@H](O)[C@H]1O
REMARK SMILES IDX 6 1 34 2 32 3 29 4 28 5 7 6 5 7 4 8 1 9 2 10 40 11 3 12
REMARK SMILES IDX 38 13 36 14 41 15 39 17 37 19 35 21 8 23 9 24 10 25 15 26
REMARK SMILES IDX 11 27 14 28 13 29 16 30 26 31 17 32 27 33 25 34 12 35 18 37
REMARK SMILES IDX 19 38 24 39 20 40 23 41 21 42 22 43 33 45 30 47 31 48
REMARK H PARENT 41 16 39 18 37 20 35 22 12 36 22 44 33 46 31 49
REMARK Flexibility Score: inf
ROOT
ATOM      1  C   UNL     1      15.506  54.078  29.743  1.00  0.00     0.221 C 
ATOM      2  C   UNL     1      15.724  55.110  30.873  1.00  0.00     0.181 C 
ATOM      3  C   UNL     1      14.443  55.934  31.077  1.00  0.00     0.177 C 
ATOM      4  C   UNL     1      13.190  55.037  31.211  1.00  0.00     0.179 C 
ATOM      5  O   UNL     1      13.064  54.102  30.145  1.00  0.00    -0.332 OA
ATOM      6  C   UNL     1      14.202  53.271  29.952  1.00  0.00     0.339 C 
ENDROOT
BRANCH   1   7
ATOM      7  O   UNL     1      15.396  54.778  28.511  1.00  0.00    -0.337 OA
BRANCH   7   8
ATOM      8  C   UNL     1      16.653  55.266  28.065  1.00  0.00     0.282 C 
ATOM      9  C   UNL     1      18.099  52.092  26.866  1.00  0.00     0.041 C 
ATOM     10  C   UNL     1      17.137  53.281  26.901  1.00  0.00     0.150 C 
ATOM     11  C   UNL     1      17.040  53.953  25.511  1.00  0.00     0.174 C 
ATOM     12  O   UNL     1      17.580  54.201  27.889  1.00  0.00    -0.344 OA
ATOM     13  C   UNL     1      16.084  55.161  25.583  1.00  0.00     0.179 C 
ATOM     14  C   UNL     1      16.494  56.073  26.757  1.00  0.00     0.202 C 
BRANCH  11  15
ATOM     15  O   UNL     1      18.315  54.368  25.093  1.00  0.00    -0.388 OA
ATOM     16  H   UNL     1      18.375  54.177  24.121  1.00  0.00     0.211 HD
ENDBRANCH  11  15
BRANCH  13  17
ATOM     17  O   UNL     1      14.763  54.704  25.742  1.00  0.00    -0.387 OA
ATOM     18  H   UNL     1      14.797  53.716  25.823  1.00  0.00     0.211 HD
ENDBRANCH  13  17
BRANCH  14  19
ATOM     19  O   UNL     1      15.606  57.156  26.910  1.00  0.00    -0.385 OA
ATOM     20  H   UNL     1      15.142  57.059  27.781  1.00  0.00     0.211 HD
ENDBRANCH  14  19
ENDBRANCH   7   8
ENDBRANCH   1   7
BRANCH   2  21
ATOM     21  O   UNL     1      16.155  54.555  32.098  1.00  0.00    -0.387 OA
ATOM     22  H   UNL     1      15.532  54.799  32.829  1.00  0.00     0.211 HD
ENDBRANCH   2  21
BRANCH   6  23
ATOM     23  O   UNL     1      14.309  52.310  31.007  1.00  0.00    -0.462 OA
BRANCH  23  24
ATOM     24  C   UNL     1      14.880  51.029  30.900  1.00  0.00     0.130 A 
ATOM     25  C   UNL     1      16.005  50.758  30.098  1.00  0.00     0.093 A 
ATOM     26  C   UNL     1      14.297  49.990  31.630  1.00  0.00     0.094 A 
ATOM     27  C   UNL     1      16.556  49.470  30.052  1.00  0.00     0.133 A 
ATOM     28  C   UNL     1      14.838  48.702  31.592  1.00  0.00     0.138 A 
ATOM     29  C   UNL     1      15.972  48.432  30.804  1.00  0.00     0.102 A 
ATOM     30  O   UNL     1      14.237  47.682  32.341  1.00  0.00    -0.484 OA
ATOM     31  C   UNL     1      16.481  47.042  30.778  1.00  0.00     0.174 C 
ATOM     32  C   UNL     1      14.887  46.434  32.594  1.00  0.00     0.211 C 
ATOM     33  O   UNL     1      17.593  46.766  30.260  1.00  0.00    -0.294 OA
ATOM     34  C   UNL     1      15.634  45.940  31.344  1.00  0.00     0.131 C 
BRANCH  27  35
ATOM     35  O   UNL     1      17.673  49.226  29.251  1.00  0.00    -0.507 OA
ATOM     36  H   UNL     1      18.598  49.100  29.648  1.00  0.00     0.293 HD
ENDBRANCH  27  35
BRANCH  32  37
ATOM     37  C   UNL     1      13.872  45.412  33.045  1.00  0.00    -0.007 A 
ATOM     38  C   UNL     1      13.072  45.659  34.176  1.00  0.00     0.011 A 
ATOM     39  C   UNL     1      13.690  44.220  32.323  1.00  0.00     0.011 A 
ATOM     40  C   UNL     1      12.113  44.726  34.580  1.00  0.00     0.046 A 
ATOM     41  C   UNL     1      12.732  43.288  32.734  1.00  0.00     0.046 A 
ATOM     42  C   UNL     1      11.942  43.537  33.863  1.00  0.00     0.115 A 
BRANCH  42  43
ATOM     43  O   UNL     1      10.986  42.615  34.281  1.00  0.00    -0.508 OA
ATOM     44  H   UNL     1      10.168  42.904  34.806  1.00  0.00     0.293 HD
ENDBRANCH  42  43
ENDBRANCH  32  37
ENDBRANCH  23  24
ENDBRANCH   6  23
BRANCH   3  45
ATOM     45  O   UNL     1      14.562  56.778  32.194  1.00  0.00    -0.387 OA
ATOM     46  H   UNL     1      13.791  56.582  32.786  1.00  0.00     0.211 HD
ENDBRANCH   3  45
BRANCH   4  47
ATOM     47  C   UNL     1      13.007  54.391  32.599  1.00  0.00     0.191 C 
BRANCH  47  48
ATOM     48  O   UNL     1      12.337  55.277  33.450  1.00  0.00    -0.394 OA
ATOM     49  H   UNL     1      12.417  54.899  34.363  1.00  0.00     0.210 HD
ENDBRANCH  47  48
ENDBRANCH   4  47
TORSDOF 14
ENDMDL
