MODEL 1
REMARK VINA RESULT:    -4.925      0.000      0.000
REMARK INTER + INTRA:          -5.385
REMARK INTER:                  -5.357
REMARK INTRA:                  -0.028
REMARK UNBOUND:                -0.028
REMARK SMILES O=C([O-])c1ccc(O)cc1
REMARK SMILES IDX 4 1 5 2 10 3 6 4 9 5 7 6 2 7 1 8 3 9 8 10
REMARK H PARENT 8 11
REMARK Flexibility Score: inf
ROOT
ATOM      1  C   UNL     1     -20.802 -26.396  39.323  1.00  0.00    -0.003 A 
ATOM      2  C   UNL     1     -20.951 -27.005  38.064  1.00  0.00     0.014 A 
ATOM      3  C   UNL     1     -21.605 -26.833  40.392  1.00  0.00     0.014 A 
ATOM      4  C   UNL     1     -21.885 -28.029  37.879  1.00  0.00     0.047 A 
ATOM      5  C   UNL     1     -22.539 -27.857  40.203  1.00  0.00     0.047 A 
ATOM      6  C   UNL     1     -22.681 -28.458  38.949  1.00  0.00     0.115 A 
ENDROOT
BRANCH   1   7
ATOM      7  C   UNL     1     -19.813 -25.313  39.516  1.00  0.00     0.071 C 
ATOM      8  O   UNL     1     -20.192 -24.128  39.720  1.00  0.00    -0.545 OA
ATOM      9  O   UNL     1     -18.451 -25.586  39.475  1.00  0.00    -0.545 OA
ENDBRANCH   1   7
BRANCH   6  10
ATOM     10  O   UNL     1     -23.615 -29.477  38.776  1.00  0.00    -0.508 OA
ATOM     11  H   UNL     1     -23.709 -30.229  39.451  1.00  0.00     0.293 HD
ENDBRANCH   6  10
TORSDOF 2
ENDMDL
MODEL 2
REMARK VINA RESULT:    -4.778      3.403      4.270
REMARK INTER + INTRA:          -5.225
REMARK INTER:                  -5.195
REMARK INTRA:                  -0.030
REMARK UNBOUND:                -0.028
REMARK SMILES O=C([O-])c1ccc(O)cc1
REMARK SMILES IDX 4 1 5 2 10 3 6 4 9 5 7 6 2 7 1 8 3 9 8 10
REMARK H PARENT 8 11
REMARK Flexibility Score: inf
ROOT
ATOM      1  C   UNL     1     -24.557 -27.473  41.088  1.00  0.00    -0.003 A 
ATOM      2  C   UNL     1     -23.353 -28.079  40.685  1.00  0.00     0.014 A 
ATOM      3  C   UNL     1     -25.777 -28.062  40.706  1.00  0.00     0.014 A 
ATOM      4  C   UNL     1     -23.370 -29.246  39.916  1.00  0.00     0.047 A 
ATOM      5  C   UNL     1     -25.790 -29.230  39.937  1.00  0.00     0.047 A 
ATOM      6  C   UNL     1     -24.589 -29.825  39.540  1.00  0.00     0.115 A 
ENDROOT
BRANCH   1   7
ATOM      7  C   UNL     1     -24.537 -26.239  41.901  1.00  0.00     0.071 C 
ATOM      8  O   UNL     1     -25.155 -26.183  42.998  1.00  0.00    -0.545 OA
ATOM      9  O   UNL     1     -23.836 -25.119  41.466  1.00  0.00    -0.545 OA
ENDBRANCH   1   7
BRANCH   6  10
ATOM     10  O   UNL     1     -24.618 -30.988  38.774  1.00  0.00    -0.508 OA
ATOM     11  H   UNL     1     -25.473 -31.518  38.648  1.00  0.00     0.293 HD
ENDBRANCH   6  10
TORSDOF 2
ENDMDL
MODEL 3
REMARK VINA RESULT:    -4.710      1.005      4.438
REMARK INTER + INTRA:          -5.151
REMARK INTER:                  -5.116
REMARK INTRA:                  -0.034
REMARK UNBOUND:                -0.028
REMARK SMILES O=C([O-])c1ccc(O)cc1
REMARK SMILES IDX 4 1 5 2 10 3 6 4 9 5 7 6 2 7 1 8 3 9 8 10
REMARK H PARENT 8 11
REMARK Flexibility Score: inf
ROOT
ATOM      1  C   UNL     1     -22.939 -28.360  39.115  1.00  0.00    -0.003 A 
ATOM      2  C   UNL     1     -22.198 -28.154  37.938  1.00  0.00     0.014 A 
ATOM      3  C   UNL     1     -22.564 -27.674  40.285  1.00  0.00     0.014 A 
ATOM      4  C   UNL     1     -21.104 -27.283  37.931  1.00  0.00     0.047 A 
ATOM      5  C   UNL     1     -21.469 -26.803  40.275  1.00  0.00     0.047 A 
ATOM      6  C   UNL     1     -20.738 -26.605  39.101  1.00  0.00     0.115 A 
ENDROOT
BRANCH   1   7
ATOM      7  C   UNL     1     -24.095 -29.282  39.119  1.00  0.00     0.071 C 
ATOM      8  O   UNL     1     -24.480 -29.823  40.190  1.00  0.00    -0.545 OA
ATOM      9  O   UNL     1     -24.774 -29.567  37.939  1.00  0.00    -0.545 OA
ENDBRANCH   1   7
BRANCH   6  10
ATOM     10  O   UNL     1     -19.650 -25.734  39.107  1.00  0.00    -0.508 OA
ATOM     11  H   UNL     1     -19.464 -25.125  39.896  1.00  0.00     0.293 HD
ENDBRANCH   6  10
TORSDOF 2
ENDMDL
MODEL 4
REMARK VINA RESULT:    -4.688      2.525      3.568
REMARK INTER + INTRA:          -5.127
REMARK INTER:                  -5.093
REMARK INTRA:                  -0.035
REMARK UNBOUND:                -0.028
REMARK SMILES O=C([O-])c1ccc(O)cc1
REMARK SMILES IDX 4 1 5 2 10 3 6 4 9 5 7 6 2 7 1 8 3 9 8 10
REMARK H PARENT 8 11
REMARK Flexibility Score: inf
ROOT
ATOM      1  C   UNL     1     -23.072 -28.534  38.916  1.00  0.00    -0.003 A 
ATOM      2  C   UNL     1     -23.520 -29.064  40.140  1.00  0.00     0.014 A 
ATOM      3  C   UNL     1     -23.771 -28.855  37.738  1.00  0.00     0.014 A 
ATOM      4  C   UNL     1     -24.641 -29.898  40.183  1.00  0.00     0.047 A 
ATOM      5  C   UNL     1     -24.893 -29.689  37.785  1.00  0.00     0.047 A 
ATOM      6  C   UNL     1     -25.331 -30.212  39.005  1.00  0.00     0.115 A 
ENDROOT
BRANCH   1   7
ATOM      7  C   UNL     1     -21.886 -27.652  38.873  1.00  0.00     0.071 C 
ATOM      8  O   UNL     1     -21.501 -27.045  39.908  1.00  0.00    -0.545 OA
ATOM      9  O   UNL     1     -21.178 -27.480  37.689  1.00  0.00    -0.545 OA
ENDBRANCH   1   7
BRANCH   6  10
ATOM     10  O   UNL     1     -26.450 -31.042  39.035  1.00  0.00    -0.508 OA
ATOM     11  H   UNL     1     -26.359 -32.051  39.078  1.00  0.00     0.293 HD
ENDBRANCH   6  10
TORSDOF 2
ENDMDL
MODEL 5
REMARK VINA RESULT:    -4.678      2.520      3.238
REMARK INTER + INTRA:          -5.116
REMARK INTER:                  -5.081
REMARK INTRA:                  -0.035
REMARK UNBOUND:                -0.028
REMARK SMILES O=C([O-])c1ccc(O)cc1
REMARK SMILES IDX 4 1 5 2 10 3 6 4 9 5 7 6 2 7 1 8 3 9 8 10
REMARK H PARENT 8 11
REMARK Flexibility Score: inf
ROOT
ATOM      1  C   UNL     1     -23.064 -28.519  38.886  1.00  0.00    -0.003 A 
ATOM      2  C   UNL     1     -23.744 -28.828  37.695  1.00  0.00     0.014 A 
ATOM      3  C   UNL     1     -23.539 -29.048  40.101  1.00  0.00     0.014 A 
ATOM      4  C   UNL     1     -24.877 -29.648  37.719  1.00  0.00     0.047 A 
ATOM      5  C   UNL     1     -24.672 -29.867  40.120  1.00  0.00     0.047 A 
ATOM      6  C   UNL     1     -25.343 -30.170  38.932  1.00  0.00     0.115 A 
ENDROOT
BRANCH   1   7
ATOM      7  C   UNL     1     -21.866 -27.651  38.859  1.00  0.00     0.071 C 
ATOM      8  O   UNL     1     -21.496 -27.038  39.895  1.00  0.00    -0.545 OA
ATOM      9  O   UNL     1     -21.132 -27.500  37.688  1.00  0.00    -0.545 OA
ENDBRANCH   1   7
BRANCH   6  10
ATOM     10  O   UNL     1     -26.470 -30.988  38.968  1.00  0.00    -0.508 OA
ATOM     11  H   UNL     1     -27.399 -30.617  38.800  1.00  0.00     0.293 HD
ENDBRANCH   6  10
TORSDOF 2
ENDMDL
MODEL 6
REMARK VINA RESULT:    -4.573      4.268      5.815
REMARK INTER + INTRA:          -5.002
REMARK INTER:                  -4.968
REMARK INTRA:                  -0.034
REMARK UNBOUND:                -0.028
REMARK SMILES O=C([O-])c1ccc(O)cc1
REMARK SMILES IDX 4 1 5 2 10 3 6 4 9 5 7 6 2 7 1 8 3 9 8 10
REMARK H PARENT 8 11
REMARK Flexibility Score: inf
ROOT
ATOM      1  C   UNL     1     -24.931 -27.671  41.223  1.00  0.00    -0.003 A 
ATOM      2  C   UNL     1     -26.329 -27.531  41.156  1.00  0.00     0.014 A 
ATOM      3  C   UNL     1     -24.141 -26.525  41.434  1.00  0.00     0.014 A 
ATOM      4  C   UNL     1     -26.923 -26.274  41.297  1.00  0.00     0.047 A 
ATOM      5  C   UNL     1     -24.739 -25.269  41.575  1.00  0.00     0.047 A 
ATOM      6  C   UNL     1     -26.129 -25.139  41.507  1.00  0.00     0.115 A 
ENDROOT
BRANCH   1   7
ATOM      7  C   UNL     1     -24.305 -29.002  41.074  1.00  0.00     0.071 C 
ATOM      8  O   UNL     1     -23.189 -29.249  41.606  1.00  0.00    -0.545 OA
ATOM      9  O   UNL     1     -24.938 -30.001  40.343  1.00  0.00    -0.545 OA
ENDBRANCH   1   7
BRANCH   6  10
ATOM     10  O   UNL     1     -26.711 -23.881  41.649  1.00  0.00    -0.508 OA
ATOM     11  H   UNL     1     -26.765 -23.233  40.871  1.00  0.00     0.293 HD
ENDBRANCH   6  10
TORSDOF 2
ENDMDL
MODEL 7
REMARK VINA RESULT:    -4.510      3.891      5.688
REMARK INTER + INTRA:          -4.933
REMARK INTER:                  -4.906
REMARK INTRA:                  -0.027
REMARK UNBOUND:                -0.028
REMARK SMILES O=C([O-])c1ccc(O)cc1
REMARK SMILES IDX 4 1 5 2 10 3 6 4 9 5 7 6 2 7 1 8 3 9 8 10
REMARK H PARENT 8 11
REMARK Flexibility Score: inf
ROOT
ATOM      1  C   UNL     1     -24.958 -29.074  39.630  1.00  0.00    -0.003 A 
ATOM      2  C   UNL     1     -23.676 -28.874  40.174  1.00  0.00     0.014 A 
ATOM      3  C   UNL     1     -26.036 -28.321  40.132  1.00  0.00     0.014 A 
ATOM      4  C   UNL     1     -23.478 -27.944  41.198  1.00  0.00     0.047 A 
ATOM      5  C   UNL     1     -25.833 -27.390  41.157  1.00  0.00     0.047 A 
ATOM      6  C   UNL     1     -24.556 -27.198  41.691  1.00  0.00     0.115 A 
ENDROOT
BRANCH   1   7
ATOM      7  C   UNL     1     -25.165 -30.059  38.548  1.00  0.00     0.071 C 
ATOM      8  O   UNL     1     -24.863 -29.776  37.357  1.00  0.00    -0.545 OA
ATOM      9  O   UNL     1     -25.698 -31.313  38.827  1.00  0.00    -0.545 OA
ENDBRANCH   1   7
BRANCH   6  10
ATOM     10  O   UNL     1     -24.370 -26.268  42.711  1.00  0.00    -0.508 OA
ATOM     11  H   UNL     1     -23.605 -25.603  42.688  1.00  0.00     0.293 HD
ENDBRANCH   6  10
TORSDOF 2
ENDMDL
MODEL 8
REMARK VINA RESULT:    -4.469      3.703      5.321
REMARK INTER + INTRA:          -4.889
REMARK INTER:                  -4.856
REMARK INTRA:                  -0.033
REMARK UNBOUND:                -0.028
REMARK SMILES O=C([O-])c1ccc(O)cc1
REMARK SMILES IDX 4 1 5 2 10 3 6 4 9 5 7 6 2 7 1 8 3 9 8 10
REMARK H PARENT 8 11
REMARK Flexibility Score: inf
ROOT
ATOM      1  C   UNL     1     -25.690 -27.174  41.084  1.00  0.00    -0.003 A 
ATOM      2  C   UNL     1     -26.062 -28.347  40.403  1.00  0.00     0.014 A 
ATOM      3  C   UNL     1     -24.322 -26.891  41.257  1.00  0.00     0.014 A 
ATOM      4  C   UNL     1     -25.088 -29.218  39.907  1.00  0.00     0.047 A 
ATOM      5  C   UNL     1     -23.350 -27.765  40.760  1.00  0.00     0.047 A 
ATOM      6  C   UNL     1     -23.729 -28.928  40.084  1.00  0.00     0.115 A 
ENDROOT
BRANCH   1   7
ATOM      7  C   UNL     1     -26.723 -26.255  41.608  1.00  0.00     0.071 C 
ATOM      8  O   UNL     1     -27.814 -26.702  42.052  1.00  0.00    -0.545 OA
ATOM      9  O   UNL     1     -26.505 -24.881  41.618  1.00  0.00    -0.545 OA
ENDBRANCH   1   7
BRANCH   6  10
ATOM     10  O   UNL     1     -22.749 -29.789  39.594  1.00  0.00    -0.508 OA
ATOM     11  H   UNL     1     -22.557 -30.680  40.038  1.00  0.00     0.293 HD
ENDBRANCH   6  10
TORSDOF 2
ENDMDL
MODEL 9
REMARK VINA RESULT:    -4.398      1.867      2.911
REMARK INTER + INTRA:          -4.811
REMARK INTER:                  -4.775
REMARK INTRA:                  -0.036
REMARK UNBOUND:                -0.028
REMARK SMILES O=C([O-])c1ccc(O)cc1
REMARK SMILES IDX 4 1 5 2 10 3 6 4 9 5 7 6 2 7 1 8 3 9 8 10
REMARK H PARENT 8 11
REMARK Flexibility Score: inf
ROOT
ATOM      1  C   UNL     1     -22.621 -27.170  40.342  1.00  0.00    -0.003 A 
ATOM      2  C   UNL     1     -23.793 -26.986  41.096  1.00  0.00     0.014 A 
ATOM      3  C   UNL     1     -22.455 -28.369  39.622  1.00  0.00     0.014 A 
ATOM      4  C   UNL     1     -24.777 -27.978  41.131  1.00  0.00     0.047 A 
ATOM      5  C   UNL     1     -23.442 -29.359  39.660  1.00  0.00     0.047 A 
ATOM      6  C   UNL     1     -24.604 -29.167  40.412  1.00  0.00     0.115 A 
ENDROOT
BRANCH   1   7
ATOM      7  C   UNL     1     -21.581 -26.120  40.307  1.00  0.00     0.071 C 
ATOM      8  O   UNL     1     -20.479 -26.327  39.731  1.00  0.00    -0.545 OA
ATOM      9  O   UNL     1     -21.804 -24.886  40.909  1.00  0.00    -0.545 OA
ENDBRANCH   1   7
BRANCH   6  10
ATOM     10  O   UNL     1     -25.578 -30.163  40.439  1.00  0.00    -0.508 OA
ATOM     11  H   UNL     1     -25.558 -30.904  41.131  1.00  0.00     0.293 HD
ENDBRANCH   6  10
TORSDOF 2
ENDMDL
