MODEL 1
REMARK VINA RESULT:    -4.243      0.000      0.000
REMARK INTER + INTRA:          -4.702
REMARK INTER:                  -4.616
REMARK INTRA:                  -0.086
REMARK UNBOUND:                -0.086
REMARK SMILES C=C(C)[C@H]1CC=C(C)[C@H](O)C1
REMARK SMILES IDX 8 1 7 2 6 3 5 4 4 5 11 6 9 7 10 8 2 10 1 11 3 12
REMARK H PARENT 10 9
REMARK Flexibility Score: inf
ROOT
ATOM      1  C   UNL     1     -38.107  25.069   4.151  1.00  0.00     0.042 C 
ATOM      2  C   UNL     1     -37.782  23.946   5.098  1.00  0.00    -0.049 C 
ATOM      3  C   UNL     1     -37.098  22.877   4.633  1.00  0.00    -0.025 C 
ATOM      4  C   UNL     1     -36.781  21.669   5.479  1.00  0.00     0.035 C 
ATOM      5  C   UNL     1     -36.804  21.989   6.984  1.00  0.00     0.021 C 
ATOM      6  C   UNL     1     -38.082  22.768   7.332  1.00  0.00     0.044 C 
ATOM      7  C   UNL     1     -38.125  24.105   6.570  1.00  0.00     0.140 C 
ENDROOT
BRANCH   7   8
ATOM      8  O   UNL     1     -37.224  25.016   7.144  1.00  0.00    -0.389 OA
ATOM      9  H   UNL     1     -37.620  25.920   7.037  1.00  0.00     0.211 HD
ENDBRANCH   7   8
BRANCH   5  10
ATOM     10  C   UNL     1     -36.663  20.728   7.827  1.00  0.00    -0.077 C 
ATOM     11  C   UNL     1     -35.488  20.386   8.384  1.00  0.00     0.008 C 
ATOM     12  C   UNL     1     -37.853  19.831   8.047  1.00  0.00     0.039 C 
ENDBRANCH   5  10
TORSDOF 2
ENDMDL
MODEL 2
REMARK VINA RESULT:    -3.583      1.400      2.062
REMARK INTER + INTRA:          -3.984
REMARK INTER:                  -3.893
REMARK INTRA:                  -0.091
REMARK UNBOUND:                -0.086
REMARK SMILES C=C(C)[C@H]1CC=C(C)[C@H](O)C1
REMARK SMILES IDX 8 1 7 2 6 3 5 4 4 5 11 6 9 7 10 8 2 10 1 11 3 12
REMARK H PARENT 10 9
REMARK Flexibility Score: inf
ROOT
ATOM      1  C   UNL     1     -38.124  25.230   4.203  1.00  0.00     0.042 C 
ATOM      2  C   UNL     1     -37.709  24.114   5.124  1.00  0.00    -0.049 C 
ATOM      3  C   UNL     1     -37.985  24.221   6.442  1.00  0.00    -0.025 C 
ATOM      4  C   UNL     1     -37.554  23.194   7.461  1.00  0.00     0.035 C 
ATOM      5  C   UNL     1     -37.289  21.818   6.825  1.00  0.00     0.021 C 
ATOM      6  C   UNL     1     -36.401  21.982   5.581  1.00  0.00     0.044 C 
ATOM      7  C   UNL     1     -37.105  22.855   4.526  1.00  0.00     0.140 C 
ENDROOT
BRANCH   7   8
ATOM      8  O   UNL     1     -38.125  22.124   3.897  1.00  0.00    -0.389 OA
ATOM      9  H   UNL     1     -37.707  21.640   3.138  1.00  0.00     0.211 HD
ENDBRANCH   7   8
BRANCH   5  10
ATOM     10  C   UNL     1     -36.682  20.845   7.827  1.00  0.00    -0.077 C 
ATOM     11  C   UNL     1     -35.454  21.042   8.339  1.00  0.00     0.008 C 
ATOM     12  C   UNL     1     -37.457  19.628   8.262  1.00  0.00     0.039 C 
ENDBRANCH   5  10
TORSDOF 2
ENDMDL
MODEL 3
REMARK VINA RESULT:    -2.736      1.904      4.596
REMARK INTER + INTRA:          -3.062
REMARK INTER:                  -2.967
REMARK INTRA:                  -0.094
REMARK UNBOUND:                -0.086
REMARK SMILES C=C(C)[C@H]1CC=C(C)[C@H](O)C1
REMARK SMILES IDX 8 1 7 2 6 3 5 4 4 5 11 6 9 7 10 8 2 10 1 11 3 12
REMARK H PARENT 10 9
REMARK Flexibility Score: inf
ROOT
ATOM      1  C   UNL     1     -36.116  19.808   8.213  1.00  0.00     0.042 C 
ATOM      2  C   UNL     1     -36.590  21.016   7.452  1.00  0.00    -0.049 C 
ATOM      3  C   UNL     1     -36.183  22.241   7.853  1.00  0.00    -0.025 C 
ATOM      4  C   UNL     1     -36.653  23.520   7.204  1.00  0.00     0.035 C 
ATOM      5  C   UNL     1     -37.157  23.293   5.768  1.00  0.00     0.021 C 
ATOM      6  C   UNL     1     -38.125  22.100   5.738  1.00  0.00     0.044 C 
ATOM      7  C   UNL     1     -37.410  20.813   6.189  1.00  0.00     0.140 C 
ENDROOT
BRANCH   7   8
ATOM      8  O   UNL     1     -36.558  20.352   5.172  1.00  0.00    -0.389 OA
ATOM      9  H   UNL     1     -36.420  19.382   5.329  1.00  0.00     0.211 HD
ENDBRANCH   7   8
BRANCH   5  10
ATOM     10  C   UNL     1     -37.794  24.552   5.193  1.00  0.00    -0.077 C 
ATOM     11  C   UNL     1     -38.122  24.639   3.892  1.00  0.00     0.008 C 
ATOM     12  C   UNL     1     -38.065  25.736   6.085  1.00  0.00     0.039 C 
ENDBRANCH   5  10
TORSDOF 2
ENDMDL
MODEL 4
REMARK VINA RESULT:    -2.354      1.571      4.271
REMARK INTER + INTRA:          -2.646
REMARK INTER:                  -2.551
REMARK INTRA:                  -0.096
REMARK UNBOUND:                -0.086
REMARK SMILES C=C(C)[C@H]1CC=C(C)[C@H](O)C1
REMARK SMILES IDX 8 1 7 2 6 3 5 4 4 5 11 6 9 7 10 8 2 10 1 11 3 12
REMARK H PARENT 10 9
REMARK Flexibility Score: inf
ROOT
ATOM      1  C   UNL     1     -36.798  19.238   7.541  1.00  0.00     0.042 C 
ATOM      2  C   UNL     1     -37.081  20.606   6.985  1.00  0.00    -0.049 C 
ATOM      3  C   UNL     1     -37.610  20.711   5.746  1.00  0.00    -0.025 C 
ATOM      4  C   UNL     1     -37.869  22.034   5.068  1.00  0.00     0.035 C 
ATOM      5  C   UNL     1     -38.003  23.188   6.076  1.00  0.00     0.021 C 
ATOM      6  C   UNL     1     -36.845  23.137   7.085  1.00  0.00     0.044 C 
ATOM      7  C   UNL     1     -36.879  21.818   7.880  1.00  0.00     0.140 C 
ENDROOT
BRANCH   7   8
ATOM      8  O   UNL     1     -37.914  21.853   8.828  1.00  0.00    -0.389 OA
ATOM      9  H   UNL     1     -37.626  22.474   9.546  1.00  0.00     0.211 HD
ENDBRANCH   7   8
BRANCH   5  10
ATOM     10  C   UNL     1     -38.081  24.538   5.374  1.00  0.00    -0.077 C 
ATOM     11  C   UNL     1     -38.125  25.688   6.071  1.00  0.00     0.008 C 
ATOM     12  C   UNL     1     -38.117  24.606   3.870  1.00  0.00     0.039 C 
ENDBRANCH   5  10
TORSDOF 2
ENDMDL
MODEL 5
REMARK VINA RESULT:    -1.866      1.571      4.491
REMARK INTER + INTRA:          -2.115
REMARK INTER:                  -2.029
REMARK INTRA:                  -0.086
REMARK UNBOUND:                -0.086
REMARK SMILES C=C(C)[C@H]1CC=C(C)[C@H](O)C1
REMARK SMILES IDX 8 1 7 2 6 3 5 4 4 5 11 6 9 7 10 8 2 10 1 11 3 12
REMARK H PARENT 10 9
REMARK Flexibility Score: inf
ROOT
ATOM      1  C   UNL     1     -35.696  19.925   8.745  1.00  0.00     0.042 C 
ATOM      2  C   UNL     1     -36.231  21.027   7.871  1.00  0.00    -0.049 C 
ATOM      3  C   UNL     1     -37.467  21.514   8.118  1.00  0.00    -0.025 C 
ATOM      4  C   UNL     1     -38.125  22.568   7.262  1.00  0.00     0.035 C 
ATOM      5  C   UNL     1     -37.099  23.399   6.471  1.00  0.00     0.021 C 
ATOM      6  C   UNL     1     -36.095  22.464   5.778  1.00  0.00     0.044 C 
ATOM      7  C   UNL     1     -35.320  21.636   6.819  1.00  0.00     0.140 C 
ENDROOT
BRANCH   7   8
ATOM      8  O   UNL     1     -34.367  22.442   7.464  1.00  0.00    -0.389 OA
ATOM      9  H   UNL     1     -33.992  21.904   8.209  1.00  0.00     0.211 HD
ENDBRANCH   7   8
BRANCH   5  10
ATOM     10  C   UNL     1     -37.780  24.332   5.478  1.00  0.00    -0.077 C 
ATOM     11  C   UNL     1     -38.104  25.594   5.812  1.00  0.00     0.008 C 
ATOM     12  C   UNL     1     -38.112  23.847   4.091  1.00  0.00     0.039 C 
ENDBRANCH   5  10
TORSDOF 2
ENDMDL
