MODEL 1
REMARK VINA RESULT:    -5.779      0.000      0.000
REMARK INTER + INTRA:         -15.626
REMARK INTER:                 -13.213
REMARK INTRA:                  -2.413
REMARK UNBOUND:                -2.413
REMARK SMILES CCCCCCCCCCCCCCCCCCCCCCCC(=O)[O-]
REMARK SMILES IDX 13 1 14 2 15 3 16 4 17 5 18 6 19 7 20 8 21 9 22 10 23 11
REMARK SMILES IDX 24 12 25 13 26 14 12 15 11 16 10 17 9 18 8 19 7 20 6 21 5 22
REMARK SMILES IDX 4 23 3 24 2 25 1 26
REMARK H PARENT
REMARK Flexibility Score: inf
ROOT
ATOM      1  C   UNL     1      49.641  28.722  15.868  1.00  0.00     0.000 C 
ENDROOT
BRANCH   1   2
ATOM      2  C   UNL     1      48.116  28.681  15.670  1.00  0.00     0.000 C 
BRANCH   2   3
ATOM      3  C   UNL     1      47.408  29.913  16.255  1.00  0.00     0.000 C 
BRANCH   3   4
ATOM      4  C   UNL     1      47.779  30.162  17.728  1.00  0.00     0.000 C 
BRANCH   4   5
ATOM      5  C   UNL     1      47.872  31.658  18.068  1.00  0.00     0.000 C 
BRANCH   5   6
ATOM      6  C   UNL     1      49.258  32.249  17.768  1.00  0.00     0.000 C 
BRANCH   6   7
ATOM      7  C   UNL     1      49.138  33.574  17.007  1.00  0.00     0.000 C 
BRANCH   7   8
ATOM      8  C   UNL     1      47.667  33.959  16.801  1.00  0.00     0.000 C 
BRANCH   8   9
ATOM      9  C   UNL     1      47.270  33.853  15.325  1.00  0.00     0.000 C 
BRANCH   9  10
ATOM     10  C   UNL     1      48.459  33.400  14.466  1.00  0.00     0.006 C 
BRANCH  10  11
ATOM     11  C   UNL     1      48.919  34.489  13.487  1.00  0.00     0.053 C 
BRANCH  11  12
ATOM     12  C   UNL     1      49.047  33.964  12.089  1.00  0.00     0.041 C 
ATOM     13  O   UNL     1      50.179  33.883  11.544  1.00  0.00    -0.550 OA
ATOM     14  O   UNL     1      47.918  33.536  11.400  1.00  0.00    -0.550 OA
ENDBRANCH  11  12
ENDBRANCH  10  11
ENDBRANCH   9  10
ENDBRANCH   8   9
ENDBRANCH   7   8
ENDBRANCH   6   7
ENDBRANCH   5   6
ENDBRANCH   4   5
ENDBRANCH   3   4
ENDBRANCH   2   3
ENDBRANCH   1   2
BRANCH   1  15
ATOM     15  C   UNL     1      50.324  27.390  15.505  1.00  0.00     0.000 C 
BRANCH  15  16
ATOM     16  C   UNL     1      49.358  26.222  15.227  1.00  0.00     0.000 C 
BRANCH  16  17
ATOM     17  C   UNL     1      49.699  24.907  15.955  1.00  0.00     0.000 C 
BRANCH  17  18
ATOM     18  C   UNL     1      49.683  24.992  17.494  1.00  0.00    -0.000 C 
BRANCH  18  19
ATOM     19  C   UNL     1      48.375  25.538  18.104  1.00  0.00    -0.000 C 
BRANCH  19  20
ATOM     20  C   UNL     1      48.555  26.397  19.369  1.00  0.00    -0.000 C 
BRANCH  20  21
ATOM     21  C   UNL     1      48.295  25.613  20.668  1.00  0.00    -0.000 C 
BRANCH  21  22
ATOM     22  C   UNL     1      49.576  24.946  21.215  1.00  0.00    -0.000 C 
BRANCH  22  23
ATOM     23  C   UNL     1      49.994  25.451  22.606  1.00  0.00    -0.000 C 
BRANCH  23  24
ATOM     24  C   UNL     1      50.352  26.947  22.614  1.00  0.00    -0.000 C 
BRANCH  24  25
ATOM     25  C   UNL     1      51.818  27.200  22.223  1.00  0.00    -0.003 C 
ATOM     26  C   UNL     1      52.739  26.041  22.603  1.00  0.00     0.004 C 
ENDBRANCH  24  25
ENDBRANCH  23  24
ENDBRANCH  22  23
ENDBRANCH  21  22
ENDBRANCH  20  21
ENDBRANCH  19  20
ENDBRANCH  18  19
ENDBRANCH  17  18
ENDBRANCH  16  17
ENDBRANCH  15  16
ENDBRANCH   1  15
TORSDOF 22
ENDMDL
MODEL 2
REMARK VINA RESULT:    -5.620      1.174      2.121
REMARK INTER + INTRA:         -15.261
REMARK INTER:                 -12.301
REMARK INTRA:                  -2.959
REMARK UNBOUND:                -2.413
REMARK SMILES CCCCCCCCCCCCCCCCCCCCCCCC(=O)[O-]
REMARK SMILES IDX 13 1 14 2 15 3 16 4 17 5 18 6 19 7 20 8 21 9 22 10 23 11
REMARK SMILES IDX 24 12 25 13 26 14 12 15 11 16 10 17 9 18 8 19 7 20 6 21 5 22
REMARK SMILES IDX 4 23 3 24 2 25 1 26
REMARK H PARENT
REMARK Flexibility Score: inf
ROOT
ATOM      1  C   UNL     1      50.267  27.840  16.745  1.00  0.00     0.000 C 
ENDROOT
BRANCH   1   2
ATOM      2  C   UNL     1      49.822  29.110  16.001  1.00  0.00     0.000 C 
BRANCH   2   3
ATOM      3  C   UNL     1      48.380  29.017  15.479  1.00  0.00     0.000 C 
BRANCH   3   4
ATOM      4  C   UNL     1      47.433  30.004  16.186  1.00  0.00     0.000 C 
BRANCH   4   5
ATOM      5  C   UNL     1      47.824  30.251  17.651  1.00  0.00     0.000 C 
BRANCH   5   6
ATOM      6  C   UNL     1      47.886  31.745  18.004  1.00  0.00     0.000 C 
BRANCH   6   7
ATOM      7  C   UNL     1      49.223  32.357  17.568  1.00  0.00     0.000 C 
BRANCH   7   8
ATOM      8  C   UNL     1      49.009  33.708  16.874  1.00  0.00     0.000 C 
BRANCH   8   9
ATOM      9  C   UNL     1      47.826  33.648  15.901  1.00  0.00     0.000 C 
BRANCH   9  10
ATOM     10  C   UNL     1      48.279  33.172  14.513  1.00  0.00     0.006 C 
BRANCH  10  11
ATOM     11  C   UNL     1      48.911  34.301  13.687  1.00  0.00     0.053 C 
BRANCH  11  12
ATOM     12  C   UNL     1      49.116  33.900  12.259  1.00  0.00     0.041 C 
ATOM     13  O   UNL     1      48.127  33.627  11.528  1.00  0.00    -0.550 OA
ATOM     14  O   UNL     1      50.399  33.857  11.725  1.00  0.00    -0.550 OA
ENDBRANCH  11  12
ENDBRANCH  10  11
ENDBRANCH   9  10
ENDBRANCH   8   9
ENDBRANCH   7   8
ENDBRANCH   6   7
ENDBRANCH   5   6
ENDBRANCH   4   5
ENDBRANCH   3   4
ENDBRANCH   2   3
ENDBRANCH   1   2
BRANCH   1  15
ATOM     15  C   UNL     1      49.724  26.551  16.102  1.00  0.00     0.000 C 
BRANCH  15  16
ATOM     16  C   UNL     1      48.808  25.709  17.012  1.00  0.00     0.000 C 
BRANCH  16  17
ATOM     17  C   UNL     1      48.613  26.268  18.436  1.00  0.00     0.000 C 
BRANCH  17  18
ATOM     18  C   UNL     1      48.881  25.262  19.572  1.00  0.00    -0.000 C 
BRANCH  18  19
ATOM     19  C   UNL     1      48.131  25.548  20.889  1.00  0.00    -0.000 C 
BRANCH  19  20
ATOM     20  C   UNL     1      48.691  26.718  21.718  1.00  0.00    -0.000 C 
BRANCH  20  21
ATOM     21  C   UNL     1      49.788  26.282  22.705  1.00  0.00    -0.000 C 
BRANCH  21  22
ATOM     22  C   UNL     1      51.046  27.173  22.613  1.00  0.00    -0.000 C 
BRANCH  22  23
ATOM     23  C   UNL     1      52.325  26.405  22.235  1.00  0.00    -0.000 C 
BRANCH  23  24
ATOM     24  C   UNL     1      52.228  25.730  20.857  1.00  0.00    -0.000 C 
BRANCH  24  25
ATOM     25  C   UNL     1      52.354  26.736  19.700  1.00  0.00    -0.003 C 
ATOM     26  C   UNL     1      53.024  26.135  18.465  1.00  0.00     0.004 C 
ENDBRANCH  24  25
ENDBRANCH  23  24
ENDBRANCH  22  23
ENDBRANCH  21  22
ENDBRANCH  20  21
ENDBRANCH  19  20
ENDBRANCH  18  19
ENDBRANCH  17  18
ENDBRANCH  16  17
ENDBRANCH  15  16
ENDBRANCH   1  15
TORSDOF 22
ENDMDL
MODEL 3
REMARK VINA RESULT:    -5.384      2.406      5.133
REMARK INTER + INTRA:         -14.721
REMARK INTER:                 -11.585
REMARK INTRA:                  -3.135
REMARK UNBOUND:                -2.413
REMARK SMILES CCCCCCCCCCCCCCCCCCCCCCCC(=O)[O-]
REMARK SMILES IDX 13 1 14 2 15 3 16 4 17 5 18 6 19 7 20 8 21 9 22 10 23 11
REMARK SMILES IDX 24 12 25 13 26 14 12 15 11 16 10 17 9 18 8 19 7 20 6 21 5 22
REMARK SMILES IDX 4 23 3 24 2 25 1 26
REMARK H PARENT
REMARK Flexibility Score: inf
ROOT
ATOM      1  C   UNL     1      49.036  26.205  19.009  1.00  0.00     0.000 C 
ENDROOT
BRANCH   1   2
ATOM      2  C   UNL     1      48.450  25.574  17.735  1.00  0.00     0.000 C 
BRANCH   2   3
ATOM      3  C   UNL     1      49.534  25.071  16.769  1.00  0.00     0.000 C 
BRANCH   3   4
ATOM      4  C   UNL     1      49.428  25.717  15.376  1.00  0.00     0.000 C 
BRANCH   4   5
ATOM      5  C   UNL     1      50.342  26.942  15.222  1.00  0.00     0.000 C 
BRANCH   5   6
ATOM      6  C   UNL     1      49.698  28.232  15.755  1.00  0.00     0.000 C 
BRANCH   6   7
ATOM      7  C   UNL     1      48.343  28.487  15.084  1.00  0.00     0.000 C 
BRANCH   7   8
ATOM      8  C   UNL     1      47.460  29.391  15.954  1.00  0.00     0.000 C 
BRANCH   8   9
ATOM      9  C   UNL     1      48.086  29.612  17.335  1.00  0.00     0.000 C 
BRANCH   9  10
ATOM     10  C   UNL     1      47.830  31.041  17.833  1.00  0.00     0.006 C 
BRANCH  10  11
ATOM     11  C   UNL     1      49.001  31.985  17.525  1.00  0.00     0.053 C 
BRANCH  11  12
ATOM     12  C   UNL     1      48.551  33.214  16.796  1.00  0.00     0.041 C 
ATOM     13  O   UNL     1      49.004  34.343  17.118  1.00  0.00    -0.550 OA
ATOM     14  O   UNL     1      47.654  33.108  15.740  1.00  0.00    -0.550 OA
ENDBRANCH  11  12
ENDBRANCH  10  11
ENDBRANCH   9  10
ENDBRANCH   8   9
ENDBRANCH   7   8
ENDBRANCH   6   7
ENDBRANCH   5   6
ENDBRANCH   4   5
ENDBRANCH   3   4
ENDBRANCH   2   3
ENDBRANCH   1   2
BRANCH   1  15
ATOM     15  C   UNL     1      48.586  25.482  20.292  1.00  0.00     0.000 C 
BRANCH  15  16
ATOM     16  C   UNL     1      47.825  26.366  21.300  1.00  0.00     0.000 C 
BRANCH  16  17
ATOM     17  C   UNL     1      48.617  26.732  22.571  1.00  0.00     0.000 C 
BRANCH  17  18
ATOM     18  C   UNL     1      50.021  26.105  22.667  1.00  0.00    -0.000 C 
BRANCH  18  19
ATOM     19  C   UNL     1      51.190  27.111  22.621  1.00  0.00    -0.000 C 
BRANCH  19  20
ATOM     20  C   UNL     1      52.535  26.526  22.152  1.00  0.00    -0.000 C 
BRANCH  20  21
ATOM     21  C   UNL     1      52.421  25.747  20.830  1.00  0.00    -0.000 C 
BRANCH  21  22
ATOM     22  C   UNL     1      53.351  26.313  19.734  1.00  0.00    -0.000 C 
BRANCH  22  23
ATOM     23  C   UNL     1      52.673  26.467  18.362  1.00  0.00    -0.000 C 
BRANCH  23  24
ATOM     24  C   UNL     1      53.003  27.806  17.682  1.00  0.00    -0.000 C 
BRANCH  24  25
ATOM     25  C   UNL     1      53.956  28.672  18.523  1.00  0.00    -0.003 C 
ATOM     26  C   UNL     1      55.236  29.039  17.774  1.00  0.00     0.004 C 
ENDBRANCH  24  25
ENDBRANCH  23  24
ENDBRANCH  22  23
ENDBRANCH  21  22
ENDBRANCH  20  21
ENDBRANCH  19  20
ENDBRANCH  18  19
ENDBRANCH  17  18
ENDBRANCH  16  17
ENDBRANCH  15  16
ENDBRANCH   1  15
TORSDOF 22
ENDMDL
MODEL 4
REMARK VINA RESULT:    -5.365      2.775      7.537
REMARK INTER + INTRA:         -14.678
REMARK INTER:                 -11.545
REMARK INTRA:                  -3.133
REMARK UNBOUND:                -2.413
REMARK SMILES CCCCCCCCCCCCCCCCCCCCCCCC(=O)[O-]
REMARK SMILES IDX 13 1 14 2 15 3 16 4 17 5 18 6 19 7 20 8 21 9 22 10 23 11
REMARK SMILES IDX 24 12 25 13 26 14 12 15 11 16 10 17 9 18 8 19 7 20 6 21 5 22
REMARK SMILES IDX 4 23 3 24 2 25 1 26
REMARK H PARENT
REMARK Flexibility Score: inf
ROOT
ATOM      1  C   UNL     1      48.482  26.455  19.565  1.00  0.00     0.000 C 
ENDROOT
BRANCH   1   2
ATOM      2  C   UNL     1      48.345  26.147  21.065  1.00  0.00     0.000 C 
BRANCH   2   3
ATOM      3  C   UNL     1      49.245  24.988  21.518  1.00  0.00     0.000 C 
BRANCH   3   4
ATOM      4  C   UNL     1      50.195  25.390  22.661  1.00  0.00     0.000 C 
BRANCH   4   5
ATOM      5  C   UNL     1      50.525  26.891  22.654  1.00  0.00     0.000 C 
BRANCH   5   6
ATOM      6  C   UNL     1      52.024  27.166  22.457  1.00  0.00     0.000 C 
BRANCH   6   7
ATOM      7  C   UNL     1      52.803  25.859  22.273  1.00  0.00     0.000 C 
BRANCH   7   8
ATOM      8  C   UNL     1      53.456  25.798  20.886  1.00  0.00     0.000 C 
BRANCH   8   9
ATOM      9  C   UNL     1      52.404  25.601  19.788  1.00  0.00     0.000 C 
BRANCH   9  10
ATOM     10  C   UNL     1      52.637  26.573  18.623  1.00  0.00     0.006 C 
BRANCH  10  11
ATOM     11  C   UNL     1      53.210  27.918  19.091  1.00  0.00     0.053 C 
BRANCH  11  12
ATOM     12  C   UNL     1      53.344  28.892  17.961  1.00  0.00     0.041 C 
ATOM     13  O   UNL     1      52.317  29.370  17.411  1.00  0.00    -0.550 OA
ATOM     14  O   UNL     1      54.604  29.295  17.534  1.00  0.00    -0.550 OA
ENDBRANCH  11  12
ENDBRANCH  10  11
ENDBRANCH   9  10
ENDBRANCH   8   9
ENDBRANCH   7   8
ENDBRANCH   6   7
ENDBRANCH   5   6
ENDBRANCH   4   5
ENDBRANCH   3   4
ENDBRANCH   2   3
ENDBRANCH   1   2
BRANCH   1  15
ATOM     15  C   UNL     1      48.959  25.240  18.749  1.00  0.00     0.000 C 
BRANCH  15  16
ATOM     16  C   UNL     1      48.719  25.345  17.229  1.00  0.00     0.000 C 
BRANCH  16  17
ATOM     17  C   UNL     1      49.988  25.238  16.361  1.00  0.00     0.000 C 
BRANCH  17  18
ATOM     18  C   UNL     1      50.358  26.520  15.589  1.00  0.00    -0.000 C 
BRANCH  18  19
ATOM     19  C   UNL     1      49.170  27.444  15.251  1.00  0.00    -0.000 C 
BRANCH  19  20
ATOM     20  C   UNL     1      49.206  28.827  15.928  1.00  0.00    -0.000 C 
BRANCH  20  21
ATOM     21  C   UNL     1      48.134  28.986  17.021  1.00  0.00    -0.000 C 
BRANCH  21  22
ATOM     22  C   UNL     1      47.802  30.467  17.304  1.00  0.00    -0.000 C 
BRANCH  22  23
ATOM     23  C   UNL     1      48.729  31.460  16.584  1.00  0.00    -0.000 C 
BRANCH  23  24
ATOM     24  C   UNL     1      49.465  32.399  17.554  1.00  0.00    -0.000 C 
BRANCH  24  25
ATOM     25  C   UNL     1      49.191  33.882  17.256  1.00  0.00    -0.003 C 
ATOM     26  C   UNL     1      47.711  34.170  17.004  1.00  0.00     0.004 C 
ENDBRANCH  24  25
ENDBRANCH  23  24
ENDBRANCH  22  23
ENDBRANCH  21  22
ENDBRANCH  20  21
ENDBRANCH  19  20
ENDBRANCH  18  19
ENDBRANCH  17  18
ENDBRANCH  16  17
ENDBRANCH  15  16
ENDBRANCH   1  15
TORSDOF 22
ENDMDL
MODEL 5
REMARK VINA RESULT:    -5.365      2.947      8.651
REMARK INTER + INTRA:         -14.678
REMARK INTER:                 -12.434
REMARK INTRA:                  -2.243
REMARK UNBOUND:                -2.413
REMARK SMILES CCCCCCCCCCCCCCCCCCCCCCCC(=O)[O-]
REMARK SMILES IDX 13 1 14 2 15 3 16 4 17 5 18 6 19 7 20 8 21 9 22 10 23 11
REMARK SMILES IDX 24 12 25 13 26 14 12 15 11 16 10 17 9 18 8 19 7 20 6 21 5 22
REMARK SMILES IDX 4 23 3 24 2 25 1 26
REMARK H PARENT
REMARK Flexibility Score: inf
ROOT
ATOM      1  C   UNL     1      48.519  26.454  16.258  1.00  0.00     0.000 C 
ENDROOT
BRANCH   1   2
ATOM      2  C   UNL     1      48.886  26.665  17.737  1.00  0.00     0.000 C 
BRANCH   2   3
ATOM      3  C   UNL     1      49.094  25.342  18.490  1.00  0.00     0.000 C 
BRANCH   3   4
ATOM      4  C   UNL     1      48.375  25.319  19.851  1.00  0.00     0.000 C 
BRANCH   4   5
ATOM      5  C   UNL     1      48.249  26.718  20.476  1.00  0.00     0.000 C 
BRANCH   5   6
ATOM      6  C   UNL     1      48.147  26.675  22.008  1.00  0.00     0.000 C 
BRANCH   6   7
ATOM      7  C   UNL     1      49.419  26.085  22.628  1.00  0.00     0.000 C 
BRANCH   7   8
ATOM      8  C   UNL     1      50.511  27.153  22.763  1.00  0.00     0.000 C 
BRANCH   8   9
ATOM      9  C   UNL     1      51.873  26.612  22.316  1.00  0.00     0.000 C 
BRANCH   9  10
ATOM     10  C   UNL     1      51.876  26.306  20.812  1.00  0.00     0.006 C 
BRANCH  10  11
ATOM     11  C   UNL     1      53.244  26.570  20.166  1.00  0.00     0.053 C 
BRANCH  11  12
ATOM     12  C   UNL     1      53.164  27.617  19.098  1.00  0.00     0.041 C 
ATOM     13  O   UNL     1      53.731  28.730  19.258  1.00  0.00    -0.550 OA
ATOM     14  O   UNL     1      52.489  27.353  17.913  1.00  0.00    -0.550 OA
ENDBRANCH  11  12
ENDBRANCH  10  11
ENDBRANCH   9  10
ENDBRANCH   8   9
ENDBRANCH   7   8
ENDBRANCH   6   7
ENDBRANCH   5   6
ENDBRANCH   4   5
ENDBRANCH   3   4
ENDBRANCH   2   3
ENDBRANCH   1   2
BRANCH   1  15
ATOM     15  C   UNL     1      48.694  27.730  15.414  1.00  0.00     0.000 C 
BRANCH  15  16
ATOM     16  C   UNL     1      49.944  28.566  15.755  1.00  0.00     0.000 C 
BRANCH  16  17
ATOM     17  C   UNL     1      49.654  29.986  16.281  1.00  0.00     0.000 C 
BRANCH  17  18
ATOM     18  C   UNL     1      48.337  30.132  17.068  1.00  0.00    -0.000 C 
BRANCH  18  19
ATOM     19  C   UNL     1      48.097  31.524  17.686  1.00  0.00    -0.000 C 
BRANCH  19  20
ATOM     20  C   UNL     1      49.182  32.572  17.376  1.00  0.00    -0.000 C 
BRANCH  20  21
ATOM     21  C   UNL     1      48.599  33.917  16.906  1.00  0.00    -0.000 C 
BRANCH  21  22
ATOM     22  C   UNL     1      47.705  33.762  15.657  1.00  0.00    -0.000 C 
BRANCH  22  23
ATOM     23  C   UNL     1      48.462  33.286  14.405  1.00  0.00    -0.000 C 
BRANCH  23  24
ATOM     24  C   UNL     1      48.710  34.418  13.393  1.00  0.00    -0.000 C 
BRANCH  24  25
ATOM     25  C   UNL     1      48.825  33.899  11.950  1.00  0.00    -0.003 C 
ATOM     26  C   UNL     1      50.271  33.639  11.530  1.00  0.00     0.004 C 
ENDBRANCH  24  25
ENDBRANCH  23  24
ENDBRANCH  22  23
ENDBRANCH  21  22
ENDBRANCH  20  21
ENDBRANCH  19  20
ENDBRANCH  18  19
ENDBRANCH  17  18
ENDBRANCH  16  17
ENDBRANCH  15  16
ENDBRANCH   1  15
TORSDOF 22
ENDMDL
MODEL 6
REMARK VINA RESULT:    -5.305      2.749      4.252
REMARK INTER + INTRA:         -14.541
REMARK INTER:                 -12.624
REMARK INTRA:                  -1.917
REMARK UNBOUND:                -2.413
REMARK SMILES CCCCCCCCCCCCCCCCCCCCCCCC(=O)[O-]
REMARK SMILES IDX 13 1 14 2 15 3 16 4 17 5 18 6 19 7 20 8 21 9 22 10 23 11
REMARK SMILES IDX 24 12 25 13 26 14 12 15 11 16 10 17 9 18 8 19 7 20 6 21 5 22
REMARK SMILES IDX 4 23 3 24 2 25 1 26
REMARK H PARENT
REMARK Flexibility Score: inf
ROOT
ATOM      1  C   UNL     1      47.789  31.444  18.357  1.00  0.00     0.000 C 
ENDROOT
BRANCH   1   2
ATOM      2  C   UNL     1      48.484  32.321  17.302  1.00  0.00     0.000 C 
BRANCH   2   3
ATOM      3  C   UNL     1      47.887  33.734  17.217  1.00  0.00     0.000 C 
BRANCH   3   4
ATOM      4  C   UNL     1      47.389  34.079  15.802  1.00  0.00     0.000 C 
BRANCH   4   5
ATOM      5  C   UNL     1      48.225  33.407  14.702  1.00  0.00     0.000 C 
BRANCH   5   6
ATOM      6  C   UNL     1      48.784  34.415  13.685  1.00  0.00     0.000 C 
BRANCH   6   7
ATOM      7  C   UNL     1      48.308  34.084  12.265  1.00  0.00     0.000 C 
BRANCH   7   8
ATOM      8  C   UNL     1      46.798  34.311  12.124  1.00  0.00     0.000 C 
BRANCH   8   9
ATOM      9  C   UNL     1      46.412  35.736  12.535  1.00  0.00     0.000 C 
BRANCH   9  10
ATOM     10  C   UNL     1      45.032  35.759  13.208  1.00  0.00     0.006 C 
BRANCH  10  11
ATOM     11  C   UNL     1      43.888  35.849  12.189  1.00  0.00     0.053 C 
BRANCH  11  12
ATOM     12  C   UNL     1      43.012  37.038  12.437  1.00  0.00     0.041 C 
ATOM     13  O   UNL     1      43.164  38.090  11.763  1.00  0.00    -0.550 OA
ATOM     14  O   UNL     1      42.004  36.973  13.392  1.00  0.00    -0.550 OA
ENDBRANCH  11  12
ENDBRANCH  10  11
ENDBRANCH   9  10
ENDBRANCH   8   9
ENDBRANCH   7   8
ENDBRANCH   6   7
ENDBRANCH   5   6
ENDBRANCH   4   5
ENDBRANCH   3   4
ENDBRANCH   2   3
ENDBRANCH   1   2
BRANCH   1  15
ATOM     15  C   UNL     1      47.708  29.964  17.941  1.00  0.00     0.000 C 
BRANCH  15  16
ATOM     16  C   UNL     1      47.522  29.726  16.430  1.00  0.00     0.000 C 
BRANCH  16  17
ATOM     17  C   UNL     1      48.398  28.606  15.834  1.00  0.00     0.000 C 
BRANCH  17  18
ATOM     18  C   UNL     1      49.456  28.028  16.794  1.00  0.00    -0.000 C 
BRANCH  18  19
ATOM     19  C   UNL     1      49.750  26.524  16.614  1.00  0.00    -0.000 C 
BRANCH  19  20
ATOM     20  C   UNL     1      48.675  25.577  17.178  1.00  0.00    -0.000 C 
BRANCH  20  21
ATOM     21  C   UNL     1      48.363  25.841  18.662  1.00  0.00    -0.000 C 
BRANCH  21  22
ATOM     22  C   UNL     1      49.212  24.960  19.604  1.00  0.00    -0.000 C 
BRANCH  22  23
ATOM     23  C   UNL     1      48.858  25.121  21.092  1.00  0.00    -0.000 C 
BRANCH  23  24
ATOM     24  C   UNL     1      48.609  26.586  21.490  1.00  0.00    -0.000 C 
BRANCH  24  25
ATOM     25  C   UNL     1      49.525  27.047  22.635  1.00  0.00    -0.003 C 
ATOM     26  C   UNL     1      50.996  26.720  22.382  1.00  0.00     0.004 C 
ENDBRANCH  24  25
ENDBRANCH  23  24
ENDBRANCH  22  23
ENDBRANCH  21  22
ENDBRANCH  20  21
ENDBRANCH  19  20
ENDBRANCH  18  19
ENDBRANCH  17  18
ENDBRANCH  16  17
ENDBRANCH  15  16
ENDBRANCH   1  15
TORSDOF 22
ENDMDL
MODEL 7
REMARK VINA RESULT:    -5.163      1.112      1.781
REMARK INTER + INTRA:         -14.217
REMARK INTER:                 -11.486
REMARK INTRA:                  -2.731
REMARK UNBOUND:                -2.413
REMARK SMILES CCCCCCCCCCCCCCCCCCCCCCCC(=O)[O-]
REMARK SMILES IDX 13 1 14 2 15 3 16 4 17 5 18 6 19 7 20 8 21 9 22 10 23 11
REMARK SMILES IDX 24 12 25 13 26 14 12 15 11 16 10 17 9 18 8 19 7 20 6 21 5 22
REMARK SMILES IDX 4 23 3 24 2 25 1 26
REMARK H PARENT
REMARK Flexibility Score: inf
ROOT
ATOM      1  C   UNL     1      50.498  28.684  16.028  1.00  0.00     0.000 C 
ENDROOT
BRANCH   1   2
ATOM      2  C   UNL     1      49.197  28.831  15.221  1.00  0.00     0.000 C 
BRANCH   2   3
ATOM      3  C   UNL     1      47.945  28.845  16.110  1.00  0.00     0.000 C 
BRANCH   3   4
ATOM      4  C   UNL     1      48.135  29.690  17.383  1.00  0.00     0.000 C 
BRANCH   4   5
ATOM      5  C   UNL     1      47.755  31.164  17.175  1.00  0.00     0.000 C 
BRANCH   5   6
ATOM      6  C   UNL     1      48.982  32.075  17.016  1.00  0.00     0.000 C 
BRANCH   6   7
ATOM      7  C   UNL     1      48.566  33.550  16.947  1.00  0.00     0.000 C 
BRANCH   7   8
ATOM      8  C   UNL     1      47.777  33.839  15.664  1.00  0.00     0.000 C 
BRANCH   8   9
ATOM      9  C   UNL     1      48.485  33.255  14.436  1.00  0.00     0.000 C 
BRANCH   9  10
ATOM     10  C   UNL     1      48.871  34.363  13.445  1.00  0.00     0.006 C 
BRANCH  10  11
ATOM     11  C   UNL     1      49.868  33.874  12.385  1.00  0.00     0.053 C 
BRANCH  11  12
ATOM     12  C   UNL     1      49.195  33.585  11.078  1.00  0.00     0.041 C 
ATOM     13  O   UNL     1      48.016  33.142  11.056  1.00  0.00    -0.550 OA
ATOM     14  O   UNL     1      49.858  33.834   9.883  1.00  0.00    -0.550 OA
ENDBRANCH  11  12
ENDBRANCH  10  11
ENDBRANCH   9  10
ENDBRANCH   8   9
ENDBRANCH   7   8
ENDBRANCH   6   7
ENDBRANCH   5   6
ENDBRANCH   4   5
ENDBRANCH   3   4
ENDBRANCH   2   3
ENDBRANCH   1   2
BRANCH   1  15
ATOM     15  C   UNL     1      51.250  27.378  15.712  1.00  0.00     0.000 C 
BRANCH  15  16
ATOM     16  C   UNL     1      50.407  26.301  15.000  1.00  0.00     0.000 C 
BRANCH  16  17
ATOM     17  C   UNL     1      49.949  25.134  15.898  1.00  0.00     0.000 C 
BRANCH  17  18
ATOM     18  C   UNL     1      48.651  25.392  16.687  1.00  0.00    -0.000 C 
BRANCH  18  19
ATOM     19  C   UNL     1      48.791  25.307  18.221  1.00  0.00    -0.000 C 
BRANCH  19  20
ATOM     20  C   UNL     1      49.749  26.336  18.847  1.00  0.00    -0.000 C 
BRANCH  20  21
ATOM     21  C   UNL     1      50.987  25.688  19.493  1.00  0.00    -0.000 C 
BRANCH  21  22
ATOM     22  C   UNL     1      52.061  26.729  19.875  1.00  0.00    -0.000 C 
BRANCH  22  23
ATOM     23  C   UNL     1      52.389  26.761  21.378  1.00  0.00    -0.000 C 
BRANCH  23  24
ATOM     24  C   UNL     1      51.302  26.096  22.239  1.00  0.00    -0.000 C 
BRANCH  24  25
ATOM     25  C   UNL     1      50.261  27.106  22.751  1.00  0.00    -0.003 C 
ATOM     26  C   UNL     1      48.827  26.697  22.414  1.00  0.00     0.004 C 
ENDBRANCH  24  25
ENDBRANCH  23  24
ENDBRANCH  22  23
ENDBRANCH  21  22
ENDBRANCH  20  21
ENDBRANCH  19  20
ENDBRANCH  18  19
ENDBRANCH  17  18
ENDBRANCH  16  17
ENDBRANCH  15  16
ENDBRANCH   1  15
TORSDOF 22
ENDMDL
MODEL 8
REMARK VINA RESULT:    -5.086      2.644      7.980
REMARK INTER + INTRA:         -14.041
REMARK INTER:                 -11.388
REMARK INTRA:                  -2.652
REMARK UNBOUND:                -2.413
REMARK SMILES CCCCCCCCCCCCCCCCCCCCCCCC(=O)[O-]
REMARK SMILES IDX 13 1 14 2 15 3 16 4 17 5 18 6 19 7 20 8 21 9 22 10 23 11
REMARK SMILES IDX 24 12 25 13 26 14 12 15 11 16 10 17 9 18 8 19 7 20 6 21 5 22
REMARK SMILES IDX 4 23 3 24 2 25 1 26
REMARK H PARENT
REMARK Flexibility Score: inf
ROOT
ATOM      1  C   UNL     1      48.538  26.273  18.502  1.00  0.00     0.000 C 
ENDROOT
BRANCH   1   2
ATOM      2  C   UNL     1      48.822  25.262  19.625  1.00  0.00     0.000 C 
BRANCH   2   3
ATOM      3  C   UNL     1      48.220  25.687  20.973  1.00  0.00     0.000 C 
BRANCH   3   4
ATOM      4  C   UNL     1      49.244  25.631  22.120  1.00  0.00     0.000 C 
BRANCH   4   5
ATOM      5  C   UNL     1      49.697  27.027  22.577  1.00  0.00     0.000 C 
BRANCH   5   6
ATOM      6  C   UNL     1      51.226  27.161  22.643  1.00  0.00     0.000 C 
BRANCH   6   7
ATOM      7  C   UNL     1      51.910  25.824  22.333  1.00  0.00     0.000 C 
BRANCH   7   8
ATOM      8  C   UNL     1      52.937  25.980  21.204  1.00  0.00     0.000 C 
BRANCH   8   9
ATOM      9  C   UNL     1      52.587  27.165  20.297  1.00  0.00     0.000 C 
BRANCH   9  10
ATOM     10  C   UNL     1      52.348  26.700  18.854  1.00  0.00     0.006 C 
BRANCH  10  11
ATOM     11  C   UNL     1      53.525  27.039  17.929  1.00  0.00     0.053 C 
BRANCH  11  12
ATOM     12  C   UNL     1      53.183  28.137  16.969  1.00  0.00     0.041 C 
ATOM     13  O   UNL     1      53.311  27.958  15.730  1.00  0.00    -0.550 OA
ATOM     14  O   UNL     1      52.693  29.349  17.443  1.00  0.00    -0.550 OA
ENDBRANCH  11  12
ENDBRANCH  10  11
ENDBRANCH   9  10
ENDBRANCH   8   9
ENDBRANCH   7   8
ENDBRANCH   6   7
ENDBRANCH   5   6
ENDBRANCH   4   5
ENDBRANCH   3   4
ENDBRANCH   2   3
ENDBRANCH   1   2
BRANCH   1  15
ATOM     15  C   UNL     1      48.513  25.620  17.107  1.00  0.00     0.000 C 
BRANCH  15  16
ATOM     16  C   UNL     1      48.636  26.607  15.928  1.00  0.00     0.000 C 
BRANCH  16  17
ATOM     17  C   UNL     1      49.671  27.731  16.126  1.00  0.00     0.000 C 
BRANCH  17  18
ATOM     18  C   UNL     1      49.127  29.159  15.924  1.00  0.00    -0.000 C 
BRANCH  18  19
ATOM     19  C   UNL     1      47.776  29.447  16.610  1.00  0.00    -0.000 C 
BRANCH  19  20
ATOM     20  C   UNL     1      47.787  30.621  17.606  1.00  0.00    -0.000 C 
BRANCH  20  21
ATOM     21  C   UNL     1      48.773  31.735  17.208  1.00  0.00    -0.000 C 
BRANCH  21  22
ATOM     22  C   UNL     1      48.184  33.144  17.429  1.00  0.00    -0.000 C 
BRANCH  22  23
ATOM     23  C   UNL     1      47.734  33.840  16.133  1.00  0.00    -0.000 C 
BRANCH  23  24
ATOM     24  C   UNL     1      48.341  33.201  14.873  1.00  0.00    -0.000 C 
BRANCH  24  25
ATOM     25  C   UNL     1      48.759  34.248  13.828  1.00  0.00    -0.003 C 
ATOM     26  C   UNL     1      48.863  33.667  12.418  1.00  0.00     0.004 C 
ENDBRANCH  24  25
ENDBRANCH  23  24
ENDBRANCH  22  23
ENDBRANCH  21  22
ENDBRANCH  20  21
ENDBRANCH  19  20
ENDBRANCH  18  19
ENDBRANCH  17  18
ENDBRANCH  16  17
ENDBRANCH  15  16
ENDBRANCH   1  15
TORSDOF 22
ENDMDL
MODEL 9
REMARK VINA RESULT:    -5.056      2.821      5.252
REMARK INTER + INTRA:         -13.973
REMARK INTER:                 -10.144
REMARK INTRA:                  -3.828
REMARK UNBOUND:                -2.413
REMARK SMILES CCCCCCCCCCCCCCCCCCCCCCCC(=O)[O-]
REMARK SMILES IDX 13 1 14 2 15 3 16 4 17 5 18 6 19 7 20 8 21 9 22 10 23 11
REMARK SMILES IDX 24 12 25 13 26 14 12 15 11 16 10 17 9 18 8 19 7 20 6 21 5 22
REMARK SMILES IDX 4 23 3 24 2 25 1 26
REMARK H PARENT
REMARK Flexibility Score: inf
ROOT
ATOM      1  C   UNL     1      52.245  28.331  17.447  1.00  0.00     0.000 C 
ENDROOT
BRANCH   1   2
ATOM      2  C   UNL     1      52.278  27.812  16.000  1.00  0.00     0.000 C 
BRANCH   2   3
ATOM      3  C   UNL     1      51.860  26.338  15.889  1.00  0.00     0.000 C 
BRANCH   3   4
ATOM      4  C   UNL     1      51.028  25.868  17.096  1.00  0.00     0.000 C 
BRANCH   4   5
ATOM      5  C   UNL     1      49.864  24.950  16.689  1.00  0.00     0.000 C 
BRANCH   5   6
ATOM      6  C   UNL     1      48.490  25.581  16.962  1.00  0.00     0.000 C 
BRANCH   6   7
ATOM      7  C   UNL     1      48.578  27.112  16.960  1.00  0.00     0.000 C 
BRANCH   7   8
ATOM      8  C   UNL     1      48.310  27.677  15.559  1.00  0.00     0.000 C 
BRANCH   8   9
ATOM      9  C   UNL     1      48.720  29.151  15.470  1.00  0.00     0.000 C 
BRANCH   9  10
ATOM     10  C   UNL     1      48.985  29.733  16.865  1.00  0.00     0.006 C 
BRANCH  10  11
ATOM     11  C   UNL     1      49.252  31.245  16.825  1.00  0.00     0.053 C 
BRANCH  11  12
ATOM     12  C   UNL     1      48.192  32.018  17.548  1.00  0.00     0.041 C 
ATOM     13  O   UNL     1      47.692  31.566  18.611  1.00  0.00    -0.550 OA
ATOM     14  O   UNL     1      47.779  33.253  17.063  1.00  0.00    -0.550 OA
ENDBRANCH  11  12
ENDBRANCH  10  11
ENDBRANCH   9  10
ENDBRANCH   8   9
ENDBRANCH   7   8
ENDBRANCH   6   7
ENDBRANCH   5   6
ENDBRANCH   4   5
ENDBRANCH   3   4
ENDBRANCH   2   3
ENDBRANCH   1   2
BRANCH   1  15
ATOM     15  C   UNL     1      53.567  29.000  17.869  1.00  0.00     0.000 C 
BRANCH  15  16
ATOM     16  C   UNL     1      54.431  28.171  18.840  1.00  0.00     0.000 C 
BRANCH  16  17
ATOM     17  C   UNL     1      54.897  26.807  18.294  1.00  0.00     0.000 C 
BRANCH  17  18
ATOM     18  C   UNL     1      54.244  25.581  18.961  1.00  0.00    -0.000 C 
BRANCH  18  19
ATOM     19  C   UNL     1      53.285  25.904  20.125  1.00  0.00    -0.000 C 
BRANCH  19  20
ATOM     20  C   UNL     1      53.694  25.318  21.489  1.00  0.00    -0.000 C 
BRANCH  20  21
ATOM     21  C   UNL     1      52.872  25.892  22.658  1.00  0.00    -0.000 C 
BRANCH  21  22
ATOM     22  C   UNL     1      52.052  27.132  22.243  1.00  0.00    -0.000 C 
BRANCH  22  23
ATOM     23  C   UNL     1      50.564  27.049  22.624  1.00  0.00    -0.000 C 
BRANCH  23  24
ATOM     24  C   UNL     1      50.038  25.605  22.659  1.00  0.00    -0.000 C 
BRANCH  24  25
ATOM     25  C   UNL     1      49.356  25.197  21.342  1.00  0.00    -0.003 C 
ATOM     26  C   UNL     1      48.715  26.381  20.619  1.00  0.00     0.004 C 
ENDBRANCH  24  25
ENDBRANCH  23  24
ENDBRANCH  22  23
ENDBRANCH  21  22
ENDBRANCH  20  21
ENDBRANCH  19  20
ENDBRANCH  18  19
ENDBRANCH  17  18
ENDBRANCH  16  17
ENDBRANCH  15  16
ENDBRANCH   1  15
TORSDOF 22
ENDMDL
