MODEL 1
REMARK VINA RESULT:    -3.528      0.000      0.000
REMARK INTER + INTRA:          -5.683
REMARK INTER:                  -5.385
REMARK INTRA:                  -0.298
REMARK UNBOUND:                -0.298
REMARK SMILES CC1=CCC[C@@H](C)C(=O)C[C@@H](C(C)C)C(=O)C1
REMARK SMILES IDX 8 1 9 2 6 3 7 4 5 5 4 6 3 7 2 8 1 9 10 11 11 12 15 13 16 14
REMARK SMILES IDX 17 15 12 17 13 18 14 19
REMARK H PARENT
REMARK Flexibility Score: 70.00
ROOT
ATOM      1  C   UNL     1      45.180  23.634  20.826  1.00  0.00     0.136 C 
ATOM      2  O   UNL     1      44.226  24.338  20.527  1.00  0.00    -0.299 OA
ENDROOT
BRANCH   1   3
ATOM      3  C   UNL     1      45.373  22.286  20.149  1.00  0.00     0.053 C 
ATOM      4  C   UNL     1      45.307  21.119  21.148  1.00  0.00     0.016 C 
BRANCH   3   5
ATOM      5  C   UNL     1      46.678  22.238  19.323  1.00  0.00     0.015 C 
BRANCH   5   6
ATOM      6  C   UNL     1      47.843  21.497  20.023  1.00  0.00     0.028 C 
BRANCH   6   7
ATOM      7  C   UNL     1      49.163  22.161  19.710  1.00  0.00    -0.028 C 
ATOM      8  C   UNL     1      49.699  23.206  20.387  1.00  0.00    -0.070 CG0
ATOM      9  C   UNL     1      51.001  23.774  19.880  1.00  0.00     0.039 C 
ATOM     10  G   UNL     1      49.093  23.782  21.659  1.00  0.00     0.000 G0
ENDBRANCH   6   7
ENDBRANCH   5   6
ENDBRANCH   3   5
ENDBRANCH   1   3
BRANCH   1  11
ATOM     11  C   UNL     1      46.130  24.118  21.898  1.00  0.00     0.087 C 
BRANCH  11  12
ATOM     12  C   UNL     1      46.943  25.373  21.475  1.00  0.00     0.066 C 
BRANCH  12  13
ATOM     13  C   UNL     1      48.448  25.143  21.584  1.00  0.00     0.140 C 
ATOM     14  O   UNL     1      49.186  26.117  21.620  1.00  0.00    -0.299 OA
BRANCH  13  15
ATOM     15  C   UNL     1      49.101  23.775  21.677  1.00  0.00     0.106 CG0
ATOM     16  G   UNL     1      49.669  23.208  20.383  1.00  0.00     0.000 G0
ENDBRANCH  13  15
ENDBRANCH  12  13
BRANCH  12  17
ATOM     17  C   UNL     1      46.469  26.651  22.236  1.00  0.00    -0.006 C 
ATOM     18  C   UNL     1      45.965  27.787  21.325  1.00  0.00     0.008 C 
ATOM     19  C   UNL     1      45.392  26.310  23.276  1.00  0.00     0.008 C 
ENDBRANCH  12  17
ENDBRANCH  11  12
ENDBRANCH   1  11
TORSDOF 1
ENDMDL
MODEL 2
REMARK VINA RESULT:    -3.236      6.819      9.422
REMARK INTER + INTRA:          -5.237
REMARK INTER:                  -4.960
REMARK INTRA:                  -0.277
REMARK UNBOUND:                -0.298
REMARK SMILES CC1=CCC[C@@H](C)C(=O)C[C@@H](C(C)C)C(=O)C1
REMARK SMILES IDX 8 1 9 2 6 3 7 4 5 5 4 6 3 7 2 8 1 9 10 11 11 12 15 13 16 14
REMARK SMILES IDX 17 15 12 17 13 18 14 19
REMARK H PARENT
REMARK Flexibility Score: 70.00
ROOT
ATOM      1  C   UNL     1      41.268  22.864  22.595  1.00  0.00     0.136 C 
ATOM      2  O   UNL     1      42.183  22.131  22.249  1.00  0.00    -0.299 OA
ENDROOT
BRANCH   1   3
ATOM      3  C   UNL     1      41.371  24.365  22.374  1.00  0.00     0.053 C 
ATOM      4  C   UNL     1      42.144  24.713  21.091  1.00  0.00     0.016 C 
BRANCH   3   5
ATOM      5  C   UNL     1      41.973  25.089  23.599  1.00  0.00     0.015 C 
BRANCH   5   6
ATOM      6  C   UNL     1      41.084  26.222  24.166  1.00  0.00     0.028 C 
BRANCH   6   7
ATOM      7  C   UNL     1      40.913  26.071  25.659  1.00  0.00    -0.028 C 
ATOM      8  C   UNL     1      39.810  25.588  26.281  1.00  0.00    -0.070 CG0
ATOM      9  C   UNL     1      39.806  25.576  27.789  1.00  0.00     0.039 C 
ATOM     10  G   UNL     1      38.619  24.998  25.539  1.00  0.00     0.000 G0
ENDBRANCH   6   7
ENDBRANCH   5   6
ENDBRANCH   3   5
ENDBRANCH   1   3
BRANCH   1  11
ATOM     11  C   UNL     1      40.063  22.250  23.269  1.00  0.00     0.087 C 
BRANCH  11  12
ATOM     12  C   UNL     1      38.917  23.267  23.524  1.00  0.00     0.066 C 
BRANCH  12  13
ATOM     13  C   UNL     1      38.760  23.593  25.007  1.00  0.00     0.140 C 
ATOM     14  O   UNL     1      38.779  22.674  25.812  1.00  0.00    -0.299 OA
BRANCH  13  15
ATOM     15  C   UNL     1      38.604  24.999  25.562  1.00  0.00     0.106 CG0
ATOM     16  G   UNL     1      39.817  25.584  26.271  1.00  0.00     0.000 G0
ENDBRANCH  13  15
ENDBRANCH  12  13
BRANCH  12  17
ATOM     17  C   UNL     1      37.580  22.808  22.860  1.00  0.00    -0.006 C 
ATOM     18  C   UNL     1      37.049  23.760  21.771  1.00  0.00     0.008 C 
ATOM     19  C   UNL     1      37.703  21.388  22.289  1.00  0.00     0.008 C 
ENDBRANCH  12  17
ENDBRANCH  11  12
ENDBRANCH   1  11
TORSDOF 1
ENDMDL
MODEL 3
REMARK VINA RESULT:    -3.214      2.478      3.316
REMARK INTER + INTRA:          -5.203
REMARK INTER:                  -4.901
REMARK INTRA:                  -0.302
REMARK UNBOUND:                -0.298
REMARK SMILES CC1=CCC[C@@H](C)C(=O)C[C@@H](C(C)C)C(=O)C1
REMARK SMILES IDX 8 1 9 2 6 3 7 4 5 5 4 6 3 7 2 8 1 9 10 11 11 12 15 13 16 14
REMARK SMILES IDX 17 15 12 17 13 18 14 19
REMARK H PARENT
REMARK Flexibility Score: 70.00
ROOT
ATOM      1  C   UNL     1      48.041  24.644  21.480  1.00  0.00     0.136 C 
ATOM      2  O   UNL     1      46.822  24.735  21.443  1.00  0.00    -0.299 OA
ENDROOT
BRANCH   1   3
ATOM      3  C   UNL     1      48.706  23.280  21.392  1.00  0.00     0.053 C 
ATOM      4  C   UNL     1      49.859  23.129  22.399  1.00  0.00     0.016 C 
BRANCH   3   5
ATOM      5  C   UNL     1      49.177  22.959  19.956  1.00  0.00     0.015 C 
BRANCH   5   6
ATOM      6  C   UNL     1      50.611  23.447  19.636  1.00  0.00     0.028 C 
BRANCH   6   7
ATOM      7  C   UNL     1      50.638  24.205  18.329  1.00  0.00    -0.028 C 
ATOM      8  C   UNL     1      50.630  25.554  18.201  1.00  0.00    -0.070 CG0
ATOM      9  C   UNL     1      50.595  26.123  16.804  1.00  0.00     0.039 C 
ATOM     10  G   UNL     1      50.723  26.510  19.382  1.00  0.00     0.000 G0
ENDBRANCH   6   7
ENDBRANCH   5   6
ENDBRANCH   3   5
ENDBRANCH   1   3
BRANCH   1  11
ATOM     11  C   UNL     1      48.856  25.906  21.648  1.00  0.00     0.087 C 
BRANCH  11  12
ATOM     12  C   UNL     1      48.412  27.054  20.700  1.00  0.00     0.066 C 
BRANCH  12  13
ATOM     13  C   UNL     1      49.480  27.384  19.660  1.00  0.00     0.140 C 
ATOM     14  O   UNL     1      49.365  28.413  19.011  1.00  0.00    -0.299 OA
BRANCH  13  15
ATOM     15  C   UNL     1      50.703  26.525  19.388  1.00  0.00     0.106 CG0
ATOM     16  G   UNL     1      50.603  25.558  18.216  1.00  0.00     0.000 G0
ENDBRANCH  13  15
ENDBRANCH  12  13
BRANCH  12  17
ATOM     17  C   UNL     1      47.936  28.309  21.497  1.00  0.00    -0.006 C 
ATOM     18  C   UNL     1      46.441  28.642  21.332  1.00  0.00     0.008 C 
ATOM     19  C   UNL     1      48.273  28.179  22.990  1.00  0.00     0.008 C 
ENDBRANCH  12  17
ENDBRANCH  11  12
ENDBRANCH   1  11
TORSDOF 1
ENDMDL
MODEL 4
REMARK VINA RESULT:    -3.141      3.836      6.565
REMARK INTER + INTRA:          -5.092
REMARK INTER:                  -5.059
REMARK INTRA:                  -0.033
REMARK UNBOUND:                -0.298
REMARK SMILES CC1=CCC[C@@H](C)C(=O)C[C@@H](C(C)C)C(=O)C1
REMARK SMILES IDX 8 1 9 2 6 3 7 4 5 5 4 6 3 7 2 8 1 9 10 11 11 12 15 13 16 14
REMARK SMILES IDX 17 15 12 17 13 18 14 19
REMARK H PARENT
REMARK Flexibility Score: 70.00
ROOT
ATOM      1  C   UNL     1      52.196  26.483  22.565  1.00  0.00     0.136 C 
ATOM      2  O   UNL     1      53.288  25.999  22.304  1.00  0.00    -0.299 OA
ENDROOT
BRANCH   1   3
ATOM      3  C   UNL     1      52.104  27.870  23.180  1.00  0.00     0.053 C 
ATOM      4  C   UNL     1      51.075  27.933  24.322  1.00  0.00     0.016 C 
BRANCH   3   5
ATOM      5  C   UNL     1      51.822  28.955  22.118  1.00  0.00     0.015 C 
BRANCH   5   6
ATOM      6  C   UNL     1      50.341  29.396  22.040  1.00  0.00     0.028 C 
BRANCH   6   7
ATOM      7  C   UNL     1      49.950  29.710  20.616  1.00  0.00    -0.028 C 
ATOM      8  C   UNL     1      49.576  28.800  19.683  1.00  0.00    -0.070 CG0
ATOM      9  C   UNL     1      49.285  29.305  18.291  1.00  0.00     0.039 C 
ATOM     10  G   UNL     1      49.370  27.323  19.986  1.00  0.00     0.000 G0
ENDBRANCH   6   7
ENDBRANCH   5   6
ENDBRANCH   3   5
ENDBRANCH   1   3
BRANCH   1  11
ATOM     11  C   UNL     1      50.957  25.660  22.294  1.00  0.00     0.087 C 
BRANCH  11  12
ATOM     12  C   UNL     1      50.826  25.219  20.810  1.00  0.00     0.066 C 
BRANCH  12  13
ATOM     13  C   UNL     1      50.559  26.401  19.883  1.00  0.00     0.140 C 
ATOM     14  O   UNL     1      51.357  26.633  18.986  1.00  0.00    -0.299 OA
BRANCH  13  15
ATOM     15  C   UNL     1      49.344  27.308  19.981  1.00  0.00     0.106 CG0
ATOM     16  G   UNL     1      49.580  28.787  19.706  1.00  0.00     0.000 G0
ENDBRANCH  13  15
ENDBRANCH  12  13
BRANCH  12  17
ATOM     17  C   UNL     1      49.784  24.069  20.640  1.00  0.00    -0.006 C 
ATOM     18  C   UNL     1      49.977  23.214  19.373  1.00  0.00     0.008 C 
ATOM     19  C   UNL     1      49.756  23.158  21.876  1.00  0.00     0.008 C 
ENDBRANCH  12  17
ENDBRANCH  11  12
ENDBRANCH   1  11
TORSDOF 1
ENDMDL
MODEL 5
REMARK VINA RESULT:    -3.110      6.300      8.653
REMARK INTER + INTRA:          -5.046
REMARK INTER:                  -4.624
REMARK INTRA:                  -0.421
REMARK UNBOUND:                -0.298
REMARK SMILES CC1=CCC[C@@H](C)C(=O)C[C@@H](C(C)C)C(=O)C1
REMARK SMILES IDX 8 1 9 2 6 3 7 4 5 5 4 6 3 7 2 8 1 9 10 11 11 12 15 13 16 14
REMARK SMILES IDX 17 15 12 17 13 18 14 19
REMARK H PARENT
REMARK Flexibility Score: 70.00
ROOT
ATOM      1  C   UNL     1      38.679  24.557  22.366  1.00  0.00     0.136 C 
ATOM      2  O   UNL     1      37.662  25.124  21.992  1.00  0.00    -0.299 OA
ENDROOT
BRANCH   1   3
ATOM      3  C   UNL     1      38.581  23.320  23.245  1.00  0.00     0.053 C 
ATOM      4  C   UNL     1      37.857  22.161  22.538  1.00  0.00     0.016 C 
BRANCH   3   5
ATOM      5  C   UNL     1      37.928  23.632  24.610  1.00  0.00     0.015 C 
BRANCH   5   6
ATOM      6  C   UNL     1      38.920  23.645  25.798  1.00  0.00     0.028 C 
BRANCH   6   7
ATOM      7  C   UNL     1      39.135  25.053  26.300  1.00  0.00    -0.028 C 
ATOM      8  C   UNL     1      40.285  25.761  26.192  1.00  0.00    -0.070 CG0
ATOM      9  C   UNL     1      40.323  27.133  26.816  1.00  0.00     0.039 C 
ATOM     10  G   UNL     1      41.502  25.272  25.418  1.00  0.00     0.000 G0
ENDBRANCH   6   7
ENDBRANCH   5   6
ENDBRANCH   3   5
ENDBRANCH   1   3
BRANCH   1  11
ATOM     11  C   UNL     1      40.018  25.130  21.963  1.00  0.00     0.087 C 
BRANCH  11  12
ATOM     12  C   UNL     1      41.194  24.616  22.837  1.00  0.00     0.066 C 
BRANCH  12  13
ATOM     13  C   UNL     1      41.567  25.608  23.936  1.00  0.00     0.140 C 
ATOM     14  O   UNL     1      41.914  26.734  23.614  1.00  0.00    -0.299 OA
BRANCH  13  15
ATOM     15  C   UNL     1      41.514  25.297  25.423  1.00  0.00     0.106 CG0
ATOM     16  G   UNL     1      40.267  25.757  26.165  1.00  0.00     0.000 G0
ENDBRANCH  13  15
ENDBRANCH  12  13
BRANCH  12  17
ATOM     17  C   UNL     1      42.417  24.190  21.966  1.00  0.00    -0.006 C 
ATOM     18  C   UNL     1      42.400  22.716  21.518  1.00  0.00     0.008 C 
ATOM     19  C   UNL     1      42.569  25.100  20.739  1.00  0.00     0.008 C 
ENDBRANCH  12  17
ENDBRANCH  11  12
ENDBRANCH   1  11
TORSDOF 1
ENDMDL
MODEL 6
REMARK VINA RESULT:    -3.011      3.926      6.267
REMARK INTER + INTRA:          -4.893
REMARK INTER:                  -4.403
REMARK INTRA:                  -0.490
REMARK UNBOUND:                -0.298
REMARK SMILES CC1=CCC[C@@H](C)C(=O)C[C@@H](C(C)C)C(=O)C1
REMARK SMILES IDX 8 1 9 2 6 3 7 4 5 5 4 6 3 7 2 8 1 9 10 11 11 12 15 13 16 14
REMARK SMILES IDX 17 15 12 17 13 18 14 19
REMARK H PARENT
REMARK Flexibility Score: 70.00
ROOT
ATOM      1  C   UNL     1      49.881  28.200  20.508  1.00  0.00     0.136 C 
ATOM      2  O   UNL     1      50.037  29.339  20.089  1.00  0.00    -0.299 OA
ENDROOT
BRANCH   1   3
ATOM      3  C   UNL     1      48.579  27.813  21.191  1.00  0.00     0.053 C 
ATOM      4  C   UNL     1      47.370  27.931  20.247  1.00  0.00     0.016 C 
BRANCH   3   5
ATOM      5  C   UNL     1      48.348  28.614  22.491  1.00  0.00     0.015 C 
BRANCH   5   6
ATOM      6  C   UNL     1      48.956  27.959  23.755  1.00  0.00     0.028 C 
BRANCH   6   7
ATOM      7  C   UNL     1      50.219  28.675  24.174  1.00  0.00    -0.028 C 
ATOM      8  C   UNL     1      51.433  28.097  24.341  1.00  0.00    -0.070 CG0
ATOM      9  C   UNL     1      52.562  28.971  24.829  1.00  0.00     0.039 C 
ATOM     10  G   UNL     1      51.725  26.643  23.998  1.00  0.00     0.000 G0
ENDBRANCH   6   7
ENDBRANCH   5   6
ENDBRANCH   3   5
ENDBRANCH   1   3
BRANCH   1  11
ATOM     11  C   UNL     1      51.015  27.212  20.359  1.00  0.00     0.087 C 
BRANCH  11  12
ATOM     12  C   UNL     1      51.009  26.104  21.448  1.00  0.00     0.066 C 
BRANCH  12  13
ATOM     13  C   UNL     1      52.061  26.354  22.526  1.00  0.00     0.140 C 
ATOM     14  O   UNL     1      53.240  26.334  22.206  1.00  0.00    -0.299 OA
BRANCH  13  15
ATOM     15  C   UNL     1      51.740  26.652  23.980  1.00  0.00     0.106 CG0
ATOM     16  G   UNL     1      51.445  28.105  24.323  1.00  0.00     0.000 G0
ENDBRANCH  13  15
ENDBRANCH  12  13
BRANCH  12  17
ATOM     17  C   UNL     1      51.113  24.678  20.820  1.00  0.00    -0.006 C 
ATOM     18  C   UNL     1      50.084  23.665  21.359  1.00  0.00     0.008 C 
ATOM     19  C   UNL     1      51.022  24.738  19.288  1.00  0.00     0.008 C 
ENDBRANCH  12  17
ENDBRANCH  11  12
ENDBRANCH   1  11
TORSDOF 1
ENDMDL
MODEL 7
REMARK VINA RESULT:    -2.992      4.423      6.683
REMARK INTER + INTRA:          -4.864
REMARK INTER:                  -5.188
REMARK INTRA:                   0.324
REMARK UNBOUND:                -0.298
REMARK SMILES CC1=CCC[C@@H](C)C(=O)C[C@@H](C(C)C)C(=O)C1
REMARK SMILES IDX 8 1 9 2 6 3 7 4 5 5 4 6 3 7 2 8 1 9 10 11 11 12 15 13 16 14
REMARK SMILES IDX 17 15 12 17 13 18 14 19
REMARK H PARENT
REMARK Flexibility Score: 70.00
ROOT
ATOM      1  C   UNL     1      50.734  28.088  19.596  1.00  0.00     0.136 C 
ATOM      2  O   UNL     1      51.838  28.224  20.104  1.00  0.00    -0.299 OA
ENDROOT
BRANCH   1   3
ATOM      3  C   UNL     1      50.025  29.287  18.986  1.00  0.00     0.053 C 
ATOM      4  C   UNL     1      48.503  29.085  18.909  1.00  0.00     0.016 C 
BRANCH   3   5
ATOM      5  C   UNL     1      50.606  29.659  17.604  1.00  0.00     0.015 C 
BRANCH   5   6
ATOM      6  C   UNL     1      49.842  29.042  16.408  1.00  0.00     0.028 C 
BRANCH   6   7
ATOM      7  C   UNL     1      50.767  28.204  15.557  1.00  0.00    -0.028 C 
ATOM      8  C   UNL     1      51.015  26.883  15.730  1.00  0.00    -0.070 CG0
ATOM      9  C   UNL     1      52.024  26.234  14.815  1.00  0.00     0.039 C 
ATOM     10  G   UNL     1      50.282  26.017  16.745  1.00  0.00     0.000 G0
ENDBRANCH   6   7
ENDBRANCH   5   6
ENDBRANCH   3   5
ENDBRANCH   1   3
BRANCH   1  11
ATOM     11  C   UNL     1      50.088  26.722  19.621  1.00  0.00     0.087 C 
BRANCH  11  12
ATOM     12  C   UNL     1      51.074  25.571  19.283  1.00  0.00     0.066 C 
BRANCH  12  13
ATOM     13  C   UNL     1      51.133  25.288  17.784  1.00  0.00     0.140 C 
ATOM     14  O   UNL     1      51.902  24.427  17.381  1.00  0.00    -0.299 OA
BRANCH  13  15
ATOM     15  C   UNL     1      50.277  25.993  16.746  1.00  0.00     0.106 CG0
ATOM     16  G   UNL     1      51.013  26.875  15.747  1.00  0.00     0.000 G0
ENDBRANCH  13  15
ENDBRANCH  12  13
BRANCH  12  17
ATOM     17  C   UNL     1      50.780  24.292  20.129  1.00  0.00    -0.006 C 
ATOM     18  C   UNL     1      50.083  24.563  21.476  1.00  0.00     0.008 C 
ATOM     19  C   UNL     1      49.965  23.270  19.323  1.00  0.00     0.008 C 
ENDBRANCH  12  17
ENDBRANCH  11  12
ENDBRANCH   1  11
TORSDOF 1
ENDMDL
MODEL 8
REMARK VINA RESULT:    -2.954      3.811      5.155
REMARK INTER + INTRA:          -4.806
REMARK INTER:                  -4.611
REMARK INTRA:                  -0.195
REMARK UNBOUND:                -0.298
REMARK SMILES CC1=CCC[C@@H](C)C(=O)C[C@@H](C(C)C)C(=O)C1
REMARK SMILES IDX 8 1 9 2 6 3 7 4 5 5 4 6 3 7 2 8 1 9 10 11 11 12 15 13 16 14
REMARK SMILES IDX 17 15 12 17 13 18 14 19
REMARK H PARENT
REMARK Flexibility Score: 70.00
ROOT
ATOM      1  C   UNL     1      50.694  25.631  21.171  1.00  0.00     0.136 C 
ATOM      2  O   UNL     1      51.171  25.301  22.248  1.00  0.00    -0.299 OA
ENDROOT
BRANCH   1   3
ATOM      3  C   UNL     1      49.992  24.600  20.302  1.00  0.00     0.053 C 
ATOM      4  C   UNL     1      49.418  23.437  21.129  1.00  0.00     0.016 C 
BRANCH   3   5
ATOM      5  C   UNL     1      50.907  24.078  19.172  1.00  0.00     0.015 C 
BRANCH   5   6
ATOM      6  C   UNL     1      50.421  24.437  17.747  1.00  0.00     0.028 C 
BRANCH   6   7
ATOM      7  C   UNL     1      51.478  25.216  17.001  1.00  0.00    -0.028 C 
ATOM      8  C   UNL     1      51.392  26.521  16.648  1.00  0.00    -0.070 CG0
ATOM      9  C   UNL     1      52.528  27.106  15.845  1.00  0.00     0.039 C 
ATOM     10  G   UNL     1      50.251  27.433  17.076  1.00  0.00     0.000 G0
ENDBRANCH   6   7
ENDBRANCH   5   6
ENDBRANCH   3   5
ENDBRANCH   1   3
BRANCH   1  11
ATOM     11  C   UNL     1      50.849  27.065  20.719  1.00  0.00     0.087 C 
BRANCH  11  12
ATOM     12  C   UNL     1      49.763  27.508  19.701  1.00  0.00     0.066 C 
BRANCH  12  13
ATOM     13  C   UNL     1      50.374  28.089  18.428  1.00  0.00     0.140 C 
ATOM     14  O   UNL     1      51.024  29.121  18.510  1.00  0.00    -0.299 OA
BRANCH  13  15
ATOM     15  C   UNL     1      50.250  27.454  17.053  1.00  0.00     0.106 CG0
ATOM     16  G   UNL     1      51.383  26.530  16.630  1.00  0.00     0.000 G0
ENDBRANCH  13  15
ENDBRANCH  12  13
BRANCH  12  17
ATOM     17  C   UNL     1      48.712  28.459  20.356  1.00  0.00    -0.006 C 
ATOM     18  C   UNL     1      49.317  29.576  21.229  1.00  0.00     0.008 C 
ATOM     19  C   UNL     1      47.787  29.076  19.297  1.00  0.00     0.008 C 
ENDBRANCH  12  17
ENDBRANCH  11  12
ENDBRANCH   1  11
TORSDOF 1
ENDMDL
MODEL 9
REMARK VINA RESULT:    -2.915      2.478      4.662
REMARK INTER + INTRA:          -4.747
REMARK INTER:                  -4.422
REMARK INTRA:                  -0.325
REMARK UNBOUND:                -0.298
REMARK SMILES CC1=CCC[C@@H](C)C(=O)C[C@@H](C(C)C)C(=O)C1
REMARK SMILES IDX 8 1 9 2 6 3 7 4 5 5 4 6 3 7 2 8 1 9 10 11 11 12 15 13 16 14
REMARK SMILES IDX 17 15 12 17 13 18 14 19
REMARK H PARENT
REMARK Flexibility Score: 70.00
ROOT
ATOM      1  C   UNL     1      49.865  26.253  20.127  1.00  0.00     0.136 C 
ATOM      2  O   UNL     1      50.635  26.301  19.178  1.00  0.00    -0.299 OA
ENDROOT
BRANCH   1   3
ATOM      3  C   UNL     1      49.931  25.088  21.103  1.00  0.00     0.053 C 
ATOM      4  C   UNL     1      51.334  24.461  21.165  1.00  0.00     0.016 C 
BRANCH   3   5
ATOM      5  C   UNL     1      48.858  24.019  20.798  1.00  0.00     0.015 C 
BRANCH   5   6
ATOM      6  C   UNL     1      47.856  23.781  21.953  1.00  0.00     0.028 C 
BRANCH   6   7
ATOM      7  C   UNL     1      46.433  23.846  21.448  1.00  0.00    -0.028 C 
ATOM      8  C   UNL     1      45.555  24.848  21.696  1.00  0.00    -0.070 CG0
ATOM      9  C   UNL     1      44.154  24.699  21.157  1.00  0.00     0.039 C 
ATOM     10  G   UNL     1      45.929  26.132  22.424  1.00  0.00     0.000 G0
ENDBRANCH   6   7
ENDBRANCH   5   6
ENDBRANCH   3   5
ENDBRANCH   1   3
BRANCH   1  11
ATOM     11  C   UNL     1      48.838  27.351  20.284  1.00  0.00     0.087 C 
BRANCH  11  12
ATOM     12  C   UNL     1      48.187  27.387  21.693  1.00  0.00     0.066 C 
BRANCH  12  13
ATOM     13  C   UNL     1      46.674  27.192  21.631  1.00  0.00     0.140 C 
ATOM     14  O   UNL     1      46.024  27.905  20.879  1.00  0.00    -0.299 OA
BRANCH  13  15
ATOM     15  C   UNL     1      45.912  26.148  22.428  1.00  0.00     0.106 CG0
ATOM     16  G   UNL     1      45.563  24.860  21.695  1.00  0.00     0.000 G0
ENDBRANCH  13  15
ENDBRANCH  12  13
BRANCH  12  17
ATOM     17  C   UNL     1      48.601  28.665  22.488  1.00  0.00    -0.006 C 
ATOM     18  C   UNL     1      49.862  28.497  23.358  1.00  0.00     0.008 C 
ATOM     19  C   UNL     1      48.777  29.868  21.550  1.00  0.00     0.008 C 
ENDBRANCH  12  17
ENDBRANCH  11  12
ENDBRANCH   1  11
TORSDOF 1
ENDMDL
