MODEL 1
REMARK VINA RESULT:    -1.110      0.000      0.000
REMARK INTER + INTRA:           0.959
REMARK INTER:                  -2.797
REMARK INTRA:                   3.756
REMARK UNBOUND:                 3.756
REMARK SMILES CCCCCCCCCCCCCCCCCCCCCCCCCCCC(=O)[O-]
REMARK SMILES IDX 15 1 16 2 17 3 18 4 19 5 20 6 21 7 22 8 23 9 24 10 25 11
REMARK SMILES IDX 26 12 27 13 28 14 29 15 30 16 14 17 13 18 12 19 11 20 10 21
REMARK SMILES IDX 9 22 8 23 7 24 6 25 5 26 4 27 3 28 2 29 1 30
REMARK H PARENT
REMARK Flexibility Score: inf
ROOT
ATOM      1  C   UNL     1       8.902  10.538   5.417  1.00  0.00     0.000 C 
ENDROOT
BRANCH   1   2
ATOM      2  C   UNL     1       7.534  10.582   6.131  1.00  0.00     0.000 C 
BRANCH   2   3
ATOM      3  C   UNL     1       7.631  11.061   7.592  1.00  0.00     0.000 C 
BRANCH   3   4
ATOM      4  C   UNL     1       7.587  12.592   7.714  1.00  0.00     0.000 C 
BRANCH   4   5
ATOM      5  C   UNL     1       6.980  13.064   9.048  1.00  0.00     0.000 C 
BRANCH   5   6
ATOM      6  C   UNL     1       5.877  12.128   9.573  1.00  0.00     0.000 C 
BRANCH   6   7
ATOM      7  C   UNL     1       4.621  12.029   8.686  1.00  0.00     0.000 C 
BRANCH   7   8
ATOM      8  C   UNL     1       3.359  11.620   9.467  1.00  0.00     0.000 C 
BRANCH   8   9
ATOM      9  C   UNL     1       2.459  12.818   9.823  1.00  0.00     0.000 C 
BRANCH   9  10
ATOM     10  C   UNL     1       1.333  13.110   8.813  1.00  0.00     0.000 C 
BRANCH  10  11
ATOM     11  C   UNL     1      -0.033  12.571   9.270  1.00  0.00     0.000 C 
BRANCH  11  12
ATOM     12  C   UNL     1      -1.099  12.645   8.161  1.00  0.00     0.006 C 
BRANCH  12  13
ATOM     13  C   UNL     1      -2.476  13.125   8.645  1.00  0.00     0.053 C 
BRANCH  13  14
ATOM     14  C   UNL     1      -3.595  12.443   7.917  1.00  0.00     0.041 C 
ATOM     15  O   UNL     1      -4.423  13.118   7.250  1.00  0.00    -0.550 OA
ATOM     16  O   UNL     1      -3.689  11.056   7.934  1.00  0.00    -0.550 OA
ENDBRANCH  13  14
ENDBRANCH  12  13
ENDBRANCH  11  12
ENDBRANCH  10  11
ENDBRANCH   9  10
ENDBRANCH   8   9
ENDBRANCH   7   8
ENDBRANCH   6   7
ENDBRANCH   5   6
ENDBRANCH   4   5
ENDBRANCH   3   4
ENDBRANCH   2   3
ENDBRANCH   1   2
BRANCH   1  17
ATOM     17  C   UNL     1       9.790  11.770   5.677  1.00  0.00     0.000 C 
BRANCH  17  18
ATOM     18  C   UNL     1       9.701  12.886   4.619  1.00  0.00     0.000 C 
BRANCH  18  19
ATOM     19  C   UNL     1       9.352  12.418   3.193  1.00  0.00     0.000 C 
BRANCH  19  20
ATOM     20  C   UNL     1       7.855  12.111   3.013  1.00  0.00     0.000 C 
BRANCH  20  21
ATOM     21  C   UNL     1       6.971  12.919   3.976  1.00  0.00     0.000 C 
BRANCH  21  22
ATOM     22  C   UNL     1       5.595  12.274   4.202  1.00  0.00    -0.000 C 
BRANCH  22  23
ATOM     23  C   UNL     1       5.678  11.172   5.269  1.00  0.00    -0.000 C 
BRANCH  23  24
ATOM     24  C   UNL     1       4.665  10.037   5.044  1.00  0.00    -0.000 C 
BRANCH  24  25
ATOM     25  C   UNL     1       3.261  10.495   4.604  1.00  0.00    -0.000 C 
BRANCH  25  26
ATOM     26  C   UNL     1       2.197  10.300   5.696  1.00  0.00    -0.000 C 
BRANCH  26  27
ATOM     27  C   UNL     1       2.850  10.177   7.081  1.00  0.00    -0.000 C 
BRANCH  27  28
ATOM     28  C   UNL     1       3.596   8.845   7.266  1.00  0.00    -0.000 C 
BRANCH  28  29
ATOM     29  C   UNL     1       4.408   8.797   8.569  1.00  0.00    -0.003 C 
ATOM     30  C   UNL     1       3.681   7.990   9.641  1.00  0.00     0.004 C 
ENDBRANCH  28  29
ENDBRANCH  27  28
ENDBRANCH  26  27
ENDBRANCH  25  26
ENDBRANCH  24  25
ENDBRANCH  23  24
ENDBRANCH  22  23
ENDBRANCH  21  22
ENDBRANCH  20  21
ENDBRANCH  19  20
ENDBRANCH  18  19
ENDBRANCH  17  18
ENDBRANCH   1  17
TORSDOF 26
ENDMDL
MODEL 2
REMARK VINA RESULT:    -1.050      3.818      8.170
REMARK INTER + INTRA:           1.111
REMARK INTER:                   0.058
REMARK INTRA:                   1.052
REMARK UNBOUND:                 3.756
REMARK SMILES CCCCCCCCCCCCCCCCCCCCCCCCCCCC(=O)[O-]
REMARK SMILES IDX 15 1 16 2 17 3 18 4 19 5 20 6 21 7 22 8 23 9 24 10 25 11
REMARK SMILES IDX 26 12 27 13 28 14 29 15 30 16 14 17 13 18 12 19 11 20 10 21
REMARK SMILES IDX 9 22 8 23 7 24 6 25 5 26 4 27 3 28 2 29 1 30
REMARK H PARENT
REMARK Flexibility Score: inf
ROOT
ATOM      1  C   UNL     1       3.396   8.736   8.638  1.00  0.00     0.000 C 
ENDROOT
BRANCH   1   2
ATOM      2  C   UNL     1       3.393   9.343   7.219  1.00  0.00     0.000 C 
BRANCH   2   3
ATOM      3  C   UNL     1       4.658   8.996   6.412  1.00  0.00     0.000 C 
BRANCH   3   4
ATOM      4  C   UNL     1       4.932  10.003   5.284  1.00  0.00     0.000 C 
BRANCH   4   5
ATOM      5  C   UNL     1       4.764  11.464   5.739  1.00  0.00     0.000 C 
BRANCH   5   6
ATOM      6  C   UNL     1       5.851  12.399   5.177  1.00  0.00     0.000 C 
BRANCH   6   7
ATOM      7  C   UNL     1       7.049  12.651   6.113  1.00  0.00     0.000 C 
BRANCH   7   8
ATOM      8  C   UNL     1       7.658  11.356   6.679  1.00  0.00     0.000 C 
BRANCH   8   9
ATOM      9  C   UNL     1       8.697  11.615   7.786  1.00  0.00     0.000 C 
BRANCH   9  10
ATOM     10  C   UNL     1      10.118  11.937   7.285  1.00  0.00     0.000 C 
BRANCH  10  11
ATOM     11  C   UNL     1      10.125  12.911   6.095  1.00  0.00     0.000 C 
BRANCH  11  12
ATOM     12  C   UNL     1      10.095  12.187   4.737  1.00  0.00     0.006 C 
BRANCH  12  13
ATOM     13  C   UNL     1       9.960  13.125   3.527  1.00  0.00     0.053 C 
BRANCH  13  14
ATOM     14  C   UNL     1       9.243  12.469   2.387  1.00  0.00     0.041 C 
ATOM     15  O   UNL     1       8.279  11.689   2.608  1.00  0.00    -0.550 OA
ATOM     16  O   UNL     1       9.607  12.762   1.078  1.00  0.00    -0.550 OA
ENDBRANCH  13  14
ENDBRANCH  12  13
ENDBRANCH  11  12
ENDBRANCH  10  11
ENDBRANCH   9  10
ENDBRANCH   8   9
ENDBRANCH   7   8
ENDBRANCH   6   7
ENDBRANCH   5   6
ENDBRANCH   4   5
ENDBRANCH   3   4
ENDBRANCH   2   3
ENDBRANCH   1   2
BRANCH   1  17
ATOM     17  C   UNL     1       3.863   9.708   9.739  1.00  0.00     0.000 C 
BRANCH  17  18
ATOM     18  C   UNL     1       5.388   9.904   9.846  1.00  0.00     0.000 C 
BRANCH  18  19
ATOM     19  C   UNL     1       5.995  10.916   8.856  1.00  0.00     0.000 C 
BRANCH  19  20
ATOM     20  C   UNL     1       5.798  12.377   9.298  1.00  0.00     0.000 C 
BRANCH  20  21
ATOM     21  C   UNL     1       4.453  12.599  10.008  1.00  0.00     0.000 C 
BRANCH  21  22
ATOM     22  C   UNL     1       3.336  13.022   9.042  1.00  0.00    -0.000 C 
BRANCH  22  23
ATOM     23  C   UNL     1       2.255  11.934   8.951  1.00  0.00    -0.000 C 
BRANCH  23  24
ATOM     24  C   UNL     1       1.219  12.015  10.086  1.00  0.00    -0.000 C 
BRANCH  24  25
ATOM     25  C   UNL     1       0.100  13.052   9.873  1.00  0.00    -0.000 C 
BRANCH  25  26
ATOM     26  C   UNL     1      -0.526  12.980   8.472  1.00  0.00    -0.000 C 
BRANCH  26  27
ATOM     27  C   UNL     1      -1.850  12.202   8.502  1.00  0.00    -0.000 C 
BRANCH  27  28
ATOM     28  C   UNL     1      -3.079  13.125   8.467  1.00  0.00    -0.000 C 
BRANCH  28  29
ATOM     29  C   UNL     1      -4.208  12.576   7.582  1.00  0.00    -0.003 C 
ATOM     30  C   UNL     1      -3.678  11.538   6.597  1.00  0.00     0.004 C 
ENDBRANCH  28  29
ENDBRANCH  27  28
ENDBRANCH  26  27
ENDBRANCH  25  26
ENDBRANCH  24  25
ENDBRANCH  23  24
ENDBRANCH  22  23
ENDBRANCH  21  22
ENDBRANCH  20  21
ENDBRANCH  19  20
ENDBRANCH  18  19
ENDBRANCH  17  18
ENDBRANCH   1  17
TORSDOF 26
ENDMDL
MODEL 3
REMARK VINA RESULT:    -0.584      3.043      8.098
REMARK INTER + INTRA:           2.285
REMARK INTER:                   1.898
REMARK INTRA:                   0.387
REMARK UNBOUND:                 3.756
REMARK SMILES CCCCCCCCCCCCCCCCCCCCCCCCCCCC(=O)[O-]
REMARK SMILES IDX 15 1 16 2 17 3 18 4 19 5 20 6 21 7 22 8 23 9 24 10 25 11
REMARK SMILES IDX 26 12 27 13 28 14 29 15 30 16 14 17 13 18 12 19 11 20 10 21
REMARK SMILES IDX 9 22 8 23 7 24 6 25 5 26 4 27 3 28 2 29 1 30
REMARK H PARENT
REMARK Flexibility Score: inf
ROOT
ATOM      1  C   UNL     1       2.987   8.261   9.226  1.00  0.00     0.000 C 
ENDROOT
BRANCH   1   2
ATOM      2  C   UNL     1       4.126   8.338   8.188  1.00  0.00     0.000 C 
BRANCH   2   3
ATOM      3  C   UNL     1       4.349   9.760   7.640  1.00  0.00     0.000 C 
BRANCH   3   4
ATOM      4  C   UNL     1       5.761  10.291   7.936  1.00  0.00     0.000 C 
BRANCH   4   5
ATOM      5  C   UNL     1       5.779  11.331   9.070  1.00  0.00     0.000 C 
BRANCH   5   6
ATOM      6  C   UNL     1       6.421  12.667   8.652  1.00  0.00     0.000 C 
BRANCH   6   7
ATOM      7  C   UNL     1       7.860  12.891   9.154  1.00  0.00     0.000 C 
BRANCH   7   8
ATOM      8  C   UNL     1       8.913  12.121   8.337  1.00  0.00     0.000 C 
BRANCH   8   9
ATOM      9  C   UNL     1       9.493  12.949   7.175  1.00  0.00     0.000 C 
BRANCH   9  10
ATOM     10  C   UNL     1      10.052  12.123   6.002  1.00  0.00     0.000 C 
BRANCH  10  11
ATOM     11  C   UNL     1       9.029  11.923   4.871  1.00  0.00     0.000 C 
BRANCH  11  12
ATOM     12  C   UNL     1       8.240  10.609   5.014  1.00  0.00     0.006 C 
BRANCH  12  13
ATOM     13  C   UNL     1       6.808  10.790   5.541  1.00  0.00     0.053 C 
BRANCH  13  14
ATOM     14  C   UNL     1       5.902  11.391   4.510  1.00  0.00     0.041 C 
ATOM     15  O   UNL     1       4.880  10.765   4.121  1.00  0.00    -0.550 OA
ATOM     16  O   UNL     1       6.160  12.665   4.020  1.00  0.00    -0.550 OA
ENDBRANCH  13  14
ENDBRANCH  12  13
ENDBRANCH  11  12
ENDBRANCH  10  11
ENDBRANCH   9  10
ENDBRANCH   8   9
ENDBRANCH   7   8
ENDBRANCH   6   7
ENDBRANCH   5   6
ENDBRANCH   4   5
ENDBRANCH   3   4
ENDBRANCH   2   3
ENDBRANCH   1   2
BRANCH   1  17
ATOM     17  C   UNL     1       2.662   9.605   9.906  1.00  0.00     0.000 C 
BRANCH  17  18
ATOM     18  C   UNL     1       1.935  10.637   9.022  1.00  0.00     0.000 C 
BRANCH  18  19
ATOM     19  C   UNL     1       2.727  11.925   8.724  1.00  0.00     0.000 C 
BRANCH  19  20
ATOM     20  C   UNL     1       2.259  13.124   9.568  1.00  0.00     0.000 C 
BRANCH  20  21
ATOM     21  C   UNL     1       0.759  13.059   9.898  1.00  0.00     0.000 C 
BRANCH  21  22
ATOM     22  C   UNL     1      -0.127  13.111   8.644  1.00  0.00    -0.000 C 
BRANCH  22  23
ATOM     23  C   UNL     1      -1.322  12.155   8.782  1.00  0.00    -0.000 C 
BRANCH  23  24
ATOM     24  C   UNL     1      -2.481  12.751   9.599  1.00  0.00    -0.000 C 
BRANCH  24  25
ATOM     25  C   UNL     1      -3.888  12.305   9.156  1.00  0.00    -0.000 C 
BRANCH  25  26
ATOM     26  C   UNL     1      -4.420  13.104   7.956  1.00  0.00    -0.000 C 
BRANCH  26  27
ATOM     27  C   UNL     1      -4.291  12.295   6.657  1.00  0.00    -0.000 C 
BRANCH  27  28
ATOM     28  C   UNL     1      -3.715  13.125   5.498  1.00  0.00    -0.000 C 
BRANCH  28  29
ATOM     29  C   UNL     1      -4.297  12.723   4.135  1.00  0.00    -0.003 C 
ATOM     30  C   UNL     1      -4.240  11.210   3.939  1.00  0.00     0.004 C 
ENDBRANCH  28  29
ENDBRANCH  27  28
ENDBRANCH  26  27
ENDBRANCH  25  26
ENDBRANCH  24  25
ENDBRANCH  23  24
ENDBRANCH  22  23
ENDBRANCH  21  22
ENDBRANCH  20  21
ENDBRANCH  19  20
ENDBRANCH  18  19
ENDBRANCH  17  18
ENDBRANCH   1  17
TORSDOF 26
ENDMDL
MODEL 4
REMARK VINA RESULT:    -0.213      2.976      7.793
REMARK INTER + INTRA:           3.219
REMARK INTER:                   2.789
REMARK INTRA:                   0.430
REMARK UNBOUND:                 3.756
REMARK SMILES CCCCCCCCCCCCCCCCCCCCCCCCCCCC(=O)[O-]
REMARK SMILES IDX 15 1 16 2 17 3 18 4 19 5 20 6 21 7 22 8 23 9 24 10 25 11
REMARK SMILES IDX 26 12 27 13 28 14 29 15 30 16 14 17 13 18 12 19 11 20 10 21
REMARK SMILES IDX 9 22 8 23 7 24 6 25 5 26 4 27 3 28 2 29 1 30
REMARK H PARENT
REMARK Flexibility Score: inf
ROOT
ATOM      1  C   UNL     1       3.054   8.393   9.129  1.00  0.00     0.000 C 
ENDROOT
BRANCH   1   2
ATOM      2  C   UNL     1       4.269   8.395   8.177  1.00  0.00     0.000 C 
BRANCH   2   3
ATOM      3  C   UNL     1       4.597   9.794   7.620  1.00  0.00     0.000 C 
BRANCH   3   4
ATOM      4  C   UNL     1       6.037  10.230   7.934  1.00  0.00     0.000 C 
BRANCH   4   5
ATOM      5  C   UNL     1       6.107  11.292   9.046  1.00  0.00     0.000 C 
BRANCH   5   6
ATOM      6  C   UNL     1       6.837  12.575   8.609  1.00  0.00     0.000 C 
BRANCH   6   7
ATOM      7  C   UNL     1       8.337  12.629   8.957  1.00  0.00     0.000 C 
BRANCH   7   8
ATOM      8  C   UNL     1       9.220  11.881   7.943  1.00  0.00     0.000 C 
BRANCH   8   9
ATOM      9  C   UNL     1       9.850  12.814   6.892  1.00  0.00     0.000 C 
BRANCH   9  10
ATOM     10  C   UNL     1      10.123  12.163   5.522  1.00  0.00     0.000 C 
BRANCH  10  11
ATOM     11  C   UNL     1       9.044  12.494   4.478  1.00  0.00     0.000 C 
BRANCH  11  12
ATOM     12  C   UNL     1       7.868  11.501   4.508  1.00  0.00     0.006 C 
BRANCH  12  13
ATOM     13  C   UNL     1       6.488  12.164   4.646  1.00  0.00     0.053 C 
BRANCH  13  14
ATOM     14  C   UNL     1       5.388  11.277   4.148  1.00  0.00     0.041 C 
ATOM     15  O   UNL     1       5.274  11.037   2.917  1.00  0.00    -0.550 OA
ATOM     16  O   UNL     1       4.520  10.675   5.052  1.00  0.00    -0.550 OA
ENDBRANCH  13  14
ENDBRANCH  12  13
ENDBRANCH  11  12
ENDBRANCH  10  11
ENDBRANCH   9  10
ENDBRANCH   8   9
ENDBRANCH   7   8
ENDBRANCH   6   7
ENDBRANCH   5   6
ENDBRANCH   4   5
ENDBRANCH   3   4
ENDBRANCH   2   3
ENDBRANCH   1   2
BRANCH   1  17
ATOM     17  C   UNL     1       2.806   9.738   9.838  1.00  0.00     0.000 C 
BRANCH  17  18
ATOM     18  C   UNL     1       2.359  10.896   8.925  1.00  0.00     0.000 C 
BRANCH  18  19
ATOM     19  C   UNL     1       3.036  12.253   9.200  1.00  0.00     0.000 C 
BRANCH  19  20
ATOM     20  C   UNL     1       2.248  13.124  10.193  1.00  0.00     0.000 C 
BRANCH  20  21
ATOM     21  C   UNL     1       0.735  13.097   9.924  1.00  0.00     0.000 C 
BRANCH  21  22
ATOM     22  C   UNL     1       0.389  12.533   8.538  1.00  0.00    -0.000 C 
BRANCH  22  23
ATOM     23  C   UNL     1      -1.064  12.035   8.500  1.00  0.00    -0.000 C 
BRANCH  23  24
ATOM     24  C   UNL     1      -2.085  13.125   8.875  1.00  0.00    -0.000 C 
BRANCH  24  25
ATOM     25  C   UNL     1      -3.537  12.830   8.452  1.00  0.00    -0.000 C 
BRANCH  25  26
ATOM     26  C   UNL     1      -3.630  11.880   7.249  1.00  0.00    -0.000 C 
BRANCH  26  27
ATOM     27  C   UNL     1      -3.772  10.422   7.711  1.00  0.00    -0.000 C 
BRANCH  27  28
ATOM     28  C   UNL     1      -4.338  10.306   9.136  1.00  0.00    -0.000 C 
BRANCH  28  29
ATOM     29  C   UNL     1      -4.292   8.870   9.677  1.00  0.00    -0.003 C 
ATOM     30  C   UNL     1      -5.555   8.541  10.469  1.00  0.00     0.004 C 
ENDBRANCH  28  29
ENDBRANCH  27  28
ENDBRANCH  26  27
ENDBRANCH  25  26
ENDBRANCH  24  25
ENDBRANCH  23  24
ENDBRANCH  22  23
ENDBRANCH  21  22
ENDBRANCH  20  21
ENDBRANCH  19  20
ENDBRANCH  18  19
ENDBRANCH  17  18
ENDBRANCH   1  17
TORSDOF 26
ENDMDL
MODEL 5
REMARK VINA RESULT:     0.060      1.628      3.969
REMARK INTER + INTRA:           3.906
REMARK INTER:                   4.542
REMARK INTRA:                  -0.635
REMARK UNBOUND:                 3.756
REMARK SMILES CCCCCCCCCCCCCCCCCCCCCCCCCCCC(=O)[O-]
REMARK SMILES IDX 15 1 16 2 17 3 18 4 19 5 20 6 21 7 22 8 23 9 24 10 25 11
REMARK SMILES IDX 26 12 27 13 28 14 29 15 30 16 14 17 13 18 12 19 11 20 10 21
REMARK SMILES IDX 9 22 8 23 7 24 6 25 5 26 4 27 3 28 2 29 1 30
REMARK H PARENT
REMARK Flexibility Score: inf
ROOT
ATOM      1  C   UNL     1       5.846  12.019   8.872  1.00  0.00     0.000 C 
ENDROOT
BRANCH   1   2
ATOM      2  C   UNL     1       4.430  12.470   9.286  1.00  0.00     0.000 C 
BRANCH   2   3
ATOM      3  C   UNL     1       3.850  11.643  10.450  1.00  0.00     0.000 C 
BRANCH   3   4
ATOM      4  C   UNL     1       3.307  10.280   9.990  1.00  0.00     0.000 C 
BRANCH   4   5
ATOM      5  C   UNL     1       1.793  10.134  10.227  1.00  0.00     0.000 C 
BRANCH   5   6
ATOM      6  C   UNL     1       1.107  11.465  10.585  1.00  0.00     0.000 C 
BRANCH   6   7
ATOM      7  C   UNL     1       1.070  12.511   9.455  1.00  0.00     0.000 C 
BRANCH   7   8
ATOM      8  C   UNL     1       0.087  12.149   8.327  1.00  0.00     0.000 C 
BRANCH   8   9
ATOM      9  C   UNL     1      -1.101  13.125   8.231  1.00  0.00     0.000 C 
BRANCH   9  10
ATOM     10  C   UNL     1      -2.249  12.855   9.222  1.00  0.00     0.000 C 
BRANCH  10  11
ATOM     11  C   UNL     1      -3.555  12.442   8.525  1.00  0.00     0.000 C 
BRANCH  11  12
ATOM     12  C   UNL     1      -3.489  11.020   7.938  1.00  0.00     0.006 C 
BRANCH  12  13
ATOM     13  C   UNL     1      -4.683  10.128   8.316  1.00  0.00     0.053 C 
BRANCH  13  14
ATOM     14  C   UNL     1      -4.487   9.462   9.644  1.00  0.00     0.041 C 
ATOM     15  O   UNL     1      -4.441  10.150  10.698  1.00  0.00    -0.550 OA
ATOM     16  O   UNL     1      -4.407   8.077   9.719  1.00  0.00    -0.550 OA
ENDBRANCH  13  14
ENDBRANCH  12  13
ENDBRANCH  11  12
ENDBRANCH  10  11
ENDBRANCH   9  10
ENDBRANCH   8   9
ENDBRANCH   7   8
ENDBRANCH   6   7
ENDBRANCH   5   6
ENDBRANCH   4   5
ENDBRANCH   3   4
ENDBRANCH   2   3
ENDBRANCH   1   2
BRANCH   1  17
ATOM     17  C   UNL     1       6.915  13.125   8.971  1.00  0.00     0.000 C 
BRANCH  17  18
ATOM     18  C   UNL     1       8.033  13.063   7.913  1.00  0.00     0.000 C 
BRANCH  18  19
ATOM     19  C   UNL     1       9.417  12.637   8.440  1.00  0.00     0.000 C 
BRANCH  19  20
ATOM     20  C   UNL     1      10.125  11.630   7.515  1.00  0.00     0.000 C 
BRANCH  20  21
ATOM     21  C   UNL     1       9.249  11.213   6.323  1.00  0.00     0.000 C 
BRANCH  21  22
ATOM     22  C   UNL     1       9.074  12.338   5.293  1.00  0.00    -0.000 C 
BRANCH  22  23
ATOM     23  C   UNL     1       8.549  11.781   3.961  1.00  0.00    -0.000 C 
BRANCH  23  24
ATOM     24  C   UNL     1       7.171  12.345   3.572  1.00  0.00    -0.000 C 
BRANCH  24  25
ATOM     25  C   UNL     1       6.064  12.144   4.625  1.00  0.00    -0.000 C 
BRANCH  25  26
ATOM     26  C   UNL     1       5.293  10.828   4.442  1.00  0.00    -0.000 C 
BRANCH  26  27
ATOM     27  C   UNL     1       3.906  10.910   5.096  1.00  0.00    -0.000 C 
BRANCH  27  28
ATOM     28  C   UNL     1       3.837  10.151   6.432  1.00  0.00    -0.000 C 
BRANCH  28  29
ATOM     29  C   UNL     1       5.222   9.742   6.954  1.00  0.00    -0.003 C 
ATOM     30  C   UNL     1       5.102   8.819   8.165  1.00  0.00     0.004 C 
ENDBRANCH  28  29
ENDBRANCH  27  28
ENDBRANCH  26  27
ENDBRANCH  25  26
ENDBRANCH  24  25
ENDBRANCH  23  24
ENDBRANCH  22  23
ENDBRANCH  21  22
ENDBRANCH  20  21
ENDBRANCH  19  20
ENDBRANCH  18  19
ENDBRANCH  17  18
ENDBRANCH   1  17
TORSDOF 26
ENDMDL
MODEL 6
REMARK VINA RESULT:     0.308      3.628      8.103
REMARK INTER + INTRA:           4.531
REMARK INTER:                   2.407
REMARK INTRA:                   2.124
REMARK UNBOUND:                 3.756
REMARK SMILES CCCCCCCCCCCCCCCCCCCCCCCCCCCC(=O)[O-]
REMARK SMILES IDX 15 1 16 2 17 3 18 4 19 5 20 6 21 7 22 8 23 9 24 10 25 11
REMARK SMILES IDX 26 12 27 13 28 14 29 15 30 16 14 17 13 18 12 19 11 20 10 21
REMARK SMILES IDX 9 22 8 23 7 24 6 25 5 26 4 27 3 28 2 29 1 30
REMARK H PARENT
REMARK Flexibility Score: inf
ROOT
ATOM      1  C   UNL     1       4.207   9.011   8.251  1.00  0.00     0.000 C 
ENDROOT
BRANCH   1   2
ATOM      2  C   UNL     1       5.470   9.277   9.097  1.00  0.00     0.000 C 
BRANCH   2   3
ATOM      3  C   UNL     1       6.211  10.564   8.687  1.00  0.00     0.000 C 
BRANCH   3   4
ATOM      4  C   UNL     1       5.571  11.828   9.284  1.00  0.00     0.000 C 
BRANCH   4   5
ATOM      5  C   UNL     1       6.519  13.041   9.262  1.00  0.00     0.000 C 
BRANCH   5   6
ATOM      6  C   UNL     1       7.970  12.678   9.627  1.00  0.00     0.000 C 
BRANCH   6   7
ATOM      7  C   UNL     1       8.733  11.867   8.563  1.00  0.00     0.000 C 
BRANCH   7   8
ATOM      8  C   UNL     1       9.926  12.629   7.960  1.00  0.00     0.000 C 
BRANCH   8   9
ATOM      9  C   UNL     1       9.659  13.124   6.526  1.00  0.00     0.000 C 
BRANCH   9  10
ATOM     10  C   UNL     1       8.189  13.045   6.072  1.00  0.00     0.000 C 
BRANCH  10  11
ATOM     11  C   UNL     1       7.706  11.600   5.863  1.00  0.00     0.000 C 
BRANCH  11  12
ATOM     12  C   UNL     1       8.824  10.669   5.359  1.00  0.00     0.006 C 
BRANCH  12  13
ATOM     13  C   UNL     1       9.151  10.830   3.866  1.00  0.00     0.053 C 
BRANCH  13  14
ATOM     14  C   UNL     1       8.360  11.934   3.235  1.00  0.00     0.041 C 
ATOM     15  O   UNL     1       7.115  12.006   3.414  1.00  0.00    -0.550 OA
ATOM     16  O   UNL     1       9.008  12.915   2.493  1.00  0.00    -0.550 OA
ENDBRANCH  13  14
ENDBRANCH  12  13
ENDBRANCH  11  12
ENDBRANCH  10  11
ENDBRANCH   9  10
ENDBRANCH   8   9
ENDBRANCH   7   8
ENDBRANCH   6   7
ENDBRANCH   5   6
ENDBRANCH   4   5
ENDBRANCH   3   4
ENDBRANCH   2   3
ENDBRANCH   1   2
BRANCH   1  17
ATOM     17  C   UNL     1       4.255   9.622   6.837  1.00  0.00     0.000 C 
BRANCH  17  18
ATOM     18  C   UNL     1       3.154  10.653   6.523  1.00  0.00     0.000 C 
BRANCH  18  19
ATOM     19  C   UNL     1       2.184  10.956   7.681  1.00  0.00     0.000 C 
BRANCH  19  20
ATOM     20  C   UNL     1       2.896  11.498   8.932  1.00  0.00     0.000 C 
BRANCH  20  21
ATOM     21  C   UNL     1       2.094  12.607   9.631  1.00  0.00     0.000 C 
BRANCH  21  22
ATOM     22  C   UNL     1       0.887  12.064  10.412  1.00  0.00    -0.000 C 
BRANCH  22  23
ATOM     23  C   UNL     1      -0.383  12.860  10.074  1.00  0.00    -0.000 C 
BRANCH  23  24
ATOM     24  C   UNL     1      -0.602  13.033   8.561  1.00  0.00    -0.000 C 
BRANCH  24  25
ATOM     25  C   UNL     1      -2.076  13.122   8.123  1.00  0.00    -0.000 C 
BRANCH  25  26
ATOM     26  C   UNL     1      -2.947  12.003   8.714  1.00  0.00    -0.000 C 
BRANCH  26  27
ATOM     27  C   UNL     1      -3.917  11.449   7.660  1.00  0.00    -0.000 C 
BRANCH  27  28
ATOM     28  C   UNL     1      -4.187  12.447   6.522  1.00  0.00    -0.000 C 
BRANCH  28  29
ATOM     29  C   UNL     1      -3.936  11.843   5.132  1.00  0.00    -0.003 C 
ATOM     30  C   UNL     1      -4.717  12.596   4.058  1.00  0.00     0.004 C 
ENDBRANCH  28  29
ENDBRANCH  27  28
ENDBRANCH  26  27
ENDBRANCH  25  26
ENDBRANCH  24  25
ENDBRANCH  23  24
ENDBRANCH  22  23
ENDBRANCH  21  22
ENDBRANCH  20  21
ENDBRANCH  19  20
ENDBRANCH  18  19
ENDBRANCH  17  18
ENDBRANCH   1  17
TORSDOF 26
ENDMDL
MODEL 7
REMARK VINA RESULT:     0.653      1.646      3.347
REMARK INTER + INTRA:           5.401
REMARK INTER:                   7.277
REMARK INTRA:                  -1.876
REMARK UNBOUND:                 3.756
REMARK SMILES CCCCCCCCCCCCCCCCCCCCCCCCCCCC(=O)[O-]
REMARK SMILES IDX 15 1 16 2 17 3 18 4 19 5 20 6 21 7 22 8 23 9 24 10 25 11
REMARK SMILES IDX 26 12 27 13 28 14 29 15 30 16 14 17 13 18 12 19 11 20 10 21
REMARK SMILES IDX 9 22 8 23 7 24 6 25 5 26 4 27 3 28 2 29 1 30
REMARK H PARENT
REMARK Flexibility Score: inf
ROOT
ATOM      1  C   UNL     1       6.451  11.696   7.441  1.00  0.00     0.000 C 
ENDROOT
BRANCH   1   2
ATOM      2  C   UNL     1       6.038  12.953   8.235  1.00  0.00     0.000 C 
BRANCH   2   3
ATOM      3  C   UNL     1       4.511  13.102   8.377  1.00  0.00     0.000 C 
BRANCH   3   4
ATOM      4  C   UNL     1       3.955  12.335   9.587  1.00  0.00     0.000 C 
BRANCH   4   5
ATOM      5  C   UNL     1       2.495  12.704   9.905  1.00  0.00     0.000 C 
BRANCH   5   6
ATOM      6  C   UNL     1       1.475  11.856   9.122  1.00  0.00     0.000 C 
BRANCH   6   7
ATOM      7  C   UNL     1       0.153  12.568   8.779  1.00  0.00     0.000 C 
BRANCH   7   8
ATOM      8  C   UNL     1      -0.776  12.736   9.994  1.00  0.00     0.000 C 
BRANCH   8   9
ATOM      9  C   UNL     1      -2.216  13.116   9.600  1.00  0.00     0.000 C 
BRANCH   9  10
ATOM     10  C   UNL     1      -2.571  12.879   8.120  1.00  0.00     0.000 C 
BRANCH  10  11
ATOM     11  C   UNL     1      -3.788  11.956   7.938  1.00  0.00     0.000 C 
BRANCH  11  12
ATOM     12  C   UNL     1      -3.935  11.449   6.492  1.00  0.00     0.006 C 
BRANCH  12  13
ATOM     13  C   UNL     1      -4.479  12.499   5.510  1.00  0.00     0.053 C 
BRANCH  13  14
ATOM     14  C   UNL     1      -4.207  12.127   4.084  1.00  0.00     0.041 C 
ATOM     15  O   UNL     1      -4.066  13.023   3.210  1.00  0.00    -0.550 OA
ATOM     16  O   UNL     1      -4.058  10.790   3.733  1.00  0.00    -0.550 OA
ENDBRANCH  13  14
ENDBRANCH  12  13
ENDBRANCH  11  12
ENDBRANCH  10  11
ENDBRANCH   9  10
ENDBRANCH   8   9
ENDBRANCH   7   8
ENDBRANCH   6   7
ENDBRANCH   5   6
ENDBRANCH   4   5
ENDBRANCH   3   4
ENDBRANCH   2   3
ENDBRANCH   1   2
BRANCH   1  17
ATOM     17  C   UNL     1       7.442  10.778   8.182  1.00  0.00     0.000 C 
BRANCH  17  18
ATOM     18  C   UNL     1       8.821  10.616   7.516  1.00  0.00     0.000 C 
BRANCH  18  19
ATOM     19  C   UNL     1       9.369  11.875   6.816  1.00  0.00     0.000 C 
BRANCH  19  20
ATOM     20  C   UNL     1       9.545  11.687   5.298  1.00  0.00     0.000 C 
BRANCH  20  21
ATOM     21  C   UNL     1       8.751  12.720   4.483  1.00  0.00     0.000 C 
BRANCH  21  22
ATOM     22  C   UNL     1       7.699  12.073   3.570  1.00  0.00    -0.000 C 
BRANCH  22  23
ATOM     23  C   UNL     1       6.318  12.074   4.244  1.00  0.00    -0.000 C 
BRANCH  23  24
ATOM     24  C   UNL     1       5.576  10.734   4.100  1.00  0.00    -0.000 C 
BRANCH  24  25
ATOM     25  C   UNL     1       5.003  10.163   5.411  1.00  0.00    -0.000 C 
BRANCH  25  26
ATOM     26  C   UNL     1       3.796  10.956   5.935  1.00  0.00    -0.000 C 
BRANCH  26  27
ATOM     27  C   UNL     1       3.038  10.157   7.006  1.00  0.00    -0.000 C 
BRANCH  27  28
ATOM     28  C   UNL     1       3.382   8.659   6.980  1.00  0.00    -0.000 C 
BRANCH  28  29
ATOM     29  C   UNL     1       3.564   8.068   8.386  1.00  0.00    -0.003 C 
ATOM     30  C   UNL     1       4.254   9.065   9.315  1.00  0.00     0.004 C 
ENDBRANCH  28  29
ENDBRANCH  27  28
ENDBRANCH  26  27
ENDBRANCH  25  26
ENDBRANCH  24  25
ENDBRANCH  23  24
ENDBRANCH  22  23
ENDBRANCH  21  22
ENDBRANCH  20  21
ENDBRANCH  19  20
ENDBRANCH  18  19
ENDBRANCH  17  18
ENDBRANCH   1  17
TORSDOF 26
ENDMDL
