MODEL 1
REMARK VINA RESULT:    -5.576      0.000      0.000
REMARK INTER + INTRA:          -6.441
REMARK INTER:                  -6.228
REMARK INTRA:                  -0.213
REMARK UNBOUND:                -0.213
REMARK SMILES CC(C)c1ccc(C(=O)[O-])cc1
REMARK SMILES IDX 7 1 6 2 11 3 5 4 12 5 4 6 8 7 9 8 10 9 2 10 1 11 3 12
REMARK H PARENT
REMARK Flexibility Score: inf
ROOT
ATOM      1  C   UNL     1      14.061 -32.297  21.532  1.00  0.00    -0.003 A 
ATOM      2  C   UNL     1      14.488 -32.024  22.841  1.00  0.00     0.010 A 
ATOM      3  C   UNL     1      13.135 -31.432  20.924  1.00  0.00     0.010 A 
ATOM      4  C   UNL     1      13.998 -30.911  23.530  1.00  0.00     0.004 A 
ATOM      5  C   UNL     1      12.645 -30.319  21.612  1.00  0.00     0.004 A 
ATOM      6  C   UNL     1      13.071 -30.045  22.922  1.00  0.00    -0.045 A 
ENDROOT
BRANCH   1   7
ATOM      7  C   UNL     1      14.582 -33.477  20.806  1.00  0.00     0.071 C 
ATOM      8  O   UNL     1      14.343 -33.631  19.579  1.00  0.00    -0.545 OA
ATOM      9  O   UNL     1      15.344 -34.431  21.469  1.00  0.00    -0.545 OA
ENDBRANCH   1   7
BRANCH   6  10
ATOM     10  C   UNL     1      12.531 -28.833  23.658  1.00  0.00     0.013 C 
ATOM     11  C   UNL     1      11.143 -28.444  23.136  1.00  0.00     0.012 C 
ATOM     12  C   UNL     1      13.505 -27.653  23.570  1.00  0.00     0.012 C 
ENDBRANCH   6  10
TORSDOF 2
ENDMDL
MODEL 2
REMARK VINA RESULT:    -5.426      1.411      1.706
REMARK INTER + INTRA:          -6.273
REMARK INTER:                  -6.053
REMARK INTRA:                  -0.219
REMARK UNBOUND:                -0.213
REMARK SMILES CC(C)c1ccc(C(=O)[O-])cc1
REMARK SMILES IDX 7 1 6 2 11 3 5 4 12 5 4 6 8 7 9 8 10 9 2 10 1 11 3 12
REMARK H PARENT
REMARK Flexibility Score: inf
ROOT
ATOM      1  C   UNL     1      13.988 -30.834  21.763  1.00  0.00    -0.003 A 
ATOM      2  C   UNL     1      14.809 -29.789  22.214  1.00  0.00     0.010 A 
ATOM      3  C   UNL     1      12.609 -30.779  22.028  1.00  0.00     0.010 A 
ATOM      4  C   UNL     1      14.263 -28.710  22.917  1.00  0.00     0.004 A 
ATOM      5  C   UNL     1      12.063 -29.701  22.730  1.00  0.00     0.004 A 
ATOM      6  C   UNL     1      12.884 -28.654  23.182  1.00  0.00    -0.045 A 
ENDROOT
BRANCH   1   7
ATOM      7  C   UNL     1      14.570 -31.974  21.019  1.00  0.00     0.071 C 
ATOM      8  O   UNL     1      13.825 -32.788  20.410  1.00  0.00    -0.545 OA
ATOM      9  O   UNL     1      15.946 -32.162  20.983  1.00  0.00    -0.545 OA
ENDBRANCH   1   7
BRANCH   6  10
ATOM     10  C   UNL     1      12.278 -27.490  23.944  1.00  0.00     0.013 C 
ATOM     11  C   UNL     1      11.056 -26.926  23.210  1.00  0.00     0.012 C 
ATOM     12  C   UNL     1      13.321 -26.396  24.202  1.00  0.00     0.012 C 
ENDBRANCH   6  10
TORSDOF 2
ENDMDL
MODEL 3
REMARK VINA RESULT:    -5.403      1.285      1.935
REMARK INTER + INTRA:          -6.248
REMARK INTER:                  -6.029
REMARK INTRA:                  -0.219
REMARK UNBOUND:                -0.213
REMARK SMILES CC(C)c1ccc(C(=O)[O-])cc1
REMARK SMILES IDX 7 1 6 2 11 3 5 4 12 5 4 6 8 7 9 8 10 9 2 10 1 11 3 12
REMARK H PARENT
REMARK Flexibility Score: inf
ROOT
ATOM      1  C   UNL     1      13.543 -30.969  21.696  1.00  0.00    -0.003 A 
ATOM      2  C   UNL     1      12.163 -30.709  21.722  1.00  0.00     0.010 A 
ATOM      3  C   UNL     1      14.411 -30.110  22.390  1.00  0.00     0.010 A 
ATOM      4  C   UNL     1      11.662 -29.610  22.427  1.00  0.00     0.004 A 
ATOM      5  C   UNL     1      13.910 -29.012  23.095  1.00  0.00     0.004 A 
ATOM      6  C   UNL     1      12.530 -28.750  23.122  1.00  0.00    -0.045 A 
ENDROOT
BRANCH   1   7
ATOM      7  C   UNL     1      14.069 -32.133  20.949  1.00  0.00     0.071 C 
ATOM      8  O   UNL     1      13.505 -32.525  19.892  1.00  0.00    -0.545 OA
ATOM      9  O   UNL     1      15.194 -32.811  21.403  1.00  0.00    -0.545 OA
ENDBRANCH   1   7
BRANCH   6  10
ATOM     10  C   UNL     1      11.999 -27.554  23.891  1.00  0.00     0.013 C 
ATOM     11  C   UNL     1      10.875 -26.855  23.117  1.00  0.00     0.012 C 
ATOM     12  C   UNL     1      13.126 -26.573  24.234  1.00  0.00     0.012 C 
ENDBRANCH   6  10
TORSDOF 2
ENDMDL
MODEL 4
REMARK VINA RESULT:    -5.374      1.937      2.233
REMARK INTER + INTRA:          -6.215
REMARK INTER:                  -6.001
REMARK INTRA:                  -0.214
REMARK UNBOUND:                -0.213
REMARK SMILES CC(C)c1ccc(C(=O)[O-])cc1
REMARK SMILES IDX 7 1 6 2 11 3 5 4 12 5 4 6 8 7 9 8 10 9 2 10 1 11 3 12
REMARK H PARENT
REMARK Flexibility Score: inf
ROOT
ATOM      1  C   UNL     1      15.229 -30.614  21.910  1.00  0.00    -0.003 A 
ATOM      2  C   UNL     1      14.122 -31.278  22.463  1.00  0.00     0.010 A 
ATOM      3  C   UNL     1      15.325 -29.219  22.049  1.00  0.00     0.010 A 
ATOM      4  C   UNL     1      13.130 -30.562  23.139  1.00  0.00     0.004 A 
ATOM      5  C   UNL     1      14.334 -28.503  22.725  1.00  0.00     0.004 A 
ATOM      6  C   UNL     1      13.226 -29.166  23.279  1.00  0.00    -0.045 A 
ENDROOT
BRANCH   1   7
ATOM      7  C   UNL     1      16.277 -31.376  21.194  1.00  0.00     0.071 C 
ATOM      8  O   UNL     1      16.110 -32.595  20.923  1.00  0.00    -0.545 OA
ATOM      9  O   UNL     1      17.460 -30.756  20.811  1.00  0.00    -0.545 OA
ENDBRANCH   1   7
BRANCH   6  10
ATOM     10  C   UNL     1      12.156 -28.376  24.011  1.00  0.00     0.013 C 
ATOM     11  C   UNL     1      10.927 -28.156  23.122  1.00  0.00     0.012 C 
ATOM     12  C   UNL     1      12.710 -27.044  24.528  1.00  0.00     0.012 C 
ENDBRANCH   6  10
TORSDOF 2
ENDMDL
MODEL 5
REMARK VINA RESULT:    -5.370      2.895      5.274
REMARK INTER + INTRA:          -6.211
REMARK INTER:                  -5.995
REMARK INTRA:                  -0.216
REMARK UNBOUND:                -0.213
REMARK SMILES CC(C)c1ccc(C(=O)[O-])cc1
REMARK SMILES IDX 7 1 6 2 11 3 5 4 12 5 4 6 8 7 9 8 10 9 2 10 1 11 3 12
REMARK H PARENT
REMARK Flexibility Score: inf
ROOT
ATOM      1  C   UNL     1      13.042 -30.451  22.642  1.00  0.00    -0.003 A 
ATOM      2  C   UNL     1      12.972 -30.830  21.292  1.00  0.00     0.010 A 
ATOM      3  C   UNL     1      13.753 -31.263  23.541  1.00  0.00     0.010 A 
ATOM      4  C   UNL     1      13.599 -31.998  20.849  1.00  0.00     0.004 A 
ATOM      5  C   UNL     1      14.380 -32.431  23.099  1.00  0.00     0.004 A 
ATOM      6  C   UNL     1      14.311 -32.812  21.748  1.00  0.00    -0.045 A 
ENDROOT
BRANCH   1   7
ATOM      7  C   UNL     1      12.376 -29.213  23.106  1.00  0.00     0.071 C 
ATOM      8  O   UNL     1      12.975 -28.412  23.872  1.00  0.00    -0.545 OA
ATOM      9  O   UNL     1      11.079 -28.918  22.704  1.00  0.00    -0.545 OA
ENDBRANCH   1   7
BRANCH   6  10
ATOM     10  C   UNL     1      14.997 -34.082  21.281  1.00  0.00     0.013 C 
ATOM     11  C   UNL     1      16.295 -34.327  22.060  1.00  0.00     0.012 C 
ATOM     12  C   UNL     1      15.257 -34.048  19.771  1.00  0.00     0.012 C 
ENDBRANCH   6  10
TORSDOF 2
ENDMDL
MODEL 6
REMARK VINA RESULT:    -5.359      4.016      5.671
REMARK INTER + INTRA:          -6.199
REMARK INTER:                  -5.997
REMARK INTRA:                  -0.202
REMARK UNBOUND:                -0.213
REMARK SMILES CC(C)c1ccc(C(=O)[O-])cc1
REMARK SMILES IDX 7 1 6 2 11 3 5 4 12 5 4 6 8 7 9 8 10 9 2 10 1 11 3 12
REMARK H PARENT
REMARK Flexibility Score: inf
ROOT
ATOM      1  C   UNL     1      13.548 -27.364  23.519  1.00  0.00    -0.003 A 
ATOM      2  C   UNL     1      12.365 -28.094  23.713  1.00  0.00     0.010 A 
ATOM      3  C   UNL     1      14.613 -27.966  22.827  1.00  0.00     0.010 A 
ATOM      4  C   UNL     1      12.248 -29.400  23.226  1.00  0.00     0.004 A 
ATOM      5  C   UNL     1      14.497 -29.270  22.341  1.00  0.00     0.004 A 
ATOM      6  C   UNL     1      13.314 -30.002  22.533  1.00  0.00    -0.045 A 
ENDROOT
BRANCH   1   7
ATOM      7  C   UNL     1      13.667 -25.983  24.036  1.00  0.00     0.071 C 
ATOM      8  O   UNL     1      13.476 -24.996  23.277  1.00  0.00    -0.545 OA
ATOM      9  O   UNL     1      13.992 -25.755  25.368  1.00  0.00    -0.545 OA
ENDBRANCH   1   7
BRANCH   6  10
ATOM     10  C   UNL     1      13.201 -31.418  22.000  1.00  0.00     0.013 C 
ATOM     11  C   UNL     1      14.358 -32.291  22.501  1.00  0.00     0.012 C 
ATOM     12  C   UNL     1      13.125 -31.428  20.469  1.00  0.00     0.012 C 
ENDBRANCH   6  10
TORSDOF 2
ENDMDL
MODEL 7
REMARK VINA RESULT:    -5.205      9.423     10.373
REMARK INTER + INTRA:          -6.027
REMARK INTER:                  -5.815
REMARK INTRA:                  -0.212
REMARK UNBOUND:                -0.213
REMARK SMILES CC(C)c1ccc(C(=O)[O-])cc1
REMARK SMILES IDX 7 1 6 2 11 3 5 4 12 5 4 6 8 7 9 8 10 9 2 10 1 11 3 12
REMARK H PARENT
REMARK Flexibility Score: inf
ROOT
ATOM      1  C   UNL     1      22.374 -25.407  20.304  1.00  0.00    -0.003 A 
ATOM      2  C   UNL     1      20.989 -25.369  20.079  1.00  0.00     0.010 A 
ATOM      3  C   UNL     1      22.941 -26.563  20.867  1.00  0.00     0.010 A 
ATOM      4  C   UNL     1      20.185 -26.464  20.411  1.00  0.00     0.004 A 
ATOM      5  C   UNL     1      22.138 -27.657  21.200  1.00  0.00     0.004 A 
ATOM      6  C   UNL     1      20.751 -27.621  20.975  1.00  0.00    -0.045 A 
ENDROOT
BRANCH   1   7
ATOM      7  C   UNL     1      23.221 -24.246  19.950  1.00  0.00     0.071 C 
ATOM      8  O   UNL     1      23.546 -23.399  20.825  1.00  0.00    -0.545 OA
ATOM      9  O   UNL     1      23.669 -24.072  18.646  1.00  0.00    -0.545 OA
ENDBRANCH   1   7
BRANCH   6  10
ATOM     10  C   UNL     1      19.891 -28.816  21.341  1.00  0.00     0.013 C 
ATOM     11  C   UNL     1      20.534 -30.125  20.866  1.00  0.00     0.012 C 
ATOM     12  C   UNL     1      18.470 -28.666  20.786  1.00  0.00     0.012 C 
ENDBRANCH   6  10
TORSDOF 2
ENDMDL
MODEL 8
REMARK VINA RESULT:    -5.091      2.595      4.025
REMARK INTER + INTRA:          -5.900
REMARK INTER:                  -5.684
REMARK INTRA:                  -0.216
REMARK UNBOUND:                -0.213
REMARK SMILES CC(C)c1ccc(C(=O)[O-])cc1
REMARK SMILES IDX 7 1 6 2 11 3 5 4 12 5 4 6 8 7 9 8 10 9 2 10 1 11 3 12
REMARK H PARENT
REMARK Flexibility Score: inf
ROOT
ATOM      1  C   UNL     1      16.267 -35.126  20.631  1.00  0.00    -0.003 A 
ATOM      2  C   UNL     1      15.356 -34.547  19.733  1.00  0.00     0.010 A 
ATOM      3  C   UNL     1      16.342 -34.625  21.942  1.00  0.00     0.010 A 
ATOM      4  C   UNL     1      14.538 -33.488  20.137  1.00  0.00     0.004 A 
ATOM      5  C   UNL     1      15.524 -33.566  22.345  1.00  0.00     0.004 A 
ATOM      6  C   UNL     1      14.612 -32.986  21.448  1.00  0.00    -0.045 A 
ENDROOT
BRANCH   1   7
ATOM      7  C   UNL     1      17.132 -36.247  20.200  1.00  0.00     0.071 C 
ATOM      8  O   UNL     1      17.156 -36.610  18.993  1.00  0.00    -0.545 OA
ATOM      9  O   UNL     1      17.929 -36.916  21.121  1.00  0.00    -0.545 OA
ENDBRANCH   1   7
BRANCH   6  10
ATOM     10  C   UNL     1      13.730 -31.837  21.899  1.00  0.00     0.013 C 
ATOM     11  C   UNL     1      14.109 -30.536  21.182  1.00  0.00     0.012 C 
ATOM     12  C   UNL     1      13.782 -31.664  23.421  1.00  0.00     0.012 C 
ENDBRANCH   6  10
TORSDOF 2
ENDMDL
MODEL 9
REMARK VINA RESULT:    -5.085      3.676      5.190
REMARK INTER + INTRA:          -5.892
REMARK INTER:                  -5.687
REMARK INTRA:                  -0.205
REMARK UNBOUND:                -0.213
REMARK SMILES CC(C)c1ccc(C(=O)[O-])cc1
REMARK SMILES IDX 7 1 6 2 11 3 5 4 12 5 4 6 8 7 9 8 10 9 2 10 1 11 3 12
REMARK H PARENT
REMARK Flexibility Score: inf
ROOT
ATOM      1  C   UNL     1      13.208 -29.111  23.321  1.00  0.00    -0.003 A 
ATOM      2  C   UNL     1      13.174 -30.497  23.540  1.00  0.00     0.010 A 
ATOM      3  C   UNL     1      14.365 -28.538  22.763  1.00  0.00     0.010 A 
ATOM      4  C   UNL     1      14.273 -31.295  23.211  1.00  0.00     0.004 A 
ATOM      5  C   UNL     1      15.463 -29.336  22.434  1.00  0.00     0.004 A 
ATOM      6  C   UNL     1      15.430 -30.723  22.653  1.00  0.00    -0.045 A 
ENDROOT
BRANCH   1   7
ATOM      7  C   UNL     1      12.042 -28.269  23.671  1.00  0.00     0.071 C 
ATOM      8  O   UNL     1      10.938 -28.428  23.084  1.00  0.00    -0.545 OA
ATOM      9  O   UNL     1      12.149 -27.290  24.651  1.00  0.00    -0.545 OA
ENDBRANCH   1   7
BRANCH   6  10
ATOM     10  C   UNL     1      16.631 -31.578  22.291  1.00  0.00     0.013 C 
ATOM     11  C   UNL     1      17.623 -31.659  23.458  1.00  0.00     0.012 C 
ATOM     12  C   UNL     1      17.314 -31.061  21.020  1.00  0.00     0.012 C 
ENDBRANCH   6  10
TORSDOF 2
ENDMDL
