MODEL 1
REMARK VINA RESULT:    -6.777      0.000      0.000
REMARK INTER + INTRA:          -7.414
REMARK INTER:                  -7.173
REMARK INTRA:                  -0.240
REMARK UNBOUND:                -0.240
REMARK SMILES CC1=CC[C@H]2[C@@H]3[C@@H](C(C)C)CC[C@@]2(C)[C@H]13
REMARK SMILES IDX 1 1 2 2 3 3 4 4 5 5 6 6 15 7 13 8 12 9 11 10 7 11 14 12 8 13
REMARK SMILES IDX 9 14 10 15
REMARK H PARENT
REMARK Flexibility Score: inf
ROOT
ATOM      1  C   UNL     1     109.276 109.898 106.347  1.00  0.00     0.039 C 
ATOM      2  C   UNL     1     110.383 110.595 107.080  1.00  0.00    -0.073 C 
ATOM      3  C   UNL     1     111.130 111.557 106.479  1.00  0.00    -0.027 C 
ATOM      4  C   UNL     1     112.258 112.222 107.274  1.00  0.00     0.031 C 
ATOM      5  C   UNL     1     112.310 111.650 108.729  1.00  0.00     0.003 C 
ATOM      6  C   UNL     1     110.863 111.631 109.274  1.00  0.00     0.004 C 
ATOM      7  C   UNL     1     110.707 110.273 108.541  1.00  0.00     0.024 C 
ATOM      8  C   UNL     1     112.233 110.103 108.735  1.00  0.00    -0.022 C 
ATOM      9  C   UNL     1     112.551 109.585 110.172  1.00  0.00     0.008 C 
ATOM     10  C   UNL     1     111.541 110.106 111.229  1.00  0.00     0.005 C 
ATOM     11  C   UNL     1     110.896 111.466 110.825  1.00  0.00    -0.005 C 
ATOM     12  C   UNL     1     113.036 109.317 107.673  1.00  0.00     0.012 C 
ENDROOT
BRANCH  11  13
ATOM     13  C   UNL     1     109.515 111.692 111.514  1.00  0.00    -0.014 C 
ATOM     14  C   UNL     1     109.144 110.510 112.425  1.00  0.00     0.007 C 
ATOM     15  C   UNL     1     109.421 113.009 112.303  1.00  0.00     0.007 C 
ENDBRANCH  11  13
TORSDOF 1
ENDMDL
MODEL 2
REMARK VINA RESULT:    -6.777      1.430      3.267
REMARK INTER + INTRA:          -7.413
REMARK INTER:                  -7.175
REMARK INTRA:                  -0.238
REMARK UNBOUND:                -0.240
REMARK SMILES CC1=CC[C@H]2[C@@H]3[C@@H](C(C)C)CC[C@@]2(C)[C@H]13
REMARK SMILES IDX 1 1 2 2 3 3 4 4 5 5 6 6 15 7 13 8 12 9 11 10 7 11 14 12 8 13
REMARK SMILES IDX 9 14 10 15
REMARK H PARENT
REMARK Flexibility Score: inf
ROOT
ATOM      1  C   UNL     1     112.857 112.224 106.347  1.00  0.00     0.039 C 
ATOM      2  C   UNL     1     111.756 111.570 107.126  1.00  0.00    -0.073 C 
ATOM      3  C   UNL     1     110.974 110.608 106.570  1.00  0.00    -0.027 C 
ATOM      4  C   UNL     1     109.853 109.989 107.409  1.00  0.00     0.031 C 
ATOM      5  C   UNL     1     109.850 110.599 108.849  1.00  0.00     0.003 C 
ATOM      6  C   UNL     1     111.311 110.602 109.358  1.00  0.00     0.004 C 
ATOM      7  C   UNL     1     111.476 111.937 108.586  1.00  0.00     0.024 C 
ATOM      8  C   UNL     1     109.959 112.143 108.812  1.00  0.00    -0.022 C 
ATOM      9  C   UNL     1     109.688 112.706 110.242  1.00  0.00     0.008 C 
ATOM     10  C   UNL     1     110.713 112.191 111.288  1.00  0.00     0.005 C 
ATOM     11  C   UNL     1     111.320 110.807 110.904  1.00  0.00    -0.005 C 
ATOM     12  C   UNL     1     109.144 112.919 107.750  1.00  0.00     0.012 C 
ENDROOT
BRANCH  11  13
ATOM     13  C   UNL     1     112.713 110.571 111.565  1.00  0.00    -0.014 C 
ATOM     14  C   UNL     1     113.106 111.742 112.479  1.00  0.00     0.007 C 
ATOM     15  C   UNL     1     112.817 109.246 112.340  1.00  0.00     0.007 C 
ENDBRANCH  11  13
TORSDOF 1
ENDMDL
MODEL 3
REMARK VINA RESULT:    -6.763      3.141      6.302
REMARK INTER + INTRA:          -7.399
REMARK INTER:                  -7.163
REMARK INTRA:                  -0.236
REMARK UNBOUND:                -0.240
REMARK SMILES CC1=CC[C@H]2[C@@H]3[C@@H](C(C)C)CC[C@@]2(C)[C@H]13
REMARK SMILES IDX 1 1 2 2 3 3 4 4 5 5 6 6 15 7 13 8 12 9 11 10 7 11 14 12 8 13
REMARK SMILES IDX 9 14 10 15
REMARK H PARENT
REMARK Flexibility Score: inf
ROOT
ATOM      1  C   UNL     1     109.505 112.387 116.515  1.00  0.00     0.039 C 
ATOM      2  C   UNL     1     110.464 111.479 115.805  1.00  0.00    -0.073 C 
ATOM      3  C   UNL     1     110.937 110.351 116.396  1.00  0.00    -0.027 C 
ATOM      4  C   UNL     1     111.927 109.472 115.627  1.00  0.00     0.031 C 
ATOM      5  C   UNL     1     112.190 110.063 114.203  1.00  0.00     0.003 C 
ATOM      6  C   UNL     1     110.818 110.433 113.592  1.00  0.00     0.004 C 
ATOM      7  C   UNL     1     110.934 111.766 114.376  1.00  0.00     0.024 C 
ATOM      8  C   UNL     1     112.468 111.586 114.264  1.00  0.00    -0.022 C 
ATOM      9  C   UNL     1     112.976 112.065 112.868  1.00  0.00     0.008 C 
ATOM     10  C   UNL     1     111.936 111.825 111.741  1.00  0.00     0.005 C 
ATOM     11  C   UNL     1     110.976 110.636 112.053  1.00  0.00    -0.005 C 
ATOM     12  C   UNL     1     113.368 112.132 115.397  1.00  0.00     0.012 C 
ENDROOT
BRANCH  11  13
ATOM     13  C   UNL     1     109.621 110.757 111.289  1.00  0.00    -0.014 C 
ATOM     14  C   UNL     1     109.620 111.965 110.338  1.00  0.00     0.007 C 
ATOM     15  C   UNL     1     109.225 109.486 110.519  1.00  0.00     0.007 C 
ENDBRANCH  11  13
TORSDOF 1
ENDMDL
MODEL 4
REMARK VINA RESULT:    -6.727      2.380      4.463
REMARK INTER + INTRA:          -7.360
REMARK INTER:                  -6.935
REMARK INTRA:                  -0.425
REMARK UNBOUND:                -0.240
REMARK SMILES CC1=CC[C@H]2[C@@H]3[C@@H](C(C)C)CC[C@@]2(C)[C@H]13
REMARK SMILES IDX 1 1 2 2 3 3 4 4 5 5 6 6 15 7 13 8 12 9 11 10 7 11 14 12 8 13
REMARK SMILES IDX 9 14 10 15
REMARK H PARENT
REMARK Flexibility Score: inf
ROOT
ATOM      1  C   UNL     1     113.260 111.150 110.339  1.00  0.00     0.039 C 
ATOM      2  C   UNL     1     111.865 110.818 110.778  1.00  0.00    -0.073 C 
ATOM      3  C   UNL     1     111.137 109.861 110.147  1.00  0.00    -0.027 C 
ATOM      4  C   UNL     1     109.711 109.578 110.630  1.00  0.00     0.031 C 
ATOM      5  C   UNL     1     109.362 110.480 111.860  1.00  0.00     0.003 C 
ATOM      6  C   UNL     1     110.558 110.415 112.839  1.00  0.00     0.004 C 
ATOM      7  C   UNL     1     111.208 111.522 111.968  1.00  0.00     0.024 C 
ATOM      8  C   UNL     1     109.765 111.956 111.614  1.00  0.00    -0.022 C 
ATOM      9  C   UNL     1     109.163 112.842 112.748  1.00  0.00     0.008 C 
ATOM     10  C   UNL     1     109.685 112.444 114.155  1.00  0.00     0.005 C 
ATOM     11  C   UNL     1     110.112 110.947 114.236  1.00  0.00    -0.005 C 
ATOM     12  C   UNL     1     109.493 112.576 110.223  1.00  0.00     0.012 C 
ENDROOT
BRANCH  11  13
ATOM     13  C   UNL     1     111.150 110.691 115.371  1.00  0.00    -0.014 C 
ATOM     14  C   UNL     1     112.116 109.553 115.001  1.00  0.00     0.007 C 
ATOM     15  C   UNL     1     111.948 111.941 115.778  1.00  0.00     0.007 C 
ENDBRANCH  11  13
TORSDOF 1
ENDMDL
MODEL 5
REMARK VINA RESULT:    -6.724      0.974      4.509
REMARK INTER + INTRA:          -7.357
REMARK INTER:                  -7.120
REMARK INTRA:                  -0.237
REMARK UNBOUND:                -0.240
REMARK SMILES CC1=CC[C@H]2[C@@H]3[C@@H](C(C)C)CC[C@@]2(C)[C@H]13
REMARK SMILES IDX 1 1 2 2 3 3 4 4 5 5 6 6 15 7 13 8 12 9 11 10 7 11 14 12 8 13
REMARK SMILES IDX 9 14 10 15
REMARK H PARENT
REMARK Flexibility Score: inf
ROOT
ATOM      1  C   UNL     1     109.500 112.395 111.644  1.00  0.00     0.039 C 
ATOM      2  C   UNL     1     110.460 111.495 110.926  1.00  0.00    -0.073 C 
ATOM      3  C   UNL     1     110.946 110.370 111.512  1.00  0.00    -0.027 C 
ATOM      4  C   UNL     1     111.938 109.499 110.735  1.00  0.00     0.031 C 
ATOM      5  C   UNL     1     112.185 110.095 109.310  1.00  0.00     0.003 C 
ATOM      6  C   UNL     1     110.806 110.454 108.709  1.00  0.00     0.004 C 
ATOM      7  C   UNL     1     110.918 111.787 109.494  1.00  0.00     0.024 C 
ATOM      8  C   UNL     1     112.452 111.620 109.370  1.00  0.00    -0.022 C 
ATOM      9  C   UNL     1     112.946 112.104 107.972  1.00  0.00     0.008 C 
ATOM     10  C   UNL     1     111.899 111.857 106.852  1.00  0.00     0.005 C 
ATOM     11  C   UNL     1     110.951 110.661 107.169  1.00  0.00    -0.005 C 
ATOM     12  C   UNL     1     113.356 112.170 110.497  1.00  0.00     0.012 C 
ENDROOT
BRANCH  11  13
ATOM     13  C   UNL     1     109.590 110.772 106.416  1.00  0.00    -0.014 C 
ATOM     14  C   UNL     1     109.566 111.991 105.479  1.00  0.00     0.007 C 
ATOM     15  C   UNL     1     109.206 109.505 105.633  1.00  0.00     0.007 C 
ENDBRANCH  11  13
TORSDOF 1
ENDMDL
MODEL 6
REMARK VINA RESULT:    -6.722      1.631      3.413
REMARK INTER + INTRA:          -7.355
REMARK INTER:                  -6.939
REMARK INTRA:                  -0.417
REMARK UNBOUND:                -0.240
REMARK SMILES CC1=CC[C@H]2[C@@H]3[C@@H](C(C)C)CC[C@@]2(C)[C@H]13
REMARK SMILES IDX 1 1 2 2 3 3 4 4 5 5 6 6 15 7 13 8 12 9 11 10 7 11 14 12 8 13
REMARK SMILES IDX 9 14 10 15
REMARK H PARENT
REMARK Flexibility Score: inf
ROOT
ATOM      1  C   UNL     1     113.251 111.060 105.506  1.00  0.00     0.039 C 
ATOM      2  C   UNL     1     111.851 110.752 105.946  1.00  0.00    -0.073 C 
ATOM      3  C   UNL     1     111.115 109.790 105.332  1.00  0.00    -0.027 C 
ATOM      4  C   UNL     1     109.684 109.532 105.814  1.00  0.00     0.031 C 
ATOM      5  C   UNL     1     109.340 110.463 107.023  1.00  0.00     0.003 C 
ATOM      6  C   UNL     1     110.530 110.407 108.009  1.00  0.00     0.004 C 
ATOM      7  C   UNL     1     111.196 111.488 107.118  1.00  0.00     0.024 C 
ATOM      8  C   UNL     1     109.759 111.929 106.747  1.00  0.00    -0.022 C 
ATOM      9  C   UNL     1     109.161 112.845 107.860  1.00  0.00     0.008 C 
ATOM     10  C   UNL     1     109.673 112.472 109.277  1.00  0.00     0.005 C 
ATOM     11  C   UNL     1     110.083 110.972 109.392  1.00  0.00    -0.005 C 
ATOM     12  C   UNL     1     109.500 112.523 105.343  1.00  0.00     0.012 C 
ENDROOT
BRANCH  11  13
ATOM     13  C   UNL     1     111.114 110.730 110.537  1.00  0.00    -0.014 C 
ATOM     14  C   UNL     1     112.143 109.656 110.147  1.00  0.00     0.007 C 
ATOM     15  C   UNL     1     111.841 112.003 111.001  1.00  0.00     0.007 C 
ENDBRANCH  11  13
TORSDOF 1
ENDMDL
MODEL 7
REMARK VINA RESULT:    -6.721      3.190      4.783
REMARK INTER + INTRA:          -7.354
REMARK INTER:                  -7.111
REMARK INTRA:                  -0.243
REMARK UNBOUND:                -0.240
REMARK SMILES CC1=CC[C@H]2[C@@H]3[C@@H](C(C)C)CC[C@@]2(C)[C@H]13
REMARK SMILES IDX 1 1 2 2 3 3 4 4 5 5 6 6 15 7 13 8 12 9 11 10 7 11 14 12 8 13
REMARK SMILES IDX 9 14 10 15
REMARK H PARENT
REMARK Flexibility Score: inf
ROOT
ATOM      1  C   UNL     1     109.140 109.938 111.177  1.00  0.00     0.039 C 
ATOM      2  C   UNL     1     110.284 110.604 111.880  1.00  0.00    -0.073 C 
ATOM      3  C   UNL     1     111.040 111.547 111.259  1.00  0.00    -0.027 C 
ATOM      4  C   UNL     1     112.207 112.181 112.023  1.00  0.00     0.031 C 
ATOM      5  C   UNL     1     112.283 111.607 113.476  1.00  0.00     0.003 C 
ATOM      6  C   UNL     1     110.851 111.626 114.060  1.00  0.00     0.004 C 
ATOM      7  C   UNL     1     110.639 110.273 113.332  1.00  0.00     0.024 C 
ATOM      8  C   UNL     1     112.165 110.063 113.484  1.00  0.00    -0.022 C 
ATOM      9  C   UNL     1     112.507 109.535 114.912  1.00  0.00     0.008 C 
ATOM     10  C   UNL     1     111.541 110.081 115.996  1.00  0.00     0.005 C 
ATOM     11  C   UNL     1     110.921 111.459 115.610  1.00  0.00    -0.005 C 
ATOM     12  C   UNL     1     112.918 109.256 112.401  1.00  0.00     0.012 C 
ENDROOT
BRANCH  11  13
ATOM     13  C   UNL     1     109.566 111.720 116.336  1.00  0.00    -0.014 C 
ATOM     14  C   UNL     1     109.160 110.524 117.212  1.00  0.00     0.007 C 
ATOM     15  C   UNL     1     109.547 113.010 117.174  1.00  0.00     0.007 C 
ENDBRANCH  11  13
TORSDOF 1
ENDMDL
MODEL 8
REMARK VINA RESULT:    -6.701      1.346      2.218
REMARK INTER + INTRA:          -7.333
REMARK INTER:                  -6.908
REMARK INTRA:                  -0.425
REMARK UNBOUND:                -0.240
REMARK SMILES CC1=CC[C@H]2[C@@H]3[C@@H](C(C)C)CC[C@@]2(C)[C@H]13
REMARK SMILES IDX 1 1 2 2 3 3 4 4 5 5 6 6 15 7 13 8 12 9 11 10 7 11 14 12 8 13
REMARK SMILES IDX 9 14 10 15
REMARK H PARENT
REMARK Flexibility Score: inf
ROOT
ATOM      1  C   UNL     1     109.026 111.077 105.168  1.00  0.00     0.039 C 
ATOM      2  C   UNL     1     110.377 111.466 105.691  1.00  0.00    -0.073 C 
ATOM      3  C   UNL     1     111.073 112.497 105.146  1.00  0.00    -0.027 C 
ATOM      4  C   UNL     1     112.456 112.837 105.711  1.00  0.00     0.031 C 
ATOM      5  C   UNL     1     112.803 111.891 106.907  1.00  0.00     0.003 C 
ATOM      6  C   UNL     1     111.563 111.831 107.830  1.00  0.00     0.004 C 
ATOM      7  C   UNL     1     111.022 110.737 106.873  1.00  0.00     0.024 C 
ATOM      8  C   UNL     1     112.503 110.410 106.566  1.00  0.00    -0.022 C 
ATOM      9  C   UNL     1     113.108 109.500 107.680  1.00  0.00     0.008 C 
ATOM     10  C   UNL     1     112.499 109.788 109.079  1.00  0.00     0.005 C 
ATOM     11  C   UNL     1     111.978 111.251 109.217  1.00  0.00    -0.005 C 
ATOM     12  C   UNL     1     112.875 109.884 105.160  1.00  0.00     0.012 C 
ENDROOT
BRANCH  11  13
ATOM     13  C   UNL     1     110.876 111.382 110.313  1.00  0.00    -0.014 C 
ATOM     14  C   UNL     1     109.877 112.500 109.972  1.00  0.00     0.007 C 
ATOM     15  C   UNL     1     110.118 110.074 110.594  1.00  0.00     0.007 C 
ENDBRANCH  11  13
TORSDOF 1
ENDMDL
MODEL 9
REMARK VINA RESULT:    -6.690      2.918      6.506
REMARK INTER + INTRA:          -7.321
REMARK INTER:                  -7.088
REMARK INTRA:                  -0.233
REMARK UNBOUND:                -0.240
REMARK SMILES CC1=CC[C@H]2[C@@H]3[C@@H](C(C)C)CC[C@@]2(C)[C@H]13
REMARK SMILES IDX 1 1 2 2 3 3 4 4 5 5 6 6 15 7 13 8 12 9 11 10 7 11 14 12 8 13
REMARK SMILES IDX 9 14 10 15
REMARK H PARENT
REMARK Flexibility Score: inf
ROOT
ATOM      1  C   UNL     1     112.563 109.504 116.505  1.00  0.00     0.039 C 
ATOM      2  C   UNL     1     111.706 110.517 115.808  1.00  0.00    -0.073 C 
ATOM      3  C   UNL     1     111.326 111.665 116.428  1.00  0.00    -0.027 C 
ATOM      4  C   UNL     1     110.435 112.655 115.671  1.00  0.00     0.031 C 
ATOM      5  C   UNL     1     110.148 112.134 114.224  1.00  0.00     0.003 C 
ATOM      6  C   UNL     1     111.492 111.658 113.624  1.00  0.00     0.004 C 
ATOM      7  C   UNL     1     111.239 110.319 114.364  1.00  0.00     0.024 C 
ATOM      8  C   UNL     1     109.731 110.642 114.231  1.00  0.00    -0.022 C 
ATOM      9  C   UNL     1     109.209 110.255 112.812  1.00  0.00     0.008 C 
ATOM     10  C   UNL     1     110.289 110.432 111.711  1.00  0.00     0.005 C 
ATOM     11  C   UNL     1     111.347 111.517 112.077  1.00  0.00    -0.005 C 
ATOM     12  C   UNL     1     108.762 110.147 115.330  1.00  0.00     0.012 C 
ENDROOT
BRANCH  11  13
ATOM     13  C   UNL     1     112.700 111.296 111.333  1.00  0.00    -0.014 C 
ATOM     14  C   UNL     1     112.590 110.168 110.295  1.00  0.00     0.007 C 
ATOM     15  C   UNL     1     113.260 112.565 110.669  1.00  0.00     0.007 C 
ENDBRANCH  11  13
TORSDOF 1
ENDMDL
