MODEL 1
REMARK VINA RESULT:    -6.291      0.000      0.000
REMARK INTER + INTRA:          -8.554
REMARK INTER:                  -7.946
REMARK INTRA:                  -0.607
REMARK UNBOUND:                -0.607
REMARK SMILES Oc1cc(O)cc(CCc2ccccc2O)c1
REMARK SMILES IDX 9 1 10 2 12 3 13 4 11 5 14 6 15 7 16 8 8 10 7 11 6 12 17 13
REMARK SMILES IDX 4 14 2 15 3 16 5 17 1 19
REMARK H PARENT 16 9 5 18 1 20
REMARK Flexibility Score: inf
ROOT
ATOM      1  C   UNL     1      -1.465  -3.700  -0.602  1.00  0.00     0.044 C 
ENDROOT
BRANCH   1   2
ATOM      2  C   UNL     1      -0.699  -2.790  -1.529  1.00  0.00    -0.006 A 
ATOM      3  C   UNL     1      -0.329  -0.567  -2.446  1.00  0.00     0.001 A 
ATOM      4  C   UNL     1       0.750  -1.048  -3.189  1.00  0.00     0.004 A 
ATOM      5  C   UNL     1      -1.048  -1.431  -1.614  1.00  0.00     0.007 A 
ATOM      6  C   UNL     1       1.116  -2.394  -3.101  1.00  0.00     0.046 A 
ATOM      7  C   UNL     1       0.401  -3.268  -2.269  1.00  0.00     0.118 A 
BRANCH   7   8
ATOM      8  O   UNL     1       0.783  -4.606  -2.175  1.00  0.00    -0.508 OA
ATOM      9  H   UNL     1       0.387  -5.316  -2.780  1.00  0.00     0.293 HD
ENDBRANCH   7   8
ENDBRANCH   1   2
BRANCH   1  10
ATOM     10  C   UNL     1      -0.798  -3.751   0.776  1.00  0.00     0.040 C 
BRANCH  10  11
ATOM     11  C   UNL     1      -1.211  -2.567   1.608  1.00  0.00    -0.040 A 
ATOM     12  C   UNL     1      -2.564  -2.361   1.922  1.00  0.00     0.050 A 
ATOM     13  C   UNL     1      -0.255  -1.628   2.027  1.00  0.00     0.050 A 
ATOM     14  C   UNL     1      -2.954  -1.239   2.669  1.00  0.00     0.119 A 
ATOM     15  C   UNL     1      -0.644  -0.506   2.773  1.00  0.00     0.119 A 
ATOM     16  C   UNL     1      -1.992  -0.318   3.093  1.00  0.00     0.092 A 
BRANCH  14  17
ATOM     17  O   UNL     1      -4.294  -1.032   2.990  1.00  0.00    -0.508 OA
ATOM     18  H   UNL     1      -4.591  -0.225   3.527  1.00  0.00     0.293 HD
ENDBRANCH  14  17
BRANCH  15  19
ATOM     19  O   UNL     1       0.300   0.426   3.198  1.00  0.00    -0.508 OA
ATOM     20  H   UNL     1       0.422   1.312   2.720  1.00  0.00     0.293 HD
ENDBRANCH  15  19
ENDBRANCH  10  11
ENDBRANCH   1  10
TORSDOF 6
ENDMDL
MODEL 2
REMARK VINA RESULT:    -6.217      0.104      2.033
REMARK INTER + INTRA:          -8.460
REMARK INTER:                  -7.865
REMARK INTRA:                  -0.595
REMARK UNBOUND:                -0.607
REMARK SMILES Oc1cc(O)cc(CCc2ccccc2O)c1
REMARK SMILES IDX 9 1 10 2 12 3 13 4 11 5 14 6 15 7 16 8 8 10 7 11 6 12 17 13
REMARK SMILES IDX 4 14 2 15 3 16 5 17 1 19
REMARK H PARENT 16 9 5 18 1 20
REMARK Flexibility Score: inf
ROOT
ATOM      1  C   UNL     1      -1.427  -3.769  -0.553  1.00  0.00     0.044 C 
ENDROOT
BRANCH   1   2
ATOM      2  C   UNL     1      -0.700  -2.859  -1.511  1.00  0.00    -0.006 A 
ATOM      3  C   UNL     1      -0.453  -0.667  -2.536  1.00  0.00     0.001 A 
ATOM      4  C   UNL     1       0.671  -1.114  -3.233  1.00  0.00     0.004 A 
ATOM      5  C   UNL     1      -1.133  -1.532  -1.675  1.00  0.00     0.007 A 
ATOM      6  C   UNL     1       1.121  -2.427  -3.067  1.00  0.00     0.046 A 
ATOM      7  C   UNL     1       0.445  -3.302  -2.204  1.00  0.00     0.118 A 
BRANCH   7   8
ATOM      8  O   UNL     1       0.909  -4.606  -2.033  1.00  0.00    -0.508 OA
ATOM      9  H   UNL     1       0.301  -5.408  -2.158  1.00  0.00     0.293 HD
ENDBRANCH   7   8
ENDBRANCH   1   2
BRANCH   1  10
ATOM     10  C   UNL     1      -0.776  -3.723   0.833  1.00  0.00     0.040 C 
BRANCH  10  11
ATOM     11  C   UNL     1      -1.228  -2.503   1.589  1.00  0.00    -0.040 A 
ATOM     12  C   UNL     1      -0.287  -1.566   2.047  1.00  0.00     0.050 A 
ATOM     13  C   UNL     1      -2.587  -2.322   1.894  1.00  0.00     0.050 A 
ATOM     14  C   UNL     1      -0.704  -0.446   2.782  1.00  0.00     0.119 A 
ATOM     15  C   UNL     1      -3.004  -1.202   2.629  1.00  0.00     0.119 A 
ATOM     16  C   UNL     1      -2.061  -0.268   3.067  1.00  0.00     0.092 A 
BRANCH  14  17
ATOM     17  O   UNL     1       0.222   0.491   3.233  1.00  0.00    -0.508 OA
ATOM     18  H   UNL     1       1.162   0.221   3.499  1.00  0.00     0.293 HD
ENDBRANCH  14  17
BRANCH  15  19
ATOM     19  O   UNL     1      -4.351  -1.013   2.929  1.00  0.00    -0.508 OA
ATOM     20  H   UNL     1      -4.705  -1.123   3.872  1.00  0.00     0.293 HD
ENDBRANCH  15  19
ENDBRANCH  10  11
ENDBRANCH   1  10
TORSDOF 6
ENDMDL
MODEL 3
REMARK VINA RESULT:    -5.931      9.227     10.400
REMARK INTER + INTRA:          -8.098
REMARK INTER:                  -7.612
REMARK INTRA:                  -0.486
REMARK UNBOUND:                -0.607
REMARK SMILES Oc1cc(O)cc(CCc2ccccc2O)c1
REMARK SMILES IDX 9 1 10 2 12 3 13 4 11 5 14 6 15 7 16 8 8 10 7 11 6 12 17 13
REMARK SMILES IDX 4 14 2 15 3 16 5 17 1 19
REMARK H PARENT 16 9 5 18 1 20
REMARK Flexibility Score: inf
ROOT
ATOM      1  C   UNL     1      -4.320   3.510  -6.257  1.00  0.00     0.044 C 
ENDROOT
BRANCH   1   2
ATOM      2  C   UNL     1      -5.680   2.910  -6.004  1.00  0.00    -0.006 A 
ATOM      3  C   UNL     1      -7.828   2.999  -4.867  1.00  0.00     0.001 A 
ATOM      4  C   UNL     1      -8.247   1.861  -5.558  1.00  0.00     0.004 A 
ATOM      5  C   UNL     1      -6.553   3.526  -5.091  1.00  0.00     0.007 A 
ATOM      6  C   UNL     1      -7.393   1.248  -6.478  1.00  0.00     0.046 A 
ATOM      7  C   UNL     1      -6.112   1.770  -6.711  1.00  0.00     0.118 A 
BRANCH   7   8
ATOM      8  O   UNL     1      -5.271   1.161  -7.643  1.00  0.00    -0.508 OA
ATOM      9  H   UNL     1      -5.416   0.204  -7.944  1.00  0.00     0.293 HD
ENDBRANCH   7   8
ENDBRANCH   1   2
BRANCH   1  10
ATOM     10  C   UNL     1      -4.427   5.026  -6.445  1.00  0.00     0.040 C 
BRANCH  10  11
ATOM     11  C   UNL     1      -3.214   5.717  -5.882  1.00  0.00    -0.040 A 
ATOM     12  C   UNL     1      -2.329   6.399  -6.732  1.00  0.00     0.050 A 
ATOM     13  C   UNL     1      -2.926   5.633  -4.509  1.00  0.00     0.050 A 
ATOM     14  C   UNL     1      -1.181   7.014  -6.212  1.00  0.00     0.119 A 
ATOM     15  C   UNL     1      -1.777   6.248  -3.989  1.00  0.00     0.119 A 
ATOM     16  C   UNL     1      -0.911   6.938  -4.842  1.00  0.00     0.092 A 
BRANCH  14  17
ATOM     17  O   UNL     1      -0.303   7.699  -7.048  1.00  0.00    -0.508 OA
ATOM     18  H   UNL     1       0.631   7.352  -7.235  1.00  0.00     0.293 HD
ENDBRANCH  14  17
BRANCH  15  19
ATOM     19  O   UNL     1      -1.489   6.176  -2.628  1.00  0.00    -0.508 OA
ATOM     20  H   UNL     1      -1.476   5.290  -2.135  1.00  0.00     0.293 HD
ENDBRANCH  15  19
ENDBRANCH  10  11
ENDBRANCH   1  10
TORSDOF 6
ENDMDL
MODEL 4
REMARK VINA RESULT:    -5.864      9.208     10.288
REMARK INTER + INTRA:          -8.014
REMARK INTER:                  -7.553
REMARK INTRA:                  -0.461
REMARK UNBOUND:                -0.607
REMARK SMILES Oc1cc(O)cc(CCc2ccccc2O)c1
REMARK SMILES IDX 9 1 10 2 12 3 13 4 11 5 14 6 15 7 16 8 8 10 7 11 6 12 17 13
REMARK SMILES IDX 4 14 2 15 3 16 5 17 1 19
REMARK H PARENT 16 9 5 18 1 20
REMARK Flexibility Score: inf
ROOT
ATOM      1  C   UNL     1      -4.374   3.570  -6.258  1.00  0.00     0.044 C 
ENDROOT
BRANCH   1   2
ATOM      2  C   UNL     1      -5.713   2.919  -6.021  1.00  0.00    -0.006 A 
ATOM      3  C   UNL     1      -7.870   2.918  -4.898  1.00  0.00     0.001 A 
ATOM      4  C   UNL     1      -8.245   1.776  -5.606  1.00  0.00     0.004 A 
ATOM      5  C   UNL     1      -6.613   3.493  -5.107  1.00  0.00     0.007 A 
ATOM      6  C   UNL     1      -7.364   1.205  -6.529  1.00  0.00     0.046 A 
ATOM      7  C   UNL     1      -6.101   1.774  -6.746  1.00  0.00     0.118 A 
BRANCH   7   8
ATOM      8  O   UNL     1      -5.234   1.208  -7.680  1.00  0.00    -0.508 OA
ATOM      9  H   UNL     1      -4.425   1.710  -8.029  1.00  0.00     0.293 HD
ENDBRANCH   7   8
ENDBRANCH   1   2
BRANCH   1  10
ATOM     10  C   UNL     1      -4.502   5.096  -6.219  1.00  0.00     0.040 C 
BRANCH  10  11
ATOM     11  C   UNL     1      -3.241   5.719  -5.683  1.00  0.00    -0.040 A 
ATOM     12  C   UNL     1      -2.931   5.625  -4.316  1.00  0.00     0.050 A 
ATOM     13  C   UNL     1      -2.396   6.450  -6.533  1.00  0.00     0.050 A 
ATOM     14  C   UNL     1      -1.774   6.235  -3.810  1.00  0.00     0.119 A 
ATOM     15  C   UNL     1      -1.238   7.060  -6.027  1.00  0.00     0.119 A 
ATOM     16  C   UNL     1      -0.931   6.947  -4.668  1.00  0.00     0.092 A 
BRANCH  14  17
ATOM     17  O   UNL     1      -1.456   6.139  -2.457  1.00  0.00    -0.508 OA
ATOM     18  H   UNL     1      -2.171   6.187  -1.740  1.00  0.00     0.293 HD
ENDBRANCH  14  17
BRANCH  15  19
ATOM     19  O   UNL     1      -0.391   7.779  -6.866  1.00  0.00    -0.508 OA
ATOM     20  H   UNL     1       0.260   7.314  -7.489  1.00  0.00     0.293 HD
ENDBRANCH  15  19
ENDBRANCH  10  11
ENDBRANCH   1  10
TORSDOF 6
ENDMDL
MODEL 5
REMARK VINA RESULT:    -5.824      1.942      3.544
REMARK INTER + INTRA:          -7.964
REMARK INTER:                  -7.353
REMARK INTRA:                  -0.611
REMARK UNBOUND:                -0.607
REMARK SMILES Oc1cc(O)cc(CCc2ccccc2O)c1
REMARK SMILES IDX 9 1 10 2 12 3 13 4 11 5 14 6 15 7 16 8 8 10 7 11 6 12 17 13
REMARK SMILES IDX 4 14 2 15 3 16 5 17 1 19
REMARK H PARENT 16 9 5 18 1 20
REMARK Flexibility Score: inf
ROOT
ATOM      1  C   UNL     1      -0.217  -4.046   0.071  1.00  0.00     0.044 C 
ENDROOT
BRANCH   1   2
ATOM      2  C   UNL     1      -1.025  -5.319   0.024  1.00  0.00    -0.006 A 
ATOM      3  C   UNL     1      -2.589  -6.845   1.092  1.00  0.00     0.001 A 
ATOM      4  C   UNL     1      -2.599  -7.643  -0.053  1.00  0.00     0.004 A 
ATOM      5  C   UNL     1      -1.810  -5.685   1.130  1.00  0.00     0.007 A 
ATOM      6  C   UNL     1      -1.834  -7.282  -1.165  1.00  0.00     0.046 A 
ATOM      7  C   UNL     1      -1.051  -6.119  -1.136  1.00  0.00     0.118 A 
BRANCH   7   8
ATOM      8  O   UNL     1      -0.301  -5.757  -2.256  1.00  0.00    -0.508 OA
ATOM      9  H   UNL     1       0.704  -5.877  -2.285  1.00  0.00     0.293 HD
ENDBRANCH   7   8
ENDBRANCH   1   2
BRANCH   1  10
ATOM     10  C   UNL     1      -1.078  -2.845  -0.331  1.00  0.00     0.040 C 
BRANCH  10  11
ATOM     11  C   UNL     1      -1.369  -1.979   0.865  1.00  0.00    -0.040 A 
ATOM     12  C   UNL     1      -2.662  -1.939   1.412  1.00  0.00     0.050 A 
ATOM     13  C   UNL     1      -0.365  -1.159   1.406  1.00  0.00     0.050 A 
ATOM     14  C   UNL     1      -2.941  -1.106   2.505  1.00  0.00     0.119 A 
ATOM     15  C   UNL     1      -0.644  -0.326   2.499  1.00  0.00     0.119 A 
ATOM     16  C   UNL     1      -1.930  -0.305   3.046  1.00  0.00     0.092 A 
BRANCH  14  17
ATOM     17  O   UNL     1      -4.219  -1.066   3.058  1.00  0.00    -0.508 OA
ATOM     18  H   UNL     1      -5.008  -0.694   2.542  1.00  0.00     0.293 HD
ENDBRANCH  14  17
BRANCH  15  19
ATOM     19  O   UNL     1       0.349   0.483   3.046  1.00  0.00    -0.508 OA
ATOM     20  H   UNL     1       0.124   1.251   3.669  1.00  0.00     0.293 HD
ENDBRANCH  15  19
ENDBRANCH  10  11
ENDBRANCH   1  10
TORSDOF 6
ENDMDL
MODEL 6
REMARK VINA RESULT:    -5.813      2.172      5.927
REMARK INTER + INTRA:          -7.949
REMARK INTER:                  -7.419
REMARK INTRA:                  -0.530
REMARK UNBOUND:                -0.607
REMARK SMILES Oc1cc(O)cc(CCc2ccccc2O)c1
REMARK SMILES IDX 9 1 10 2 12 3 13 4 11 5 14 6 15 7 16 8 8 10 7 11 6 12 17 13
REMARK SMILES IDX 4 14 2 15 3 16 5 17 1 19
REMARK H PARENT 16 9 5 18 1 20
REMARK Flexibility Score: inf
ROOT
ATOM      1  C   UNL     1       0.750   0.491   1.278  1.00  0.00     0.044 C 
ENDROOT
BRANCH   1   2
ATOM      2  C   UNL     1      -0.139  -0.182   2.293  1.00  0.00    -0.006 A 
ATOM      3  C   UNL     1      -2.255  -0.271   3.488  1.00  0.00     0.001 A 
ATOM      4  C   UNL     1      -1.853  -1.446   4.125  1.00  0.00     0.004 A 
ATOM      5  C   UNL     1      -1.407   0.357   2.572  1.00  0.00     0.007 A 
ATOM      6  C   UNL     1      -0.600  -1.999   3.844  1.00  0.00     0.046 A 
ATOM      7  C   UNL     1       0.258  -1.377   2.926  1.00  0.00     0.118 A 
BRANCH   7   8
ATOM      8  O   UNL     1       1.500  -1.944   2.640  1.00  0.00    -0.508 OA
ATOM      9  H   UNL     1       1.874  -1.958   1.698  1.00  0.00     0.293 HD
ENDBRANCH   7   8
ENDBRANCH   1   2
BRANCH   1  10
ATOM     10  C   UNL     1      -0.048   0.864   0.025  1.00  0.00     0.040 C 
BRANCH  10  11
ATOM     11  C   UNL     1      -0.042  -0.271  -0.963  1.00  0.00    -0.040 A 
ATOM     12  C   UNL     1       0.743  -0.194  -2.125  1.00  0.00     0.050 A 
ATOM     13  C   UNL     1      -0.867  -1.390  -0.761  1.00  0.00     0.050 A 
ATOM     14  C   UNL     1       0.723  -1.236  -3.063  1.00  0.00     0.119 A 
ATOM     15  C   UNL     1      -0.887  -2.433  -1.699  1.00  0.00     0.119 A 
ATOM     16  C   UNL     1      -0.090  -2.353  -2.845  1.00  0.00     0.092 A 
BRANCH  14  17
ATOM     17  O   UNL     1       1.505  -1.170  -4.214  1.00  0.00    -0.508 OA
ATOM     18  H   UNL     1       2.113  -0.379  -4.396  1.00  0.00     0.293 HD
ENDBRANCH  14  17
BRANCH  15  19
ATOM     19  O   UNL     1      -1.696  -3.549  -1.501  1.00  0.00    -0.508 OA
ATOM     20  H   UNL     1      -2.109  -4.049  -2.281  1.00  0.00     0.293 HD
ENDBRANCH  15  19
ENDBRANCH  10  11
ENDBRANCH   1  10
TORSDOF 6
ENDMDL
MODEL 7
REMARK VINA RESULT:    -5.776      2.150      5.679
REMARK INTER + INTRA:          -7.903
REMARK INTER:                  -7.390
REMARK INTRA:                  -0.513
REMARK UNBOUND:                -0.607
REMARK SMILES Oc1cc(O)cc(CCc2ccccc2O)c1
REMARK SMILES IDX 9 1 10 2 12 3 13 4 11 5 14 6 15 7 16 8 8 10 7 11 6 12 17 13
REMARK SMILES IDX 4 14 2 15 3 16 5 17 1 19
REMARK H PARENT 16 9 5 18 1 20
REMARK Flexibility Score: inf
ROOT
ATOM      1  C   UNL     1       0.505   0.595   1.232  1.00  0.00     0.044 C 
ENDROOT
BRANCH   1   2
ATOM      2  C   UNL     1      -0.273  -0.183   2.263  1.00  0.00    -0.006 A 
ATOM      3  C   UNL     1      -2.381  -0.642   3.386  1.00  0.00     0.001 A 
ATOM      4  C   UNL     1      -1.773  -1.657   4.125  1.00  0.00     0.004 A 
ATOM      5  C   UNL     1      -1.639   0.090   2.454  1.00  0.00     0.007 A 
ATOM      6  C   UNL     1      -0.419  -1.947   3.933  1.00  0.00     0.046 A 
ATOM      7  C   UNL     1       0.334  -1.219   3.000  1.00  0.00     0.118 A 
BRANCH   7   8
ATOM      8  O   UNL     1       1.681  -1.524   2.804  1.00  0.00    -0.508 OA
ATOM      9  H   UNL     1       2.100  -2.360   3.196  1.00  0.00     0.293 HD
ENDBRANCH   7   8
ENDBRANCH   1   2
BRANCH   1  10
ATOM     10  C   UNL     1      -0.366   0.886   0.006  1.00  0.00     0.040 C 
BRANCH  10  11
ATOM     11  C   UNL     1      -0.248  -0.223  -1.004  1.00  0.00    -0.040 A 
ATOM     12  C   UNL     1      -0.955  -1.423  -0.821  1.00  0.00     0.050 A 
ATOM     13  C   UNL     1       0.614  -0.091  -2.104  1.00  0.00     0.050 A 
ATOM     14  C   UNL     1      -0.819  -2.471  -1.744  1.00  0.00     0.119 A 
ATOM     15  C   UNL     1       0.750  -1.138  -3.027  1.00  0.00     0.119 A 
ATOM     16  C   UNL     1       0.031  -2.323  -2.844  1.00  0.00     0.092 A 
BRANCH  14  17
ATOM     17  O   UNL     1      -1.522  -3.661  -1.574  1.00  0.00    -0.508 OA
ATOM     18  H   UNL     1      -2.295  -3.912  -2.181  1.00  0.00     0.293 HD
ENDBRANCH  14  17
BRANCH  15  19
ATOM     19  O   UNL     1       1.598  -1.011  -4.124  1.00  0.00    -0.508 OA
ATOM     20  H   UNL     1       1.811  -1.800  -4.724  1.00  0.00     0.293 HD
ENDBRANCH  15  19
ENDBRANCH  10  11
ENDBRANCH   1  10
TORSDOF 6
ENDMDL
MODEL 8
REMARK VINA RESULT:    -5.746      1.938      3.148
REMARK INTER + INTRA:          -7.864
REMARK INTER:                  -7.260
REMARK INTRA:                  -0.604
REMARK UNBOUND:                -0.607
REMARK SMILES Oc1cc(O)cc(CCc2ccccc2O)c1
REMARK SMILES IDX 9 1 10 2 12 3 13 4 11 5 14 6 15 7 16 8 8 10 7 11 6 12 17 13
REMARK SMILES IDX 4 14 2 15 3 16 5 17 1 19
REMARK H PARENT 16 9 5 18 1 20
REMARK Flexibility Score: inf
ROOT
ATOM      1  C   UNL     1      -0.688  -1.831  -2.651  1.00  0.00     0.044 C 
ENDROOT
BRANCH   1   2
ATOM      2  C   UNL     1      -0.051  -3.147  -2.280  1.00  0.00    -0.006 A 
ATOM      3  C   UNL     1       1.899  -4.599  -2.272  1.00  0.00     0.001 A 
ATOM      4  C   UNL     1       1.191  -5.556  -1.544  1.00  0.00     0.004 A 
ATOM      5  C   UNL     1       1.285  -3.397  -2.635  1.00  0.00     0.007 A 
ATOM      6  C   UNL     1      -0.134  -5.312  -1.172  1.00  0.00     0.046 A 
ATOM      7  C   UNL     1      -0.759  -4.108  -1.530  1.00  0.00     0.118 A 
BRANCH   7   8
ATOM      8  O   UNL     1      -2.076  -3.866  -1.142  1.00  0.00    -0.508 OA
ATOM      9  H   UNL     1      -2.812  -3.713  -1.823  1.00  0.00     0.293 HD
ENDBRANCH   7   8
ENDBRANCH   1   2
BRANCH   1  10
ATOM     10  C   UNL     1       0.219  -0.662  -2.255  1.00  0.00     0.040 C 
BRANCH  10  11
ATOM     11  C   UNL     1      -0.009  -0.279  -0.818  1.00  0.00    -0.040 A 
ATOM     12  C   UNL     1      -1.198  -0.646  -0.168  1.00  0.00     0.050 A 
ATOM     13  C   UNL     1       0.939   0.500  -0.134  1.00  0.00     0.050 A 
ATOM     14  C   UNL     1      -1.427  -0.260   1.161  1.00  0.00     0.119 A 
ATOM     15  C   UNL     1       0.711   0.886   1.195  1.00  0.00     0.119 A 
ATOM     16  C   UNL     1      -0.470   0.502   1.838  1.00  0.00     0.092 A 
BRANCH  14  17
ATOM     17  O   UNL     1      -2.601  -0.627   1.815  1.00  0.00    -0.508 OA
ATOM     18  H   UNL     1      -2.658  -0.653   2.826  1.00  0.00     0.293 HD
ENDBRANCH  14  17
BRANCH  15  19
ATOM     19  O   UNL     1       1.650   1.652   1.882  1.00  0.00    -0.508 OA
ATOM     20  H   UNL     1       1.774   2.639   1.687  1.00  0.00     0.293 HD
ENDBRANCH  15  19
ENDBRANCH  10  11
ENDBRANCH   1  10
TORSDOF 6
ENDMDL
MODEL 9
REMARK VINA RESULT:    -5.745      1.833      3.341
REMARK INTER + INTRA:          -7.863
REMARK INTER:                  -7.344
REMARK INTRA:                  -0.519
REMARK UNBOUND:                -0.607
REMARK SMILES Oc1cc(O)cc(CCc2ccccc2O)c1
REMARK SMILES IDX 9 1 10 2 12 3 13 4 11 5 14 6 15 7 16 8 8 10 7 11 6 12 17 13
REMARK SMILES IDX 4 14 2 15 3 16 5 17 1 19
REMARK H PARENT 16 9 5 18 1 20
REMARK Flexibility Score: inf
ROOT
ATOM      1  C   UNL     1      -1.498  -3.144  -1.061  1.00  0.00     0.044 C 
ENDROOT
BRANCH   1   2
ATOM      2  C   UNL     1      -0.494  -4.199  -1.455  1.00  0.00    -0.006 A 
ATOM      3  C   UNL     1       1.733  -4.778  -2.242  1.00  0.00     0.001 A 
ATOM      4  C   UNL     1       1.425  -6.134  -2.131  1.00  0.00     0.004 A 
ATOM      5  C   UNL     1       0.781  -3.812  -1.901  1.00  0.00     0.007 A 
ATOM      6  C   UNL     1       0.165  -6.531  -1.674  1.00  0.00     0.046 A 
ATOM      7  C   UNL     1      -0.796  -5.570  -1.329  1.00  0.00     0.118 A 
BRANCH   7   8
ATOM      8  O   UNL     1      -2.046  -5.973  -0.859  1.00  0.00    -0.508 OA
ATOM      9  H   UNL     1      -2.287  -6.953  -0.762  1.00  0.00     0.293 HD
ENDBRANCH   7   8
ENDBRANCH   1   2
BRANCH   1  10
ATOM     10  C   UNL     1      -0.844  -1.759  -1.041  1.00  0.00     0.040 C 
BRANCH  10  11
ATOM     11  C   UNL     1      -1.045  -1.098   0.296  1.00  0.00    -0.040 A 
ATOM     12  C   UNL     1      -0.041  -0.280   0.839  1.00  0.00     0.050 A 
ATOM     13  C   UNL     1      -2.213  -1.342   1.038  1.00  0.00     0.050 A 
ATOM     14  C   UNL     1      -0.214   0.309   2.100  1.00  0.00     0.119 A 
ATOM     15  C   UNL     1      -2.385  -0.754   2.300  1.00  0.00     0.119 A 
ATOM     16  C   UNL     1      -1.386   0.072   2.824  1.00  0.00     0.092 A 
BRANCH  14  17
ATOM     17  O   UNL     1       0.774   1.129   2.642  1.00  0.00    -0.508 OA
ATOM     18  H   UNL     1       0.905   2.082   2.323  1.00  0.00     0.293 HD
ENDBRANCH  14  17
BRANCH  15  19
ATOM     19  O   UNL     1      -3.543  -0.985   3.038  1.00  0.00    -0.508 OA
ATOM     20  H   UNL     1      -3.506  -1.229   4.021  1.00  0.00     0.293 HD
ENDBRANCH  15  19
ENDBRANCH  10  11
ENDBRANCH   1  10
TORSDOF 6
ENDMDL
