MODEL 1
REMARK VINA RESULT:    -3.648      0.000      0.000
REMARK INTER + INTRA:          -3.872
REMARK INTER:                  -4.501
REMARK INTRA:                   0.630
REMARK UNBOUND:                 0.630
REMARK SMILES C=C1[C@@H]2CC[C@H]3[C@@H]2C(C)(C)CCC[C@@]13C
REMARK SMILES IDX 14 1 6 2 7 3 3 4 2 5 1 6 4 7 5 8 15 9 8 10 9 11 10 12 11 13
REMARK SMILES IDX 13 15 12 16
REMARK H PARENT
REMARK Flexibility Score: 80.00
ROOT
ATOM      1  C   UNL     1      30.721   8.899  32.881  1.00  0.00    -0.008 C 
ATOM      2  C   UNL     1      32.035   9.042  33.745  1.00  0.00     0.003 C 
ATOM      3  C   UNL     1      31.648  10.003  34.887  1.00  0.00     0.006 C 
ATOM      4  C   UNL     1      31.096  11.068  33.938  1.00  0.00     0.019 C 
ATOM      5  C   UNL     1      30.138  10.273  33.096  1.00  0.00    -0.068 C 
ATOM      6  C   UNL     1      29.007  10.749  32.561  1.00  0.00     0.009 C 
ATOM      7  C   UNL     1      32.337  11.343  33.053  1.00  0.00     0.008 C 
ATOM      8  C   UNL     1      33.043   9.965  33.005  1.00  0.00     0.005 C 
ATOM      9  C   UNL     1      30.994   8.651  31.372  1.00  0.00     0.016 C 
ENDROOT
BRANCH   3  10
ATOM     10  C   UNL     1      30.755   9.481  36.094  1.00  0.00    -0.032 C 
ATOM     11  C   UNL     1      29.686  10.527  36.506  1.00  0.00     0.011 C 
ATOM     12  C   UNL     1      31.682   9.303  37.329  1.00  0.00     0.011 C 
BRANCH  10  13
ATOM     13  C   UNL     1      30.098   8.090  35.871  1.00  0.00     0.007 CG0
ATOM     14  G   UNL     1      29.114   7.997  34.708  1.00  0.00     0.000 G0
ENDBRANCH  10  13
ENDBRANCH   3  10
BRANCH   1  15
ATOM     15  C   UNL     1      29.796   7.756  33.378  1.00  0.00     0.011 C 
BRANCH  15  16
ATOM     16  C   UNL     1      29.107   7.989  34.720  1.00  0.00     0.001 CG0
ATOM     17  G   UNL     1      30.100   8.091  35.875  1.00  0.00     0.000 G0
ENDBRANCH  15  16
ENDBRANCH   1  15
TORSDOF 0
ENDMDL
MODEL 2
REMARK VINA RESULT:    -3.610      8.194     10.509
REMARK INTER + INTRA:          -3.825
REMARK INTER:                  -4.455
REMARK INTRA:                   0.630
REMARK UNBOUND:                 0.630
REMARK SMILES C=C1[C@@H]2CC[C@H]3[C@@H]2C(C)(C)CCC[C@@]13C
REMARK SMILES IDX 14 1 6 2 7 3 3 4 2 5 1 6 4 7 5 8 15 9 8 10 9 11 10 12 11 13
REMARK SMILES IDX 13 15 12 16
REMARK H PARENT
REMARK Flexibility Score: 80.00
ROOT
ATOM      1  C   UNL     1      30.360  11.135  25.500  1.00  0.00    -0.008 C 
ATOM      2  C   UNL     1      30.212   9.649  26.013  1.00  0.00     0.003 C 
ATOM      3  C   UNL     1      29.334   8.955  24.951  1.00  0.00     0.006 C 
ATOM      4  C   UNL     1      28.241  10.023  25.013  1.00  0.00     0.019 C 
ATOM      5  C   UNL     1      29.027  11.289  24.813  1.00  0.00    -0.068 C 
ATOM      6  C   UNL     1      28.569  12.390  24.206  1.00  0.00     0.009 C 
ATOM      7  C   UNL     1      27.865   9.970  26.514  1.00  0.00     0.008 C 
ATOM      8  C   UNL     1      29.207   9.608  27.198  1.00  0.00     0.005 C 
ATOM      9  C   UNL     1      30.510  12.174  26.645  1.00  0.00     0.016 C 
ENDROOT
BRANCH   3  10
ATOM     10  C   UNL     1      29.962   8.546  23.549  1.00  0.00    -0.032 C 
ATOM     11  C   UNL     1      28.989   8.850  22.380  1.00  0.00     0.011 C 
ATOM     12  C   UNL     1      30.167   7.006  23.550  1.00  0.00     0.011 C 
BRANCH  10  13
ATOM     13  C   UNL     1      31.366   9.147  23.258  1.00  0.00     0.007 CG0
ATOM     14  G   UNL     1      31.435  10.669  23.173  1.00  0.00     0.000 G0
ENDBRANCH  10  13
ENDBRANCH   3  10
BRANCH   1  15
ATOM     15  C   UNL     1      31.568  11.322  24.543  1.00  0.00     0.011 C 
BRANCH  15  16
ATOM     16  C   UNL     1      31.441  10.667  23.171  1.00  0.00     0.001 CG0
ATOM     17  G   UNL     1      31.371   9.145  23.255  1.00  0.00     0.000 G0
ENDBRANCH  15  16
ENDBRANCH   1  15
TORSDOF 0
ENDMDL
MODEL 3
REMARK VINA RESULT:    -3.596      1.357      3.380
REMARK INTER + INTRA:          -3.808
REMARK INTER:                  -4.437
REMARK INTRA:                   0.630
REMARK UNBOUND:                 0.630
REMARK SMILES C=C1[C@@H]2CC[C@H]3[C@@H]2C(C)(C)CCC[C@@]13C
REMARK SMILES IDX 14 1 6 2 7 3 3 4 2 5 1 6 4 7 5 8 15 9 8 10 9 11 10 12 11 13
REMARK SMILES IDX 13 15 12 16
REMARK H PARENT
REMARK Flexibility Score: 80.00
ROOT
ATOM      1  C   UNL     1      29.823   9.757  34.109  1.00  0.00    -0.008 C 
ATOM      2  C   UNL     1      30.113   9.806  32.557  1.00  0.00     0.003 C 
ATOM      3  C   UNL     1      31.348   8.903  32.363  1.00  0.00     0.006 C 
ATOM      4  C   UNL     1      32.167   9.622  33.437  1.00  0.00     0.019 C 
ATOM      5  C   UNL     1      31.234   9.593  34.615  1.00  0.00    -0.068 C 
ATOM      6  C   UNL     1      31.615   9.524  35.896  1.00  0.00     0.009 C 
ATOM      7  C   UNL     1      32.148  11.073  32.896  1.00  0.00     0.008 C 
ATOM      8  C   UNL     1      30.769  11.167  32.197  1.00  0.00     0.005 C 
ATOM      9  C   UNL     1      29.190  11.063  34.663  1.00  0.00     0.016 C 
ENDROOT
BRANCH   3  10
ATOM     10  C   UNL     1      31.191   7.322  32.415  1.00  0.00    -0.032 C 
ATOM     11  C   UNL     1      32.355   6.660  33.197  1.00  0.00     0.011 C 
ATOM     12  C   UNL     1      31.289   6.786  30.960  1.00  0.00     0.011 C 
BRANCH  10  13
ATOM     13  C   UNL     1      29.821   6.816  32.948  1.00  0.00     0.007 CG0
ATOM     14  G   UNL     1      29.486   7.191  34.389  1.00  0.00     0.000 G0
ENDBRANCH  10  13
ENDBRANCH   3  10
BRANCH   1  15
ATOM     15  C   UNL     1      28.889   8.583  34.508  1.00  0.00     0.011 C 
BRANCH  15  16
ATOM     16  C   UNL     1      29.484   7.183  34.388  1.00  0.00     0.001 CG0
ATOM     17  G   UNL     1      29.819   6.815  32.945  1.00  0.00     0.000 G0
ENDBRANCH  15  16
ENDBRANCH   1  15
TORSDOF 0
ENDMDL
MODEL 4
REMARK VINA RESULT:    -3.576      1.443      3.926
REMARK INTER + INTRA:          -3.782
REMARK INTER:                  -4.409
REMARK INTRA:                   0.627
REMARK UNBOUND:                 0.630
REMARK SMILES C=C1[C@@H]2CC[C@H]3[C@@H]2C(C)(C)CCC[C@@]13C
REMARK SMILES IDX 14 1 6 2 7 3 3 4 2 5 1 6 4 7 5 8 15 9 8 10 9 11 10 12 11 13
REMARK SMILES IDX 13 15 12 16
REMARK H PARENT
REMARK Flexibility Score: 80.00
ROOT
ATOM      1  C   UNL     1      29.461   9.585  36.116  1.00  0.00    -0.008 C 
ATOM      2  C   UNL     1      31.012   9.867  36.198  1.00  0.00     0.003 C 
ATOM      3  C   UNL     1      31.613   9.093  35.007  1.00  0.00     0.006 C 
ATOM      4  C   UNL     1      30.934   7.778  35.392  1.00  0.00     0.019 C 
ATOM      5  C   UNL     1      29.497   8.195  35.534  1.00  0.00    -0.068 C 
ATOM      6  C   UNL     1      28.441   7.417  35.269  1.00  0.00     0.009 C 
ATOM      7  C   UNL     1      31.479   7.577  36.827  1.00  0.00     0.008 C 
ATOM      8  C   UNL     1      31.631   9.027  37.349  1.00  0.00     0.005 C 
ATOM      9  C   UNL     1      28.757   9.580  37.502  1.00  0.00     0.016 C 
ENDROOT
BRANCH   3  10
ATOM     10  C   UNL     1      31.455   9.662  33.531  1.00  0.00    -0.032 C 
ATOM     11  C   UNL     1      31.130   8.534  32.518  1.00  0.00     0.011 C 
ATOM     12  C   UNL     1      32.827  10.249  33.098  1.00  0.00     0.011 C 
BRANCH  10  13
ATOM     13  C   UNL     1      30.443  10.833  33.384  1.00  0.00     0.007 CG0
ATOM     14  G   UNL     1      28.992  10.509  33.731  1.00  0.00     0.000 G0
ENDBRANCH  10  13
ENDBRANCH   3  10
BRANCH   1  15
ATOM     15  C   UNL     1      28.711  10.606  35.220  1.00  0.00     0.011 C 
BRANCH  15  16
ATOM     16  C   UNL     1      28.994  10.516  33.723  1.00  0.00     0.001 CG0
ATOM     17  G   UNL     1      30.447  10.837  33.384  1.00  0.00     0.000 G0
ENDBRANCH  15  16
ENDBRANCH   1  15
TORSDOF 0
ENDMDL
MODEL 5
REMARK VINA RESULT:    -3.555      1.368      2.743
REMARK INTER + INTRA:          -3.757
REMARK INTER:                  -4.397
REMARK INTRA:                   0.641
REMARK UNBOUND:                 0.630
REMARK SMILES C=C1[C@@H]2CC[C@H]3[C@@H]2C(C)(C)CCC[C@@]13C
REMARK SMILES IDX 14 1 6 2 7 3 3 4 2 5 1 6 4 7 5 8 15 9 8 10 9 11 10 12 11 13
REMARK SMILES IDX 13 15 12 16
REMARK H PARENT
REMARK Flexibility Score: 80.00
ROOT
ATOM      1  C   UNL     1      30.466   9.488  32.777  1.00  0.00    -0.008 C 
ATOM      2  C   UNL     1      29.898   8.060  33.140  1.00  0.00     0.003 C 
ATOM      3  C   UNL     1      30.632   7.666  34.438  1.00  0.00     0.006 C 
ATOM      4  C   UNL     1      32.019   7.942  33.854  1.00  0.00     0.019 C 
ATOM      5  C   UNL     1      31.864   9.339  33.322  1.00  0.00    -0.068 C 
ATOM      6  C   UNL     1      32.840  10.253  33.265  1.00  0.00     0.009 C 
ATOM      7  C   UNL     1      32.013   6.999  32.627  1.00  0.00     0.008 C 
ATOM      8  C   UNL     1      30.525   6.998  32.195  1.00  0.00     0.005 C 
ATOM      9  C   UNL     1      30.501   9.772  31.251  1.00  0.00     0.016 C 
ENDROOT
BRANCH   3  10
ATOM     10  C   UNL     1      30.210   8.329  35.820  1.00  0.00    -0.032 C 
ATOM     11  C   UNL     1      31.450   8.697  36.677  1.00  0.00     0.011 C 
ATOM     12  C   UNL     1      29.421   7.267  36.635  1.00  0.00     0.011 C 
BRANCH  10  13
ATOM     13  C   UNL     1      29.252   9.547  35.698  1.00  0.00     0.007 CG0
ATOM     14  G   UNL     1      29.812  10.765  34.968  1.00  0.00     0.000 G0
ENDBRANCH  10  13
ENDBRANCH   3  10
BRANCH   1  15
ATOM     15  C   UNL     1      29.668  10.639  33.445  1.00  0.00     0.011 C 
BRANCH  15  16
ATOM     16  C   UNL     1      29.810  10.762  34.959  1.00  0.00     0.001 CG0
ATOM     17  G   UNL     1      29.253   9.548  35.698  1.00  0.00     0.000 G0
ENDBRANCH  15  16
ENDBRANCH   1  15
TORSDOF 0
ENDMDL
MODEL 6
REMARK VINA RESULT:    -3.501      7.320      9.180
REMARK INTER + INTRA:          -3.690
REMARK INTER:                  -4.322
REMARK INTRA:                   0.632
REMARK UNBOUND:                 0.630
REMARK SMILES C=C1[C@@H]2CC[C@H]3[C@@H]2C(C)(C)CCC[C@@]13C
REMARK SMILES IDX 14 1 6 2 7 3 3 4 2 5 1 6 4 7 5 8 15 9 8 10 9 11 10 12 11 13
REMARK SMILES IDX 13 15 12 16
REMARK H PARENT
REMARK Flexibility Score: 80.00
ROOT
ATOM      1  C   UNL     1      30.288   9.652  24.398  1.00  0.00    -0.008 C 
ATOM      2  C   UNL     1      31.227  10.780  24.982  1.00  0.00     0.003 C 
ATOM      3  C   UNL     1      30.261  11.889  25.447  1.00  0.00     0.006 C 
ATOM      4  C   UNL     1      29.533  11.955  24.103  1.00  0.00     0.019 C 
ATOM      5  C   UNL     1      29.170  10.515  23.871  1.00  0.00    -0.068 C 
ATOM      6  C   UNL     1      28.079  10.092  23.222  1.00  0.00     0.009 C 
ATOM      7  C   UNL     1      30.709  12.274  23.149  1.00  0.00     0.008 C 
ATOM      8  C   UNL     1      31.905  11.546  23.813  1.00  0.00     0.005 C 
ATOM      9  C   UNL     1      30.941   8.837  23.248  1.00  0.00     0.016 C 
ENDROOT
BRANCH   3  10
ATOM     10  C   UNL     1      29.429  11.704  26.789  1.00  0.00    -0.032 C 
ATOM     11  C   UNL     1      27.968  12.199  26.625  1.00  0.00     0.011 C 
ATOM     12  C   UNL     1      30.072  12.610  27.876  1.00  0.00     0.011 C 
BRANCH  10  13
ATOM     13  C   UNL     1      29.454  10.268  27.384  1.00  0.00     0.007 CG0
ATOM     14  G   UNL     1      28.835   9.176  26.516  1.00  0.00     0.000 G0
ENDBRANCH  10  13
ENDBRANCH   3  10
BRANCH   1  15
ATOM     15  C   UNL     1      29.824   8.639  25.478  1.00  0.00     0.011 C 
BRANCH  15  16
ATOM     16  C   UNL     1      28.838   9.170  26.515  1.00  0.00     0.001 CG0
ATOM     17  G   UNL     1      29.447  10.262  27.391  1.00  0.00     0.000 G0
ENDBRANCH  15  16
ENDBRANCH   1  15
TORSDOF 0
ENDMDL
MODEL 7
REMARK VINA RESULT:    -3.385      1.811      3.393
REMARK INTER + INTRA:          -3.547
REMARK INTER:                  -4.176
REMARK INTRA:                   0.630
REMARK UNBOUND:                 0.630
REMARK SMILES C=C1[C@@H]2CC[C@H]3[C@@H]2C(C)(C)CCC[C@@]13C
REMARK SMILES IDX 14 1 6 2 7 3 3 4 2 5 1 6 4 7 5 8 15 9 8 10 9 11 10 12 11 13
REMARK SMILES IDX 13 15 12 16
REMARK H PARENT
REMARK Flexibility Score: 80.00
ROOT
ATOM      1  C   UNL     1      30.494   7.277  35.928  1.00  0.00    -0.008 C 
ATOM      2  C   UNL     1      30.028   8.261  37.071  1.00  0.00     0.003 C 
ATOM      3  C   UNL     1      29.615   9.550  36.332  1.00  0.00     0.006 C 
ATOM      4  C   UNL     1      30.934   9.650  35.564  1.00  0.00     0.019 C 
ATOM      5  C   UNL     1      31.046   8.283  34.950  1.00  0.00    -0.068 C 
ATOM      6  C   UNL     1      31.623   8.013  33.774  1.00  0.00     0.009 C 
ATOM      7  C   UNL     1      31.950   9.694  36.732  1.00  0.00     0.008 C 
ATOM      8  C   UNL     1      31.274   8.816  37.815  1.00  0.00     0.005 C 
ATOM      9  C   UNL     1      31.601   6.284  36.376  1.00  0.00     0.016 C 
ENDROOT
BRANCH   3  10
ATOM     10  C   UNL     1      28.236   9.605  35.544  1.00  0.00    -0.032 C 
ATOM     11  C   UNL     1      28.385  10.336  34.184  1.00  0.00     0.011 C 
ATOM     12  C   UNL     1      27.242  10.455  36.384  1.00  0.00     0.011 C 
BRANCH  10  13
ATOM     13  C   UNL     1      27.536   8.230  35.349  1.00  0.00     0.007 CG0
ATOM     14  G   UNL     1      28.300   7.207  34.512  1.00  0.00     0.000 G0
ENDBRANCH  10  13
ENDBRANCH   3  10
BRANCH   1  15
ATOM     15  C   UNL     1      29.325   6.435  35.347  1.00  0.00     0.011 C 
BRANCH  15  16
ATOM     16  C   UNL     1      28.298   7.200  34.517  1.00  0.00     0.001 CG0
ATOM     17  G   UNL     1      27.535   8.234  35.341  1.00  0.00     0.000 G0
ENDBRANCH  15  16
ENDBRANCH   1  15
TORSDOF 0
ENDMDL
MODEL 8
REMARK VINA RESULT:    -3.384      1.384      2.314
REMARK INTER + INTRA:          -3.545
REMARK INTER:                  -4.175
REMARK INTRA:                   0.629
REMARK UNBOUND:                 0.630
REMARK SMILES C=C1[C@@H]2CC[C@H]3[C@@H]2C(C)(C)CCC[C@@]13C
REMARK SMILES IDX 14 1 6 2 7 3 3 4 2 5 1 6 4 7 5 8 15 9 8 10 9 11 10 12 11 13
REMARK SMILES IDX 13 15 12 16
REMARK H PARENT
REMARK Flexibility Score: 80.00
ROOT
ATOM      1  C   UNL     1      29.264   9.595  34.394  1.00  0.00    -0.008 C 
ATOM      2  C   UNL     1      30.464   8.642  34.014  1.00  0.00     0.003 C 
ATOM      3  C   UNL     1      31.250   8.461  35.329  1.00  0.00     0.006 C 
ATOM      4  C   UNL     1      31.364   9.965  35.583  1.00  0.00     0.019 C 
ATOM      5  C   UNL     1      29.934  10.413  35.469  1.00  0.00    -0.068 C 
ATOM      6  C   UNL     1      29.389  11.429  36.149  1.00  0.00     0.009 C 
ATOM      7  C   UNL     1      32.076  10.427  34.288  1.00  0.00     0.008 C 
ATOM      8  C   UNL     1      31.532   9.445  33.221  1.00  0.00     0.005 C 
ATOM      9  C   UNL     1      28.800  10.504  33.223  1.00  0.00     0.016 C 
ENDROOT
BRANCH   3  10
ATOM     10  C   UNL     1      30.682   7.508  36.468  1.00  0.00    -0.032 C 
ATOM     11  C   UNL     1      30.868   8.131  37.876  1.00  0.00     0.011 C 
ATOM     12  C   UNL     1      31.525   6.202  36.458  1.00  0.00     0.011 C 
BRANCH  10  13
ATOM     13  C   UNL     1      29.211   7.048  36.265  1.00  0.00     0.007 CG0
ATOM     14  G   UNL     1      28.159   8.155  36.275  1.00  0.00     0.000 G0
ENDBRANCH  10  13
ENDBRANCH   3  10
BRANCH   1  15
ATOM     15  C   UNL     1      28.018   8.820  34.901  1.00  0.00     0.011 C 
BRANCH  15  16
ATOM     16  C   UNL     1      28.156   8.151  36.265  1.00  0.00     0.001 CG0
ATOM     17  G   UNL     1      29.214   7.051  36.272  1.00  0.00     0.000 G0
ENDBRANCH  15  16
ENDBRANCH   1  15
TORSDOF 0
ENDMDL
MODEL 9
REMARK VINA RESULT:    -3.316      1.824      3.675
REMARK INTER + INTRA:          -3.462
REMARK INTER:                  -4.090
REMARK INTRA:                   0.627
REMARK UNBOUND:                 0.630
REMARK SMILES C=C1[C@@H]2CC[C@H]3[C@@H]2C(C)(C)CCC[C@@]13C
REMARK SMILES IDX 14 1 6 2 7 3 3 4 2 5 1 6 4 7 5 8 15 9 8 10 9 11 10 12 11 13
REMARK SMILES IDX 13 15 12 16
REMARK H PARENT
REMARK Flexibility Score: 80.00
ROOT
ATOM      1  C   UNL     1      30.763   9.318  34.946  1.00  0.00    -0.008 C 
ATOM      2  C   UNL     1      29.978   7.991  34.604  1.00  0.00     0.003 C 
ATOM      3  C   UNL     1      29.428   7.503  35.959  1.00  0.00     0.006 C 
ATOM      4  C   UNL     1      30.792   7.568  36.649  1.00  0.00     0.019 C 
ATOM      5  C   UNL     1      31.236   8.969  36.334  1.00  0.00    -0.068 C 
ATOM      6  C   UNL     1      32.000   9.729  37.128  1.00  0.00     0.009 C 
ATOM      7  C   UNL     1      31.623   6.628  35.742  1.00  0.00     0.008 C 
ATOM      8  C   UNL     1      30.991   6.842  34.344  1.00  0.00     0.005 C 
ATOM      9  C   UNL     1      31.971   9.583  34.006  1.00  0.00     0.016 C 
ENDROOT
BRANCH   3  10
ATOM     10  C   UNL     1      28.175   8.230  36.615  1.00  0.00    -0.032 C 
ATOM     11  C   UNL     1      28.361   8.416  38.143  1.00  0.00     0.011 C 
ATOM     12  C   UNL     1      26.941   7.301  36.440  1.00  0.00     0.011 C 
BRANCH  10  13
ATOM     13  C   UNL     1      27.774   9.575  35.947  1.00  0.00     0.007 CG0
ATOM     14  G   UNL     1      28.812  10.692  36.021  1.00  0.00     0.000 G0
ENDBRANCH  10  13
ENDBRANCH   3  10
BRANCH   1  15
ATOM     15  C   UNL     1      29.858  10.578  34.906  1.00  0.00     0.011 C 
BRANCH  15  16
ATOM     16  C   UNL     1      28.816  10.689  36.014  1.00  0.00     0.001 CG0
ATOM     17  G   UNL     1      27.775   9.574  35.949  1.00  0.00     0.000 G0
ENDBRANCH  15  16
ENDBRANCH   1  15
TORSDOF 0
ENDMDL
