MODEL 1
REMARK VINA RESULT:    -5.275      0.000      0.000
REMARK INTER + INTRA:          -8.485
REMARK INTER:                  -8.051
REMARK INTRA:                  -0.434
REMARK UNBOUND:                -0.434
REMARK SMILES O=C([O-])CCCCCCCCC(=O)[O-]
REMARK SMILES IDX 7 1 6 2 5 3 4 4 2 5 1 6 3 7 8 8 9 9 10 10 11 11 12 12 13 13
REMARK SMILES IDX 14 14
REMARK H PARENT
REMARK Flexibility Score: inf
ROOT
ATOM      1  C   UNL     1      19.902  23.483  41.020  1.00  0.00     0.000 C 
ENDROOT
BRANCH   1   2
ATOM      2  C   UNL     1      20.796  22.611  40.116  1.00  0.00     0.000 C 
BRANCH   2   3
ATOM      3  C   UNL     1      21.974  23.348  39.456  1.00  0.00     0.006 C 
BRANCH   3   4
ATOM      4  C   UNL     1      23.265  23.265  40.281  1.00  0.00     0.053 C 
BRANCH   4   5
ATOM      5  C   UNL     1      24.458  23.490  39.408  1.00  0.00     0.041 C 
ATOM      6  O   UNL     1      25.402  22.656  39.396  1.00  0.00    -0.550 OA
ATOM      7  O   UNL     1      24.507  24.596  38.568  1.00  0.00    -0.550 OA
ENDBRANCH   4   5
ENDBRANCH   3   4
ENDBRANCH   2   3
ENDBRANCH   1   2
BRANCH   1   8
ATOM      8  C   UNL     1      19.804  23.021  42.485  1.00  0.00     0.000 C 
BRANCH   8   9
ATOM      9  C   UNL     1      18.384  23.144  43.056  1.00  0.00     0.000 C 
BRANCH   9  10
ATOM     10  C   UNL     1      18.016  21.906  43.883  1.00  0.00     0.006 C 
BRANCH  10  11
ATOM     11  C   UNL     1      17.049  21.001  43.116  1.00  0.00     0.053 C 
BRANCH  11  12
ATOM     12  C   UNL     1      17.783  19.851  42.502  1.00  0.00     0.041 C 
ATOM     13  O   UNL     1      18.372  19.993  41.398  1.00  0.00    -0.550 OA
ATOM     14  O   UNL     1      17.777  18.610  43.125  1.00  0.00    -0.550 OA
ENDBRANCH  11  12
ENDBRANCH  10  11
ENDBRANCH   9  10
ENDBRANCH   8   9
ENDBRANCH   1   8
TORSDOF 9
ENDMDL
MODEL 2
REMARK VINA RESULT:    -5.260      0.962      6.814
REMARK INTER + INTRA:          -8.461
REMARK INTER:                  -8.100
REMARK INTRA:                  -0.362
REMARK UNBOUND:                -0.434
REMARK SMILES O=C([O-])CCCCCCCCC(=O)[O-]
REMARK SMILES IDX 7 1 6 2 5 3 4 4 2 5 1 6 3 7 8 8 9 9 10 10 11 11 12 12 13 13
REMARK SMILES IDX 14 14
REMARK H PARENT
REMARK Flexibility Score: inf
ROOT
ATOM      1  C   UNL     1      19.834  23.892  42.399  1.00  0.00     0.000 C 
ENDROOT
BRANCH   1   2
ATOM      2  C   UNL     1      18.635  23.701  43.349  1.00  0.00     0.000 C 
BRANCH   2   3
ATOM      3  C   UNL     1      17.657  22.582  42.950  1.00  0.00     0.006 C 
BRANCH   3   4
ATOM      4  C   UNL     1      17.944  21.257  43.669  1.00  0.00     0.053 C 
BRANCH   4   5
ATOM      5  C   UNL     1      17.820  20.110  42.718  1.00  0.00     0.041 C 
ATOM      6  O   UNL     1      17.517  18.963  43.143  1.00  0.00    -0.550 OA
ATOM      7  O   UNL     1      17.990  20.315  41.355  1.00  0.00    -0.550 OA
ENDBRANCH   4   5
ENDBRANCH   3   4
ENDBRANCH   2   3
ENDBRANCH   1   2
BRANCH   1   8
ATOM      8  C   UNL     1      19.744  23.121  41.070  1.00  0.00     0.000 C 
BRANCH   8   9
ATOM      9  C   UNL     1      20.856  23.504  40.082  1.00  0.00     0.000 C 
BRANCH   9  10
ATOM     10  C   UNL     1      22.193  22.872  40.489  1.00  0.00     0.006 C 
BRANCH  10  11
ATOM     11  C   UNL     1      23.254  23.087  39.406  1.00  0.00     0.053 C 
BRANCH  11  12
ATOM     12  C   UNL     1      24.424  23.836  39.960  1.00  0.00     0.041 C 
ATOM     13  O   UNL     1      24.612  23.886  41.205  1.00  0.00    -0.550 OA
ATOM     14  O   UNL     1      25.280  24.519  39.107  1.00  0.00    -0.550 OA
ENDBRANCH  11  12
ENDBRANCH  10  11
ENDBRANCH   9  10
ENDBRANCH   8   9
ENDBRANCH   1   8
TORSDOF 9
ENDMDL
MODEL 3
REMARK VINA RESULT:    -4.918     12.022     14.456
REMARK INTER + INTRA:          -7.940
REMARK INTER:                  -6.944
REMARK INTRA:                  -0.996
REMARK UNBOUND:                -0.434
REMARK SMILES O=C([O-])CCCCCCCCC(=O)[O-]
REMARK SMILES IDX 7 1 6 2 5 3 4 4 2 5 1 6 3 7 8 8 9 9 10 10 11 11 12 12 13 13
REMARK SMILES IDX 14 14
REMARK H PARENT
REMARK Flexibility Score: inf
ROOT
ATOM      1  C   UNL     1      13.448  12.586  33.358  1.00  0.00     0.000 C 
ENDROOT
BRANCH   1   2
ATOM      2  C   UNL     1      12.467  13.237  34.352  1.00  0.00     0.000 C 
BRANCH   2   3
ATOM      3  C   UNL     1      13.121  13.896  35.579  1.00  0.00     0.006 C 
BRANCH   3   4
ATOM      4  C   UNL     1      13.371  12.905  36.723  1.00  0.00     0.053 C 
BRANCH   4   5
ATOM      5  C   UNL     1      12.123  12.144  37.038  1.00  0.00     0.041 C 
ATOM      6  O   UNL     1      11.155  12.720  37.603  1.00  0.00    -0.550 OA
ATOM      7  O   UNL     1      12.007  10.812  36.663  1.00  0.00    -0.550 OA
ENDBRANCH   4   5
ENDBRANCH   3   4
ENDBRANCH   2   3
ENDBRANCH   1   2
BRANCH   1   8
ATOM      8  C   UNL     1      13.688  11.080  33.567  1.00  0.00     0.000 C 
BRANCH   8   9
ATOM      9  C   UNL     1      15.117  10.763  34.031  1.00  0.00     0.000 C 
BRANCH   9  10
ATOM     10  C   UNL     1      16.152  11.435  33.120  1.00  0.00     0.006 C 
BRANCH  10  11
ATOM     11  C   UNL     1      17.281  12.064  33.942  1.00  0.00     0.053 C 
BRANCH  11  12
ATOM     12  C   UNL     1      16.797  13.297  34.638  1.00  0.00     0.041 C 
ATOM     13  O   UNL     1      16.426  14.298  33.968  1.00  0.00    -0.550 OA
ATOM     14  O   UNL     1      16.802  13.360  36.025  1.00  0.00    -0.550 OA
ENDBRANCH  11  12
ENDBRANCH  10  11
ENDBRANCH   9  10
ENDBRANCH   8   9
ENDBRANCH   1   8
TORSDOF 9
ENDMDL
MODEL 4
REMARK VINA RESULT:    -4.857     12.141     13.399
REMARK INTER + INTRA:          -7.846
REMARK INTER:                  -6.926
REMARK INTRA:                  -0.919
REMARK UNBOUND:                -0.434
REMARK SMILES O=C([O-])CCCCCCCCC(=O)[O-]
REMARK SMILES IDX 7 1 6 2 5 3 4 4 2 5 1 6 3 7 8 8 9 9 10 10 11 11 12 12 13 13
REMARK SMILES IDX 14 14
REMARK H PARENT
REMARK Flexibility Score: inf
ROOT
ATOM      1  C   UNL     1      13.532  11.105  34.031  1.00  0.00     0.000 C 
ENDROOT
BRANCH   1   2
ATOM      2  C   UNL     1      15.007  10.660  34.084  1.00  0.00     0.000 C 
BRANCH   2   3
ATOM      3  C   UNL     1      15.950  11.411  33.128  1.00  0.00     0.006 C 
BRANCH   3   4
ATOM      4  C   UNL     1      17.142  12.052  33.850  1.00  0.00     0.053 C 
BRANCH   4   5
ATOM      5  C   UNL     1      16.713  13.291  34.569  1.00  0.00     0.041 C 
ATOM      6  O   UNL     1      16.233  14.263  33.927  1.00  0.00    -0.550 OA
ATOM      7  O   UNL     1      16.793  13.354  35.954  1.00  0.00    -0.550 OA
ENDBRANCH   4   5
ENDBRANCH   3   4
ENDBRANCH   2   3
ENDBRANCH   1   2
BRANCH   1   8
ATOM      8  C   UNL     1      13.283  12.469  33.364  1.00  0.00     0.000 C 
BRANCH   8   9
ATOM      9  C   UNL     1      12.585  13.470  34.296  1.00  0.00     0.000 C 
BRANCH   9  10
ATOM     10  C   UNL     1      13.110  13.342  35.731  1.00  0.00     0.006 C 
BRANCH  10  11
ATOM     11  C   UNL     1      11.973  13.018  36.705  1.00  0.00     0.053 C 
BRANCH  11  12
ATOM     12  C   UNL     1      12.400  11.964  37.677  1.00  0.00     0.041 C 
ATOM     13  O   UNL     1      13.533  11.424  37.568  1.00  0.00    -0.550 OA
ATOM     14  O   UNL     1      11.530  11.544  38.673  1.00  0.00    -0.550 OA
ENDBRANCH  11  12
ENDBRANCH  10  11
ENDBRANCH   9  10
ENDBRANCH   8   9
ENDBRANCH   1   8
TORSDOF 9
ENDMDL
MODEL 5
REMARK VINA RESULT:    -4.842     12.650     13.630
REMARK INTER + INTRA:          -7.824
REMARK INTER:                  -7.054
REMARK INTRA:                  -0.770
REMARK UNBOUND:                -0.434
REMARK SMILES O=C([O-])CCCCCCCCC(=O)[O-]
REMARK SMILES IDX 7 1 6 2 5 3 4 4 2 5 1 6 3 7 8 8 9 9 10 10 11 11 12 12 13 13
REMARK SMILES IDX 14 14
REMARK H PARENT
REMARK Flexibility Score: inf
ROOT
ATOM      1  C   UNL     1      13.107  12.919  33.414  1.00  0.00     0.000 C 
ENDROOT
BRANCH   1   2
ATOM      2  C   UNL     1      13.448  11.419  33.512  1.00  0.00     0.000 C 
BRANCH   2   3
ATOM      3  C   UNL     1      14.838  11.029  32.981  1.00  0.00     0.006 C 
BRANCH   3   4
ATOM      4  C   UNL     1      15.934  11.137  34.049  1.00  0.00     0.053 C 
BRANCH   4   5
ATOM      5  C   UNL     1      16.955  12.154  33.649  1.00  0.00     0.041 C 
ATOM      6  O   UNL     1      16.778  13.371  33.922  1.00  0.00    -0.550 OA
ATOM      7  O   UNL     1      18.127  11.753  33.020  1.00  0.00    -0.550 OA
ENDBRANCH   4   5
ENDBRANCH   3   4
ENDBRANCH   2   3
ENDBRANCH   1   2
BRANCH   1   8
ATOM      8  C   UNL     1      12.635  13.570  34.726  1.00  0.00     0.000 C 
BRANCH   8   9
ATOM      9  C   UNL     1      13.691  13.504  35.839  1.00  0.00     0.000 C 
BRANCH   9  10
ATOM     10  C   UNL     1      13.198  12.649  37.013  1.00  0.00     0.006 C 
BRANCH  10  11
ATOM     11  C   UNL     1      11.669  12.663  37.099  1.00  0.00     0.053 C 
BRANCH  11  12
ATOM     12  C   UNL     1      11.206  11.905  38.302  1.00  0.00     0.041 C 
ATOM     13  O   UNL     1      12.023  11.218  38.972  1.00  0.00    -0.550 OA
ATOM     14  O   UNL     1       9.863  11.917  38.657  1.00  0.00    -0.550 OA
ENDBRANCH  11  12
ENDBRANCH  10  11
ENDBRANCH   9  10
ENDBRANCH   8   9
ENDBRANCH   1   8
TORSDOF 9
ENDMDL
MODEL 6
REMARK VINA RESULT:    -4.802     13.067     14.802
REMARK INTER + INTRA:          -7.763
REMARK INTER:                  -6.918
REMARK INTRA:                  -0.845
REMARK UNBOUND:                -0.434
REMARK SMILES O=C([O-])CCCCCCCCC(=O)[O-]
REMARK SMILES IDX 7 1 6 2 5 3 4 4 2 5 1 6 3 7 8 8 9 9 10 10 11 11 12 12 13 13
REMARK SMILES IDX 14 14
REMARK H PARENT
REMARK Flexibility Score: inf
ROOT
ATOM      1  C   UNL     1      14.606  13.704  35.483  1.00  0.00     0.000 C 
ENDROOT
BRANCH   1   2
ATOM      2  C   UNL     1      13.128  14.127  35.363  1.00  0.00     0.000 C 
BRANCH   2   3
ATOM      3  C   UNL     1      12.105  13.007  35.620  1.00  0.00     0.006 C 
BRANCH   3   4
ATOM      4  C   UNL     1      12.596  11.976  36.645  1.00  0.00     0.053 C 
BRANCH   4   5
ATOM      5  C   UNL     1      11.735  12.004  37.867  1.00  0.00     0.041 C 
ATOM      6  O   UNL     1      10.687  12.702  37.889  1.00  0.00    -0.550 OA
ATOM      7  O   UNL     1      12.062  11.220  38.966  1.00  0.00    -0.550 OA
ENDBRANCH   4   5
ENDBRANCH   3   4
ENDBRANCH   2   3
ENDBRANCH   1   2
BRANCH   1   8
ATOM      8  C   UNL     1      15.455  13.930  34.220  1.00  0.00     0.000 C 
BRANCH   8   9
ATOM      9  C   UNL     1      16.597  12.913  34.079  1.00  0.00     0.000 C 
BRANCH   9  10
ATOM     10  C   UNL     1      16.071  11.477  34.200  1.00  0.00     0.006 C 
BRANCH  10  11
ATOM     11  C   UNL     1      15.543  10.971  32.854  1.00  0.00     0.053 C 
BRANCH  11  12
ATOM     12  C   UNL     1      14.068  10.729  32.927  1.00  0.00     0.041 C 
ATOM     13  O   UNL     1      13.628   9.616  33.318  1.00  0.00    -0.550 OA
ATOM     14  O   UNL     1      13.182  11.716  32.518  1.00  0.00    -0.550 OA
ENDBRANCH  11  12
ENDBRANCH  10  11
ENDBRANCH   9  10
ENDBRANCH   8   9
ENDBRANCH   1   8
TORSDOF 9
ENDMDL
MODEL 7
REMARK VINA RESULT:    -4.790      1.753      7.221
REMARK INTER + INTRA:          -7.744
REMARK INTER:                  -7.512
REMARK INTRA:                  -0.232
REMARK UNBOUND:                -0.434
REMARK SMILES O=C([O-])CCCCCCCCC(=O)[O-]
REMARK SMILES IDX 7 1 6 2 5 3 4 4 2 5 1 6 3 7 8 8 9 9 10 10 11 11 12 12 13 13
REMARK SMILES IDX 14 14
REMARK H PARENT
REMARK Flexibility Score: inf
ROOT
ATOM      1  C   UNL     1      20.472  23.527  40.914  1.00  0.00     0.000 C 
ENDROOT
BRANCH   1   2
ATOM      2  C   UNL     1      19.229  22.822  41.493  1.00  0.00     0.000 C 
BRANCH   2   3
ATOM      3  C   UNL     1      19.004  21.383  40.998  1.00  0.00     0.006 C 
BRANCH   3   4
ATOM      4  C   UNL     1      17.644  20.814  41.422  1.00  0.00     0.053 C 
BRANCH   4   5
ATOM      5  C   UNL     1      17.722  20.248  42.805  1.00  0.00     0.041 C 
ATOM      6  O   UNL     1      17.746  19.001  42.980  1.00  0.00    -0.550 OA
ATOM      7  O   UNL     1      17.820  21.098  43.899  1.00  0.00    -0.550 OA
ENDBRANCH   4   5
ENDBRANCH   3   4
ENDBRANCH   2   3
ENDBRANCH   1   2
BRANCH   1   8
ATOM      8  C   UNL     1      21.200  22.756  39.798  1.00  0.00     0.000 C 
BRANCH   8   9
ATOM      9  C   UNL     1      22.517  23.423  39.374  1.00  0.00     0.000 C 
BRANCH   9  10
ATOM     10  C   UNL     1      23.559  23.342  40.496  1.00  0.00     0.006 C 
BRANCH  10  11
ATOM     11  C   UNL     1      24.945  23.747  39.988  1.00  0.00     0.053 C 
BRANCH  11  12
ATOM     12  C   UNL     1      25.778  24.284  41.110  1.00  0.00     0.041 C 
ATOM     13  O   UNL     1      26.743  25.056  40.869  1.00  0.00    -0.550 OA
ATOM     14  O   UNL     1      25.518  23.893  42.417  1.00  0.00    -0.550 OA
ENDBRANCH  11  12
ENDBRANCH  10  11
ENDBRANCH   9  10
ENDBRANCH   8   9
ENDBRANCH   1   8
TORSDOF 9
ENDMDL
MODEL 8
REMARK VINA RESULT:    -4.718     12.629     13.569
REMARK INTER + INTRA:          -7.634
REMARK INTER:                  -6.888
REMARK INTRA:                  -0.746
REMARK UNBOUND:                -0.434
REMARK SMILES O=C([O-])CCCCCCCCC(=O)[O-]
REMARK SMILES IDX 7 1 6 2 5 3 4 4 2 5 1 6 3 7 8 8 9 9 10 10 11 11 12 12 13 13
REMARK SMILES IDX 14 14
REMARK H PARENT
REMARK Flexibility Score: inf
ROOT
ATOM      1  C   UNL     1      14.556  10.942  33.004  1.00  0.00     0.000 C 
ENDROOT
BRANCH   1   2
ATOM      2  C   UNL     1      15.239  10.732  34.370  1.00  0.00     0.000 C 
BRANCH   2   3
ATOM      3  C   UNL     1      16.535  11.534  34.583  1.00  0.00     0.006 C 
BRANCH   3   4
ATOM      4  C   UNL     1      17.269  11.836  33.271  1.00  0.00     0.053 C 
BRANCH   4   5
ATOM      5  C   UNL     1      18.749  11.752  33.469  1.00  0.00     0.041 C 
ATOM      6  O   UNL     1      19.534  12.186  32.584  1.00  0.00    -0.550 OA
ATOM      7  O   UNL     1      19.264  11.240  34.653  1.00  0.00    -0.550 OA
ENDBRANCH   4   5
ENDBRANCH   3   4
ENDBRANCH   2   3
ENDBRANCH   1   2
BRANCH   1   8
ATOM      8  C   UNL     1      13.249  11.753  33.044  1.00  0.00     0.000 C 
BRANCH   8   9
ATOM      9  C   UNL     1      13.436  13.157  33.635  1.00  0.00     0.000 C 
BRANCH   9  10
ATOM     10  C   UNL     1      12.515  13.372  34.842  1.00  0.00     0.006 C 
BRANCH  10  11
ATOM     11  C   UNL     1      13.325  13.503  36.135  1.00  0.00     0.053 C 
BRANCH  11  12
ATOM     12  C   UNL     1      12.942  12.429  37.104  1.00  0.00     0.041 C 
ATOM     13  O   UNL     1      11.815  12.456  37.667  1.00  0.00    -0.550 OA
ATOM     14  O   UNL     1      13.846  11.424  37.421  1.00  0.00    -0.550 OA
ENDBRANCH  11  12
ENDBRANCH  10  11
ENDBRANCH   9  10
ENDBRANCH   8   9
ENDBRANCH   1   8
TORSDOF 9
ENDMDL
MODEL 9
REMARK VINA RESULT:    -4.669     12.090     14.022
REMARK INTER + INTRA:          -7.559
REMARK INTER:                  -6.577
REMARK INTRA:                  -0.982
REMARK UNBOUND:                -0.434
REMARK SMILES O=C([O-])CCCCCCCCC(=O)[O-]
REMARK SMILES IDX 7 1 6 2 5 3 4 4 2 5 1 6 3 7 8 8 9 9 10 10 11 11 12 12 13 13
REMARK SMILES IDX 14 14
REMARK H PARENT
REMARK Flexibility Score: inf
ROOT
ATOM      1  C   UNL     1      12.302  12.955  35.991  1.00  0.00     0.000 C 
ENDROOT
BRANCH   1   2
ATOM      2  C   UNL     1      12.535  13.688  34.655  1.00  0.00     0.000 C 
BRANCH   2   3
ATOM      3  C   UNL     1      13.708  13.155  33.814  1.00  0.00     0.006 C 
BRANCH   3   4
ATOM      4  C   UNL     1      13.334  11.916  32.991  1.00  0.00     0.053 C 
BRANCH   4   5
ATOM      5  C   UNL     1      14.392  10.867  33.116  1.00  0.00     0.041 C 
ATOM      6  O   UNL     1      14.081   9.684  33.418  1.00  0.00    -0.550 OA
ATOM      7  O   UNL     1      15.719  11.182  32.849  1.00  0.00    -0.550 OA
ENDBRANCH   4   5
ENDBRANCH   3   4
ENDBRANCH   2   3
ENDBRANCH   1   2
BRANCH   1   8
ATOM      8  C   UNL     1      13.575  12.644  36.798  1.00  0.00     0.000 C 
BRANCH   8   9
ATOM      9  C   UNL     1      13.836  11.138  36.945  1.00  0.00     0.000 C 
BRANCH   9  10
ATOM     10  C   UNL     1      15.318  10.814  36.723  1.00  0.00     0.006 C 
BRANCH  10  11
ATOM     11  C   UNL     1      16.098  12.066  36.311  1.00  0.00     0.053 C 
BRANCH  11  12
ATOM     12  C   UNL     1      17.570  11.836  36.456  1.00  0.00     0.041 C 
ATOM     13  O   UNL     1      18.378  12.789  36.295  1.00  0.00    -0.550 OA
ATOM     14  O   UNL     1      18.052  10.562  36.721  1.00  0.00    -0.550 OA
ENDBRANCH  11  12
ENDBRANCH  10  11
ENDBRANCH   9  10
ENDBRANCH   8   9
ENDBRANCH   1   8
TORSDOF 9
ENDMDL
