MODEL 1
REMARK VINA RESULT:    -6.386      0.000      0.000
REMARK INTER + INTRA:         -10.783
REMARK INTER:                  -9.746
REMARK INTRA:                  -1.037
REMARK UNBOUND:                -1.037
REMARK SMILES OC[C@@H]1O[C@@H](O[C@@]2(CO)O[C@@H](CO)[C@H](O)[C@@H]2O)[C@@H](O)[C@H](O)[C@@H]1O
REMARK SMILES IDX 6 1 5 2 3 3 22 4 4 5 20 6 18 7 2 8 1 9 23 11 21 13 19 15
REMARK SMILES IDX 7 17 16 18 10 19 14 20 11 21 8 22 9 23 17 25 15 27 12 29
REMARK SMILES IDX 13 30
REMARK H PARENT 1 10 23 12 21 14 19 16 9 24 17 26 15 28 13 31
REMARK Flexibility Score: inf
ROOT
ATOM      1  O   UNL     1      18.425  -2.069 -24.875  1.00  0.00    -0.313 OA
ENDROOT
BRANCH   1   2
ATOM      2  C   UNL     1      18.245  -0.778 -24.310  1.00  0.00     0.285 C 
ATOM      3  C   UNL     1      17.780   0.375 -22.289  1.00  0.00     0.178 C 
ATOM      4  C   UNL     1      17.350   1.566 -23.198  1.00  0.00     0.177 C 
ATOM      5  O   UNL     1      17.864  -0.888 -22.950  1.00  0.00    -0.341 OA
ATOM      6  C   UNL     1      16.424   1.035 -24.295  1.00  0.00     0.179 C 
ATOM      7  C   UNL     1      17.137  -0.058 -25.126  1.00  0.00     0.202 C 
BRANCH   3   8
ATOM      8  C   UNL     1      19.067   0.653 -21.496  1.00  0.00     0.191 C 
BRANCH   8   9
ATOM      9  O   UNL     1      18.764   1.135 -20.214  1.00  0.00    -0.394 OA
ATOM     10  H   UNL     1      18.128   1.887 -20.330  1.00  0.00     0.210 HD
ENDBRANCH   8   9
ENDBRANCH   3   8
BRANCH   4  11
ATOM     11  O   UNL     1      18.471   2.195 -23.773  1.00  0.00    -0.387 OA
ATOM     12  H   UNL     1      18.552   1.854 -24.701  1.00  0.00     0.211 HD
ENDBRANCH   4  11
BRANCH   6  13
ATOM     13  O   UNL     1      16.012   2.092 -25.123  1.00  0.00    -0.387 OA
ATOM     14  H   UNL     1      15.294   2.574 -24.636  1.00  0.00     0.211 HD
ENDBRANCH   6  13
BRANCH   7  15
ATOM     15  O   UNL     1      16.185  -0.991 -25.574  1.00  0.00    -0.385 OA
ATOM     16  H   UNL     1      16.452  -1.874 -25.206  1.00  0.00     0.211 HD
ENDBRANCH   7  15
ENDBRANCH   1   2
BRANCH   1  17
ATOM     17  C   UNL     1      19.378  -2.168 -25.933  1.00  0.00     0.224 C 
ATOM     18  C   UNL     1      20.549  -1.169 -25.686  1.00  0.00     0.208 C 
ATOM     19  O   UNL     1      18.821  -1.871 -27.204  1.00  0.00    -0.337 OA
ATOM     20  C   UNL     1      20.621  -0.367 -26.979  1.00  0.00     0.180 C 
ATOM     21  C   UNL     1      19.844  -1.247 -27.948  1.00  0.00     0.179 C 
BRANCH  17  22
ATOM     22  C   UNL     1      19.819  -3.649 -25.964  1.00  0.00     0.225 C 
BRANCH  22  23
ATOM     23  O   UNL     1      20.073  -4.117 -24.667  1.00  0.00    -0.391 OA
ATOM     24  H   UNL     1      19.512  -4.928 -24.551  1.00  0.00     0.210 HD
ENDBRANCH  22  23
ENDBRANCH  17  22
BRANCH  18  25
ATOM     25  O   UNL     1      21.771  -1.793 -25.354  1.00  0.00    -0.385 OA
ATOM     26  H   UNL     1      21.682  -2.769 -25.504  1.00  0.00     0.211 HD
ENDBRANCH  18  25
BRANCH  20  27
ATOM     27  O   UNL     1      21.942  -0.160 -27.409  1.00  0.00    -0.387 OA
ATOM     28  H   UNL     1      22.531  -0.582 -26.731  1.00  0.00     0.211 HD
ENDBRANCH  20  27
BRANCH  21  29
ATOM     29  C   UNL     1      19.256  -0.459 -29.125  1.00  0.00     0.191 C 
BRANCH  29  30
ATOM     30  O   UNL     1      18.357   0.512 -28.663  1.00  0.00    -0.394 OA
ATOM     31  H   UNL     1      17.656   0.031 -28.151  1.00  0.00     0.210 HD
ENDBRANCH  29  30
ENDBRANCH  21  29
ENDBRANCH   1  17
TORSDOF 13
ENDMDL
MODEL 2
REMARK VINA RESULT:    -6.051      1.467      3.738
REMARK INTER + INTRA:         -10.272
REMARK INTER:                  -9.059
REMARK INTRA:                  -1.213
REMARK UNBOUND:                -1.037
REMARK SMILES OC[C@@H]1O[C@@H](O[C@@]2(CO)O[C@@H](CO)[C@H](O)[C@@H]2O)[C@@H](O)[C@H](O)[C@@H]1O
REMARK SMILES IDX 6 1 5 2 3 3 22 4 4 5 20 6 18 7 2 8 1 9 23 11 21 13 19 15
REMARK SMILES IDX 7 17 16 18 10 19 14 20 11 21 8 22 9 23 17 25 15 27 12 29
REMARK SMILES IDX 13 30
REMARK H PARENT 1 10 23 12 21 14 19 16 9 24 17 26 15 28 13 31
REMARK Flexibility Score: inf
ROOT
ATOM      1  O   UNL     1      20.107   0.715 -25.334  1.00  0.00    -0.313 OA
ENDROOT
BRANCH   1   2
ATOM      2  C   UNL     1      18.932   0.593 -24.547  1.00  0.00     0.285 C 
ATOM      3  C   UNL     1      16.661   1.266 -24.386  1.00  0.00     0.178 C 
ATOM      4  C   UNL     1      16.775   0.894 -22.876  1.00  0.00     0.177 C 
ATOM      5  O   UNL     1      17.910   1.429 -25.062  1.00  0.00    -0.341 OA
ATOM      6  C   UNL     1      18.055   1.514 -22.313  1.00  0.00     0.179 C 
ATOM      7  C   UNL     1      19.292   1.011 -23.095  1.00  0.00     0.202 C 
BRANCH   3   8
ATOM      8  C   UNL     1      15.742   0.322 -25.175  1.00  0.00     0.191 C 
BRANCH   8   9
ATOM      9  O   UNL     1      16.340  -0.939 -25.327  1.00  0.00    -0.394 OA
ATOM     10  H   UNL     1      16.955  -1.063 -24.558  1.00  0.00     0.210 HD
ENDBRANCH   8   9
ENDBRANCH   3   8
BRANCH   4  11
ATOM     11  O   UNL     1      16.795  -0.504 -22.700  1.00  0.00    -0.387 OA
ATOM     12  H   UNL     1      16.079  -0.879 -23.275  1.00  0.00     0.211 HD
ENDBRANCH   4  11
BRANCH   6  13
ATOM     13  O   UNL     1      18.175   1.202 -20.949  1.00  0.00    -0.387 OA
ATOM     14  H   UNL     1      18.825   0.455 -20.882  1.00  0.00     0.211 HD
ENDBRANCH   6  13
BRANCH   7  15
ATOM     15  O   UNL     1      20.269   2.023 -23.114  1.00  0.00    -0.385 OA
ATOM     16  H   UNL     1      21.050   1.680 -22.607  1.00  0.00     0.211 HD
ENDBRANCH   7  15
ENDBRANCH   1   2
BRANCH   1  17
ATOM     17  C   UNL     1      20.692  -0.504 -25.790  1.00  0.00     0.224 C 
ATOM     18  C   UNL     1      20.228  -0.803 -27.248  1.00  0.00     0.208 C 
ATOM     19  O   UNL     1      20.331  -1.619 -24.989  1.00  0.00    -0.337 OA
ATOM     20  C   UNL     1      19.663  -2.215 -27.168  1.00  0.00     0.180 C 
ATOM     21  C   UNL     1      20.253  -2.725 -25.861  1.00  0.00     0.179 C 
BRANCH  17  22
ATOM     22  C   UNL     1      22.220  -0.318 -25.649  1.00  0.00     0.225 C 
BRANCH  22  23
ATOM     23  O   UNL     1      22.535   0.256 -24.409  1.00  0.00    -0.391 OA
ATOM     24  H   UNL     1      21.919   1.027 -24.297  1.00  0.00     0.210 HD
ENDBRANCH  22  23
ENDBRANCH  17  22
BRANCH  18  25
ATOM     25  O   UNL     1      21.251  -0.670 -28.211  1.00  0.00    -0.385 OA
ATOM     26  H   UNL     1      21.107   0.172 -28.715  1.00  0.00     0.211 HD
ENDBRANCH  18  25
BRANCH  20  27
ATOM     27  O   UNL     1      20.050  -3.010 -28.259  1.00  0.00    -0.387 OA
ATOM     28  H   UNL     1      19.247  -3.112 -28.834  1.00  0.00     0.211 HD
ENDBRANCH  20  27
BRANCH  21  29
ATOM     29  C   UNL     1      19.424  -3.853 -25.236  1.00  0.00     0.191 C 
BRANCH  29  30
ATOM     30  O   UNL     1      18.251  -3.340 -24.664  1.00  0.00    -0.394 OA
ATOM     31  H   UNL     1      18.165  -2.403 -24.982  1.00  0.00     0.210 HD
ENDBRANCH  29  30
ENDBRANCH  21  29
ENDBRANCH   1  17
TORSDOF 13
ENDMDL
MODEL 3
REMARK VINA RESULT:    -5.722      2.238      5.391
REMARK INTER + INTRA:          -9.769
REMARK INTER:                  -8.853
REMARK INTRA:                  -0.916
REMARK UNBOUND:                -1.037
REMARK SMILES OC[C@@H]1O[C@@H](O[C@@]2(CO)O[C@@H](CO)[C@H](O)[C@@H]2O)[C@@H](O)[C@H](O)[C@@H]1O
REMARK SMILES IDX 6 1 5 2 3 3 22 4 4 5 20 6 18 7 2 8 1 9 23 11 21 13 19 15
REMARK SMILES IDX 7 17 16 18 10 19 14 20 11 21 8 22 9 23 17 25 15 27 12 29
REMARK SMILES IDX 13 30
REMARK H PARENT 1 10 23 12 21 14 19 16 9 24 17 26 15 28 13 31
REMARK Flexibility Score: inf
ROOT
ATOM      1  O   UNL     1      19.987  -0.154 -23.943  1.00  0.00    -0.313 OA
ENDROOT
BRANCH   1   2
ATOM      2  C   UNL     1      20.723   0.557 -24.928  1.00  0.00     0.285 C 
ATOM      3  C   UNL     1      22.083   0.296 -26.856  1.00  0.00     0.178 C 
ATOM      4  C   UNL     1      22.599   1.735 -26.549  1.00  0.00     0.177 C 
ATOM      5  O   UNL     1      21.416  -0.349 -25.770  1.00  0.00    -0.341 OA
ATOM      6  C   UNL     1      22.957   1.821 -25.063  1.00  0.00     0.179 C 
ATOM      7  C   UNL     1      21.727   1.483 -24.187  1.00  0.00     0.202 C 
BRANCH   3   8
ATOM      8  C   UNL     1      21.232   0.218 -28.132  1.00  0.00     0.191 C 
BRANCH   8   9
ATOM      9  O   UNL     1      21.717   1.104 -29.107  1.00  0.00    -0.394 OA
ATOM     10  H   UNL     1      21.269   0.869 -29.960  1.00  0.00     0.210 HD
ENDBRANCH   8   9
ENDBRANCH   3   8
BRANCH   4  11
ATOM     11  O   UNL     1      21.625   2.701 -26.869  1.00  0.00    -0.387 OA
ATOM     12  H   UNL     1      22.110   3.515 -27.164  1.00  0.00     0.211 HD
ENDBRANCH   4  11
BRANCH   6  13
ATOM     13  O   UNL     1      23.436   3.106 -24.763  1.00  0.00    -0.387 OA
ATOM     14  H   UNL     1      23.798   3.069 -23.840  1.00  0.00     0.211 HD
ENDBRANCH   6  13
BRANCH   7  15
ATOM     15  O   UNL     1      22.162   0.868 -23.000  1.00  0.00    -0.385 OA
ATOM     16  H   UNL     1      21.379   0.830 -22.391  1.00  0.00     0.211 HD
ENDBRANCH   7  15
ENDBRANCH   1   2
BRANCH   1  17
ATOM     17  C   UNL     1      18.574   0.048 -23.943  1.00  0.00     0.224 C 
ATOM     18  C   UNL     1      17.896  -0.953 -24.927  1.00  0.00     0.208 C 
ATOM     19  O   UNL     1      18.206   1.359 -24.343  1.00  0.00    -0.337 OA
ATOM     20  C   UNL     1      17.064  -0.059 -25.838  1.00  0.00     0.180 C 
ATOM     21  C   UNL     1      16.985   1.233 -25.037  1.00  0.00     0.179 C 
BRANCH  17  22
ATOM     22  C   UNL     1      18.125  -0.123 -22.474  1.00  0.00     0.225 C 
BRANCH  22  23
ATOM     23  O   UNL     1      16.726  -0.085 -22.378  1.00  0.00    -0.391 OA
ATOM     24  H   UNL     1      16.382  -0.554 -23.182  1.00  0.00     0.210 HD
ENDBRANCH  22  23
ENDBRANCH  17  22
BRANCH  18  25
ATOM     25  O   UNL     1      17.134  -1.955 -24.289  1.00  0.00    -0.385 OA
ATOM     26  H   UNL     1      17.265  -1.879 -23.309  1.00  0.00     0.211 HD
ENDBRANCH  18  25
BRANCH  20  27
ATOM     27  O   UNL     1      15.789  -0.591 -26.093  1.00  0.00    -0.387 OA
ATOM     28  H   UNL     1      15.930  -1.506 -26.452  1.00  0.00     0.211 HD
ENDBRANCH  20  27
BRANCH  21  29
ATOM     29  C   UNL     1      16.731   2.462 -25.917  1.00  0.00     0.191 C 
BRANCH  29  30
ATOM     30  O   UNL     1      17.101   2.199 -27.244  1.00  0.00    -0.394 OA
ATOM     31  H   UNL     1      17.380   3.066 -27.639  1.00  0.00     0.210 HD
ENDBRANCH  29  30
ENDBRANCH  21  29
ENDBRANCH   1  17
TORSDOF 13
ENDMDL
MODEL 4
REMARK VINA RESULT:    -5.579      2.169      5.062
REMARK INTER + INTRA:          -9.551
REMARK INTER:                  -8.707
REMARK INTRA:                  -0.843
REMARK UNBOUND:                -1.037
REMARK SMILES OC[C@@H]1O[C@@H](O[C@@]2(CO)O[C@@H](CO)[C@H](O)[C@@H]2O)[C@@H](O)[C@H](O)[C@@H]1O
REMARK SMILES IDX 6 1 5 2 3 3 22 4 4 5 20 6 18 7 2 8 1 9 23 11 21 13 19 15
REMARK SMILES IDX 7 17 16 18 10 19 14 20 11 21 8 22 9 23 17 25 15 27 12 29
REMARK SMILES IDX 13 30
REMARK H PARENT 1 10 23 12 21 14 19 16 9 24 17 26 15 28 13 31
REMARK Flexibility Score: inf
ROOT
ATOM      1  O   UNL     1      19.316   1.786 -23.521  1.00  0.00    -0.313 OA
ENDROOT
BRANCH   1   2
ATOM      2  C   UNL     1      20.347   1.192 -24.296  1.00  0.00     0.285 C 
ATOM      3  C   UNL     1      22.685   1.211 -24.701  1.00  0.00     0.178 C 
ATOM      4  C   UNL     1      22.341   0.544 -26.066  1.00  0.00     0.177 C 
ATOM      5  O   UNL     1      21.583   1.836 -24.041  1.00  0.00    -0.341 OA
ATOM      6  C   UNL     1      21.196   1.322 -26.718  1.00  0.00     0.179 C 
ATOM      7  C   UNL     1      19.957   1.343 -25.792  1.00  0.00     0.202 C 
BRANCH   3   8
ATOM      8  C   UNL     1      23.426   0.272 -23.737  1.00  0.00     0.191 C 
BRANCH   8   9
ATOM      9  O   UNL     1      24.592  -0.231 -24.333  1.00  0.00    -0.394 OA
ATOM     10  H   UNL     1      24.665  -1.185 -24.069  1.00  0.00     0.210 HD
ENDBRANCH   8   9
ENDBRANCH   3   8
BRANCH   4  11
ATOM     11  O   UNL     1      21.972  -0.805 -25.892  1.00  0.00    -0.387 OA
ATOM     12  H   UNL     1      21.070  -0.913 -26.290  1.00  0.00     0.211 HD
ENDBRANCH   4  11
BRANCH   6  13
ATOM     13  O   UNL     1      20.874   0.747 -27.958  1.00  0.00    -0.387 OA
ATOM     14  H   UNL     1      19.935   0.999 -28.156  1.00  0.00     0.211 HD
ENDBRANCH   6  13
BRANCH   7  15
ATOM     15  O   UNL     1      19.256   2.546 -25.987  1.00  0.00    -0.385 OA
ATOM     16  H   UNL     1      18.757   2.454 -26.841  1.00  0.00     0.211 HD
ENDBRANCH   7  15
ENDBRANCH   1   2
BRANCH   1  17
ATOM     17  C   UNL     1      18.108   1.036 -23.396  1.00  0.00     0.224 C 
ATOM     18  C   UNL     1      18.412  -0.486 -23.534  1.00  0.00     0.208 C 
ATOM     19  O   UNL     1      17.147   1.373 -24.385  1.00  0.00    -0.337 OA
ATOM     20  C   UNL     1      17.463  -0.948 -24.632  1.00  0.00     0.180 C 
ATOM     21  C   UNL     1      16.447   0.185 -24.678  1.00  0.00     0.179 C 
BRANCH  17  22
ATOM     22  C   UNL     1      17.508   1.429 -22.026  1.00  0.00     0.225 C 
BRANCH  22  23
ATOM     23  O   UNL     1      18.429   1.187 -20.996  1.00  0.00    -0.391 OA
ATOM     24  H   UNL     1      18.432   2.004 -20.432  1.00  0.00     0.210 HD
ENDBRANCH  22  23
ENDBRANCH  17  22
BRANCH  18  25
ATOM     25  O   UNL     1      18.262  -1.211 -22.333  1.00  0.00    -0.385 OA
ATOM     26  H   UNL     1      18.055  -0.574 -21.600  1.00  0.00     0.211 HD
ENDBRANCH  18  25
BRANCH  20  27
ATOM     27  O   UNL     1      16.857  -2.179 -24.334  1.00  0.00    -0.387 OA
ATOM     28  H   UNL     1      16.454  -2.509 -25.179  1.00  0.00     0.211 HD
ENDBRANCH  20  27
BRANCH  21  29
ATOM     29  C   UNL     1      15.739   0.292 -26.033  1.00  0.00     0.191 C 
BRANCH  29  30
ATOM     30  O   UNL     1      15.477   1.634 -26.345  1.00  0.00    -0.394 OA
ATOM     31  H   UNL     1      16.175   2.173 -25.889  1.00  0.00     0.210 HD
ENDBRANCH  29  30
ENDBRANCH  21  29
ENDBRANCH   1  17
TORSDOF 13
ENDMDL
MODEL 5
REMARK VINA RESULT:    -5.518      1.796      5.557
REMARK INTER + INTRA:          -9.458
REMARK INTER:                  -8.376
REMARK INTRA:                  -1.082
REMARK UNBOUND:                -1.037
REMARK SMILES OC[C@@H]1O[C@@H](O[C@@]2(CO)O[C@@H](CO)[C@H](O)[C@@H]2O)[C@@H](O)[C@H](O)[C@@H]1O
REMARK SMILES IDX 6 1 5 2 3 3 22 4 4 5 20 6 18 7 2 8 1 9 23 11 21 13 19 15
REMARK SMILES IDX 7 17 16 18 10 19 14 20 11 21 8 22 9 23 17 25 15 27 12 29
REMARK SMILES IDX 13 30
REMARK H PARENT 1 10 23 12 21 14 19 16 9 24 17 26 15 28 13 31
REMARK Flexibility Score: inf
ROOT
ATOM      1  O   UNL     1      18.767  -1.000 -23.724  1.00  0.00    -0.313 OA
ENDROOT
BRANCH   1   2
ATOM      2  C   UNL     1      18.788  -0.622 -25.093  1.00  0.00     0.285 C 
ATOM      3  C   UNL     1      17.412  -0.001 -26.925  1.00  0.00     0.178 C 
ATOM      4  C   UNL     1      18.617  -0.413 -27.824  1.00  0.00     0.177 C 
ATOM      5  O   UNL     1      17.465  -0.493 -25.585  1.00  0.00    -0.341 OA
ATOM      6  C   UNL     1      19.128  -1.780 -27.362  1.00  0.00     0.179 C 
ATOM      7  C   UNL     1      19.550  -1.728 -25.875  1.00  0.00     0.202 C 
BRANCH   3   8
ATOM      8  C   UNL     1      17.142   1.511 -26.931  1.00  0.00     0.191 C 
BRANCH   8   9
ATOM      9  O   UNL     1      18.140   2.197 -26.221  1.00  0.00    -0.394 OA
ATOM     10  H   UNL     1      18.876   2.381 -26.861  1.00  0.00     0.210 HD
ENDBRANCH   8   9
ENDBRANCH   3   8
BRANCH   4  11
ATOM     11  O   UNL     1      19.651   0.540 -27.754  1.00  0.00    -0.387 OA
ATOM     12  H   UNL     1      20.442   0.144 -28.204  1.00  0.00     0.211 HD
ENDBRANCH   4  11
BRANCH   6  13
ATOM     13  O   UNL     1      20.208  -2.180 -28.166  1.00  0.00    -0.387 OA
ATOM     14  H   UNL     1      19.874  -2.906 -28.754  1.00  0.00     0.211 HD
ENDBRANCH   6  13
BRANCH   7  15
ATOM     15  O   UNL     1      19.316  -2.982 -25.285  1.00  0.00    -0.385 OA
ATOM     16  H   UNL     1      20.116  -3.541 -25.467  1.00  0.00     0.211 HD
ENDBRANCH   7  15
ENDBRANCH   1   2
BRANCH   1  17
ATOM     17  C   UNL     1      18.842   0.063 -22.775  1.00  0.00     0.224 C 
ATOM     18  C   UNL     1      19.980   1.051 -23.174  1.00  0.00     0.208 C 
ATOM     19  O   UNL     1      19.113  -0.394 -21.458  1.00  0.00    -0.337 OA
ATOM     20  C   UNL     1      20.837   1.144 -21.919  1.00  0.00     0.180 C 
ATOM     21  C   UNL     1      19.901   0.604 -20.847  1.00  0.00     0.179 C 
BRANCH  17  22
ATOM     22  C   UNL     1      17.438   0.708 -22.752  1.00  0.00     0.225 C 
BRANCH  22  23
ATOM     23  O   UNL     1      16.445  -0.275 -22.624  1.00  0.00    -0.391 OA
ATOM     24  H   UNL     1      15.878   0.004 -21.859  1.00  0.00     0.210 HD
ENDBRANCH  22  23
ENDBRANCH  17  22
BRANCH  18  25
ATOM     25  O   UNL     1      19.516   2.307 -23.621  1.00  0.00    -0.385 OA
ATOM     26  H   UNL     1      19.872   2.472 -24.532  1.00  0.00     0.211 HD
ENDBRANCH  18  25
BRANCH  20  27
ATOM     27  O   UNL     1      21.241   2.461 -21.641  1.00  0.00    -0.387 OA
ATOM     28  H   UNL     1      22.138   2.401 -21.221  1.00  0.00     0.211 HD
ENDBRANCH  20  27
BRANCH  21  29
ATOM     29  C   UNL     1      20.649   0.038 -19.635  1.00  0.00     0.191 C 
BRANCH  29  30
ATOM     30  O   UNL     1      21.833   0.756 -19.412  1.00  0.00    -0.394 OA
ATOM     31  H   UNL     1      21.567   1.641 -19.051  1.00  0.00     0.210 HD
ENDBRANCH  29  30
ENDBRANCH  21  29
ENDBRANCH   1  17
TORSDOF 13
ENDMDL
MODEL 6
REMARK VINA RESULT:    -5.517      3.133      6.503
REMARK INTER + INTRA:          -9.456
REMARK INTER:                  -8.393
REMARK INTRA:                  -1.063
REMARK UNBOUND:                -1.037
REMARK SMILES OC[C@@H]1O[C@@H](O[C@@]2(CO)O[C@@H](CO)[C@H](O)[C@@H]2O)[C@@H](O)[C@H](O)[C@@H]1O
REMARK SMILES IDX 6 1 5 2 3 3 22 4 4 5 20 6 18 7 2 8 1 9 23 11 21 13 19 15
REMARK SMILES IDX 7 17 16 18 10 19 14 20 11 21 8 22 9 23 17 25 15 27 12 29
REMARK SMILES IDX 13 30
REMARK H PARENT 1 10 23 12 21 14 19 16 9 24 17 26 15 28 13 31
REMARK Flexibility Score: inf
ROOT
ATOM      1  O   UNL     1      19.361   1.524 -20.299  1.00  0.00    -0.313 OA
ENDROOT
BRANCH   1   2
ATOM      2  C   UNL     1      20.113   0.691 -19.431  1.00  0.00     0.285 C 
ATOM      3  C   UNL     1      19.934  -0.998 -17.772  1.00  0.00     0.178 C 
ATOM      4  C   UNL     1      21.372  -0.575 -17.345  1.00  0.00     0.177 C 
ATOM      5  O   UNL     1      19.245  -0.051 -18.591  1.00  0.00    -0.341 OA
ATOM      6  C   UNL     1      21.422   0.951 -17.233  1.00  0.00     0.179 C 
ATOM      7  C   UNL     1      21.035   1.607 -18.580  1.00  0.00     0.202 C 
BRANCH   3   8
ATOM      8  C   UNL     1      19.877  -2.397 -18.405  1.00  0.00     0.191 C 
BRANCH   8   9
ATOM      9  O   UNL     1      19.058  -3.250 -17.648  1.00  0.00    -0.394 OA
ATOM     10  H   UNL     1      19.346  -4.178 -17.847  1.00  0.00     0.210 HD
ENDBRANCH   8   9
ENDBRANCH   3   8
BRANCH   4  11
ATOM     11  O   UNL     1      22.329  -1.023 -18.276  1.00  0.00    -0.387 OA
ATOM     12  H   UNL     1      23.210  -1.002 -17.821  1.00  0.00     0.211 HD
ENDBRANCH   4  11
BRANCH   6  13
ATOM     13  O   UNL     1      22.706   1.358 -16.838  1.00  0.00    -0.387 OA
ATOM     14  H   UNL     1      23.285   0.553 -16.874  1.00  0.00     0.211 HD
ENDBRANCH   6  13
BRANCH   7  15
ATOM     15  O   UNL     1      20.395   2.833 -18.329  1.00  0.00    -0.385 OA
ATOM     16  H   UNL     1      21.108   3.516 -18.226  1.00  0.00     0.211 HD
ENDBRANCH   7  15
ENDBRANCH   1   2
BRANCH   1  17
ATOM     17  C   UNL     1      19.499   1.269 -21.697  1.00  0.00     0.224 C 
ATOM     18  C   UNL     1      18.349   1.971 -22.480  1.00  0.00     0.208 C 
ATOM     19  O   UNL     1      19.449  -0.115 -22.010  1.00  0.00    -0.337 OA
ATOM     20  C   UNL     1      17.734   0.849 -23.306  1.00  0.00     0.180 C 
ATOM     21  C   UNL     1      18.824  -0.213 -23.270  1.00  0.00     0.179 C 
BRANCH  17  22
ATOM     22  C   UNL     1      20.910   1.771 -22.079  1.00  0.00     0.225 C 
BRANCH  22  23
ATOM     23  O   UNL     1      21.060   3.125 -21.745  1.00  0.00    -0.391 OA
ATOM     24  H   UNL     1      21.228   3.602 -22.599  1.00  0.00     0.210 HD
ENDBRANCH  22  23
ENDBRANCH  17  22
BRANCH  18  25
ATOM     25  O   UNL     1      18.776   3.064 -23.264  1.00  0.00    -0.385 OA
ATOM     26  H   UNL     1      19.749   3.197 -23.122  1.00  0.00     0.211 HD
ENDBRANCH  18  25
BRANCH  20  27
ATOM     27  O   UNL     1      17.440   1.249 -24.620  1.00  0.00    -0.387 OA
ATOM     28  H   UNL     1      17.351   0.418 -25.157  1.00  0.00     0.211 HD
ENDBRANCH  20  27
BRANCH  21  29
ATOM     29  C   UNL     1      18.282  -1.629 -23.499  1.00  0.00     0.191 C 
BRANCH  29  30
ATOM     30  O   UNL     1      16.959  -1.577 -23.960  1.00  0.00    -0.394 OA
ATOM     31  H   UNL     1      16.384  -1.890 -23.213  1.00  0.00     0.210 HD
ENDBRANCH  29  30
ENDBRANCH  21  29
ENDBRANCH   1  17
TORSDOF 13
ENDMDL
MODEL 7
REMARK VINA RESULT:    -5.500     12.015     14.123
REMARK INTER + INTRA:          -9.430
REMARK INTER:                  -7.860
REMARK INTRA:                  -1.571
REMARK UNBOUND:                -1.037
REMARK SMILES OC[C@@H]1O[C@@H](O[C@@]2(CO)O[C@@H](CO)[C@H](O)[C@@H]2O)[C@@H](O)[C@H](O)[C@@H]1O
REMARK SMILES IDX 6 1 5 2 3 3 22 4 4 5 20 6 18 7 2 8 1 9 23 11 21 13 19 15
REMARK SMILES IDX 7 17 16 18 10 19 14 20 11 21 8 22 9 23 17 25 15 27 12 29
REMARK SMILES IDX 13 30
REMARK H PARENT 1 10 23 12 21 14 19 16 9 24 17 26 15 28 13 31
REMARK Flexibility Score: inf
ROOT
ATOM      1  O   UNL     1      23.466 -14.300 -26.082  1.00  0.00    -0.313 OA
ENDROOT
BRANCH   1   2
ATOM      2  C   UNL     1      24.216 -13.111 -25.884  1.00  0.00     0.285 C 
ATOM      3  C   UNL     1      25.760 -11.631 -26.913  1.00  0.00     0.178 C 
ATOM      4  C   UNL     1      26.108 -11.166 -25.467  1.00  0.00     0.177 C 
ATOM      5  O   UNL     1      25.063 -12.875 -26.995  1.00  0.00    -0.341 OA
ATOM      6  C   UNL     1      26.323 -12.403 -24.592  1.00  0.00     0.179 C 
ATOM      7  C   UNL     1      25.058 -13.295 -24.591  1.00  0.00     0.202 C 
BRANCH   3   8
ATOM      8  C   UNL     1      25.037 -10.555 -27.737  1.00  0.00     0.191 C 
BRANCH   8   9
ATOM      9  O   UNL     1      23.806 -11.037 -28.211  1.00  0.00    -0.394 OA
ATOM     10  H   UNL     1      23.369 -11.506 -27.454  1.00  0.00     0.210 HD
ENDBRANCH   8   9
ENDBRANCH   3   8
BRANCH   4  11
ATOM     11  O   UNL     1      25.079 -10.367 -24.931  1.00  0.00    -0.387 OA
ATOM     12  H   UNL     1      25.443  -9.930 -24.118  1.00  0.00     0.211 HD
ENDBRANCH   4  11
BRANCH   6  13
ATOM     13  O   UNL     1      26.649 -12.011 -23.284  1.00  0.00    -0.387 OA
ATOM     14  H   UNL     1      25.840 -12.163 -22.729  1.00  0.00     0.211 HD
ENDBRANCH   6  13
BRANCH   7  15
ATOM     15  O   UNL     1      25.442 -14.640 -24.455  1.00  0.00    -0.385 OA
ATOM     16  H   UNL     1      24.934 -15.156 -25.135  1.00  0.00     0.211 HD
ENDBRANCH   7  15
ENDBRANCH   1   2
BRANCH   1  17
ATOM     17  C   UNL     1      22.053 -14.143 -26.207  1.00  0.00     0.224 C 
ATOM     18  C   UNL     1      21.648 -12.682 -25.843  1.00  0.00     0.208 C 
ATOM     19  O   UNL     1      21.326 -15.014 -25.355  1.00  0.00    -0.337 OA
ATOM     20  C   UNL     1      20.575 -12.858 -24.776  1.00  0.00     0.180 C 
ATOM     21  C   UNL     1      20.167 -14.312 -24.966  1.00  0.00     0.179 C 
BRANCH  17  22
ATOM     22  C   UNL     1      21.712 -14.539 -27.661  1.00  0.00     0.225 C 
BRANCH  22  23
ATOM     23  O   UNL     1      22.520 -13.836 -28.567  1.00  0.00    -0.391 OA
ATOM     24  H   UNL     1      22.121 -13.984 -29.464  1.00  0.00     0.210 HD
ENDBRANCH  22  23
ENDBRANCH  17  22
BRANCH  18  25
ATOM     25  O   UNL     1      21.212 -11.918 -26.946  1.00  0.00    -0.385 OA
ATOM     26  H   UNL     1      21.174 -12.505 -27.745  1.00  0.00     0.211 HD
ENDBRANCH  18  25
BRANCH  20  27
ATOM     27  O   UNL     1      19.490 -11.984 -24.958  1.00  0.00    -0.387 OA
ATOM     28  H   UNL     1      19.247 -11.643 -24.058  1.00  0.00     0.211 HD
ENDBRANCH  20  27
BRANCH  21  29
ATOM     29  C   UNL     1      19.558 -14.927 -23.700  1.00  0.00     0.191 C 
BRANCH  29  30
ATOM     30  O   UNL     1      18.404 -14.225 -23.321  1.00  0.00    -0.394 OA
ATOM     31  H   UNL     1      17.806 -14.211 -24.114  1.00  0.00     0.210 HD
ENDBRANCH  29  30
ENDBRANCH  21  29
ENDBRANCH   1  17
TORSDOF 13
ENDMDL
MODEL 8
REMARK VINA RESULT:    -5.441      2.309      4.232
REMARK INTER + INTRA:          -9.341
REMARK INTER:                  -7.741
REMARK INTRA:                  -1.599
REMARK UNBOUND:                -1.037
REMARK SMILES OC[C@@H]1O[C@@H](O[C@@]2(CO)O[C@@H](CO)[C@H](O)[C@@H]2O)[C@@H](O)[C@H](O)[C@@H]1O
REMARK SMILES IDX 6 1 5 2 3 3 22 4 4 5 20 6 18 7 2 8 1 9 23 11 21 13 19 15
REMARK SMILES IDX 7 17 16 18 10 19 14 20 11 21 8 22 9 23 17 25 15 27 12 29
REMARK SMILES IDX 13 30
REMARK H PARENT 1 10 23 12 21 14 19 16 9 24 17 26 15 28 13 31
REMARK Flexibility Score: inf
ROOT
ATOM      1  O   UNL     1      19.473  -0.394 -23.752  1.00  0.00    -0.313 OA
ENDROOT
BRANCH   1   2
ATOM      2  C   UNL     1      19.957   0.589 -22.849  1.00  0.00     0.285 C 
ATOM      3  C   UNL     1      21.931   1.516 -21.912  1.00  0.00     0.178 C 
ATOM      4  C   UNL     1      21.009   2.041 -20.771  1.00  0.00     0.177 C 
ATOM      5  O   UNL     1      21.364   0.481 -22.717  1.00  0.00    -0.341 OA
ATOM      6  C   UNL     1      20.109   0.896 -20.301  1.00  0.00     0.179 C 
ATOM      7  C   UNL     1      19.266   0.350 -21.478  1.00  0.00     0.202 C 
BRANCH   3   8
ATOM      8  C   UNL     1      22.496   2.636 -22.798  1.00  0.00     0.191 C 
BRANCH   8   9
ATOM      9  O   UNL     1      22.666   2.187 -24.117  1.00  0.00    -0.394 OA
ATOM     10  H   UNL     1      23.594   1.844 -24.189  1.00  0.00     0.210 HD
ENDBRANCH   8   9
ENDBRANCH   3   8
BRANCH   4  11
ATOM     11  O   UNL     1      20.225   3.125 -21.212  1.00  0.00    -0.387 OA
ATOM     12  H   UNL     1      19.699   2.805 -21.991  1.00  0.00     0.211 HD
ENDBRANCH   4  11
BRANCH   6  13
ATOM     13  O   UNL     1      19.274   1.342 -19.263  1.00  0.00    -0.387 OA
ATOM     14  H   UNL     1      19.364   0.687 -18.523  1.00  0.00     0.211 HD
ENDBRANCH   6  13
BRANCH   7  15
ATOM     15  O   UNL     1      19.040  -1.024 -21.286  1.00  0.00    -0.385 OA
ATOM     16  H   UNL     1      18.210  -1.252 -21.780  1.00  0.00     0.211 HD
ENDBRANCH   7  15
ENDBRANCH   1   2
BRANCH   1  17
ATOM     17  C   UNL     1      19.042   0.079 -25.028  1.00  0.00     0.224 C 
ATOM     18  C   UNL     1      19.172   1.631 -25.089  1.00  0.00     0.208 C 
ATOM     19  O   UNL     1      17.690  -0.249 -25.308  1.00  0.00    -0.337 OA
ATOM     20  C   UNL     1      17.784   2.096 -25.511  1.00  0.00     0.180 C 
ATOM     21  C   UNL     1      17.172   0.819 -26.069  1.00  0.00     0.179 C 
BRANCH  17  22
ATOM     22  C   UNL     1      19.914  -0.660 -26.068  1.00  0.00     0.225 C 
BRANCH  22  23
ATOM     23  O   UNL     1      21.259  -0.668 -25.669  1.00  0.00    -0.391 OA
ATOM     24  H   UNL     1      21.757  -0.173 -26.370  1.00  0.00     0.210 HD
ENDBRANCH  22  23
ENDBRANCH  17  22
BRANCH  18  25
ATOM     25  O   UNL     1      20.193   2.085 -25.952  1.00  0.00    -0.385 OA
ATOM     26  H   UNL     1      19.783   2.634 -26.670  1.00  0.00     0.211 HD
ENDBRANCH  18  25
BRANCH  20  27
ATOM     27  O   UNL     1      17.830   3.116 -26.476  1.00  0.00    -0.387 OA
ATOM     28  H   UNL     1      17.240   2.829 -27.221  1.00  0.00     0.211 HD
ENDBRANCH  20  27
BRANCH  21  29
ATOM     29  C   UNL     1      15.640   0.826 -26.024  1.00  0.00     0.191 C 
BRANCH  29  30
ATOM     30  O   UNL     1      15.155   2.141 -26.071  1.00  0.00    -0.394 OA
ATOM     31  H   UNL     1      14.343   2.125 -26.643  1.00  0.00     0.210 HD
ENDBRANCH  29  30
ENDBRANCH  21  29
ENDBRANCH   1  17
TORSDOF 13
ENDMDL
MODEL 9
REMARK VINA RESULT:    -5.430      2.223      5.415
REMARK INTER + INTRA:          -9.324
REMARK INTER:                  -7.920
REMARK INTRA:                  -1.404
REMARK UNBOUND:                -1.037
REMARK SMILES OC[C@@H]1O[C@@H](O[C@@]2(CO)O[C@@H](CO)[C@H](O)[C@@H]2O)[C@@H](O)[C@H](O)[C@@H]1O
REMARK SMILES IDX 6 1 5 2 3 3 22 4 4 5 20 6 18 7 2 8 1 9 23 11 21 13 19 15
REMARK SMILES IDX 7 17 16 18 10 19 14 20 11 21 8 22 9 23 17 25 15 27 12 29
REMARK SMILES IDX 13 30
REMARK H PARENT 1 10 23 12 21 14 19 16 9 24 17 26 15 28 13 31
REMARK Flexibility Score: inf
ROOT
ATOM      1  O   UNL     1      19.503   0.092 -26.155  1.00  0.00    -0.313 OA
ENDROOT
BRANCH   1   2
ATOM      2  C   UNL     1      20.826   0.607 -26.120  1.00  0.00     0.285 C 
ATOM      3  C   UNL     1      22.108   2.552 -25.665  1.00  0.00     0.178 C 
ATOM      4  C   UNL     1      23.224   1.881 -26.522  1.00  0.00     0.177 C 
ATOM      5  O   UNL     1      20.803   1.994 -25.831  1.00  0.00    -0.341 OA
ATOM      6  C   UNL     1      22.600   1.362 -27.820  1.00  0.00     0.179 C 
ATOM      7  C   UNL     1      21.466   0.355 -27.513  1.00  0.00     0.202 C 
BRANCH   3   8
ATOM      8  C   UNL     1      22.465   2.648 -24.174  1.00  0.00     0.191 C 
BRANCH   8   9
ATOM      9  O   UNL     1      22.316   1.401 -23.547  1.00  0.00    -0.394 OA
ATOM     10  H   UNL     1      22.171   1.578 -22.582  1.00  0.00     0.210 HD
ENDBRANCH   8   9
ENDBRANCH   3   8
BRANCH   4  11
ATOM     11  O   UNL     1      23.833   0.822 -25.820  1.00  0.00    -0.387 OA
ATOM     12  H   UNL     1      23.104   0.233 -25.493  1.00  0.00     0.211 HD
ENDBRANCH   4  11
BRANCH   6  13
ATOM     13  O   UNL     1      23.588   0.762 -28.616  1.00  0.00    -0.387 OA
ATOM     14  H   UNL     1      24.401   1.326 -28.538  1.00  0.00     0.211 HD
ENDBRANCH   6  13
BRANCH   7  15
ATOM     15  O   UNL     1      20.485   0.445 -28.516  1.00  0.00    -0.385 OA
ATOM     16  H   UNL     1      20.964   0.533 -29.381  1.00  0.00     0.211 HD
ENDBRANCH   7  15
ENDBRANCH   1   2
BRANCH   1  17
ATOM     17  C   UNL     1      19.060  -0.592 -24.983  1.00  0.00     0.224 C 
ATOM     18  C   UNL     1      17.572  -0.232 -24.689  1.00  0.00     0.208 C 
ATOM     19  O   UNL     1      19.819  -0.256 -23.831  1.00  0.00    -0.337 OA
ATOM     20  C   UNL     1      17.594   0.248 -23.243  1.00  0.00     0.180 C 
ATOM     21  C   UNL     1      18.924  -0.297 -22.742  1.00  0.00     0.179 C 
BRANCH  17  22
ATOM     22  C   UNL     1      19.294  -2.095 -25.259  1.00  0.00     0.225 C 
BRANCH  22  23
ATOM     23  O   UNL     1      19.017  -2.399 -26.600  1.00  0.00    -0.391 OA
ATOM     24  H   UNL     1      19.871  -2.720 -26.992  1.00  0.00     0.210 HD
ENDBRANCH  22  23
ENDBRANCH  17  22
BRANCH  18  25
ATOM     25  O   UNL     1      16.673  -1.298 -24.904  1.00  0.00    -0.385 OA
ATOM     26  H   UNL     1      17.132  -2.150 -24.688  1.00  0.00     0.211 HD
ENDBRANCH  18  25
BRANCH  20  27
ATOM     27  O   UNL     1      16.513  -0.249 -22.497  1.00  0.00    -0.387 OA
ATOM     28  H   UNL     1      15.689   0.109 -22.918  1.00  0.00     0.211 HD
ENDBRANCH  20  27
BRANCH  21  29
ATOM     29  C   UNL     1      19.479   0.495 -21.553  1.00  0.00     0.191 C 
BRANCH  29  30
ATOM     30  O   UNL     1      18.441   1.144 -20.869  1.00  0.00    -0.394 OA
ATOM     31  H   UNL     1      18.623   2.118 -20.932  1.00  0.00     0.210 HD
ENDBRANCH  29  30
ENDBRANCH  21  29
ENDBRANCH   1  17
TORSDOF 13
ENDMDL
