MODEL 1
REMARK VINA RESULT:    -4.987      0.000      0.000
REMARK INTER + INTRA:         -12.703
REMARK INTER:                 -10.817
REMARK INTRA:                  -1.886
REMARK UNBOUND:                -1.886
REMARK SMILES CCCCCCCCCCCCCCCCCCCCCC(=O)[O-]
REMARK SMILES IDX 12 1 11 2 10 3 9 4 8 5 7 6 6 7 5 8 4 9 3 10 2 11 1 12 13 13
REMARK SMILES IDX 14 14 15 15 16 16 17 17 18 18 19 19 20 20 21 21 22 22 23 23
REMARK SMILES IDX 24 24
REMARK H PARENT
REMARK Flexibility Score: inf
ROOT
ATOM      1  C   UNL     1      -2.904  32.349  60.485  1.00  0.00     0.000 C 
ENDROOT
BRANCH   1   2
ATOM      2  C   UNL     1      -4.070  31.546  59.883  1.00  0.00     0.000 C 
BRANCH   2   3
ATOM      3  C   UNL     1      -4.080  31.530  58.339  1.00  0.00     0.000 C 
BRANCH   3   4
ATOM      4  C   UNL     1      -4.216  30.104  57.775  1.00  0.00    -0.000 C 
BRANCH   4   5
ATOM      5  C   UNL     1      -2.929  29.609  57.095  1.00  0.00    -0.000 C 
BRANCH   5   6
ATOM      6  C   UNL     1      -3.055  28.169  56.568  1.00  0.00    -0.000 C 
BRANCH   6   7
ATOM      7  C   UNL     1      -4.284  27.978  55.665  1.00  0.00    -0.000 C 
BRANCH   7   8
ATOM      8  C   UNL     1      -4.114  26.826  54.663  1.00  0.00    -0.000 C 
BRANCH   8   9
ATOM      9  C   UNL     1      -2.779  26.099  54.887  1.00  0.00    -0.000 C 
BRANCH   9  10
ATOM     10  C   UNL     1      -1.834  26.208  53.680  1.00  0.00    -0.000 C 
BRANCH  10  11
ATOM     11  C   UNL     1      -2.588  26.379  52.352  1.00  0.00    -0.003 C 
ATOM     12  C   UNL     1      -1.699  26.022  51.165  1.00  0.00     0.004 C 
ENDBRANCH  10  11
ENDBRANCH   9  10
ENDBRANCH   8   9
ENDBRANCH   7   8
ENDBRANCH   6   7
ENDBRANCH   5   6
ENDBRANCH   4   5
ENDBRANCH   3   4
ENDBRANCH   2   3
ENDBRANCH   1   2
BRANCH   1  13
ATOM     13  C   UNL     1      -3.260  33.001  61.831  1.00  0.00     0.000 C 
BRANCH  13  14
ATOM     14  C   UNL     1      -2.729  32.201  63.032  1.00  0.00     0.000 C 
BRANCH  14  15
ATOM     15  C   UNL     1      -2.247  33.105  64.180  1.00  0.00     0.000 C 
BRANCH  15  16
ATOM     16  C   UNL     1      -0.873  32.680  64.724  1.00  0.00     0.000 C 
BRANCH  16  17
ATOM     17  C   UNL     1      -0.382  31.358  64.109  1.00  0.00     0.000 C 
BRANCH  17  18
ATOM     18  C   UNL     1       0.904  31.534  63.283  1.00  0.00     0.000 C 
BRANCH  18  19
ATOM     19  C   UNL     1       0.708  31.160  61.804  1.00  0.00     0.000 C 
BRANCH  19  20
ATOM     20  C   UNL     1       0.664  32.389  60.882  1.00  0.00     0.006 C 
BRANCH  20  21
ATOM     21  C   UNL     1       0.951  33.699  61.626  1.00  0.00     0.053 C 
BRANCH  21  22
ATOM     22  C   UNL     1       0.903  34.857  60.680  1.00  0.00     0.041 C 
ATOM     23  O   UNL     1      -0.202  35.369  60.360  1.00  0.00    -0.550 OA
ATOM     24  O   UNL     1       2.077  35.342  60.114  1.00  0.00    -0.550 OA
ENDBRANCH  21  22
ENDBRANCH  20  21
ENDBRANCH  19  20
ENDBRANCH  18  19
ENDBRANCH  17  18
ENDBRANCH  16  17
ENDBRANCH  15  16
ENDBRANCH  14  15
ENDBRANCH  13  14
ENDBRANCH   1  13
TORSDOF 20
ENDMDL
MODEL 2
REMARK VINA RESULT:    -4.972      4.284     10.407
REMARK INTER + INTRA:         -12.672
REMARK INTER:                 -11.402
REMARK INTRA:                  -1.270
REMARK UNBOUND:                -1.886
REMARK SMILES CCCCCCCCCCCCCCCCCCCCCC(=O)[O-]
REMARK SMILES IDX 12 1 11 2 10 3 9 4 8 5 7 6 6 7 5 8 4 9 3 10 2 11 1 12 13 13
REMARK SMILES IDX 14 14 15 15 16 16 17 17 18 18 19 19 20 20 21 21 22 22 23 23
REMARK SMILES IDX 24 24
REMARK H PARENT
REMARK Flexibility Score: inf
ROOT
ATOM      1  C   UNL     1      -2.742  29.949  57.722  1.00  0.00     0.000 C 
ENDROOT
BRANCH   1   2
ATOM      2  C   UNL     1      -3.933  30.860  58.066  1.00  0.00     0.000 C 
BRANCH   2   3
ATOM      3  C   UNL     1      -4.645  30.478  59.381  1.00  0.00     0.000 C 
BRANCH   3   4
ATOM      4  C   UNL     1      -4.266  31.420  60.539  1.00  0.00    -0.000 C 
BRANCH   4   5
ATOM      5  C   UNL     1      -3.129  32.386  60.172  1.00  0.00    -0.000 C 
BRANCH   5   6
ATOM      6  C   UNL     1      -2.505  33.062  61.404  1.00  0.00    -0.000 C 
BRANCH   6   7
ATOM      7  C   UNL     1      -1.021  32.700  61.587  1.00  0.00    -0.000 C 
BRANCH   7   8
ATOM      8  C   UNL     1      -0.404  33.332  62.843  1.00  0.00    -0.000 C 
BRANCH   8   9
ATOM      9  C   UNL     1      -0.852  32.583  64.108  1.00  0.00    -0.000 C 
BRANCH   9  10
ATOM     10  C   UNL     1      -2.038  33.262  64.811  1.00  0.00    -0.000 C 
BRANCH  10  11
ATOM     11  C   UNL     1      -1.951  34.796  64.771  1.00  0.00    -0.003 C 
ATOM     12  C   UNL     1      -3.256  35.408  64.270  1.00  0.00     0.004 C 
ENDBRANCH  10  11
ENDBRANCH   9  10
ENDBRANCH   8   9
ENDBRANCH   7   8
ENDBRANCH   6   7
ENDBRANCH   5   6
ENDBRANCH   4   5
ENDBRANCH   3   4
ENDBRANCH   2   3
ENDBRANCH   1   2
BRANCH   1  13
ATOM     13  C   UNL     1      -3.034  29.001  56.547  1.00  0.00     0.000 C 
BRANCH  13  14
ATOM     14  C   UNL     1      -4.531  28.677  56.409  1.00  0.00     0.000 C 
BRANCH  14  15
ATOM     15  C   UNL     1      -4.803  27.566  55.379  1.00  0.00     0.000 C 
BRANCH  15  16
ATOM     16  C   UNL     1      -3.589  26.645  55.176  1.00  0.00     0.000 C 
BRANCH  16  17
ATOM     17  C   UNL     1      -3.277  26.402  53.688  1.00  0.00     0.000 C 
BRANCH  17  18
ATOM     18  C   UNL     1      -1.767  26.338  53.406  1.00  0.00     0.000 C 
BRANCH  18  19
ATOM     19  C   UNL     1      -0.942  26.077  54.679  1.00  0.00     0.000 C 
BRANCH  19  20
ATOM     20  C   UNL     1       0.275  25.175  54.422  1.00  0.00     0.006 C 
BRANCH  20  21
ATOM     21  C   UNL     1       0.482  24.866  52.934  1.00  0.00     0.053 C 
BRANCH  21  22
ATOM     22  C   UNL     1       1.758  24.112  52.731  1.00  0.00     0.041 C 
ATOM     23  O   UNL     1       2.047  23.142  53.480  1.00  0.00    -0.550 OA
ATOM     24  O   UNL     1       2.651  24.510  51.743  1.00  0.00    -0.550 OA
ENDBRANCH  21  22
ENDBRANCH  20  21
ENDBRANCH  19  20
ENDBRANCH  18  19
ENDBRANCH  17  18
ENDBRANCH  16  17
ENDBRANCH  15  16
ENDBRANCH  14  15
ENDBRANCH  13  14
ENDBRANCH   1  13
TORSDOF 20
ENDMDL
MODEL 3
REMARK VINA RESULT:    -4.904      2.113      3.805
REMARK INTER + INTRA:         -12.525
REMARK INTER:                 -11.054
REMARK INTRA:                  -1.470
REMARK UNBOUND:                -1.886
REMARK SMILES CCCCCCCCCCCCCCCCCCCCCC(=O)[O-]
REMARK SMILES IDX 12 1 11 2 10 3 9 4 8 5 7 6 6 7 5 8 4 9 3 10 2 11 1 12 13 13
REMARK SMILES IDX 14 14 15 15 16 16 17 17 18 18 19 19 20 20 21 21 22 22 23 23
REMARK SMILES IDX 24 24
REMARK H PARENT
REMARK Flexibility Score: inf
ROOT
ATOM      1  C   UNL     1      -2.959  29.879  57.716  1.00  0.00     0.000 C 
ENDROOT
BRANCH   1   2
ATOM      2  C   UNL     1      -3.219  29.098  56.416  1.00  0.00     0.000 C 
BRANCH   2   3
ATOM      3  C   UNL     1      -4.563  28.338  56.409  1.00  0.00     0.000 C 
BRANCH   3   4
ATOM      4  C   UNL     1      -4.727  27.464  55.151  1.00  0.00    -0.000 C 
BRANCH   4   5
ATOM      5  C   UNL     1      -3.529  26.531  54.916  1.00  0.00    -0.000 C 
BRANCH   5   6
ATOM      6  C   UNL     1      -3.166  26.399  53.427  1.00  0.00    -0.000 C 
BRANCH   6   7
ATOM      7  C   UNL     1      -1.675  26.095  53.209  1.00  0.00    -0.000 C 
BRANCH   7   8
ATOM      8  C   UNL     1      -0.870  26.088  54.517  1.00  0.00    -0.000 C 
BRANCH   8   9
ATOM      9  C   UNL     1       0.348  25.157  54.405  1.00  0.00    -0.000 C 
BRANCH   9  10
ATOM     10  C   UNL     1       0.661  24.763  52.953  1.00  0.00    -0.000 C 
BRANCH  10  11
ATOM     11  C   UNL     1       2.167  24.593  52.698  1.00  0.00    -0.003 C 
ATOM     12  C   UNL     1       2.989  25.314  53.762  1.00  0.00     0.004 C 
ENDBRANCH  10  11
ENDBRANCH   9  10
ENDBRANCH   8   9
ENDBRANCH   7   8
ENDBRANCH   6   7
ENDBRANCH   5   6
ENDBRANCH   4   5
ENDBRANCH   3   4
ENDBRANCH   2   3
ENDBRANCH   1   2
BRANCH   1  13
ATOM     13  C   UNL     1      -3.996  30.987  57.966  1.00  0.00     0.000 C 
BRANCH  13  14
ATOM     14  C   UNL     1      -4.281  31.201  59.461  1.00  0.00     0.000 C 
BRANCH  14  15
ATOM     15  C   UNL     1      -3.270  32.152  60.126  1.00  0.00     0.000 C 
BRANCH  15  16
ATOM     16  C   UNL     1      -3.545  32.343  61.626  1.00  0.00     0.000 C 
BRANCH  16  17
ATOM     17  C   UNL     1      -2.380  33.039  62.353  1.00  0.00     0.000 C 
BRANCH  17  18
ATOM     18  C   UNL     1      -2.053  34.418  61.755  1.00  0.00     0.000 C 
BRANCH  18  19
ATOM     19  C   UNL     1      -0.542  34.708  61.742  1.00  0.00     0.000 C 
BRANCH  19  20
ATOM     20  C   UNL     1       0.296  33.511  62.217  1.00  0.00     0.006 C 
BRANCH  20  21
ATOM     21  C   UNL     1       1.474  33.203  61.284  1.00  0.00     0.053 C 
BRANCH  21  22
ATOM     22  C   UNL     1       1.151  32.036  60.404  1.00  0.00     0.041 C 
ATOM     23  O   UNL     1       0.182  31.282  60.682  1.00  0.00    -0.550 OA
ATOM     24  O   UNL     1       1.950  31.754  59.302  1.00  0.00    -0.550 OA
ENDBRANCH  21  22
ENDBRANCH  20  21
ENDBRANCH  19  20
ENDBRANCH  18  19
ENDBRANCH  17  18
ENDBRANCH  16  17
ENDBRANCH  15  16
ENDBRANCH  14  15
ENDBRANCH  13  14
ENDBRANCH   1  13
TORSDOF 20
ENDMDL
MODEL 4
REMARK VINA RESULT:    -4.855      3.118      4.677
REMARK INTER + INTRA:         -12.418
REMARK INTER:                 -10.930
REMARK INTRA:                  -1.488
REMARK UNBOUND:                -1.886
REMARK SMILES CCCCCCCCCCCCCCCCCCCCCC(=O)[O-]
REMARK SMILES IDX 12 1 11 2 10 3 9 4 8 5 7 6 6 7 5 8 4 9 3 10 2 11 1 12 13 13
REMARK SMILES IDX 14 14 15 15 16 16 17 17 18 18 19 19 20 20 21 21 22 22 23 23
REMARK SMILES IDX 24 24
REMARK H PARENT
REMARK Flexibility Score: inf
ROOT
ATOM      1  C   UNL     1      -3.246  30.506  58.124  1.00  0.00     0.000 C 
ENDROOT
BRANCH   1   2
ATOM      2  C   UNL     1      -4.252  29.647  57.339  1.00  0.00     0.000 C 
BRANCH   2   3
ATOM      3  C   UNL     1      -3.593  28.728  56.288  1.00  0.00     0.000 C 
BRANCH   3   4
ATOM      4  C   UNL     1      -4.630  27.875  55.533  1.00  0.00    -0.000 C 
BRANCH   4   5
ATOM      5  C   UNL     1      -3.983  26.815  54.629  1.00  0.00    -0.000 C 
BRANCH   5   6
ATOM      6  C   UNL     1      -2.754  26.155  55.278  1.00  0.00    -0.000 C 
BRANCH   6   7
ATOM      7  C   UNL     1      -1.508  26.217  54.378  1.00  0.00    -0.000 C 
BRANCH   7   8
ATOM      8  C   UNL     1      -0.197  26.066  55.163  1.00  0.00    -0.000 C 
BRANCH   8   9
ATOM      9  C   UNL     1      -0.254  26.856  56.479  1.00  0.00    -0.000 C 
BRANCH   9  10
ATOM     10  C   UNL     1       1.140  27.125  57.070  1.00  0.00    -0.000 C 
BRANCH  10  11
ATOM     11  C   UNL     1       1.271  28.539  57.656  1.00  0.00    -0.003 C 
ATOM     12  C   UNL     1       0.023  29.369  57.375  1.00  0.00     0.004 C 
ENDBRANCH  10  11
ENDBRANCH   9  10
ENDBRANCH   8   9
ENDBRANCH   7   8
ENDBRANCH   6   7
ENDBRANCH   5   6
ENDBRANCH   4   5
ENDBRANCH   3   4
ENDBRANCH   2   3
ENDBRANCH   1   2
BRANCH   1  13
ATOM     13  C   UNL     1      -3.921  31.624  58.937  1.00  0.00     0.000 C 
BRANCH  13  14
ATOM     14  C   UNL     1      -3.909  31.343  60.448  1.00  0.00     0.000 C 
BRANCH  14  15
ATOM     15  C   UNL     1      -3.500  32.574  61.276  1.00  0.00     0.000 C 
BRANCH  15  16
ATOM     16  C   UNL     1      -2.088  33.071  60.928  1.00  0.00     0.000 C 
BRANCH  16  17
ATOM     17  C   UNL     1      -1.001  32.406  61.792  1.00  0.00     0.000 C 
BRANCH  17  18
ATOM     18  C   UNL     1      -1.311  32.490  63.296  1.00  0.00     0.000 C 
BRANCH  18  19
ATOM     19  C   UNL     1      -0.878  31.224  64.056  1.00  0.00     0.000 C 
BRANCH  19  20
ATOM     20  C   UNL     1       0.488  31.381  64.741  1.00  0.00     0.006 C 
BRANCH  20  21
ATOM     21  C   UNL     1       1.367  30.131  64.608  1.00  0.00     0.053 C 
BRANCH  21  22
ATOM     22  C   UNL     1       2.109  29.877  65.882  1.00  0.00     0.041 C 
ATOM     23  O   UNL     1       1.875  28.840  66.556  1.00  0.00    -0.550 OA
ATOM     24  O   UNL     1       3.026  30.811  66.351  1.00  0.00    -0.550 OA
ENDBRANCH  21  22
ENDBRANCH  20  21
ENDBRANCH  19  20
ENDBRANCH  18  19
ENDBRANCH  17  18
ENDBRANCH  16  17
ENDBRANCH  15  16
ENDBRANCH  14  15
ENDBRANCH  13  14
ENDBRANCH   1  13
TORSDOF 20
ENDMDL
MODEL 5
REMARK VINA RESULT:    -4.844      2.814      3.513
REMARK INTER + INTRA:         -12.394
REMARK INTER:                 -11.193
REMARK INTRA:                  -1.201
REMARK UNBOUND:                -1.886
REMARK SMILES CCCCCCCCCCCCCCCCCCCCCC(=O)[O-]
REMARK SMILES IDX 12 1 11 2 10 3 9 4 8 5 7 6 6 7 5 8 4 9 3 10 2 11 1 12 13 13
REMARK SMILES IDX 14 14 15 15 16 16 17 17 18 18 19 19 20 20 21 21 22 22 23 23
REMARK SMILES IDX 24 24
REMARK H PARENT
REMARK Flexibility Score: inf
ROOT
ATOM      1  C   UNL     1      -2.872  32.202  60.385  1.00  0.00     0.000 C 
ENDROOT
BRANCH   1   2
ATOM      2  C   UNL     1      -4.092  31.511  59.751  1.00  0.00     0.000 C 
BRANCH   2   3
ATOM      3  C   UNL     1      -3.981  31.342  58.220  1.00  0.00     0.000 C 
BRANCH   3   4
ATOM      4  C   UNL     1      -3.897  29.860  57.807  1.00  0.00    -0.000 C 
BRANCH   4   5
ATOM      5  C   UNL     1      -2.571  29.513  57.112  1.00  0.00    -0.000 C 
BRANCH   5   6
ATOM      6  C   UNL     1      -2.644  28.194  56.324  1.00  0.00    -0.000 C 
BRANCH   6   7
ATOM      7  C   UNL     1      -4.009  27.987  55.648  1.00  0.00    -0.000 C 
BRANCH   7   8
ATOM      8  C   UNL     1      -4.015  26.805  54.666  1.00  0.00    -0.000 C 
BRANCH   8   9
ATOM      9  C   UNL     1      -2.607  26.207  54.523  1.00  0.00    -0.000 C 
BRANCH   9  10
ATOM     10  C   UNL     1      -2.041  26.355  53.101  1.00  0.00    -0.000 C 
BRANCH  10  11
ATOM     11  C   UNL     1      -3.135  26.332  52.024  1.00  0.00    -0.003 C 
ATOM     12  C   UNL     1      -2.586  26.777  50.672  1.00  0.00     0.004 C 
ENDBRANCH  10  11
ENDBRANCH   9  10
ENDBRANCH   8   9
ENDBRANCH   7   8
ENDBRANCH   6   7
ENDBRANCH   5   6
ENDBRANCH   4   5
ENDBRANCH   3   4
ENDBRANCH   2   3
ENDBRANCH   1   2
BRANCH   1  13
ATOM     13  C   UNL     1      -3.230  33.007  61.646  1.00  0.00     0.000 C 
BRANCH  13  14
ATOM     14  C   UNL     1      -2.760  32.318  62.938  1.00  0.00     0.000 C 
BRANCH  14  15
ATOM     15  C   UNL     1      -2.075  33.291  63.912  1.00  0.00     0.000 C 
BRANCH  15  16
ATOM     16  C   UNL     1      -0.821  32.684  64.562  1.00  0.00     0.000 C 
BRANCH  16  17
ATOM     17  C   UNL     1      -0.479  31.295  63.994  1.00  0.00     0.000 C 
BRANCH  17  18
ATOM     18  C   UNL     1       1.034  31.091  63.808  1.00  0.00     0.000 C 
BRANCH  18  19
ATOM     19  C   UNL     1       1.505  29.712  64.300  1.00  0.00     0.000 C 
BRANCH  19  20
ATOM     20  C   UNL     1       1.676  29.653  65.826  1.00  0.00     0.006 C 
BRANCH  20  21
ATOM     21  C   UNL     1       2.890  30.451  66.318  1.00  0.00     0.053 C 
BRANCH  21  22
ATOM     22  C   UNL     1       4.147  29.923  65.699  1.00  0.00     0.041 C 
ATOM     23  O   UNL     1       4.894  30.686  65.033  1.00  0.00    -0.550 OA
ATOM     24  O   UNL     1       4.468  28.576  65.819  1.00  0.00    -0.550 OA
ENDBRANCH  21  22
ENDBRANCH  20  21
ENDBRANCH  19  20
ENDBRANCH  18  19
ENDBRANCH  17  18
ENDBRANCH  16  17
ENDBRANCH  15  16
ENDBRANCH  14  15
ENDBRANCH  13  14
ENDBRANCH   1  13
TORSDOF 20
ENDMDL
MODEL 6
REMARK VINA RESULT:    -4.841      4.317     10.140
REMARK INTER + INTRA:         -12.388
REMARK INTER:                 -11.232
REMARK INTRA:                  -1.156
REMARK UNBOUND:                -1.886
REMARK SMILES CCCCCCCCCCCCCCCCCCCCCC(=O)[O-]
REMARK SMILES IDX 12 1 11 2 10 3 9 4 8 5 7 6 6 7 5 8 4 9 3 10 2 11 1 12 13 13
REMARK SMILES IDX 14 14 15 15 16 16 17 17 18 18 19 19 20 20 21 21 22 22 23 23
REMARK SMILES IDX 24 24
REMARK H PARENT
REMARK Flexibility Score: inf
ROOT
ATOM      1  C   UNL     1      -2.786  29.743  57.459  1.00  0.00     0.000 C 
ENDROOT
BRANCH   1   2
ATOM      2  C   UNL     1      -4.224  30.236  57.693  1.00  0.00     0.000 C 
BRANCH   2   3
ATOM      3  C   UNL     1      -4.516  30.621  59.159  1.00  0.00     0.000 C 
BRANCH   3   4
ATOM      4  C   UNL     1      -3.527  31.677  59.688  1.00  0.00    -0.000 C 
BRANCH   4   5
ATOM      5  C   UNL     1      -3.776  32.039  61.161  1.00  0.00    -0.000 C 
BRANCH   5   6
ATOM      6  C   UNL     1      -2.771  33.073  61.694  1.00  0.00    -0.000 C 
BRANCH   6   7
ATOM      7  C   UNL     1      -1.321  32.740  61.306  1.00  0.00    -0.000 C 
BRANCH   7   8
ATOM      8  C   UNL     1      -0.329  32.962  62.457  1.00  0.00    -0.000 C 
BRANCH   8   9
ATOM      9  C   UNL     1      -0.968  32.597  63.807  1.00  0.00    -0.000 C 
BRANCH   9  10
ATOM     10  C   UNL     1      -0.104  31.626  64.629  1.00  0.00    -0.000 C 
BRANCH  10  11
ATOM     11  C   UNL     1       0.764  30.716  63.747  1.00  0.00    -0.003 C 
ATOM     12  C   UNL     1       0.247  29.281  63.762  1.00  0.00     0.004 C 
ENDBRANCH  10  11
ENDBRANCH   9  10
ENDBRANCH   8   9
ENDBRANCH   7   8
ENDBRANCH   6   7
ENDBRANCH   5   6
ENDBRANCH   4   5
ENDBRANCH   3   4
ENDBRANCH   2   3
ENDBRANCH   1   2
BRANCH   1  13
ATOM     13  C   UNL     1      -2.718  28.521  56.527  1.00  0.00     0.000 C 
BRANCH  13  14
ATOM     14  C   UNL     1      -4.095  28.125  55.972  1.00  0.00     0.000 C 
BRANCH  14  15
ATOM     15  C   UNL     1      -4.005  27.045  54.880  1.00  0.00     0.000 C 
BRANCH  15  16
ATOM     16  C   UNL     1      -2.807  26.104  55.084  1.00  0.00     0.000 C 
BRANCH  16  17
ATOM     17  C   UNL     1      -1.757  26.238  53.967  1.00  0.00     0.000 C 
BRANCH  17  18
ATOM     18  C   UNL     1      -0.327  25.969  54.466  1.00  0.00     0.000 C 
BRANCH  18  19
ATOM     19  C   UNL     1       0.305  24.735  53.798  1.00  0.00     0.000 C 
BRANCH  19  20
ATOM     20  C   UNL     1       1.840  24.795  53.774  1.00  0.00     0.006 C 
BRANCH  20  21
ATOM     21  C   UNL     1       2.442  24.108  52.541  1.00  0.00     0.053 C 
BRANCH  21  22
ATOM     22  C   UNL     1       2.777  25.121  51.492  1.00  0.00     0.041 C 
ATOM     23  O   UNL     1       3.766  25.885  51.642  1.00  0.00    -0.550 OA
ATOM     24  O   UNL     1       1.968  25.252  50.369  1.00  0.00    -0.550 OA
ENDBRANCH  21  22
ENDBRANCH  20  21
ENDBRANCH  19  20
ENDBRANCH  18  19
ENDBRANCH  17  18
ENDBRANCH  16  17
ENDBRANCH  15  16
ENDBRANCH  14  15
ENDBRANCH  13  14
ENDBRANCH   1  13
TORSDOF 20
ENDMDL
MODEL 7
REMARK VINA RESULT:    -4.833      2.319      2.792
REMARK INTER + INTRA:         -12.370
REMARK INTER:                 -10.756
REMARK INTRA:                  -1.615
REMARK UNBOUND:                -1.886
REMARK SMILES CCCCCCCCCCCCCCCCCCCCCC(=O)[O-]
REMARK SMILES IDX 12 1 11 2 10 3 9 4 8 5 7 6 6 7 5 8 4 9 3 10 2 11 1 12 13 13
REMARK SMILES IDX 14 14 15 15 16 16 17 17 18 18 19 19 20 20 21 21 22 22 23 23
REMARK SMILES IDX 24 24
REMARK H PARENT
REMARK Flexibility Score: inf
ROOT
ATOM      1  C   UNL     1      -3.203  31.962  59.983  1.00  0.00     0.000 C 
ENDROOT
BRANCH   1   2
ATOM      2  C   UNL     1      -4.262  31.341  59.057  1.00  0.00     0.000 C 
BRANCH   2   3
ATOM      3  C   UNL     1      -3.678  30.358  58.019  1.00  0.00     0.000 C 
BRANCH   3   4
ATOM      4  C   UNL     1      -4.741  29.381  57.484  1.00  0.00    -0.000 C 
BRANCH   4   5
ATOM      5  C   UNL     1      -4.287  28.647  56.213  1.00  0.00    -0.000 C 
BRANCH   5   6
ATOM      6  C   UNL     1      -2.812  28.215  56.274  1.00  0.00    -0.000 C 
BRANCH   6   7
ATOM      7  C   UNL     1      -2.614  26.738  55.895  1.00  0.00    -0.000 C 
BRANCH   7   8
ATOM      8  C   UNL     1      -1.204  26.441  55.366  1.00  0.00    -0.000 C 
BRANCH   8   9
ATOM      9  C   UNL     1      -1.247  26.056  53.879  1.00  0.00    -0.000 C 
BRANCH   9  10
ATOM     10  C   UNL     1      -2.577  26.433  53.207  1.00  0.00    -0.000 C 
BRANCH  10  11
ATOM     11  C   UNL     1      -2.498  26.392  51.674  1.00  0.00    -0.003 C 
ATOM     12  C   UNL     1      -3.888  26.282  51.054  1.00  0.00     0.004 C 
ENDBRANCH  10  11
ENDBRANCH   9  10
ENDBRANCH   8   9
ENDBRANCH   7   8
ENDBRANCH   6   7
ENDBRANCH   5   6
ENDBRANCH   4   5
ENDBRANCH   3   4
ENDBRANCH   2   3
ENDBRANCH   1   2
BRANCH   1  13
ATOM     13  C   UNL     1      -3.690  32.109  61.435  1.00  0.00     0.000 C 
BRANCH  13  14
ATOM     14  C   UNL     1      -3.053  33.310  62.152  1.00  0.00     0.000 C 
BRANCH  14  15
ATOM     15  C   UNL     1      -2.528  32.951  63.554  1.00  0.00     0.000 C 
BRANCH  15  16
ATOM     16  C   UNL     1      -1.145  32.282  63.509  1.00  0.00     0.000 C 
BRANCH  16  17
ATOM     17  C   UNL     1      -0.033  33.260  63.087  1.00  0.00     0.000 C 
BRANCH  17  18
ATOM     18  C   UNL     1       0.557  32.921  61.708  1.00  0.00     0.000 C 
BRANCH  18  19
ATOM     19  C   UNL     1       0.569  31.408  61.430  1.00  0.00     0.000 C 
BRANCH  19  20
ATOM     20  C   UNL     1       0.496  31.079  59.931  1.00  0.00     0.006 C 
BRANCH  20  21
ATOM     21  C   UNL     1       1.876  31.040  59.264  1.00  0.00     0.053 C 
BRANCH  21  22
ATOM     22  C   UNL     1       2.191  29.652  58.800  1.00  0.00     0.041 C 
ATOM     23  O   UNL     1       2.236  28.703  59.626  1.00  0.00    -0.550 OA
ATOM     24  O   UNL     1       2.483  29.416  57.461  1.00  0.00    -0.550 OA
ENDBRANCH  21  22
ENDBRANCH  20  21
ENDBRANCH  19  20
ENDBRANCH  18  19
ENDBRANCH  17  18
ENDBRANCH  16  17
ENDBRANCH  15  16
ENDBRANCH  14  15
ENDBRANCH  13  14
ENDBRANCH   1  13
TORSDOF 20
ENDMDL
MODEL 8
REMARK VINA RESULT:    -4.784      2.807      3.992
REMARK INTER + INTRA:         -12.264
REMARK INTER:                 -11.089
REMARK INTRA:                  -1.176
REMARK UNBOUND:                -1.886
REMARK SMILES CCCCCCCCCCCCCCCCCCCCCC(=O)[O-]
REMARK SMILES IDX 12 1 11 2 10 3 9 4 8 5 7 6 6 7 5 8 4 9 3 10 2 11 1 12 13 13
REMARK SMILES IDX 14 14 15 15 16 16 17 17 18 18 19 19 20 20 21 21 22 22 23 23
REMARK SMILES IDX 24 24
REMARK H PARENT
REMARK Flexibility Score: inf
ROOT
ATOM      1  C   UNL     1      -3.437  30.480  58.091  1.00  0.00     0.000 C 
ENDROOT
BRANCH   1   2
ATOM      2  C   UNL     1      -4.376  29.608  57.240  1.00  0.00     0.000 C 
BRANCH   2   3
ATOM      3  C   UNL     1      -3.634  28.622  56.311  1.00  0.00     0.000 C 
BRANCH   3   4
ATOM      4  C   UNL     1      -4.606  27.785  55.460  1.00  0.00    -0.000 C 
BRANCH   4   5
ATOM      5  C   UNL     1      -3.885  26.769  54.561  1.00  0.00    -0.000 C 
BRANCH   5   6
ATOM      6  C   UNL     1      -2.758  26.024  55.295  1.00  0.00    -0.000 C 
BRANCH   6   7
ATOM      7  C   UNL     1      -1.439  26.023  54.504  1.00  0.00    -0.000 C 
BRANCH   7   8
ATOM      8  C   UNL     1      -0.207  26.226  55.398  1.00  0.00    -0.000 C 
BRANCH   8   9
ATOM      9  C   UNL     1       1.051  25.642  54.736  1.00  0.00    -0.000 C 
BRANCH   9  10
ATOM     10  C   UNL     1       0.793  24.282  54.069  1.00  0.00    -0.000 C 
BRANCH  10  11
ATOM     11  C   UNL     1       2.016  23.760  53.299  1.00  0.00    -0.003 C 
ATOM     12  C   UNL     1       2.326  22.314  53.674  1.00  0.00     0.004 C 
ENDBRANCH  10  11
ENDBRANCH   9  10
ENDBRANCH   8   9
ENDBRANCH   7   8
ENDBRANCH   6   7
ENDBRANCH   5   6
ENDBRANCH   4   5
ENDBRANCH   3   4
ENDBRANCH   2   3
ENDBRANCH   1   2
BRANCH   1  13
ATOM     13  C   UNL     1      -4.160  31.176  59.256  1.00  0.00     0.000 C 
BRANCH  13  14
ATOM     14  C   UNL     1      -3.235  32.118  60.044  1.00  0.00     0.000 C 
BRANCH  14  15
ATOM     15  C   UNL     1      -3.644  32.248  61.522  1.00  0.00     0.000 C 
BRANCH  15  16
ATOM     16  C   UNL     1      -2.587  32.985  62.360  1.00  0.00     0.000 C 
BRANCH  16  17
ATOM     17  C   UNL     1      -2.118  32.160  63.572  1.00  0.00     0.000 C 
BRANCH  17  18
ATOM     18  C   UNL     1      -0.637  31.757  63.473  1.00  0.00     0.000 C 
BRANCH  18  19
ATOM     19  C   UNL     1       0.031  32.290  62.194  1.00  0.00     0.000 C 
BRANCH  19  20
ATOM     20  C   UNL     1       0.760  31.192  61.404  1.00  0.00     0.006 C 
BRANCH  20  21
ATOM     21  C   UNL     1       0.977  29.915  62.225  1.00  0.00     0.053 C 
BRANCH  21  22
ATOM     22  C   UNL     1       2.173  29.169  61.723  1.00  0.00     0.041 C 
ATOM     23  O   UNL     1       2.177  28.685  60.561  1.00  0.00    -0.550 OA
ATOM     24  O   UNL     1       3.267  28.967  62.557  1.00  0.00    -0.550 OA
ENDBRANCH  21  22
ENDBRANCH  20  21
ENDBRANCH  19  20
ENDBRANCH  18  19
ENDBRANCH  17  18
ENDBRANCH  16  17
ENDBRANCH  15  16
ENDBRANCH  14  15
ENDBRANCH  13  14
ENDBRANCH   1  13
TORSDOF 20
ENDMDL
MODEL 9
REMARK VINA RESULT:    -4.772      3.725      8.813
REMARK INTER + INTRA:         -12.237
REMARK INTER:                 -10.331
REMARK INTRA:                  -1.907
REMARK UNBOUND:                -1.886
REMARK SMILES CCCCCCCCCCCCCCCCCCCCCC(=O)[O-]
REMARK SMILES IDX 12 1 11 2 10 3 9 4 8 5 7 6 6 7 5 8 4 9 3 10 2 11 1 12 13 13
REMARK SMILES IDX 14 14 15 15 16 16 17 17 18 18 19 19 20 20 21 21 22 22 23 23
REMARK SMILES IDX 24 24
REMARK H PARENT
REMARK Flexibility Score: inf
ROOT
ATOM      1  C   UNL     1      -3.433  32.003  60.044  1.00  0.00     0.000 C 
ENDROOT
BRANCH   1   2
ATOM      2  C   UNL     1      -3.115  32.462  61.477  1.00  0.00     0.000 C 
BRANCH   2   3
ATOM      3  C   UNL     1      -1.997  33.524  61.554  1.00  0.00     0.000 C 
BRANCH   3   4
ATOM      4  C   UNL     1      -1.302  33.535  62.928  1.00  0.00    -0.000 C 
BRANCH   4   5
ATOM      5  C   UNL     1      -1.329  32.162  63.618  1.00  0.00    -0.000 C 
BRANCH   5   6
ATOM      6  C   UNL     1       0.048  31.743  64.158  1.00  0.00    -0.000 C 
BRANCH   6   7
ATOM      7  C   UNL     1       1.132  31.737  63.067  1.00  0.00    -0.000 C 
BRANCH   7   8
ATOM      8  C   UNL     1       0.937  30.611  62.040  1.00  0.00    -0.000 C 
BRANCH   8   9
ATOM      9  C   UNL     1       0.678  31.188  60.639  1.00  0.00    -0.000 C 
BRANCH   9  10
ATOM     10  C   UNL     1       1.408  32.520  60.402  1.00  0.00    -0.000 C 
BRANCH  10  11
ATOM     11  C   UNL     1       2.791  32.330  59.760  1.00  0.00    -0.003 C 
ATOM     12  C   UNL     1       2.696  32.334  58.238  1.00  0.00     0.004 C 
ENDBRANCH  10  11
ENDBRANCH   9  10
ENDBRANCH   8   9
ENDBRANCH   7   8
ENDBRANCH   6   7
ENDBRANCH   5   6
ENDBRANCH   4   5
ENDBRANCH   3   4
ENDBRANCH   2   3
ENDBRANCH   1   2
BRANCH   1  13
ATOM     13  C   UNL     1      -4.583  30.984  59.983  1.00  0.00     0.000 C 
BRANCH  13  14
ATOM     14  C   UNL     1      -4.631  30.228  58.646  1.00  0.00     0.000 C 
BRANCH  14  15
ATOM     15  C   UNL     1      -3.408  30.518  57.758  1.00  0.00     0.000 C 
BRANCH  15  16
ATOM     16  C   UNL     1      -2.888  29.258  57.046  1.00  0.00     0.000 C 
BRANCH  16  17
ATOM     17  C   UNL     1      -3.991  28.534  56.254  1.00  0.00     0.000 C 
BRANCH  17  18
ATOM     18  C   UNL     1      -3.610  27.086  55.902  1.00  0.00     0.000 C 
BRANCH  18  19
ATOM     19  C   UNL     1      -3.881  26.750  54.425  1.00  0.00     0.000 C 
BRANCH  19  20
ATOM     20  C   UNL     1      -2.617  26.297  53.678  1.00  0.00     0.006 C 
BRANCH  20  21
ATOM     21  C   UNL     1      -1.359  26.349  54.554  1.00  0.00     0.053 C 
BRANCH  21  22
ATOM     22  C   UNL     1      -0.243  25.591  53.908  1.00  0.00     0.041 C 
ATOM     23  O   UNL     1       0.729  25.183  54.597  1.00  0.00    -0.550 OA
ATOM     24  O   UNL     1      -0.252  25.375  52.535  1.00  0.00    -0.550 OA
ENDBRANCH  21  22
ENDBRANCH  20  21
ENDBRANCH  19  20
ENDBRANCH  18  19
ENDBRANCH  17  18
ENDBRANCH  16  17
ENDBRANCH  15  16
ENDBRANCH  14  15
ENDBRANCH  13  14
ENDBRANCH   1  13
TORSDOF 20
ENDMDL
