MODEL 1
REMARK VINA RESULT:    -6.514      0.000      0.000
REMARK INTER + INTRA:          -7.160
REMARK INTER:                  -6.894
REMARK INTRA:                  -0.265
REMARK UNBOUND:                -0.265
REMARK SMILES O=c1cc(-c2ccccc2)oc2ccccc12
REMARK SMILES IDX 4 1 3 2 2 3 1 4 17 5 16 6 15 7 14 8 13 9 12 10 11 11 5 12
REMARK SMILES IDX 8 13 7 14 9 15 6 16 10 17
REMARK H PARENT
REMARK Flexibility Score: inf
ROOT
ATOM      1  C   UNL     1      13.034   9.969  12.734  1.00  0.00     0.138 A 
ATOM      2  C   UNL     1      13.082  10.636  13.977  1.00  0.00     0.100 A 
ATOM      3  C   UNL     1      11.920  10.747  14.743  1.00  0.00     0.193 A 
ATOM      4  O   UNL     1      11.963  11.343  15.854  1.00  0.00    -0.289 OA
ATOM      5  C   UNL     1      10.724  10.194  14.267  1.00  0.00     0.065 A 
ATOM      6  C   UNL     1       9.518  10.271  14.989  1.00  0.00     0.016 A 
ATOM      7  C   UNL     1       8.352   9.702  14.466  1.00  0.00     0.001 A 
ATOM      8  C   UNL     1       8.379   9.056  13.228  1.00  0.00     0.004 A 
ATOM      9  C   UNL     1       9.572   8.974  12.504  1.00  0.00     0.048 A 
ATOM     10  C   UNL     1      10.744   9.540  13.016  1.00  0.00     0.138 A 
ATOM     11  O   UNL     1      11.874   9.459  12.320  1.00  0.00    -0.456 OA
ENDROOT
BRANCH   1  12
ATOM     12  C   UNL     1      14.231   9.806  11.852  1.00  0.00     0.017 A 
ATOM     13  C   UNL     1      16.539   9.556  10.246  1.00  0.00     0.000 A 
ATOM     14  C   UNL     1      15.367   8.887   9.893  1.00  0.00     0.001 A 
ATOM     15  C   UNL     1      16.569  10.348  11.393  1.00  0.00     0.001 A 
ATOM     16  C   UNL     1      14.221   9.007  10.685  1.00  0.00     0.012 A 
ATOM     17  C   UNL     1      15.427  10.474  12.190  1.00  0.00     0.012 A 
ENDBRANCH   1  12
TORSDOF 1
ENDMDL
MODEL 2
REMARK VINA RESULT:    -6.379      1.602      5.933
REMARK INTER + INTRA:          -7.018
REMARK INTER:                  -6.797
REMARK INTRA:                  -0.220
REMARK UNBOUND:                -0.265
REMARK SMILES O=c1cc(-c2ccccc2)oc2ccccc12
REMARK SMILES IDX 4 1 3 2 2 3 1 4 17 5 16 6 15 7 14 8 13 9 12 10 11 11 5 12
REMARK SMILES IDX 8 13 7 14 9 15 6 16 10 17
REMARK H PARENT
REMARK Flexibility Score: inf
ROOT
ATOM      1  C   UNL     1      12.060  10.005  13.181  1.00  0.00     0.138 A 
ATOM      2  C   UNL     1      13.068   9.129  13.635  1.00  0.00     0.100 A 
ATOM      3  C   UNL     1      14.394   9.350  13.255  1.00  0.00     0.193 A 
ATOM      4  O   UNL     1      15.295   8.566  13.661  1.00  0.00    -0.289 OA
ATOM      5  C   UNL     1      14.703  10.439  12.429  1.00  0.00     0.065 A 
ATOM      6  C   UNL     1      16.018  10.717  12.010  1.00  0.00     0.016 A 
ATOM      7  C   UNL     1      16.270  11.817  11.184  1.00  0.00     0.001 A 
ATOM      8  C   UNL     1      15.221  12.644  10.772  1.00  0.00     0.004 A 
ATOM      9  C   UNL     1      13.913  12.374  11.185  1.00  0.00     0.048 A 
ATOM     10  C   UNL     1      13.647  11.277  12.010  1.00  0.00     0.138 A 
ATOM     11  O   UNL     1      12.400  11.028  12.396  1.00  0.00    -0.456 OA
ENDROOT
BRANCH   1  12
ATOM     12  C   UNL     1      10.618   9.842  13.540  1.00  0.00     0.017 A 
ATOM     13  C   UNL     1       7.909   9.590  14.295  1.00  0.00     0.000 A 
ATOM     14  C   UNL     1       8.377   8.948  13.148  1.00  0.00     0.001 A 
ATOM     15  C   UNL     1       8.781  10.356  15.067  1.00  0.00     0.001 A 
ATOM     16  C   UNL     1       9.717   9.070  12.770  1.00  0.00     0.012 A 
ATOM     17  C   UNL     1      10.123  10.482  14.696  1.00  0.00     0.012 A 
ENDBRANCH   1  12
TORSDOF 1
ENDMDL
MODEL 3
REMARK VINA RESULT:    -6.049      1.545      2.657
REMARK INTER + INTRA:          -6.668
REMARK INTER:                  -6.441
REMARK INTRA:                  -0.227
REMARK UNBOUND:                -0.265
REMARK SMILES O=c1cc(-c2ccccc2)oc2ccccc12
REMARK SMILES IDX 4 1 3 2 2 3 1 4 17 5 16 6 15 7 14 8 13 9 12 10 11 11 5 12
REMARK SMILES IDX 8 13 7 14 9 15 6 16 10 17
REMARK H PARENT
REMARK Flexibility Score: inf
ROOT
ATOM      1  C   UNL     1      12.832  10.493  12.344  1.00  0.00     0.138 A 
ATOM      2  C   UNL     1      11.989   9.796  11.452  1.00  0.00     0.100 A 
ATOM      3  C   UNL     1      10.750   9.331  11.898  1.00  0.00     0.193 A 
ATOM      4  O   UNL     1       9.997   8.708  11.100  1.00  0.00    -0.289 OA
ATOM      5  C   UNL     1      10.362   9.562  13.224  1.00  0.00     0.065 A 
ATOM      6  C   UNL     1       9.128   9.120  13.736  1.00  0.00     0.016 A 
ATOM      7  C   UNL     1       8.791   9.377  15.069  1.00  0.00     0.001 A 
ATOM      8  C   UNL     1       9.675  10.073  15.896  1.00  0.00     0.004 A 
ATOM      9  C   UNL     1      10.903  10.516  15.396  1.00  0.00     0.048 A 
ATOM     10  C   UNL     1      11.252  10.265  14.065  1.00  0.00     0.138 A 
ATOM     11  O   UNL     1      12.422  10.689  13.598  1.00  0.00    -0.456 OA
ENDROOT
BRANCH   1  12
ATOM     12  C   UNL     1      14.172  11.025  11.950  1.00  0.00     0.017 A 
ATOM     13  C   UNL     1      16.745  11.962  11.263  1.00  0.00     0.000 A 
ATOM     14  C   UNL     1      15.612  12.568  10.718  1.00  0.00     0.001 A 
ATOM     15  C   UNL     1      16.604  10.893  12.147  1.00  0.00     0.001 A 
ATOM     16  C   UNL     1      14.336  12.107  11.055  1.00  0.00     0.012 A 
ATOM     17  C   UNL     1      15.332  10.427  12.489  1.00  0.00     0.012 A 
ENDBRANCH   1  12
TORSDOF 1
ENDMDL
MODEL 4
REMARK VINA RESULT:    -5.919      1.492      6.046
REMARK INTER + INTRA:          -6.531
REMARK INTER:                  -6.304
REMARK INTRA:                  -0.227
REMARK UNBOUND:                -0.265
REMARK SMILES O=c1cc(-c2ccccc2)oc2ccccc12
REMARK SMILES IDX 4 1 3 2 2 3 1 4 17 5 16 6 15 7 14 8 13 9 12 10 11 11 5 12
REMARK SMILES IDX 8 13 7 14 9 15 6 16 10 17
REMARK H PARENT
REMARK Flexibility Score: inf
ROOT
ATOM      1  C   UNL     1      11.999  10.390  12.753  1.00  0.00     0.138 A 
ATOM      2  C   UNL     1      12.312  11.701  12.336  1.00  0.00     0.100 A 
ATOM      3  C   UNL     1      13.541  11.952  11.723  1.00  0.00     0.193 A 
ATOM      4  O   UNL     1      13.820  13.125  11.350  1.00  0.00    -0.289 OA
ATOM      5  C   UNL     1      14.445  10.900  11.530  1.00  0.00     0.065 A 
ATOM      6  C   UNL     1      15.699  11.086  10.918  1.00  0.00     0.016 A 
ATOM      7  C   UNL     1      16.564   9.999  10.751  1.00  0.00     0.001 A 
ATOM      8  C   UNL     1      16.188   8.727  11.189  1.00  0.00     0.004 A 
ATOM      9  C   UNL     1      14.943   8.533  11.797  1.00  0.00     0.048 A 
ATOM     10  C   UNL     1      14.070   9.612  11.970  1.00  0.00     0.138 A 
ATOM     11  O   UNL     1      12.890   9.418  12.550  1.00  0.00    -0.456 OA
ENDROOT
BRANCH   1  12
ATOM     12  C   UNL     1      10.708  10.033  13.417  1.00  0.00     0.017 A 
ATOM     13  C   UNL     1       8.242   9.314  14.589  1.00  0.00     0.000 A 
ATOM     14  C   UNL     1       9.170  10.059  15.317  1.00  0.00     0.001 A 
ATOM     15  C   UNL     1       8.534   8.925  13.282  1.00  0.00     0.001 A 
ATOM     16  C   UNL     1      10.393  10.418  14.741  1.00  0.00     0.012 A 
ATOM     17  C   UNL     1       9.754   9.280  12.699  1.00  0.00     0.012 A 
ENDBRANCH   1  12
TORSDOF 1
ENDMDL
MODEL 5
REMARK VINA RESULT:    -5.751      5.051      7.105
REMARK INTER + INTRA:          -6.352
REMARK INTER:                  -6.092
REMARK INTRA:                  -0.261
REMARK UNBOUND:                -0.265
REMARK SMILES O=c1cc(-c2ccccc2)oc2ccccc12
REMARK SMILES IDX 4 1 3 2 2 3 1 4 17 5 16 6 15 7 14 8 13 9 12 10 11 11 5 12
REMARK SMILES IDX 8 13 7 14 9 15 6 16 10 17
REMARK H PARENT
REMARK Flexibility Score: inf
ROOT
ATOM      1  C   UNL     1      15.623   6.279  12.869  1.00  0.00     0.138 A 
ATOM      2  C   UNL     1      16.110   5.613  14.013  1.00  0.00     0.100 A 
ATOM      3  C   UNL     1      16.471   4.267  13.924  1.00  0.00     0.193 A 
ATOM      4  O   UNL     1      16.907   3.672  14.947  1.00  0.00    -0.289 OA
ATOM      5  C   UNL     1      16.344   3.598  12.699  1.00  0.00     0.065 A 
ATOM      6  C   UNL     1      16.690   2.243  12.542  1.00  0.00     0.016 A 
ATOM      7  C   UNL     1      16.543   1.624  11.296  1.00  0.00     0.001 A 
ATOM      8  C   UNL     1      16.053   2.346  10.205  1.00  0.00     0.004 A 
ATOM      9  C   UNL     1      15.708   3.693  10.353  1.00  0.00     0.048 A 
ATOM     10  C   UNL     1      15.850   4.323  11.593  1.00  0.00     0.138 A 
ATOM     11  O   UNL     1      15.518   5.603  11.724  1.00  0.00    -0.456 OA
ENDROOT
BRANCH   1  12
ATOM     12  C   UNL     1      15.214   7.718  12.877  1.00  0.00     0.017 A 
ATOM     13  C   UNL     1      14.431  10.428  12.989  1.00  0.00     0.000 A 
ATOM     14  C   UNL     1      14.765   9.847  11.765  1.00  0.00     0.001 A 
ATOM     15  C   UNL     1      14.485   9.668  14.156  1.00  0.00     0.001 A 
ATOM     16  C   UNL     1      15.153   8.506  11.704  1.00  0.00     0.012 A 
ATOM     17  C   UNL     1      14.871   8.325  14.104  1.00  0.00     0.012 A 
ENDBRANCH   1  12
TORSDOF 1
ENDMDL
MODEL 6
REMARK VINA RESULT:    -5.740      2.749      3.767
REMARK INTER + INTRA:          -6.341
REMARK INTER:                  -6.094
REMARK INTRA:                  -0.247
REMARK UNBOUND:                -0.265
REMARK SMILES O=c1cc(-c2ccccc2)oc2ccccc12
REMARK SMILES IDX 4 1 3 2 2 3 1 4 17 5 16 6 15 7 14 8 13 9 12 10 11 11 5 12
REMARK SMILES IDX 8 13 7 14 9 15 6 16 10 17
REMARK H PARENT
REMARK Flexibility Score: inf
ROOT
ATOM      1  C   UNL     1      14.511   8.837  12.867  1.00  0.00     0.138 A 
ATOM      2  C   UNL     1      14.859   9.908  12.017  1.00  0.00     0.100 A 
ATOM      3  C   UNL     1      14.143  11.105  12.090  1.00  0.00     0.193 A 
ATOM      4  O   UNL     1      14.456  12.063  11.330  1.00  0.00    -0.289 OA
ATOM      5  C   UNL     1      13.090  11.225  13.006  1.00  0.00     0.065 A 
ATOM      6  C   UNL     1      12.329  12.403  13.130  1.00  0.00     0.016 A 
ATOM      7  C   UNL     1      11.287  12.468  14.060  1.00  0.00     0.001 A 
ATOM      8  C   UNL     1      10.997  11.367  14.870  1.00  0.00     0.004 A 
ATOM      9  C   UNL     1      11.749  10.193  14.754  1.00  0.00     0.048 A 
ATOM     10  C   UNL     1      12.793  10.116  13.827  1.00  0.00     0.138 A 
ATOM     11  O   UNL     1      13.500   8.996  13.723  1.00  0.00    -0.456 OA
ENDROOT
BRANCH   1  12
ATOM     12  C   UNL     1      15.224   7.523  12.855  1.00  0.00     0.017 A 
ATOM     13  C   UNL     1      16.572   5.046  12.734  1.00  0.00     0.000 A 
ATOM     14  C   UNL     1      16.236   5.598  13.970  1.00  0.00     0.001 A 
ATOM     15  C   UNL     1      16.241   5.718  11.559  1.00  0.00     0.001 A 
ATOM     16  C   UNL     1      15.568   6.825  14.035  1.00  0.00     0.012 A 
ATOM     17  C   UNL     1      15.573   6.945  11.615  1.00  0.00     0.012 A 
ENDBRANCH   1  12
TORSDOF 1
ENDMDL
MODEL 7
REMARK VINA RESULT:    -5.630      2.976      4.035
REMARK INTER + INTRA:          -6.225
REMARK INTER:                  -5.959
REMARK INTRA:                  -0.266
REMARK UNBOUND:                -0.265
REMARK SMILES O=c1cc(-c2ccccc2)oc2ccccc12
REMARK SMILES IDX 4 1 3 2 2 3 1 4 17 5 16 6 15 7 14 8 13 9 12 10 11 11 5 12
REMARK SMILES IDX 8 13 7 14 9 15 6 16 10 17
REMARK H PARENT
REMARK Flexibility Score: inf
ROOT
ATOM      1  C   UNL     1      14.528   8.747  12.836  1.00  0.00     0.138 A 
ATOM      2  C   UNL     1      14.070   9.379  14.011  1.00  0.00     0.100 A 
ATOM      3  C   UNL     1      13.395  10.598  13.919  1.00  0.00     0.193 A 
ATOM      4  O   UNL     1      12.986  11.162  14.970  1.00  0.00    -0.289 OA
ATOM      5  C   UNL     1      13.182  11.175  12.660  1.00  0.00     0.065 A 
ATOM      6  C   UNL     1      12.509  12.400  12.498  1.00  0.00     0.016 A 
ATOM      7  C   UNL     1      12.324  12.933  11.217  1.00  0.00     0.001 A 
ATOM      8  C   UNL     1      12.805  12.251  10.096  1.00  0.00     0.004 A 
ATOM      9  C   UNL     1      13.474  11.033  10.249  1.00  0.00     0.048 A 
ATOM     10  C   UNL     1      13.666  10.491  11.524  1.00  0.00     0.138 A 
ATOM     11  O   UNL     1      14.303   9.333  11.659  1.00  0.00    -0.456 OA
ENDROOT
BRANCH   1  12
ATOM     12  C   UNL     1      15.258   7.442  12.845  1.00  0.00     0.017 A 
ATOM     13  C   UNL     1      16.641   4.982  12.764  1.00  0.00     0.000 A 
ATOM     14  C   UNL     1      16.266   5.533  13.990  1.00  0.00     0.001 A 
ATOM     15  C   UNL     1      16.332   5.648  11.579  1.00  0.00     0.001 A 
ATOM     16  C   UNL     1      15.581   6.751  14.035  1.00  0.00     0.012 A 
ATOM     17  C   UNL     1      15.647   6.866  11.616  1.00  0.00     0.012 A 
ENDBRANCH   1  12
TORSDOF 1
ENDMDL
MODEL 8
REMARK VINA RESULT:    -5.520      4.442      6.087
REMARK INTER + INTRA:          -6.108
REMARK INTER:                  -5.865
REMARK INTRA:                  -0.243
REMARK UNBOUND:                -0.265
REMARK SMILES O=c1cc(-c2ccccc2)oc2ccccc12
REMARK SMILES IDX 4 1 3 2 2 3 1 4 17 5 16 6 15 7 14 8 13 9 12 10 11 11 5 12
REMARK SMILES IDX 8 13 7 14 9 15 6 16 10 17
REMARK H PARENT
REMARK Flexibility Score: inf
ROOT
ATOM      1  C   UNL     1      15.638   6.268  12.671  1.00  0.00     0.138 A 
ATOM      2  C   UNL     1      15.681   6.738  11.341  1.00  0.00     0.100 A 
ATOM      3  C   UNL     1      15.302   8.053  11.064  1.00  0.00     0.193 A 
ATOM      4  O   UNL     1      15.341   8.473   9.875  1.00  0.00    -0.289 OA
ATOM      5  C   UNL     1      14.883   8.886  12.110  1.00  0.00     0.065 A 
ATOM      6  C   UNL     1      14.488  10.220  11.898  1.00  0.00     0.016 A 
ATOM      7  C   UNL     1      14.077  11.008  12.979  1.00  0.00     0.001 A 
ATOM      8  C   UNL     1      14.059  10.476  14.270  1.00  0.00     0.004 A 
ATOM      9  C   UNL     1      14.451   9.151  14.489  1.00  0.00     0.048 A 
ATOM     10  C   UNL     1      14.862   8.354  13.417  1.00  0.00     0.138 A 
ATOM     11  O   UNL     1      15.232   7.096  13.635  1.00  0.00    -0.456 OA
ENDROOT
BRANCH   1  12
ATOM     12  C   UNL     1      16.027   4.876  13.055  1.00  0.00     0.017 A 
ATOM     13  C   UNL     1      16.707   2.215  13.707  1.00  0.00     0.000 A 
ATOM     14  C   UNL     1      17.212   3.271  14.466  1.00  0.00     0.001 A 
ATOM     15  C   UNL     1      15.866   2.476  12.626  1.00  0.00     0.001 A 
ATOM     16  C   UNL     1      16.878   4.591  14.148  1.00  0.00     0.012 A 
ATOM     17  C   UNL     1      15.527   3.793  12.302  1.00  0.00     0.012 A 
ENDBRANCH   1  12
TORSDOF 1
ENDMDL
MODEL 9
REMARK VINA RESULT:    -4.959      3.713      5.143
REMARK INTER + INTRA:          -5.515
REMARK INTER:                  -5.255
REMARK INTRA:                  -0.260
REMARK UNBOUND:                -0.265
REMARK SMILES O=c1cc(-c2ccccc2)oc2ccccc12
REMARK SMILES IDX 4 1 3 2 2 3 1 4 17 5 16 6 15 7 14 8 13 9 12 10 11 11 5 12
REMARK SMILES IDX 8 13 7 14 9 15 6 16 10 17
REMARK H PARENT
REMARK Flexibility Score: inf
ROOT
ATOM      1  C   UNL     1      15.253   7.375  12.882  1.00  0.00     0.138 A 
ATOM      2  C   UNL     1      14.909   8.160  14.002  1.00  0.00     0.100 A 
ATOM      3  C   UNL     1      14.453   9.466  13.814  1.00  0.00     0.193 A 
ATOM      4  O   UNL     1      14.145  10.167  14.817  1.00  0.00    -0.289 OA
ATOM      5  C   UNL     1      14.342   9.978  12.514  1.00  0.00     0.065 A 
ATOM      6  C   UNL     1      13.889  11.285  12.256  1.00  0.00     0.016 A 
ATOM      7  C   UNL     1      13.799  11.746  10.938  1.00  0.00     0.001 A 
ATOM      8  C   UNL     1      14.157  10.913   9.875  1.00  0.00     0.004 A 
ATOM      9  C   UNL     1      14.607   9.613  10.123  1.00  0.00     0.048 A 
ATOM     10  C   UNL     1      14.702   9.141  11.437  1.00  0.00     0.138 A 
ATOM     11  O   UNL     1      15.133   7.904  11.663  1.00  0.00    -0.456 OA
ENDROOT
BRANCH   1  12
ATOM     12  C   UNL     1      15.749   5.969  12.994  1.00  0.00     0.017 A 
ATOM     13  C   UNL     1      16.657   3.299  13.113  1.00  0.00     0.000 A 
ATOM     14  C   UNL     1      16.809   4.138  14.217  1.00  0.00     0.001 A 
ATOM     15  C   UNL     1      16.056   3.780  11.951  1.00  0.00     0.001 A 
ATOM     16  C   UNL     1      16.361   5.462  14.163  1.00  0.00     0.012 A 
ATOM     17  C   UNL     1      15.605   5.102  11.889  1.00  0.00     0.012 A 
ENDBRANCH   1  12
TORSDOF 1
ENDMDL
