MODEL 1
REMARK VINA RESULT:    -1.904      0.000      0.000
REMARK INTER + INTRA:          -2.320
REMARK INTER:                  -2.238
REMARK INTRA:                  -0.082
REMARK UNBOUND:                -0.082
REMARK SMILES O=C([O-])CCC(=O)[O-]
REMARK SMILES IDX 4 1 2 2 1 3 3 4 5 5 6 6 7 7 8 8
REMARK H PARENT
REMARK Flexibility Score: inf
ROOT
ATOM      1  C   UNL     1      23.989  28.080  14.899  1.00  0.00     0.059 C 
ENDROOT
BRANCH   1   2
ATOM      2  C   UNL     1      24.948  28.113  16.048  1.00  0.00     0.042 C 
ATOM      3  O   UNL     1      24.712  28.841  17.049  1.00  0.00    -0.550 OA
ATOM      4  O   UNL     1      26.125  27.378  15.993  1.00  0.00    -0.550 OA
ENDBRANCH   1   2
BRANCH   1   5
ATOM      5  C   UNL     1      23.937  29.444  14.208  1.00  0.00     0.059 C 
BRANCH   5   6
ATOM      6  C   UNL     1      24.695  29.405  12.918  1.00  0.00     0.042 C 
ATOM      7  O   UNL     1      24.198  29.909  11.876  1.00  0.00    -0.550 OA
ATOM      8  O   UNL     1      25.929  28.770  12.854  1.00  0.00    -0.550 OA
ENDBRANCH   5   6
ENDBRANCH   1   5
TORSDOF 3
ENDMDL
MODEL 2
REMARK VINA RESULT:    -1.893      0.712      3.897
REMARK INTER + INTRA:          -2.307
REMARK INTER:                  -2.193
REMARK INTRA:                  -0.115
REMARK UNBOUND:                -0.082
REMARK SMILES O=C([O-])CCC(=O)[O-]
REMARK SMILES IDX 4 1 2 2 1 3 3 4 5 5 6 6 7 7 8 8
REMARK H PARENT
REMARK Flexibility Score: inf
ROOT
ATOM      1  C   UNL     1      23.830  28.720  14.042  1.00  0.00     0.059 C 
ENDROOT
BRANCH   1   2
ATOM      2  C   UNL     1      24.767  29.178  12.969  1.00  0.00     0.042 C 
ATOM      3  O   UNL     1      25.948  28.740  12.930  1.00  0.00    -0.550 OA
ATOM      4  O   UNL     1      24.352  30.125  12.042  1.00  0.00    -0.550 OA
ENDBRANCH   1   2
BRANCH   1   5
ATOM      5  C   UNL     1      24.221  29.330  15.390  1.00  0.00     0.059 C 
BRANCH   5   6
ATOM      6  C   UNL     1      24.731  28.271  16.315  1.00  0.00     0.042 C 
ATOM      7  O   UNL     1      25.801  27.660  16.050  1.00  0.00    -0.550 OA
ATOM      8  O   UNL     1      24.002  27.924  17.445  1.00  0.00    -0.550 OA
ENDBRANCH   5   6
ENDBRANCH   1   5
TORSDOF 3
ENDMDL
MODEL 3
REMARK VINA RESULT:    -1.855      1.459      3.675
REMARK INTER + INTRA:          -2.262
REMARK INTER:                  -2.111
REMARK INTRA:                  -0.151
REMARK UNBOUND:                -0.082
REMARK SMILES O=C([O-])CCC(=O)[O-]
REMARK SMILES IDX 4 1 2 2 1 3 3 4 5 5 6 6 7 7 8 8
REMARK H PARENT
REMARK Flexibility Score: inf
ROOT
ATOM      1  C   UNL     1      23.902  28.140  13.684  1.00  0.00     0.059 C 
ENDROOT
BRANCH   1   2
ATOM      2  C   UNL     1      24.899  28.975  12.944  1.00  0.00     0.042 C 
ATOM      3  O   UNL     1      26.120  28.666  12.957  1.00  0.00    -0.550 OA
ATOM      4  O   UNL     1      24.487  30.123  12.280  1.00  0.00    -0.550 OA
ENDBRANCH   1   2
BRANCH   1   5
ATOM      5  C   UNL     1      24.132  28.244  15.193  1.00  0.00     0.059 C 
BRANCH   5   6
ATOM      6  C   UNL     1      23.627  29.555  15.708  1.00  0.00     0.042 C 
ATOM      7  O   UNL     1      24.210  30.125  16.669  1.00  0.00    -0.550 OA
ATOM      8  O   UNL     1      22.485  30.125  15.161  1.00  0.00    -0.550 OA
ENDBRANCH   5   6
ENDBRANCH   1   5
TORSDOF 3
ENDMDL
MODEL 4
REMARK VINA RESULT:    -1.845      0.496      3.706
REMARK INTER + INTRA:          -2.251
REMARK INTER:                  -2.144
REMARK INTRA:                  -0.106
REMARK UNBOUND:                -0.082
REMARK SMILES O=C([O-])CCC(=O)[O-]
REMARK SMILES IDX 4 1 2 2 1 3 3 4 5 5 6 6 7 7 8 8
REMARK H PARENT
REMARK Flexibility Score: inf
ROOT
ATOM      1  C   UNL     1      23.893  29.780  14.261  1.00  0.00     0.059 C 
ENDROOT
BRANCH   1   2
ATOM      2  C   UNL     1      24.579  29.423  12.979  1.00  0.00     0.042 C 
ATOM      3  O   UNL     1      24.018  29.650  11.875  1.00  0.00    -0.550 OA
ATOM      4  O   UNL     1      25.818  28.795  13.006  1.00  0.00    -0.550 OA
ENDBRANCH   1   2
BRANCH   1   5
ATOM      5  C   UNL     1      23.736  28.542  15.145  1.00  0.00     0.059 C 
BRANCH   5   6
ATOM      6  C   UNL     1      24.656  28.621  16.322  1.00  0.00     0.042 C 
ATOM      7  O   UNL     1      24.441  29.457  17.240  1.00  0.00    -0.550 OA
ATOM      8  O   UNL     1      25.778  27.804  16.385  1.00  0.00    -0.550 OA
ENDBRANCH   5   6
ENDBRANCH   1   5
TORSDOF 3
ENDMDL
MODEL 5
REMARK VINA RESULT:    -1.819      2.009      3.365
REMARK INTER + INTRA:          -2.220
REMARK INTER:                  -2.069
REMARK INTRA:                  -0.151
REMARK UNBOUND:                -0.082
REMARK SMILES O=C([O-])CCC(=O)[O-]
REMARK SMILES IDX 4 1 2 2 1 3 3 4 5 5 6 6 7 7 8 8
REMARK H PARENT
REMARK Flexibility Score: inf
ROOT
ATOM      1  C   UNL     1      23.910  28.919  14.203  1.00  0.00     0.059 C 
ENDROOT
BRANCH   1   2
ATOM      2  C   UNL     1      24.802  29.253  13.049  1.00  0.00     0.042 C 
ATOM      3  O   UNL     1      24.392  30.008  12.128  1.00  0.00    -0.550 OA
ATOM      4  O   UNL     1      26.070  28.692  12.966  1.00  0.00    -0.550 OA
ENDBRANCH   1   2
BRANCH   1   5
ATOM      5  C   UNL     1      22.818  27.940  13.768  1.00  0.00     0.059 C 
BRANCH   5   6
ATOM      6  C   UNL     1      23.416  26.618  13.405  1.00  0.00     0.042 C 
ATOM      7  O   UNL     1      23.275  26.156  12.241  1.00  0.00    -0.550 OA
ATOM      8  O   UNL     1      24.090  25.872  14.364  1.00  0.00    -0.550 OA
ENDBRANCH   5   6
ENDBRANCH   1   5
TORSDOF 3
ENDMDL
MODEL 6
REMARK VINA RESULT:    -1.793      2.034      2.573
REMARK INTER + INTRA:          -2.190
REMARK INTER:                  -2.013
REMARK INTRA:                  -0.177
REMARK UNBOUND:                -0.082
REMARK SMILES O=C([O-])CCC(=O)[O-]
REMARK SMILES IDX 4 1 2 2 1 3 3 4 5 5 6 6 7 7 8 8
REMARK H PARENT
REMARK Flexibility Score: inf
ROOT
ATOM      1  C   UNL     1      25.256  28.885  12.986  1.00  0.00     0.059 C 
ENDROOT
BRANCH   1   2
ATOM      2  C   UNL     1      24.958  28.625  14.430  1.00  0.00     0.042 C 
ATOM      3  O   UNL     1      25.299  27.535  14.961  1.00  0.00    -0.550 OA
ATOM      4  O   UNL     1      24.260  29.566  15.176  1.00  0.00    -0.550 OA
ENDBRANCH   1   2
BRANCH   1   5
ATOM      5  C   UNL     1      23.973  29.238  12.231  1.00  0.00     0.059 C 
BRANCH   5   6
ATOM      6  C   UNL     1      23.017  28.089  12.261  1.00  0.00     0.042 C 
ATOM      7  O   UNL     1      21.839  28.254  12.677  1.00  0.00    -0.550 OA
ATOM      8  O   UNL     1      23.438  26.822  11.875  1.00  0.00    -0.550 OA
ENDBRANCH   5   6
ENDBRANCH   1   5
TORSDOF 3
ENDMDL
MODEL 7
REMARK VINA RESULT:    -1.714     26.763     27.539
REMARK INTER + INTRA:          -2.096
REMARK INTER:                  -1.995
REMARK INTRA:                  -0.101
REMARK UNBOUND:                -0.082
REMARK SMILES O=C([O-])CCC(=O)[O-]
REMARK SMILES IDX 4 1 2 2 1 3 3 4 5 5 6 6 7 7 8 8
REMARK H PARENT
REMARK Flexibility Score: inf
ROOT
ATOM      1  C   UNL     1       7.369  11.950  27.550  1.00  0.00     0.059 C 
ENDROOT
BRANCH   1   2
ATOM      2  C   UNL     1       7.603  10.535  27.120  1.00  0.00     0.042 C 
ATOM      3  O   UNL     1       6.676   9.876  26.579  1.00  0.00    -0.550 OA
ATOM      4  O   UNL     1       8.829   9.929  27.360  1.00  0.00    -0.550 OA
ENDBRANCH   1   2
BRANCH   1   5
ATOM      5  C   UNL     1       5.942  12.382  27.212  1.00  0.00     0.059 C 
BRANCH   5   6
ATOM      6  C   UNL     1       5.956  13.509  26.229  1.00  0.00     0.042 C 
ATOM      7  O   UNL     1       6.085  13.275  24.998  1.00  0.00    -0.550 OA
ATOM      8  O   UNL     1       5.876  14.823  26.675  1.00  0.00    -0.550 OA
ENDBRANCH   5   6
ENDBRANCH   1   5
TORSDOF 3
ENDMDL
MODEL 8
REMARK VINA RESULT:    -1.615      1.672      2.346
REMARK INTER + INTRA:          -1.980
REMARK INTER:                  -1.812
REMARK INTRA:                  -0.168
REMARK UNBOUND:                -0.082
REMARK SMILES O=C([O-])CCC(=O)[O-]
REMARK SMILES IDX 4 1 2 2 1 3 3 4 5 5 6 6 7 7 8 8
REMARK H PARENT
REMARK Flexibility Score: inf
ROOT
ATOM      1  C   UNL     1      22.433  28.608  13.819  1.00  0.00     0.059 C 
ENDROOT
BRANCH   1   2
ATOM      2  C   UNL     1      22.996  28.713  15.202  1.00  0.00     0.042 C 
ATOM      3  O   UNL     1      23.275  27.671  15.853  1.00  0.00    -0.550 OA
ATOM      4  O   UNL     1      23.168  29.959  15.790  1.00  0.00    -0.550 OA
ENDBRANCH   1   2
BRANCH   1   5
ATOM      5  C   UNL     1      23.451  27.967  12.874  1.00  0.00     0.059 C 
BRANCH   5   6
ATOM      6  C   UNL     1      24.574  28.915  12.596  1.00  0.00     0.042 C 
ATOM      7  O   UNL     1      25.744  28.639  12.975  1.00  0.00    -0.550 OA
ATOM      8  O   UNL     1      24.324  30.125  11.962  1.00  0.00    -0.550 OA
ENDBRANCH   5   6
ENDBRANCH   1   5
TORSDOF 3
ENDMDL
MODEL 9
REMARK VINA RESULT:    -1.423      2.189      2.635
REMARK INTER + INTRA:          -1.754
REMARK INTER:                  -1.664
REMARK INTRA:                  -0.090
REMARK UNBOUND:                -0.082
REMARK SMILES O=C([O-])CCC(=O)[O-]
REMARK SMILES IDX 4 1 2 2 1 3 3 4 5 5 6 6 7 7 8 8
REMARK H PARENT
REMARK Flexibility Score: inf
ROOT
ATOM      1  C   UNL     1      23.219  27.386  13.712  1.00  0.00     0.059 C 
ENDROOT
BRANCH   1   2
ATOM      2  C   UNL     1      23.699  26.002  14.022  1.00  0.00     0.042 C 
ATOM      3  O   UNL     1      23.321  25.028  13.318  1.00  0.00    -0.550 OA
ATOM      4  O   UNL     1      24.525  25.782  15.116  1.00  0.00    -0.550 OA
ENDBRANCH   1   2
BRANCH   1   5
ATOM      5  C   UNL     1      23.770  27.853  12.364  1.00  0.00     0.059 C 
BRANCH   5   6
ATOM      6  C   UNL     1      24.784  28.936  12.561  1.00  0.00     0.042 C 
ATOM      7  O   UNL     1      24.511  30.125  12.245  1.00  0.00    -0.550 OA
ATOM      8  O   UNL     1      26.047  28.627  13.048  1.00  0.00    -0.550 OA
ENDBRANCH   5   6
ENDBRANCH   1   5
TORSDOF 3
ENDMDL
