MODEL 1
REMARK VINA RESULT:    -3.997      0.000      0.000
REMARK INTER + INTRA:          -6.221
REMARK INTER:                  -5.866
REMARK INTRA:                  -0.355
REMARK UNBOUND:                -0.355
REMARK SMILES O=C([O-])CCCCCCCC(=O)[O-]
REMARK SMILES IDX 7 1 6 2 5 3 4 4 2 5 1 6 3 7 8 8 9 9 10 10 11 11 12 12 13 13
REMARK H PARENT
REMARK Flexibility Score: inf
ROOT
ATOM      1  C   UNL     1      44.351  66.800  49.771  1.00  0.00     0.000 C 
ENDROOT
BRANCH   1   2
ATOM      2  C   UNL     1      43.992  66.470  48.318  1.00  0.00     0.000 C 
BRANCH   2   3
ATOM      3  C   UNL     1      42.539  66.849  48.009  1.00  0.00     0.006 C 
BRANCH   3   4
ATOM      4  C   UNL     1      42.171  66.490  46.567  1.00  0.00     0.053 C 
BRANCH   4   5
ATOM      5  C   UNL     1      42.070  65.007  46.405  1.00  0.00     0.041 C 
ATOM      6  O   UNL     1      41.069  64.387  46.852  1.00  0.00    -0.550 OA
ATOM      7  O   UNL     1      43.059  64.314  45.718  1.00  0.00    -0.550 OA
ENDBRANCH   4   5
ENDBRANCH   3   4
ENDBRANCH   2   3
ENDBRANCH   1   2
BRANCH   1   8
ATOM      8  C   UNL     1      45.433  65.850  50.300  1.00  0.00     0.000 C 
BRANCH   8   9
ATOM      9  C   UNL     1      45.138  65.429  51.744  1.00  0.00     0.006 C 
BRANCH   9  10
ATOM     10  C   UNL     1      44.126  66.376  52.397  1.00  0.00     0.053 C 
BRANCH  10  11
ATOM     11  C   UNL     1      43.237  65.625  53.337  1.00  0.00     0.041 C 
ATOM     12  O   UNL     1      42.076  66.047  53.584  1.00  0.00    -0.550 OA
ATOM     13  O   UNL     1      43.706  64.486  53.978  1.00  0.00    -0.550 OA
ENDBRANCH  10  11
ENDBRANCH   9  10
ENDBRANCH   8   9
ENDBRANCH   1   8
TORSDOF 8
ENDMDL
MODEL 2
REMARK VINA RESULT:    -3.992      0.858      5.970
REMARK INTER + INTRA:          -6.214
REMARK INTER:                  -5.915
REMARK INTRA:                  -0.299
REMARK UNBOUND:                -0.355
REMARK SMILES O=C([O-])CCCCCCCC(=O)[O-]
REMARK SMILES IDX 7 1 6 2 5 3 4 4 2 5 1 6 3 7 8 8 9 9 10 10 11 11 12 12 13 13
REMARK H PARENT
REMARK Flexibility Score: inf
ROOT
ATOM      1  C   UNL     1      44.264  66.510  49.671  1.00  0.00     0.000 C 
ENDROOT
BRANCH   1   2
ATOM      2  C   UNL     1      45.454  65.803  50.330  1.00  0.00     0.000 C 
BRANCH   2   3
ATOM      3  C   UNL     1      45.069  65.236  51.701  1.00  0.00     0.006 C 
BRANCH   3   4
ATOM      4  C   UNL     1      44.218  66.236  52.490  1.00  0.00     0.053 C 
BRANCH   4   5
ATOM      5  C   UNL     1      43.259  65.517  53.385  1.00  0.00     0.041 C 
ATOM      6  O   UNL     1      43.650  64.541  54.079  1.00  0.00    -0.550 OA
ATOM      7  O   UNL     1      41.945  65.955  53.490  1.00  0.00    -0.550 OA
ENDBRANCH   4   5
ENDBRANCH   3   4
ENDBRANCH   2   3
ENDBRANCH   1   2
BRANCH   1   8
ATOM      8  C   UNL     1      44.292  66.333  48.148  1.00  0.00     0.000 C 
BRANCH   8   9
ATOM      9  C   UNL     1      42.936  66.690  47.527  1.00  0.00     0.006 C 
BRANCH   9  10
ATOM     10  C   UNL     1      42.438  65.566  46.613  1.00  0.00     0.053 C 
BRANCH  10  11
ATOM     11  C   UNL     1      41.054  65.151  47.001  1.00  0.00     0.041 C 
ATOM     12  O   UNL     1      40.652  63.982  46.762  1.00  0.00    -0.550 OA
ATOM     13  O   UNL     1      40.190  66.069  47.585  1.00  0.00    -0.550 OA
ENDBRANCH  10  11
ENDBRANCH   9  10
ENDBRANCH   8   9
ENDBRANCH   1   8
TORSDOF 8
ENDMDL
MODEL 3
REMARK VINA RESULT:    -3.936      9.306     11.439
REMARK INTER + INTRA:          -6.131
REMARK INTER:                  -5.849
REMARK INTRA:                  -0.283
REMARK UNBOUND:                -0.355
REMARK SMILES O=C([O-])CCCCCCCC(=O)[O-]
REMARK SMILES IDX 7 1 6 2 5 3 4 4 2 5 1 6 3 7 8 8 9 9 10 10 11 11 12 12 13 13
REMARK H PARENT
REMARK Flexibility Score: inf
ROOT
ATOM      1  C   UNL     1      35.658  65.672  54.766  1.00  0.00     0.000 C 
ENDROOT
BRANCH   1   2
ATOM      2  C   UNL     1      36.222  64.269  54.510  1.00  0.00     0.000 C 
BRANCH   2   3
ATOM      3  C   UNL     1      36.418  63.506  55.825  1.00  0.00     0.006 C 
BRANCH   3   4
ATOM      4  C   UNL     1      36.149  62.010  55.639  1.00  0.00     0.053 C 
BRANCH   4   5
ATOM      5  C   UNL     1      37.424  61.234  55.719  1.00  0.00     0.041 C 
ATOM      6  O   UNL     1      38.459  61.762  56.206  1.00  0.00    -0.550 OA
ATOM      7  O   UNL     1      37.459  59.909  55.300  1.00  0.00    -0.550 OA
ENDBRANCH   4   5
ENDBRANCH   3   4
ENDBRANCH   2   3
ENDBRANCH   1   2
BRANCH   1   8
ATOM      8  C   UNL     1      34.318  65.600  55.509  1.00  0.00     0.000 C 
BRANCH   8   9
ATOM      9  C   UNL     1      33.452  66.826  55.202  1.00  0.00     0.006 C 
BRANCH   9  10
ATOM     10  C   UNL     1      32.034  66.411  54.800  1.00  0.00     0.053 C 
BRANCH  10  11
ATOM     11  C   UNL     1      31.560  67.224  53.637  1.00  0.00     0.041 C 
ATOM     12  O   UNL     1      32.202  67.215  52.554  1.00  0.00    -0.550 OA
ATOM     13  O   UNL     1      30.435  68.029  53.764  1.00  0.00    -0.550 OA
ENDBRANCH  10  11
ENDBRANCH   9  10
ENDBRANCH   8   9
ENDBRANCH   1   8
TORSDOF 8
ENDMDL
MODEL 4
REMARK VINA RESULT:    -3.792      1.774      6.485
REMARK INTER + INTRA:          -5.921
REMARK INTER:                  -5.534
REMARK INTRA:                  -0.387
REMARK UNBOUND:                -0.355
REMARK SMILES O=C([O-])CCCCCCCC(=O)[O-]
REMARK SMILES IDX 7 1 6 2 5 3 4 4 2 5 1 6 3 7 8 8 9 9 10 10 11 11 12 12 13 13
REMARK H PARENT
REMARK Flexibility Score: inf
ROOT
ATOM      1  C   UNL     1      44.955  65.462  52.041  1.00  0.00     0.000 C 
ENDROOT
BRANCH   1   2
ATOM      2  C   UNL     1      43.885  66.463  52.492  1.00  0.00     0.000 C 
BRANCH   2   3
ATOM      3  C   UNL     1      42.928  65.827  53.506  1.00  0.00     0.006 C 
BRANCH   3   4
ATOM      4  C   UNL     1      43.516  64.538  54.085  1.00  0.00     0.053 C 
BRANCH   4   5
ATOM      5  C   UNL     1      43.354  64.509  55.572  1.00  0.00     0.041 C 
ATOM      6  O   UNL     1      43.847  63.566  56.245  1.00  0.00    -0.550 OA
ATOM      7  O   UNL     1      42.698  65.548  56.220  1.00  0.00    -0.550 OA
ENDBRANCH   4   5
ENDBRANCH   3   4
ENDBRANCH   2   3
ENDBRANCH   1   2
BRANCH   1   8
ATOM      8  C   UNL     1      45.395  65.738  50.598  1.00  0.00     0.000 C 
BRANCH   8   9
ATOM      9  C   UNL     1      44.464  66.752  49.924  1.00  0.00     0.006 C 
BRANCH   9  10
ATOM     10  C   UNL     1      44.299  66.441  48.433  1.00  0.00     0.053 C 
BRANCH  10  11
ATOM     11  C   UNL     1      42.907  66.752  47.985  1.00  0.00     0.041 C 
ATOM     12  O   UNL     1      42.098  67.314  48.770  1.00  0.00    -0.550 OA
ATOM     13  O   UNL     1      42.484  66.379  46.715  1.00  0.00    -0.550 OA
ENDBRANCH  10  11
ENDBRANCH   9  10
ENDBRANCH   8   9
ENDBRANCH   1   8
TORSDOF 8
ENDMDL
MODEL 5
REMARK VINA RESULT:    -3.698      9.486     10.232
REMARK INTER + INTRA:          -5.783
REMARK INTER:                  -5.510
REMARK INTRA:                  -0.273
REMARK UNBOUND:                -0.355
REMARK SMILES O=C([O-])CCCCCCCC(=O)[O-]
REMARK SMILES IDX 7 1 6 2 5 3 4 4 2 5 1 6 3 7 8 8 9 9 10 10 11 11 12 12 13 13
REMARK H PARENT
REMARK Flexibility Score: inf
ROOT
ATOM      1  C   UNL     1      35.906  64.975  54.681  1.00  0.00     0.000 C 
ENDROOT
BRANCH   1   2
ATOM      2  C   UNL     1      34.708  65.479  55.494  1.00  0.00     0.000 C 
BRANCH   2   3
ATOM      3  C   UNL     1      34.189  66.813  54.942  1.00  0.00     0.006 C 
BRANCH   3   4
ATOM      4  C   UNL     1      34.710  67.061  53.524  1.00  0.00     0.053 C 
BRANCH   4   5
ATOM      5  C   UNL     1      33.572  67.239  52.570  1.00  0.00     0.041 C 
ATOM      6  O   UNL     1      33.782  67.262  51.329  1.00  0.00    -0.550 OA
ATOM      7  O   UNL     1      32.271  67.332  53.051  1.00  0.00    -0.550 OA
ENDBRANCH   4   5
ENDBRANCH   3   4
ENDBRANCH   2   3
ENDBRANCH   1   2
BRANCH   1   8
ATOM      8  C   UNL     1      36.783  64.035  55.518  1.00  0.00     0.000 C 
BRANCH   8   9
ATOM      9  C   UNL     1      36.202  62.616  55.541  1.00  0.00     0.006 C 
BRANCH   9  10
ATOM     10  C   UNL     1      37.290  61.583  55.847  1.00  0.00     0.053 C 
BRANCH  10  11
ATOM     11  C   UNL     1      36.706  60.207  55.895  1.00  0.00     0.041 C 
ATOM     12  O   UNL     1      35.786  59.936  56.712  1.00  0.00    -0.550 OA
ATOM     13  O   UNL     1      37.209  59.208  55.071  1.00  0.00    -0.550 OA
ENDBRANCH  10  11
ENDBRANCH   9  10
ENDBRANCH   8   9
ENDBRANCH   1   8
TORSDOF 8
ENDMDL
MODEL 6
REMARK VINA RESULT:    -3.696      1.825      5.715
REMARK INTER + INTRA:          -5.779
REMARK INTER:                  -5.276
REMARK INTRA:                  -0.503
REMARK UNBOUND:                -0.355
REMARK SMILES O=C([O-])CCCCCCCC(=O)[O-]
REMARK SMILES IDX 7 1 6 2 5 3 4 4 2 5 1 6 3 7 8 8 9 9 10 10 11 11 12 12 13 13
REMARK H PARENT
REMARK Flexibility Score: inf
ROOT
ATOM      1  C   UNL     1      41.995  67.813  50.156  1.00  0.00     0.000 C 
ENDROOT
BRANCH   1   2
ATOM      2  C   UNL     1      43.174  67.613  49.197  1.00  0.00     0.000 C 
BRANCH   2   3
ATOM      3  C   UNL     1      44.409  67.092  49.942  1.00  0.00     0.006 C 
BRANCH   3   4
ATOM      4  C   UNL     1      44.103  66.870  51.426  1.00  0.00     0.053 C 
BRANCH   4   5
ATOM      5  C   UNL     1      44.666  65.564  51.887  1.00  0.00     0.041 C 
ATOM      6  O   UNL     1      44.224  65.016  52.932  1.00  0.00    -0.550 OA
ATOM      7  O   UNL     1      45.647  64.926  51.138  1.00  0.00    -0.550 OA
ENDBRANCH   4   5
ENDBRANCH   3   4
ENDBRANCH   2   3
ENDBRANCH   1   2
BRANCH   1   8
ATOM      8  C   UNL     1      40.664  67.832  49.395  1.00  0.00     0.000 C 
BRANCH   8   9
ATOM      9  C   UNL     1      40.858  67.409  47.934  1.00  0.00     0.006 C 
BRANCH   9  10
ATOM     10  C   UNL     1      40.081  66.127  47.626  1.00  0.00     0.053 C 
BRANCH  10  11
ATOM     11  C   UNL     1      40.974  65.116  46.980  1.00  0.00     0.041 C 
ATOM     12  O   UNL     1      40.597  63.920  46.861  1.00  0.00    -0.550 OA
ATOM     13  O   UNL     1      42.243  65.482  46.551  1.00  0.00    -0.550 OA
ENDBRANCH  10  11
ENDBRANCH   9  10
ENDBRANCH   8   9
ENDBRANCH   1   8
TORSDOF 8
ENDMDL
MODEL 7
REMARK VINA RESULT:    -3.692      9.786     10.691
REMARK INTER + INTRA:          -5.773
REMARK INTER:                  -5.597
REMARK INTRA:                  -0.176
REMARK UNBOUND:                -0.355
REMARK SMILES O=C([O-])CCCCCCCC(=O)[O-]
REMARK SMILES IDX 7 1 6 2 5 3 4 4 2 5 1 6 3 7 8 8 9 9 10 10 11 11 12 12 13 13
REMARK H PARENT
REMARK Flexibility Score: inf
ROOT
ATOM      1  C   UNL     1      36.124  64.429  54.714  1.00  0.00     0.000 C 
ENDROOT
BRANCH   1   2
ATOM      2  C   UNL     1      35.225  65.555  55.237  1.00  0.00     0.000 C 
BRANCH   2   3
ATOM      3  C   UNL     1      34.911  66.569  54.131  1.00  0.00     0.006 C 
BRANCH   3   4
ATOM      4  C   UNL     1      33.757  67.488  54.538  1.00  0.00     0.053 C 
BRANCH   4   5
ATOM      5  C   UNL     1      32.453  66.938  54.055  1.00  0.00     0.041 C 
ATOM      6  O   UNL     1      31.767  66.187  54.798  1.00  0.00    -0.550 OA
ATOM      7  O   UNL     1      31.971  67.292  52.801  1.00  0.00    -0.550 OA
ENDBRANCH   4   5
ENDBRANCH   3   4
ENDBRANCH   2   3
ENDBRANCH   1   2
BRANCH   1   8
ATOM      8  C   UNL     1      36.609  63.534  55.862  1.00  0.00     0.000 C 
BRANCH   8   9
ATOM      9  C   UNL     1      36.285  62.061  55.586  1.00  0.00     0.006 C 
BRANCH   9  10
ATOM     10  C   UNL     1      37.510  61.174  55.825  1.00  0.00     0.053 C 
BRANCH  10  11
ATOM     11  C   UNL     1      37.101  59.741  55.955  1.00  0.00     0.041 C 
ATOM     12  O   UNL     1      36.791  59.271  57.082  1.00  0.00    -0.550 OA
ATOM     13  O   UNL     1      37.109  58.911  54.842  1.00  0.00    -0.550 OA
ENDBRANCH  10  11
ENDBRANCH   9  10
ENDBRANCH   8   9
ENDBRANCH   1   8
TORSDOF 8
ENDMDL
MODEL 8
REMARK VINA RESULT:    -3.681      9.317     10.918
REMARK INTER + INTRA:          -5.758
REMARK INTER:                  -5.446
REMARK INTRA:                  -0.312
REMARK UNBOUND:                -0.355
REMARK SMILES O=C([O-])CCCCCCCC(=O)[O-]
REMARK SMILES IDX 7 1 6 2 5 3 4 4 2 5 1 6 3 7 8 8 9 9 10 10 11 11 12 12 13 13
REMARK H PARENT
REMARK Flexibility Score: inf
ROOT
ATOM      1  C   UNL     1      36.204  62.052  55.509  1.00  0.00     0.000 C 
ENDROOT
BRANCH   1   2
ATOM      2  C   UNL     1      37.189  62.976  56.236  1.00  0.00     0.000 C 
BRANCH   2   3
ATOM      3  C   UNL     1      37.293  64.334  55.531  1.00  0.00     0.006 C 
BRANCH   3   4
ATOM      4  C   UNL     1      36.073  64.587  54.641  1.00  0.00     0.053 C 
BRANCH   4   5
ATOM      5  C   UNL     1      35.321  65.790  55.113  1.00  0.00     0.041 C 
ATOM      6  O   UNL     1      34.091  65.708  55.371  1.00  0.00    -0.550 OA
ATOM      7  O   UNL     1      35.988  66.993  55.313  1.00  0.00    -0.550 OA
ENDBRANCH   4   5
ENDBRANCH   3   4
ENDBRANCH   2   3
ENDBRANCH   1   2
BRANCH   1   8
ATOM      8  C   UNL     1      36.128  60.682  56.193  1.00  0.00     0.000 C 
BRANCH   8   9
ATOM      9  C   UNL     1      37.183  59.725  55.625  1.00  0.00     0.006 C 
BRANCH   9  10
ATOM     10  C   UNL     1      37.488  58.594  56.613  1.00  0.00     0.053 C 
BRANCH  10  11
ATOM     11  C   UNL     1      37.299  57.263  55.958  1.00  0.00     0.041 C 
ATOM     12  O   UNL     1      36.902  57.193  54.765  1.00  0.00    -0.550 OA
ATOM     13  O   UNL     1      37.516  56.096  56.680  1.00  0.00    -0.550 OA
ENDBRANCH  10  11
ENDBRANCH   9  10
ENDBRANCH   8   9
ENDBRANCH   1   8
TORSDOF 8
ENDMDL
MODEL 9
REMARK VINA RESULT:    -3.656     10.637     12.786
REMARK INTER + INTRA:          -5.720
REMARK INTER:                  -5.378
REMARK INTRA:                  -0.342
REMARK UNBOUND:                -0.355
REMARK SMILES O=C([O-])CCCCCCCC(=O)[O-]
REMARK SMILES IDX 7 1 6 2 5 3 4 4 2 5 1 6 3 7 8 8 9 9 10 10 11 11 12 12 13 13
REMARK H PARENT
REMARK Flexibility Score: inf
ROOT
ATOM      1  C   UNL     1      37.176  57.635  55.545  1.00  0.00     0.000 C 
ENDROOT
BRANCH   1   2
ATOM      2  C   UNL     1      37.152  59.113  55.141  1.00  0.00     0.000 C 
BRANCH   2   3
ATOM      3  C   UNL     1      36.842  60.009  56.346  1.00  0.00     0.006 C 
BRANCH   3   4
ATOM      4  C   UNL     1      36.231  61.340  55.900  1.00  0.00     0.053 C 
BRANCH   4   5
ATOM      5  C   UNL     1      37.262  62.424  55.925  1.00  0.00     0.041 C 
ATOM      6  O   UNL     1      38.474  62.142  56.117  1.00  0.00    -0.550 OA
ATOM      7  O   UNL     1      36.890  63.742  55.689  1.00  0.00    -0.550 OA
ENDBRANCH   4   5
ENDBRANCH   3   4
ENDBRANCH   2   3
ENDBRANCH   1   2
BRANCH   1   8
ATOM      8  C   UNL     1      37.642  57.468  56.997  1.00  0.00     0.000 C 
BRANCH   8   9
ATOM      9  C   UNL     1      36.964  56.261  57.657  1.00  0.00     0.006 C 
BRANCH   9  10
ATOM     10  C   UNL     1      36.848  55.091  56.675  1.00  0.00     0.053 C 
BRANCH  10  11
ATOM     11  C   UNL     1      35.503  54.446  56.787  1.00  0.00     0.041 C 
ATOM     12  O   UNL     1      35.028  53.798  55.817  1.00  0.00    -0.550 OA
ATOM     13  O   UNL     1      34.751  54.600  57.944  1.00  0.00    -0.550 OA
ENDBRANCH  10  11
ENDBRANCH   9  10
ENDBRANCH   8   9
ENDBRANCH   1   8
TORSDOF 8
ENDMDL
