MODEL 1
REMARK VINA RESULT:    -4.034      0.000      0.000
REMARK INTER + INTRA:          -4.505
REMARK INTER:                  -4.505
REMARK INTRA:                   0.000
REMARK UNBOUND:                 0.000
REMARK SMILES Oc1cc(O)c2c(ccc3ccc(O)c(O)c32)c1
REMARK SMILES IDX 9 1 8 2 7 3 18 4 2 5 3 6 4 7 6 8 17 9 10 10 11 11 12 12
REMARK SMILES IDX 13 13 15 14 16 15 1 17 5 19 14 21
REMARK H PARENT 16 16 1 18 5 20 14 22
REMARK Flexibility Score: inf
ROOT
ATOM      1  C   UNL     1     113.876 127.888 109.213  1.00  0.00     0.009 A 
ATOM      2  C   UNL     1     113.941 129.260 109.422  1.00  0.00     0.009 A 
ATOM      3  C   UNL     1     115.069 129.984 109.020  1.00  0.00    -0.010 A 
ATOM      4  C   UNL     1     115.076 131.378 109.174  1.00  0.00     0.055 A 
ATOM      5  C   UNL     1     116.129 132.139 108.663  1.00  0.00     0.119 A 
ATOM      6  C   UNL     1     117.146 131.514 107.945  1.00  0.00     0.093 A 
ATOM      7  C   UNL     1     117.145 130.124 107.760  1.00  0.00     0.127 A 
ATOM      8  C   UNL     1     116.173 129.318 108.417  1.00  0.00     0.035 A 
ATOM      9  C   UNL     1     116.191 127.884 108.416  1.00  0.00     0.039 A 
ATOM     10  C   UNL     1     114.985 127.192 108.724  1.00  0.00    -0.014 A 
ATOM     11  C   UNL     1     114.914 125.800 108.583  1.00  0.00     0.013 A 
ATOM     12  C   UNL     1     116.033 125.075 108.196  1.00  0.00     0.051 A 
ATOM     13  C   UNL     1     117.264 125.709 108.033  1.00  0.00     0.158 A 
ATOM     14  C   UNL     1     117.369 127.106 108.233  1.00  0.00     0.166 A 
ENDROOT
BRANCH  14  15
ATOM     15  O   UNL     1     118.625 127.700 108.377  1.00  0.00    -0.504 OA
ATOM     16  H   UNL     1     119.449 127.406 107.870  1.00  0.00     0.293 HD
ENDBRANCH  14  15
BRANCH   5  17
ATOM     17  O   UNL     1     116.156 133.521 108.830  1.00  0.00    -0.508 OA
ATOM     18  H   UNL     1     115.305 134.055 108.971  1.00  0.00     0.293 HD
ENDBRANCH   5  17
BRANCH   7  19
ATOM     19  O   UNL     1     118.049 129.577 106.849  1.00  0.00    -0.507 OA
ATOM     20  H   UNL     1     119.012 129.385 107.100  1.00  0.00     0.293 HD
ENDBRANCH   7  19
BRANCH  13  21
ATOM     21  O   UNL     1     118.362 124.921 107.681  1.00  0.00    -0.504 OA
ATOM     22  H   UNL     1     119.311 125.132 107.959  1.00  0.00     0.293 HD
ENDBRANCH  13  21
TORSDOF 4
ENDMDL
MODEL 2
REMARK VINA RESULT:    -4.013     11.331     13.058
REMARK INTER + INTRA:          -4.482
REMARK INTER:                  -4.482
REMARK INTRA:                   0.000
REMARK UNBOUND:                 0.000
REMARK SMILES Oc1cc(O)c2c(ccc3ccc(O)c(O)c32)c1
REMARK SMILES IDX 9 1 8 2 7 3 18 4 2 5 3 6 4 7 6 8 17 9 10 10 11 11 12 12
REMARK SMILES IDX 13 13 15 14 16 15 1 17 5 19 14 21
REMARK H PARENT 16 16 1 18 5 20 14 22
REMARK Flexibility Score: inf
ROOT
ATOM      1  C   UNL     1     120.162 114.241 108.979  1.00  0.00     0.009 A 
ATOM      2  C   UNL     1     121.400 114.837 109.180  1.00  0.00     0.009 A 
ATOM      3  C   UNL     1     121.592 116.189 108.874  1.00  0.00    -0.010 A 
ATOM      4  C   UNL     1     122.830 116.785 109.157  1.00  0.00     0.055 A 
ATOM      5  C   UNL     1     123.008 118.159 108.986  1.00  0.00     0.119 A 
ATOM      6  C   UNL     1     121.932 118.949 108.590  1.00  0.00     0.093 A 
ATOM      7  C   UNL     1     120.679 118.376 108.324  1.00  0.00     0.127 A 
ATOM      8  C   UNL     1     120.527 116.961 108.328  1.00  0.00     0.035 A 
ATOM      9  C   UNL     1     119.332 116.284 107.916  1.00  0.00     0.039 A 
ATOM     10  C   UNL     1     119.132 114.942 108.347  1.00  0.00    -0.014 A 
ATOM     11  C   UNL     1     117.913 114.296 108.100  1.00  0.00     0.013 A 
ATOM     12  C   UNL     1     116.910 114.937 107.384  1.00  0.00     0.051 A 
ATOM     13  C   UNL     1     117.136 116.193 106.822  1.00  0.00     0.158 A 
ATOM     14  C   UNL     1     118.383 116.834 107.008  1.00  0.00     0.166 A 
ENDROOT
BRANCH  14  15
ATOM     15  O   UNL     1     118.733 117.928 106.212  1.00  0.00    -0.504 OA
ATOM     16  H   UNL     1     118.610 117.958 105.209  1.00  0.00     0.293 HD
ENDBRANCH  14  15
BRANCH   5  17
ATOM     17  O   UNL     1     124.240 118.755 109.243  1.00  0.00    -0.508 OA
ATOM     18  H   UNL     1     124.981 118.760 108.550  1.00  0.00     0.293 HD
ENDBRANCH   5  17
BRANCH   7  19
ATOM     19  O   UNL     1     119.585 119.225 108.156  1.00  0.00    -0.507 OA
ATOM     20  H   UNL     1     119.433 120.028 108.756  1.00  0.00     0.293 HD
ENDBRANCH   7  19
BRANCH  13  21
ATOM     21  O   UNL     1     116.103 116.770 106.080  1.00  0.00    -0.504 OA
ATOM     22  H   UNL     1     116.170 117.680 105.646  1.00  0.00     0.293 HD
ENDBRANCH  13  21
TORSDOF 4
ENDMDL
MODEL 3
REMARK VINA RESULT:    -4.013     12.079     13.710
REMARK INTER + INTRA:          -4.482
REMARK INTER:                  -4.482
REMARK INTRA:                   0.000
REMARK UNBOUND:                 0.000
REMARK SMILES Oc1cc(O)c2c(ccc3ccc(O)c(O)c32)c1
REMARK SMILES IDX 9 1 8 2 7 3 18 4 2 5 3 6 4 7 6 8 17 9 10 10 11 11 12 12
REMARK SMILES IDX 13 13 15 14 16 15 1 17 5 19 14 21
REMARK H PARENT 16 16 1 18 5 20 14 22
REMARK Flexibility Score: inf
ROOT
ATOM      1  C   UNL     1     120.943 113.875 108.955  1.00  0.00     0.009 A 
ATOM      2  C   UNL     1     122.277 114.250 108.863  1.00  0.00     0.009 A 
ATOM      3  C   UNL     1     122.623 115.584 108.623  1.00  0.00    -0.010 A 
ATOM      4  C   UNL     1     123.977 115.949 108.611  1.00  0.00     0.055 A 
ATOM      5  C   UNL     1     124.347 117.291 108.506  1.00  0.00     0.119 A 
ATOM      6  C   UNL     1     123.363 118.276 108.474  1.00  0.00     0.093 A 
ATOM      7  C   UNL     1     122.003 117.935 108.509  1.00  0.00     0.127 A 
ATOM      8  C   UNL     1     121.609 116.568 108.444  1.00  0.00     0.035 A 
ATOM      9  C   UNL     1     120.249 116.134 108.313  1.00  0.00     0.039 A 
ATOM     10  C   UNL     1     119.928 114.795 108.677  1.00  0.00    -0.014 A 
ATOM     11  C   UNL     1     118.592 114.374 108.714  1.00  0.00     0.013 A 
ATOM     12  C   UNL     1     117.572 115.241 108.344  1.00  0.00     0.051 A 
ATOM     13  C   UNL     1     117.868 116.508 107.842  1.00  0.00     0.158 A 
ATOM     14  C   UNL     1     119.215 116.926 107.737  1.00  0.00     0.166 A 
ENDROOT
BRANCH  14  15
ATOM     15  O   UNL     1     119.543 118.043 106.964  1.00  0.00    -0.504 OA
ATOM     16  H   UNL     1     120.282 118.054 106.275  1.00  0.00     0.293 HD
ENDBRANCH  14  15
BRANCH   5  17
ATOM     17  O   UNL     1     125.690 117.659 108.470  1.00  0.00    -0.508 OA
ATOM     18  H   UNL     1     126.405 117.102 108.926  1.00  0.00     0.293 HD
ENDBRANCH   5  17
BRANCH   7  19
ATOM     19  O   UNL     1     121.070 118.952 108.705  1.00  0.00    -0.507 OA
ATOM     20  H   UNL     1     120.103 118.755 108.938  1.00  0.00     0.293 HD
ENDBRANCH   7  19
BRANCH  13  21
ATOM     21  O   UNL     1     116.802 117.319 107.450  1.00  0.00    -0.504 OA
ATOM     22  H   UNL     1     116.845 118.329 107.438  1.00  0.00     0.293 HD
ENDBRANCH  13  21
TORSDOF 4
ENDMDL
MODEL 4
REMARK VINA RESULT:    -4.011      0.965      4.969
REMARK INTER + INTRA:          -4.480
REMARK INTER:                  -4.480
REMARK INTRA:                   0.000
REMARK UNBOUND:                 0.000
REMARK SMILES Oc1cc(O)c2c(ccc3ccc(O)c(O)c32)c1
REMARK SMILES IDX 9 1 8 2 7 3 18 4 2 5 3 6 4 7 6 8 17 9 10 10 11 11 12 12
REMARK SMILES IDX 13 13 15 14 16 15 1 17 5 19 14 21
REMARK H PARENT 16 16 1 18 5 20 14 22
REMARK Flexibility Score: inf
ROOT
ATOM      1  C   UNL     1     113.916 128.080 108.900  1.00  0.00     0.009 A 
ATOM      2  C   UNL     1     114.357 126.767 108.807  1.00  0.00     0.009 A 
ATOM      3  C   UNL     1     115.708 126.489 108.570  1.00  0.00    -0.010 A 
ATOM      4  C   UNL     1     116.139 125.154 108.556  1.00  0.00     0.055 A 
ATOM      5  C   UNL     1     117.498 124.852 108.454  1.00  0.00     0.119 A 
ATOM      6  C   UNL     1     118.433 125.884 108.427  1.00  0.00     0.093 A 
ATOM      7  C   UNL     1     118.024 127.225 108.464  1.00  0.00     0.127 A 
ATOM      8  C   UNL     1     116.640 127.551 108.395  1.00  0.00     0.035 A 
ATOM      9  C   UNL     1     116.139 128.888 108.267  1.00  0.00     0.039 A 
ATOM     10  C   UNL     1     114.785 129.141 108.627  1.00  0.00    -0.014 A 
ATOM     11  C   UNL     1     114.298 130.454 108.666  1.00  0.00     0.013 A 
ATOM     12  C   UNL     1     115.114 131.517 108.301  1.00  0.00     0.051 A 
ATOM     13  C   UNL     1     116.395 131.285 107.802  1.00  0.00     0.158 A 
ATOM     14  C   UNL     1     116.880 129.961 107.695  1.00  0.00     0.166 A 
ENDROOT
BRANCH  14  15
ATOM     15  O   UNL     1     118.015 129.691 106.925  1.00  0.00    -0.504 OA
ATOM     16  H   UNL     1     118.647 130.403 106.584  1.00  0.00     0.293 HD
ENDBRANCH  14  15
BRANCH   5  17
ATOM     17  O   UNL     1     117.933 123.529 108.416  1.00  0.00    -0.508 OA
ATOM     18  H   UNL     1     117.882 122.978 107.566  1.00  0.00     0.293 HD
ENDBRANCH   5  17
BRANCH   7  19
ATOM     19  O   UNL     1     118.994 128.207 108.666  1.00  0.00    -0.507 OA
ATOM     20  H   UNL     1     119.348 128.429 109.589  1.00  0.00     0.293 HD
ENDBRANCH   7  19
BRANCH  13  21
ATOM     21  O   UNL     1     117.154 132.392 107.414  1.00  0.00    -0.504 OA
ATOM     22  H   UNL     1     116.825 133.092 106.764  1.00  0.00     0.293 HD
ENDBRANCH  13  21
TORSDOF 4
ENDMDL
MODEL 5
REMARK VINA RESULT:    -4.004     11.788     13.675
REMARK INTER + INTRA:          -4.472
REMARK INTER:                  -4.472
REMARK INTRA:                   0.000
REMARK UNBOUND:                 0.000
REMARK SMILES Oc1cc(O)c2c(ccc3ccc(O)c(O)c32)c1
REMARK SMILES IDX 9 1 8 2 7 3 18 4 2 5 3 6 4 7 6 8 17 9 10 10 11 11 12 12
REMARK SMILES IDX 13 13 15 14 16 15 1 17 5 19 14 21
REMARK H PARENT 16 16 1 18 5 20 14 22
REMARK Flexibility Score: inf
ROOT
ATOM      1  C   UNL     1     121.135 113.876 109.230  1.00  0.00     0.009 A 
ATOM      2  C   UNL     1     119.764 113.924 109.444  1.00  0.00     0.009 A 
ATOM      3  C   UNL     1     119.024 115.043 109.047  1.00  0.00    -0.010 A 
ATOM      4  C   UNL     1     117.630 115.033 109.206  1.00  0.00     0.055 A 
ATOM      5  C   UNL     1     116.854 116.077 108.699  1.00  0.00     0.119 A 
ATOM      6  C   UNL     1     117.463 117.102 107.979  1.00  0.00     0.093 A 
ATOM      7  C   UNL     1     118.853 117.118 107.788  1.00  0.00     0.127 A 
ATOM      8  C   UNL     1     119.674 116.156 108.441  1.00  0.00     0.035 A 
ATOM      9  C   UNL     1     121.107 116.191 108.433  1.00  0.00     0.039 A 
ATOM     10  C   UNL     1     121.815 114.994 108.738  1.00  0.00    -0.014 A 
ATOM     11  C   UNL     1     123.207 114.940 108.591  1.00  0.00     0.013 A 
ATOM     12  C   UNL     1     123.917 116.068 108.200  1.00  0.00     0.051 A 
ATOM     13  C   UNL     1     123.267 117.292 108.041  1.00  0.00     0.158 A 
ATOM     14  C   UNL     1     121.870 117.379 108.248  1.00  0.00     0.166 A 
ENDROOT
BRANCH  14  15
ATOM     15  O   UNL     1     121.261 118.628 108.395  1.00  0.00    -0.504 OA
ATOM     16  H   UNL     1     121.760 119.472 108.640  1.00  0.00     0.293 HD
ENDBRANCH  14  15
BRANCH   5  17
ATOM     17  O   UNL     1     115.473 116.086 108.874  1.00  0.00    -0.508 OA
ATOM     18  H   UNL     1     115.042 116.537 109.674  1.00  0.00     0.293 HD
ENDBRANCH   5  17
BRANCH   7  19
ATOM     19  O   UNL     1     119.385 118.029 106.876  1.00  0.00    -0.507 OA
ATOM     20  H   UNL     1     120.122 117.771 106.229  1.00  0.00     0.293 HD
ENDBRANCH   7  19
BRANCH  13  21
ATOM     21  O   UNL     1     124.040 118.399 107.686  1.00  0.00    -0.504 OA
ATOM     22  H   UNL     1     124.302 118.613 106.734  1.00  0.00     0.293 HD
ENDBRANCH  13  21
TORSDOF 4
ENDMDL
MODEL 6
REMARK VINA RESULT:    -3.924      1.543      4.768
REMARK INTER + INTRA:          -4.382
REMARK INTER:                  -4.382
REMARK INTRA:                   0.000
REMARK UNBOUND:                 0.000
REMARK SMILES Oc1cc(O)c2c(ccc3ccc(O)c(O)c32)c1
REMARK SMILES IDX 9 1 8 2 7 3 18 4 2 5 3 6 4 7 6 8 17 9 10 10 11 11 12 12
REMARK SMILES IDX 13 13 15 14 16 15 1 17 5 19 14 21
REMARK H PARENT 16 16 1 18 5 20 14 22
REMARK Flexibility Score: inf
ROOT
ATOM      1  C   UNL     1     114.461 129.956 109.924  1.00  0.00     0.009 A 
ATOM      2  C   UNL     1     113.875 128.796 109.435  1.00  0.00     0.009 A 
ATOM      3  C   UNL     1     114.646 127.846 108.756  1.00  0.00    -0.010 A 
ATOM      4  C   UNL     1     114.045 126.649 108.340  1.00  0.00     0.055 A 
ATOM      5  C   UNL     1     114.816 125.629 107.780  1.00  0.00     0.119 A 
ATOM      6  C   UNL     1     116.198 125.779 107.691  1.00  0.00     0.093 A 
ATOM      7  C   UNL     1     116.821 126.959 108.123  1.00  0.00     0.127 A 
ATOM      8  C   UNL     1     116.035 128.071 108.537  1.00  0.00     0.035 A 
ATOM      9  C   UNL     1     116.576 129.363 108.842  1.00  0.00     0.039 A 
ATOM     10  C   UNL     1     115.795 130.254 109.631  1.00  0.00    -0.014 A 
ATOM     11  C   UNL     1     116.343 131.462 110.083  1.00  0.00     0.013 A 
ATOM     12  C   UNL     1     117.633 131.828 109.721  1.00  0.00     0.051 A 
ATOM     13  C   UNL     1     118.365 131.045 108.828  1.00  0.00     0.158 A 
ATOM     14  C   UNL     1     117.802 129.855 108.311  1.00  0.00     0.166 A 
ENDROOT
BRANCH  14  15
ATOM     15  O   UNL     1     118.380 129.233 107.201  1.00  0.00    -0.504 OA
ATOM     16  H   UNL     1     118.289 128.247 106.997  1.00  0.00     0.293 HD
ENDBRANCH  14  15
BRANCH   5  17
ATOM     17  O   UNL     1     114.224 124.447 107.342  1.00  0.00    -0.508 OA
ATOM     18  H   UNL     1     114.639 123.542 107.537  1.00  0.00     0.293 HD
ENDBRANCH   5  17
BRANCH   7  19
ATOM     19  O   UNL     1     118.212 126.972 108.227  1.00  0.00    -0.507 OA
ATOM     20  H   UNL     1     118.696 126.529 109.000  1.00  0.00     0.293 HD
ENDBRANCH   7  19
BRANCH  13  21
ATOM     21  O   UNL     1     119.641 131.485 108.470  1.00  0.00    -0.504 OA
ATOM     22  H   UNL     1     119.867 132.454 108.297  1.00  0.00     0.293 HD
ENDBRANCH  13  21
TORSDOF 4
ENDMDL
MODEL 7
REMARK VINA RESULT:    -3.835      1.656      2.057
REMARK INTER + INTRA:          -4.283
REMARK INTER:                  -4.283
REMARK INTRA:                   0.000
REMARK UNBOUND:                 0.000
REMARK SMILES Oc1cc(O)c2c(ccc3ccc(O)c(O)c32)c1
REMARK SMILES IDX 9 1 8 2 7 3 18 4 2 5 3 6 4 7 6 8 17 9 10 10 11 11 12 12
REMARK SMILES IDX 13 13 15 14 16 15 1 17 5 19 14 21
REMARK H PARENT 16 16 1 18 5 20 14 22
REMARK Flexibility Score: inf
ROOT
ATOM      1  C   UNL     1     114.671 128.277 109.146  1.00  0.00     0.009 A 
ATOM      2  C   UNL     1     114.020 129.492 108.973  1.00  0.00     0.009 A 
ATOM      3  C   UNL     1     114.677 130.567 108.365  1.00  0.00    -0.010 A 
ATOM      4  C   UNL     1     113.972 131.757 108.134  1.00  0.00     0.055 A 
ATOM      5  C   UNL     1     114.560 132.798 107.412  1.00  0.00     0.119 A 
ATOM      6  C   UNL     1     115.830 132.627 106.868  1.00  0.00     0.093 A 
ATOM      7  C   UNL     1     116.543 131.436 107.068  1.00  0.00     0.127 A 
ATOM      8  C   UNL     1     116.030 130.435 107.941  1.00  0.00     0.035 A 
ATOM      9  C   UNL     1     116.758 129.263 108.327  1.00  0.00     0.039 A 
ATOM     10  C   UNL     1     116.029 128.151 108.839  1.00  0.00    -0.014 A 
ATOM     11  C   UNL     1     116.677 126.933 109.083  1.00  0.00     0.013 A 
ATOM     12  C   UNL     1     118.046 126.813 108.882  1.00  0.00     0.051 A 
ATOM     13  C   UNL     1     118.808 127.925 108.525  1.00  0.00     0.158 A 
ATOM     14  C   UNL     1     118.180 129.178 108.337  1.00  0.00     0.166 A 
ENDROOT
BRANCH  14  15
ATOM     15  O   UNL     1     118.946 130.345 108.286  1.00  0.00    -0.504 OA
ATOM     16  H   UNL     1     118.746 131.175 108.827  1.00  0.00     0.293 HD
ENDBRANCH  14  15
BRANCH   5  17
ATOM     17  O   UNL     1     113.875 133.991 107.198  1.00  0.00    -0.508 OA
ATOM     18  H   UNL     1     112.940 134.003 106.804  1.00  0.00     0.293 HD
ENDBRANCH   5  17
BRANCH   7  19
ATOM     19  O   UNL     1     117.701 131.224 106.320  1.00  0.00    -0.507 OA
ATOM     20  H   UNL     1     118.600 131.056 106.759  1.00  0.00     0.293 HD
ENDBRANCH   7  19
BRANCH  13  21
ATOM     21  O   UNL     1     120.186 127.751 108.376  1.00  0.00    -0.504 OA
ATOM     22  H   UNL     1     120.800 127.496 109.137  1.00  0.00     0.293 HD
ENDBRANCH  13  21
TORSDOF 4
ENDMDL
MODEL 8
REMARK VINA RESULT:    -3.762      6.651      9.121
REMARK INTER + INTRA:          -4.202
REMARK INTER:                  -4.202
REMARK INTRA:                   0.000
REMARK UNBOUND:                 0.000
REMARK SMILES Oc1cc(O)c2c(ccc3ccc(O)c(O)c32)c1
REMARK SMILES IDX 9 1 8 2 7 3 18 4 2 5 3 6 4 7 6 8 17 9 10 10 11 11 12 12
REMARK SMILES IDX 13 13 15 14 16 15 1 17 5 19 14 21
REMARK H PARENT 16 16 1 18 5 20 14 22
REMARK Flexibility Score: inf
ROOT
ATOM      1  C   UNL     1     122.605 123.286 106.171  1.00  0.00     0.009 A 
ATOM      2  C   UNL     1     123.901 123.474 105.707  1.00  0.00     0.009 A 
ATOM      3  C   UNL     1     124.695 124.504 106.223  1.00  0.00    -0.010 A 
ATOM      4  C   UNL     1     126.024 124.624 105.792  1.00  0.00     0.055 A 
ATOM      5  C   UNL     1     126.878 125.555 106.385  1.00  0.00     0.119 A 
ATOM      6  C   UNL     1     126.422 126.327 107.451  1.00  0.00     0.093 A 
ATOM      7  C   UNL     1     125.103 126.206 107.913  1.00  0.00     0.127 A 
ATOM      8  C   UNL     1     124.174 125.386 107.212  1.00  0.00     0.035 A 
ATOM      9  C   UNL     1     122.774 125.326 107.514  1.00  0.00     0.039 A 
ATOM     10  C   UNL     1     122.031 124.200 107.060  1.00  0.00    -0.014 A 
ATOM     11  C   UNL     1     120.701 124.022 107.462  1.00  0.00     0.013 A 
ATOM     12  C   UNL     1     120.077 124.969 108.263  1.00  0.00     0.051 A 
ATOM     13  C   UNL     1     120.733 126.153 108.600  1.00  0.00     0.158 A 
ATOM     14  C   UNL     1     122.054 126.379 108.148  1.00  0.00     0.166 A 
ENDROOT
BRANCH  14  15
ATOM     15  O   UNL     1     122.605 127.661 108.209  1.00  0.00    -0.504 OA
ATOM     16  H   UNL     1     122.056 128.508 108.270  1.00  0.00     0.293 HD
ENDBRANCH  14  15
BRANCH   5  17
ATOM     17  O   UNL     1     128.193 125.697 105.947  1.00  0.00    -0.508 OA
ATOM     18  H   UNL     1     128.463 126.440 105.311  1.00  0.00     0.293 HD
ENDBRANCH   5  17
BRANCH   7  19
ATOM     19  O   UNL     1     124.764 126.824 109.117  1.00  0.00    -0.507 OA
ATOM     20  H   UNL     1     124.595 127.821 109.178  1.00  0.00     0.293 HD
ENDBRANCH   7  19
BRANCH  13  21
ATOM     21  O   UNL     1     120.039 127.085 109.374  1.00  0.00    -0.504 OA
ATOM     22  H   UNL     1     119.738 127.985 109.026  1.00  0.00     0.293 HD
ENDBRANCH  13  21
TORSDOF 4
ENDMDL
MODEL 9
REMARK VINA RESULT:    -3.760      8.127     10.763
REMARK INTER + INTRA:          -4.199
REMARK INTER:                  -4.199
REMARK INTRA:                   0.000
REMARK UNBOUND:                 0.000
REMARK SMILES Oc1cc(O)c2c(ccc3ccc(O)c(O)c32)c1
REMARK SMILES IDX 9 1 8 2 7 3 18 4 2 5 3 6 4 7 6 8 17 9 10 10 11 11 12 12
REMARK SMILES IDX 13 13 15 14 16 15 1 17 5 19 14 21
REMARK H PARENT 16 16 1 18 5 20 14 22
REMARK Flexibility Score: inf
ROOT
ATOM      1  C   UNL     1     125.118 125.743 105.555  1.00  0.00     0.009 A 
ATOM      2  C   UNL     1     123.807 125.305 105.422  1.00  0.00     0.009 A 
ATOM      3  C   UNL     1     123.299 124.321 106.277  1.00  0.00    -0.010 A 
ATOM      4  C   UNL     1     121.950 123.952 106.171  1.00  0.00     0.055 A 
ATOM      5  C   UNL     1     121.383 123.072 107.094  1.00  0.00     0.119 A 
ATOM      6  C   UNL     1     122.148 122.606 108.161  1.00  0.00     0.093 A 
ATOM      7  C   UNL     1     123.492 122.981 108.299  1.00  0.00     0.127 A 
ATOM      8  C   UNL     1     124.130 123.738 107.276  1.00  0.00     0.035 A 
ATOM      9  C   UNL     1     125.533 124.030 107.255  1.00  0.00     0.039 A 
ATOM     10  C   UNL     1     125.987 125.115 106.453  1.00  0.00    -0.014 A 
ATOM     11  C   UNL     1     127.322 125.535 106.521  1.00  0.00     0.013 A 
ATOM     12  C   UNL     1     128.229 124.862 107.330  1.00  0.00     0.051 A 
ATOM     13  C   UNL     1     127.847 123.706 108.011  1.00  0.00     0.158 A 
ATOM     14  C   UNL     1     126.519 123.232 107.902  1.00  0.00     0.166 A 
ENDROOT
BRANCH  14  15
ATOM     15  O   UNL     1     126.204 121.935 108.314  1.00  0.00    -0.504 OA
ATOM     16  H   UNL     1     126.723 121.113 108.036  1.00  0.00     0.293 HD
ENDBRANCH  14  15
BRANCH   5  17
ATOM     17  O   UNL     1     120.051 122.683 106.982  1.00  0.00    -0.508 OA
ATOM     18  H   UNL     1     119.640 122.448 106.084  1.00  0.00     0.293 HD
ENDBRANCH   5  17
BRANCH   7  19
ATOM     19  O   UNL     1     124.144 122.679 109.494  1.00  0.00    -0.507 OA
ATOM     20  H   UNL     1     125.107 122.362 109.514  1.00  0.00     0.293 HD
ENDBRANCH   7  19
BRANCH  13  21
ATOM     21  O   UNL     1     128.814 123.052 108.776  1.00  0.00    -0.504 OA
ATOM     22  H   UNL     1     129.138 122.115 108.581  1.00  0.00     0.293 HD
ENDBRANCH  13  21
TORSDOF 4
ENDMDL
