MODEL 1
REMARK VINA RESULT:    -6.832      0.000      0.000
REMARK INTER + INTRA:          -8.109
REMARK INTER:                  -7.830
REMARK INTRA:                  -0.279
REMARK UNBOUND:                -0.279
REMARK SMILES C=C(C)[C@H]1CC[C@]2(C(=O)[O-])CC[C@@]3(C)[C@H](CC[C@@H]4[C@@]5(C)CC[C@@H](O)C(C)(C)[C@H]5CC[C@@]43C)[C@H]12
REMARK SMILES IDX 7 1 6 2 33 3 11 4 5 5 15 6 4 7 12 8 16 9 13 10 17 11 31 12
REMARK SMILES IDX 14 13 18 14 30 15 32 16 19 17 29 18 21 19 20 20 28 21 22 22
REMARK SMILES IDX 25 23 23 24 26 25 27 26 8 27 9 28 10 29 2 30 3 31 1 32 24 33
REMARK H PARENT 24 34
REMARK Flexibility Score: inf
ROOT
ATOM      1  C   UNL     1      14.400  -3.775  31.338  1.00  0.00     0.014 C 
ATOM      2  C   UNL     1      13.404  -4.815  31.885  1.00  0.00     0.014 C 
ATOM      3  C   UNL     1      13.562  -2.463  31.356  1.00  0.00     0.012 C 
ATOM      4  C   UNL     1      15.683  -3.717  32.237  1.00  0.00     0.014 C 
ATOM      5  C   UNL     1      12.571  -4.096  32.932  1.00  0.00     0.009 C 
ATOM      6  C   UNL     1      14.420  -1.152  31.343  1.00  0.00     0.000 C 
ATOM      7  C   UNL     1      12.537  -2.619  32.514  1.00  0.00     0.018 C 
ATOM      8  C   UNL     1      15.810  -2.444  33.088  1.00  0.00     0.008 C 
ATOM      9  C   UNL     1      13.563   0.122  31.399  1.00  0.00     0.005 C 
ATOM     10  C   UNL     1      15.723  -1.115  32.263  1.00  0.00    -0.024 C 
ATOM     11  C   UNL     1      14.460   1.347  31.271  1.00  0.00     0.005 C 
ATOM     12  C   UNL     1      15.788   0.189  33.245  1.00  0.00    -0.024 C 
ATOM     13  C   UNL     1      16.946  -1.125  31.290  1.00  0.00     0.012 C 
ATOM     14  C   UNL     1      15.361   1.557  32.522  1.00  0.00     0.002 C 
ATOM     15  C   UNL     1      17.205   0.367  33.880  1.00  0.00     0.008 C 
ATOM     16  C   UNL     1      14.825  -0.025  34.475  1.00  0.00     0.012 C 
ATOM     17  C   UNL     1      16.466   2.710  32.333  1.00  0.00    -0.026 C 
ATOM     18  C   UNL     1      17.351   1.701  34.616  1.00  0.00     0.005 C 
ATOM     19  C   UNL     1      15.696   4.029  31.961  1.00  0.00     0.010 C 
ATOM     20  C   UNL     1      17.424   2.430  31.135  1.00  0.00     0.012 C 
ATOM     21  C   UNL     1      17.378   2.898  33.636  1.00  0.00     0.003 C 
ATOM     22  C   UNL     1      16.473   5.342  32.111  1.00  0.00     0.033 C 
ATOM     23  C   UNL     1      17.260   4.290  34.365  1.00  0.00    -0.006 C 
ATOM     24  C   UNL     1      17.459   5.403  33.291  1.00  0.00     0.120 C 
ATOM     25  C   UNL     1      15.918   4.446  35.138  1.00  0.00     0.014 C 
ATOM     26  C   UNL     1      18.411   4.446  35.400  1.00  0.00     0.014 C 
ENDROOT
BRANCH   1  27
ATOM     27  C   UNL     1      14.809  -4.181  29.930  1.00  0.00     0.048 C 
ATOM     28  O   UNL     1      15.706  -3.553  29.308  1.00  0.00    -0.550 OA
ATOM     29  O   UNL     1      14.249  -5.311  29.344  1.00  0.00    -0.550 OA
ENDBRANCH   1  27
BRANCH   7  30
ATOM     30  C   UNL     1      11.129  -2.163  32.138  1.00  0.00    -0.077 C 
ATOM     31  C   UNL     1       9.981  -2.375  33.093  1.00  0.00     0.039 C 
ATOM     32  C   UNL     1      10.878  -1.587  30.949  1.00  0.00     0.008 C 
ENDBRANCH   7  30
BRANCH  24  33
ATOM     33  O   UNL     1      17.386   6.682  33.879  1.00  0.00    -0.393 OA
ATOM     34  H   UNL     1      16.691   7.201  33.392  1.00  0.00     0.210 HD
ENDBRANCH  24  33
TORSDOF 3
ENDMDL
MODEL 2
REMARK VINA RESULT:    -6.382      1.910      2.631
REMARK INTER + INTRA:          -7.594
REMARK INTER:                  -7.044
REMARK INTRA:                  -0.550
REMARK UNBOUND:                -0.279
REMARK SMILES C=C(C)[C@H]1CC[C@]2(C(=O)[O-])CC[C@@]3(C)[C@H](CC[C@@H]4[C@@]5(C)CC[C@@H](O)C(C)(C)[C@H]5CC[C@@]43C)[C@H]12
REMARK SMILES IDX 7 1 6 2 33 3 11 4 5 5 15 6 4 7 12 8 16 9 13 10 17 11 31 12
REMARK SMILES IDX 14 13 18 14 30 15 32 16 19 17 29 18 21 19 20 20 28 21 22 22
REMARK SMILES IDX 25 23 23 24 26 25 27 26 8 27 9 28 10 29 2 30 3 31 1 32 24 33
REMARK H PARENT 24 34
REMARK Flexibility Score: inf
ROOT
ATOM      1  C   UNL     1      16.543  -3.550  28.826  1.00  0.00     0.014 C 
ATOM      2  C   UNL     1      16.524  -5.073  29.057  1.00  0.00     0.014 C 
ATOM      3  C   UNL     1      15.381  -3.057  29.738  1.00  0.00     0.012 C 
ATOM      4  C   UNL     1      17.940  -2.953  29.208  1.00  0.00     0.014 C 
ATOM      5  C   UNL     1      16.153  -5.278  30.516  1.00  0.00     0.009 C 
ATOM      6  C   UNL     1      15.462  -1.540  30.119  1.00  0.00     0.000 C 
ATOM      7  C   UNL     1      15.292  -4.071  30.913  1.00  0.00     0.018 C 
ATOM      8  C   UNL     1      17.948  -2.112  30.493  1.00  0.00     0.008 C 
ATOM      9  C   UNL     1      14.322  -1.096  31.048  1.00  0.00     0.005 C 
ATOM     10  C   UNL     1      16.896  -0.952  30.500  1.00  0.00    -0.024 C 
ATOM     11  C   UNL     1      14.408   0.407  31.280  1.00  0.00     0.005 C 
ATOM     12  C   UNL     1      16.912  -0.155  31.927  1.00  0.00    -0.024 C 
ATOM     13  C   UNL     1      17.298   0.010  29.335  1.00  0.00     0.012 C 
ATOM     14  C   UNL     1      15.644   0.807  32.137  1.00  0.00     0.002 C 
ATOM     15  C   UNL     1      18.222   0.678  32.111  1.00  0.00     0.008 C 
ATOM     16  C   UNL     1      16.931  -1.193  33.113  1.00  0.00     0.012 C 
ATOM     17  C   UNL     1      15.883   2.394  32.223  1.00  0.00    -0.026 C 
ATOM     18  C   UNL     1      18.157   1.605  33.327  1.00  0.00     0.005 C 
ATOM     19  C   UNL     1      14.566   3.029  32.799  1.00  0.00     0.010 C 
ATOM     20  C   UNL     1      16.085   3.045  30.819  1.00  0.00     0.012 C 
ATOM     21  C   UNL     1      17.164   2.771  33.108  1.00  0.00     0.003 C 
ATOM     22  C   UNL     1      14.670   4.460  33.338  1.00  0.00     0.033 C 
ATOM     23  C   UNL     1      16.875   3.585  34.425  1.00  0.00    -0.006 C 
ATOM     24  C   UNL     1      15.995   4.813  34.038  1.00  0.00     0.120 C 
ATOM     25  C   UNL     1      16.218   2.712  35.535  1.00  0.00     0.014 C 
ATOM     26  C   UNL     1      18.206   4.146  35.006  1.00  0.00     0.014 C 
ENDROOT
BRANCH   1  27
ATOM     27  C   UNL     1      16.279  -3.275  27.354  1.00  0.00     0.048 C 
ATOM     28  O   UNL     1      16.202  -2.096  26.917  1.00  0.00    -0.550 OA
ATOM     29  O   UNL     1      16.202  -4.332  26.453  1.00  0.00    -0.550 OA
ENDBRANCH   1  27
BRANCH   7  30
ATOM     30  C   UNL     1      13.859  -4.478  31.251  1.00  0.00    -0.077 C 
ATOM     31  C   UNL     1      13.553  -5.183  32.548  1.00  0.00     0.039 C 
ATOM     32  C   UNL     1      12.847  -4.238  30.397  1.00  0.00     0.008 C 
ENDBRANCH   7  30
BRANCH  24  33
ATOM     33  O   UNL     1      15.713   5.603  35.171  1.00  0.00    -0.393 OA
ATOM     34  H   UNL     1      15.549   6.533  34.860  1.00  0.00     0.210 HD
ENDBRANCH  24  33
TORSDOF 3
ENDMDL
MODEL 3
REMARK VINA RESULT:    -6.363      2.216      7.898
REMARK INTER + INTRA:          -7.572
REMARK INTER:                  -7.052
REMARK INTRA:                  -0.520
REMARK UNBOUND:                -0.279
REMARK SMILES C=C(C)[C@H]1CC[C@]2(C(=O)[O-])CC[C@@]3(C)[C@H](CC[C@@H]4[C@@]5(C)CC[C@@H](O)C(C)(C)[C@H]5CC[C@@]43C)[C@H]12
REMARK SMILES IDX 7 1 6 2 33 3 11 4 5 5 15 6 4 7 12 8 16 9 13 10 17 11 31 12
REMARK SMILES IDX 14 13 18 14 30 15 32 16 19 17 29 18 21 19 20 20 28 21 22 22
REMARK SMILES IDX 25 23 23 24 26 25 27 26 8 27 9 28 10 29 2 30 3 31 1 32 24 33
REMARK H PARENT 24 34
REMARK Flexibility Score: inf
ROOT
ATOM      1  C   UNL     1      17.435   3.818  30.065  1.00  0.00     0.014 C 
ATOM      2  C   UNL     1      17.483   5.240  30.655  1.00  0.00     0.014 C 
ATOM      3  C   UNL     1      17.633   2.924  31.324  1.00  0.00     0.012 C 
ATOM      4  C   UNL     1      16.075   3.575  29.326  1.00  0.00     0.014 C 
ATOM      5  C   UNL     1      16.821   5.158  32.019  1.00  0.00     0.009 C 
ATOM      6  C   UNL     1      17.135   1.449  31.150  1.00  0.00     0.000 C 
ATOM      7  C   UNL     1      17.048   3.724  32.520  1.00  0.00     0.018 C 
ATOM      8  C   UNL     1      15.117   2.616  30.049  1.00  0.00     0.008 C 
ATOM      9  C   UNL     1      17.311   0.605  32.421  1.00  0.00     0.005 C 
ATOM     10  C   UNL     1      15.749   1.224  30.391  1.00  0.00    -0.024 C 
ATOM     11  C   UNL     1      16.910  -0.837  32.138  1.00  0.00     0.005 C 
ATOM     12  C   UNL     1      14.697   0.292  31.225  1.00  0.00    -0.024 C 
ATOM     13  C   UNL     1      16.102   0.556  29.023  1.00  0.00     0.012 C 
ATOM     14  C   UNL     1      15.379  -0.992  31.905  1.00  0.00     0.002 C 
ATOM     15  C   UNL     1      13.503  -0.175  30.332  1.00  0.00     0.008 C 
ATOM     16  C   UNL     1      14.027   1.144  32.370  1.00  0.00     0.012 C 
ATOM     17  C   UNL     1      14.950  -2.456  31.396  1.00  0.00    -0.026 C 
ATOM     18  C   UNL     1      12.634  -1.228  31.025  1.00  0.00     0.005 C 
ATOM     19  C   UNL     1      15.468  -3.486  32.465  1.00  0.00     0.010 C 
ATOM     20  C   UNL     1      15.648  -2.852  30.058  1.00  0.00     0.012 C 
ATOM     21  C   UNL     1      13.371  -2.582  31.162  1.00  0.00     0.003 C 
ATOM     22  C   UNL     1      14.859  -4.891  32.416  1.00  0.00     0.033 C 
ATOM     23  C   UNL     1      12.615  -3.599  32.098  1.00  0.00    -0.006 C 
ATOM     24  C   UNL     1      13.372  -4.960  32.024  1.00  0.00     0.120 C 
ATOM     25  C   UNL     1      12.476  -3.076  33.558  1.00  0.00     0.014 C 
ATOM     26  C   UNL     1      11.177  -3.849  31.558  1.00  0.00     0.014 C 
ENDROOT
BRANCH   1  27
ATOM     27  C   UNL     1      18.569   3.664  29.062  1.00  0.00     0.048 C 
ATOM     28  O   UNL     1      18.968   2.526  28.702  1.00  0.00    -0.550 OA
ATOM     29  O   UNL     1      19.125   4.791  28.466  1.00  0.00    -0.550 OA
ENDBRANCH   1  27
BRANCH   7  30
ATOM     30  C   UNL     1      17.937   3.688  33.762  1.00  0.00    -0.077 C 
ATOM     31  C   UNL     1      17.484   2.958  35.001  1.00  0.00     0.039 C 
ATOM     32  C   UNL     1      19.125   4.319  33.787  1.00  0.00     0.008 C 
ENDBRANCH   7  30
BRANCH  24  33
ATOM     33  O   UNL     1      12.735  -5.929  32.827  1.00  0.00    -0.393 OA
ATOM     34  H   UNL     1      12.574  -5.525  33.721  1.00  0.00     0.210 HD
ENDBRANCH  24  33
TORSDOF 3
ENDMDL
MODEL 4
REMARK VINA RESULT:    -6.295      4.259      7.314
REMARK INTER + INTRA:          -7.494
REMARK INTER:                  -7.485
REMARK INTRA:                  -0.009
REMARK UNBOUND:                -0.279
REMARK SMILES C=C(C)[C@H]1CC[C@]2(C(=O)[O-])CC[C@@]3(C)[C@H](CC[C@@H]4[C@@]5(C)CC[C@@H](O)C(C)(C)[C@H]5CC[C@@]43C)[C@H]12
REMARK SMILES IDX 7 1 6 2 33 3 11 4 5 5 15 6 4 7 12 8 16 9 13 10 17 11 31 12
REMARK SMILES IDX 14 13 18 14 30 15 32 16 19 17 29 18 21 19 20 20 28 21 22 22
REMARK SMILES IDX 25 23 23 24 26 25 27 26 8 27 9 28 10 29 2 30 3 31 1 32 24 33
REMARK H PARENT 24 34
REMARK Flexibility Score: inf
ROOT
ATOM      1  C   UNL     1      14.467  -2.627  34.661  1.00  0.00     0.014 C 
ATOM      2  C   UNL     1      13.468  -1.658  35.321  1.00  0.00     0.014 C 
ATOM      3  C   UNL     1      13.643  -3.203  33.472  1.00  0.00     0.012 C 
ATOM      4  C   UNL     1      15.763  -1.864  34.218  1.00  0.00     0.014 C 
ATOM      5  C   UNL     1      12.657  -1.048  34.190  1.00  0.00     0.009 C 
ATOM      6  C   UNL     1      14.513  -3.820  32.325  1.00  0.00     0.000 C 
ATOM      7  C   UNL     1      12.633  -2.094  33.066  1.00  0.00     0.018 C 
ATOM      8  C   UNL     1      15.915  -1.689  32.700  1.00  0.00     0.008 C 
ATOM      9  C   UNL     1      13.671  -4.345  31.153  1.00  0.00     0.005 C 
ATOM     10  C   UNL     1      15.830  -3.029  31.893  1.00  0.00    -0.024 C 
ATOM     11  C   UNL     1      14.578  -5.026  30.136  1.00  0.00     0.005 C 
ATOM     12  C   UNL     1      15.923  -2.751  30.285  1.00  0.00    -0.024 C 
ATOM     13  C   UNL     1      17.039  -3.900  32.365  1.00  0.00     0.012 C 
ATOM     14  C   UNL     1      15.499  -4.016  29.392  1.00  0.00     0.002 C 
ATOM     15  C   UNL     1      17.350  -2.279  29.859  1.00  0.00     0.008 C 
ATOM     16  C   UNL     1      14.975  -1.551  29.899  1.00  0.00     0.012 C 
ATOM     17  C   UNL     1      16.613  -4.719  28.469  1.00  0.00    -0.026 C 
ATOM     18  C   UNL     1      17.520  -2.234  28.339  1.00  0.00     0.005 C 
ATOM     19  C   UNL     1      15.852  -5.646  27.453  1.00  0.00     0.010 C 
ATOM     20  C   UNL     1      17.551  -5.665  29.281  1.00  0.00     0.012 C 
ATOM     21  C   UNL     1      17.546  -3.653  27.722  1.00  0.00     0.003 C 
ATOM     22  C   UNL     1      16.643  -6.119  26.229  1.00  0.00     0.033 C 
ATOM     23  C   UNL     1      17.453  -3.639  26.149  1.00  0.00    -0.006 C 
ATOM     24  C   UNL     1      17.647  -5.104  25.652  1.00  0.00     0.120 C 
ATOM     25  C   UNL     1      16.123  -3.012  25.636  1.00  0.00     0.014 C 
ATOM     26  C   UNL     1      18.620  -2.799  25.555  1.00  0.00     0.014 C 
ENDROOT
BRANCH   1  27
ATOM     27  C   UNL     1      14.852  -3.698  35.671  1.00  0.00     0.048 C 
ATOM     28  O   UNL     1      13.995  -4.501  36.124  1.00  0.00    -0.550 OA
ATOM     29  O   UNL     1      16.183  -3.853  36.044  1.00  0.00    -0.550 OA
ENDBRANCH   1  27
BRANCH   7  30
ATOM     30  C   UNL     1      11.224  -2.625  32.810  1.00  0.00    -0.077 C 
ATOM     31  C   UNL     1      10.086  -2.230  33.716  1.00  0.00     0.039 C 
ATOM     32  C   UNL     1      10.972  -3.467  31.792  1.00  0.00     0.008 C 
ENDBRANCH   7  30
BRANCH  24  33
ATOM     33  O   UNL     1      17.595  -5.165  24.244  1.00  0.00    -0.393 OA
ATOM     34  H   UNL     1      18.127  -4.403  23.888  1.00  0.00     0.210 HD
ENDBRANCH  24  33
TORSDOF 3
ENDMDL
MODEL 5
REMARK VINA RESULT:    -6.220      1.627      7.963
REMARK INTER + INTRA:          -7.408
REMARK INTER:                  -6.965
REMARK INTRA:                  -0.443
REMARK UNBOUND:                -0.279
REMARK SMILES C=C(C)[C@H]1CC[C@]2(C(=O)[O-])CC[C@@]3(C)[C@H](CC[C@@H]4[C@@]5(C)CC[C@@H](O)C(C)(C)[C@H]5CC[C@@]43C)[C@H]12
REMARK SMILES IDX 7 1 6 2 33 3 11 4 5 5 15 6 4 7 12 8 16 9 13 10 17 11 31 12
REMARK SMILES IDX 14 13 18 14 30 15 32 16 19 17 29 18 21 19 20 20 28 21 22 22
REMARK SMILES IDX 25 23 23 24 26 25 27 26 8 27 9 28 10 29 2 30 3 31 1 32 24 33
REMARK H PARENT 24 34
REMARK Flexibility Score: inf
ROOT
ATOM      1  C   UNL     1      17.685   4.058  34.075  1.00  0.00     0.014 C 
ATOM      2  C   UNL     1      18.885   4.790  33.444  1.00  0.00     0.014 C 
ATOM      3  C   UNL     1      16.794   3.744  32.839  1.00  0.00     0.012 C 
ATOM      4  C   UNL     1      18.164   2.782  34.848  1.00  0.00     0.014 C 
ATOM      5  C   UNL     1      19.124   4.130  32.096  1.00  0.00     0.009 C 
ATOM      6  C   UNL     1      15.766   2.583  33.065  1.00  0.00     0.000 C 
ATOM      7  C   UNL     1      17.761   3.597  31.631  1.00  0.00     0.018 C 
ATOM      8  C   UNL     1      17.800   1.451  34.173  1.00  0.00     0.008 C 
ATOM      9  C   UNL     1      14.929   2.275  31.815  1.00  0.00     0.005 C 
ATOM     10  C   UNL     1      16.274   1.294  33.858  1.00  0.00    -0.024 C 
ATOM     11  C   UNL     1      13.884   1.217  32.148  1.00  0.00     0.005 C 
ATOM     12  C   UNL     1      15.978  -0.108  33.073  1.00  0.00    -0.024 C 
ATOM     13  C   UNL     1      15.539   1.311  35.237  1.00  0.00     0.012 C 
ATOM     14  C   UNL     1      14.515  -0.179  32.416  1.00  0.00     0.002 C 
ATOM     15  C   UNL     1      16.182  -1.347  34.003  1.00  0.00     0.008 C 
ATOM     16  C   UNL     1      17.034  -0.301  31.917  1.00  0.00     0.012 C 
ATOM     17  C   UNL     1      13.468  -1.263  32.976  1.00  0.00    -0.026 C 
ATOM     18  C   UNL     1      15.694  -2.647  33.359  1.00  0.00     0.005 C 
ATOM     19  C   UNL     1      12.302  -1.362  31.926  1.00  0.00     0.010 C 
ATOM     20  C   UNL     1      12.797  -0.813  34.310  1.00  0.00     0.012 C 
ATOM     21  C   UNL     1      14.151  -2.687  33.245  1.00  0.00     0.003 C 
ATOM     22  C   UNL     1      11.389  -2.588  32.028  1.00  0.00     0.033 C 
ATOM     23  C   UNL     1      13.633  -3.879  32.355  1.00  0.00    -0.006 C 
ATOM     24  C   UNL     1      12.077  -3.898  32.452  1.00  0.00     0.120 C 
ATOM     25  C   UNL     1      14.133  -3.785  30.883  1.00  0.00     0.014 C 
ATOM     26  C   UNL     1      14.141  -5.232  32.931  1.00  0.00     0.014 C 
ENDROOT
BRANCH   1  27
ATOM     27  C   UNL     1      17.002   4.996  35.058  1.00  0.00     0.048 C 
ATOM     28  O   UNL     1      17.597   6.009  35.512  1.00  0.00    -0.550 OA
ATOM     29  O   UNL     1      15.671   4.787  35.405  1.00  0.00    -0.550 OA
ENDBRANCH   1  27
BRANCH   7  30
ATOM     30  C   UNL     1      17.269   4.309  30.373  1.00  0.00    -0.077 C 
ATOM     31  C   UNL     1      16.753   3.514  29.201  1.00  0.00     0.039 C 
ATOM     32  C   UNL     1      17.303   5.651  30.274  1.00  0.00     0.008 C 
ENDBRANCH   7  30
BRANCH  24  33
ATOM     33  O   UNL     1      11.542  -4.958  31.691  1.00  0.00    -0.393 OA
ATOM     34  H   UNL     1      10.807  -5.370  32.219  1.00  0.00     0.210 HD
ENDBRANCH  24  33
TORSDOF 3
ENDMDL
MODEL 6
REMARK VINA RESULT:    -6.142      2.051      3.780
REMARK INTER + INTRA:          -7.319
REMARK INTER:                  -6.670
REMARK INTRA:                  -0.649
REMARK UNBOUND:                -0.279
REMARK SMILES C=C(C)[C@H]1CC[C@]2(C(=O)[O-])CC[C@@]3(C)[C@H](CC[C@@H]4[C@@]5(C)CC[C@@H](O)C(C)(C)[C@H]5CC[C@@]43C)[C@H]12
REMARK SMILES IDX 7 1 6 2 33 3 11 4 5 5 15 6 4 7 12 8 16 9 13 10 17 11 31 12
REMARK SMILES IDX 14 13 18 14 30 15 32 16 19 17 29 18 21 19 20 20 28 21 22 22
REMARK SMILES IDX 25 23 23 24 26 25 27 26 8 27 9 28 10 29 2 30 3 31 1 32 24 33
REMARK H PARENT 24 34
REMARK Flexibility Score: inf
ROOT
ATOM      1  C   UNL     1      13.000  -3.616  32.366  1.00  0.00     0.014 C 
ATOM      2  C   UNL     1      13.362  -5.109  32.469  1.00  0.00     0.014 C 
ATOM      3  C   UNL     1      14.012  -2.955  33.346  1.00  0.00     0.012 C 
ATOM      4  C   UNL     1      13.138  -3.118  30.886  1.00  0.00     0.014 C 
ATOM      5  C   UNL     1      14.869  -5.171  32.647  1.00  0.00     0.009 C 
ATOM      6  C   UNL     1      14.246  -1.426  33.095  1.00  0.00     0.000 C 
ATOM      7  C   UNL     1      15.272  -3.865  33.348  1.00  0.00     0.018 C 
ATOM      8  C   UNL     1      14.333  -2.187  30.633  1.00  0.00     0.008 C 
ATOM      9  C   UNL     1      15.277  -0.815  34.056  1.00  0.00     0.005 C 
ATOM     10  C   UNL     1      14.380  -0.940  31.581  1.00  0.00    -0.024 C 
ATOM     11  C   UNL     1      15.365   0.688  33.822  1.00  0.00     0.005 C 
ATOM     12  C   UNL     1      15.718  -0.043  31.303  1.00  0.00    -0.024 C 
ATOM     13  C   UNL     1      13.094  -0.109  31.273  1.00  0.00     0.012 C 
ATOM     14  C   UNL     1      16.012   1.040  32.451  1.00  0.00     0.002 C 
ATOM     15  C   UNL     1      15.653   0.681  29.920  1.00  0.00     0.008 C 
ATOM     16  C   UNL     1      16.976  -0.988  31.198  1.00  0.00     0.012 C 
ATOM     17  C   UNL     1      15.927   2.602  32.080  1.00  0.00    -0.026 C 
ATOM     18  C   UNL     1      16.782   1.699  29.741  1.00  0.00     0.005 C 
ATOM     19  C   UNL     1      16.618   3.391  33.251  1.00  0.00     0.010 C 
ATOM     20  C   UNL     1      14.459   3.125  32.027  1.00  0.00     0.012 C 
ATOM     21  C   UNL     1      16.598   2.929  30.663  1.00  0.00     0.003 C 
ATOM     22  C   UNL     1      17.012   4.844  32.961  1.00  0.00     0.033 C 
ATOM     23  C   UNL     1      17.867   3.862  30.700  1.00  0.00    -0.006 C 
ATOM     24  C   UNL     1      17.495   5.130  31.528  1.00  0.00     0.120 C 
ATOM     25  C   UNL     1      19.125   3.136  31.260  1.00  0.00     0.014 C 
ATOM     26  C   UNL     1      18.213   4.344  29.261  1.00  0.00     0.014 C 
ENDROOT
BRANCH   1  27
ATOM     27  C   UNL     1      11.557  -3.429  32.811  1.00  0.00     0.048 C 
ATOM     28  O   UNL     1      11.280  -2.819  33.877  1.00  0.00    -0.550 OA
ATOM     29  O   UNL     1      10.518  -3.862  31.994  1.00  0.00    -0.550 OA
ENDBRANCH   1  27
BRANCH   7  30
ATOM     30  C   UNL     1      15.832  -4.118  34.747  1.00  0.00    -0.077 C 
ATOM     31  C   UNL     1      14.900  -4.300  35.918  1.00  0.00     0.039 C 
ATOM     32  C   UNL     1      17.158  -4.162  34.968  1.00  0.00     0.008 C 
ENDBRANCH   7  30
BRANCH  24  33
ATOM     33  O   UNL     1      18.584   6.024  31.586  1.00  0.00    -0.393 OA
ATOM     34  H   UNL     1      18.789   6.313  30.657  1.00  0.00     0.210 HD
ENDBRANCH  24  33
TORSDOF 3
ENDMDL
MODEL 7
REMARK VINA RESULT:    -5.917      2.146      2.740
REMARK INTER + INTRA:          -7.060
REMARK INTER:                  -6.369
REMARK INTRA:                  -0.691
REMARK UNBOUND:                -0.279
REMARK SMILES C=C(C)[C@H]1CC[C@]2(C(=O)[O-])CC[C@@]3(C)[C@H](CC[C@@H]4[C@@]5(C)CC[C@@H](O)C(C)(C)[C@H]5CC[C@@]43C)[C@H]12
REMARK SMILES IDX 7 1 6 2 33 3 11 4 5 5 15 6 4 7 12 8 16 9 13 10 17 11 31 12
REMARK SMILES IDX 14 13 18 14 30 15 32 16 19 17 29 18 21 19 20 20 28 21 22 22
REMARK SMILES IDX 25 23 23 24 26 25 27 26 8 27 9 28 10 29 2 30 3 31 1 32 24 33
REMARK H PARENT 24 34
REMARK Flexibility Score: inf
ROOT
ATOM      1  C   UNL     1      15.158  -3.875  34.400  1.00  0.00     0.014 C 
ATOM      2  C   UNL     1      14.274  -4.343  35.572  1.00  0.00     0.014 C 
ATOM      3  C   UNL     1      14.229  -2.870  33.658  1.00  0.00     0.012 C 
ATOM      4  C   UNL     1      16.484  -3.233  34.934  1.00  0.00     0.014 C 
ATOM      5  C   UNL     1      13.454  -3.136  35.995  1.00  0.00     0.009 C 
ATOM      6  C   UNL     1      14.987  -1.855  32.736  1.00  0.00     0.000 C 
ATOM      7  C   UNL     1      13.289  -2.268  34.739  1.00  0.00     0.018 C 
ATOM      8  C   UNL     1      16.569  -1.708  34.766  1.00  0.00     0.008 C 
ATOM      9  C   UNL     1      14.044  -0.856  32.048  1.00  0.00     0.005 C 
ATOM     10  C   UNL     1      16.337  -1.216  33.297  1.00  0.00    -0.024 C 
ATOM     11  C   UNL     1      14.841   0.020  31.088  1.00  0.00     0.005 C 
ATOM     12  C   UNL     1      16.365   0.416  33.215  1.00  0.00    -0.024 C 
ATOM     13  C   UNL     1      17.496  -1.824  32.444  1.00  0.00     0.012 C 
ATOM     14  C   UNL     1      15.797   0.997  31.830  1.00  0.00     0.002 C 
ATOM     15  C   UNL     1      17.800   0.984  33.458  1.00  0.00     0.008 C 
ATOM     16  C   UNL     1      15.495   1.021  34.383  1.00  0.00     0.012 C 
ATOM     17  C   UNL     1      16.802   1.783  30.851  1.00  0.00    -0.026 C 
ATOM     18  C   UNL     1      17.892   2.483  33.161  1.00  0.00     0.005 C 
ATOM     19  C   UNL     1      15.918   2.545  29.799  1.00  0.00     0.010 C 
ATOM     20  C   UNL     1      17.705   0.818  30.022  1.00  0.00     0.012 C 
ATOM     21  C   UNL     1      17.774   2.776  31.646  1.00  0.00     0.003 C 
ATOM     22  C   UNL     1      16.604   3.664  29.007  1.00  0.00     0.033 C 
ATOM     23  C   UNL     1      17.599   4.310  31.331  1.00  0.00    -0.006 C 
ATOM     24  C   UNL     1      17.652   4.482  29.782  1.00  0.00     0.120 C 
ATOM     25  C   UNL     1      16.297   4.901  31.948  1.00  0.00     0.014 C 
ATOM     26  C   UNL     1      18.796   5.113  31.919  1.00  0.00     0.014 C 
ENDROOT
BRANCH   1  27
ATOM     27  C   UNL     1      15.511  -5.080  33.541  1.00  0.00     0.048 C 
ATOM     28  O   UNL     1      14.635  -5.923  33.212  1.00  0.00    -0.550 OA
ATOM     29  O   UNL     1      16.800  -5.219  33.038  1.00  0.00    -0.550 OA
ENDBRANCH   1  27
BRANCH   7  30
ATOM     30  C   UNL     1      11.831  -2.183  34.291  1.00  0.00    -0.077 C 
ATOM     31  C   UNL     1      10.870  -1.262  35.000  1.00  0.00     0.039 C 
ATOM     32  C   UNL     1      11.369  -2.937  33.277  1.00  0.00     0.008 C 
ENDBRANCH   7  30
BRANCH  24  33
ATOM     33  O   UNL     1      17.521   5.841  29.427  1.00  0.00    -0.393 OA
ATOM     34  H   UNL     1      17.744   6.387  30.227  1.00  0.00     0.210 HD
ENDBRANCH  24  33
TORSDOF 3
ENDMDL
MODEL 8
REMARK VINA RESULT:    -5.894      1.710      3.884
REMARK INTER + INTRA:          -7.035
REMARK INTER:                  -6.279
REMARK INTRA:                  -0.755
REMARK UNBOUND:                -0.279
REMARK SMILES C=C(C)[C@H]1CC[C@]2(C(=O)[O-])CC[C@@]3(C)[C@H](CC[C@@H]4[C@@]5(C)CC[C@@H](O)C(C)(C)[C@H]5CC[C@@]43C)[C@H]12
REMARK SMILES IDX 7 1 6 2 33 3 11 4 5 5 15 6 4 7 12 8 16 9 13 10 17 11 31 12
REMARK SMILES IDX 14 13 18 14 30 15 32 16 19 17 29 18 21 19 20 20 28 21 22 22
REMARK SMILES IDX 25 23 23 24 26 25 27 26 8 27 9 28 10 29 2 30 3 31 1 32 24 33
REMARK H PARENT 24 34
REMARK Flexibility Score: inf
ROOT
ATOM      1  C   UNL     1      14.112  -3.672  31.448  1.00  0.00     0.014 C 
ATOM      2  C   UNL     1      14.209  -4.625  30.241  1.00  0.00     0.014 C 
ATOM      3  C   UNL     1      15.597  -3.269  31.681  1.00  0.00     0.012 C 
ATOM      4  C   UNL     1      13.174  -2.461  31.118  1.00  0.00     0.014 C 
ATOM      5  C   UNL     1      15.317  -4.079  29.357  1.00  0.00     0.009 C 
ATOM      6  C   UNL     1      15.784  -1.942  32.492  1.00  0.00     0.000 C 
ATOM      7  C   UNL     1      16.290  -3.345  30.292  1.00  0.00     0.018 C 
ATOM      8  C   UNL     1      13.901  -1.120  30.934  1.00  0.00     0.008 C 
ATOM      9  C   UNL     1      17.260  -1.555  32.671  1.00  0.00     0.005 C 
ATOM     10  C   UNL     1      14.816  -0.722  32.142  1.00  0.00    -0.024 C 
ATOM     11  C   UNL     1      17.360  -0.322  33.560  1.00  0.00     0.005 C 
ATOM     12  C   UNL     1      15.613   0.672  31.839  1.00  0.00    -0.024 C 
ATOM     13  C   UNL     1      13.867  -0.550  33.371  1.00  0.00     0.012 C 
ATOM     14  C   UNL     1      16.815   0.959  32.864  1.00  0.00     0.002 C 
ATOM     15  C   UNL     1      14.647   1.900  31.826  1.00  0.00     0.008 C 
ATOM     16  C   UNL     1      16.221   0.629  30.385  1.00  0.00     0.012 C 
ATOM     17  C   UNL     1      16.709   2.229  33.843  1.00  0.00    -0.026 C 
ATOM     18  C   UNL     1      15.399   3.233  31.772  1.00  0.00     0.005 C 
ATOM     19  C   UNL     1      18.144   2.475  34.436  1.00  0.00     0.010 C 
ATOM     20  C   UNL     1      15.786   1.962  35.073  1.00  0.00     0.012 C 
ATOM     21  C   UNL     1      16.141   3.528  33.098  1.00  0.00     0.003 C 
ATOM     22  C   UNL     1      18.396   3.842  35.082  1.00  0.00     0.033 C 
ATOM     23  C   UNL     1      17.132   4.747  32.987  1.00  0.00    -0.006 C 
ATOM     24  C   UNL     1      17.688   5.034  34.415  1.00  0.00     0.120 C 
ATOM     25  C   UNL     1      18.266   4.502  31.948  1.00  0.00     0.014 C 
ATOM     26  C   UNL     1      16.359   6.020  32.536  1.00  0.00     0.014 C 
ENDROOT
BRANCH   1  27
ATOM     27  C   UNL     1      13.527  -4.434  32.628  1.00  0.00     0.048 C 
ATOM     28  O   UNL     1      12.797  -3.857  33.477  1.00  0.00    -0.550 OA
ATOM     29  O   UNL     1      13.729  -5.806  32.736  1.00  0.00    -0.550 OA
ENDBRANCH   1  27
BRANCH   7  30
ATOM     30  C   UNL     1      17.659  -4.021  30.336  1.00  0.00    -0.077 C 
ATOM     31  C   UNL     1      17.885  -5.226  31.215  1.00  0.00     0.039 C 
ATOM     32  C   UNL     1      18.692  -3.549  29.615  1.00  0.00     0.008 C 
ENDBRANCH   7  30
BRANCH  24  33
ATOM     33  O   UNL     1      18.572   6.133  34.395  1.00  0.00    -0.393 OA
ATOM     34  H   UNL     1      18.065   6.924  34.068  1.00  0.00     0.210 HD
ENDBRANCH  24  33
TORSDOF 3
ENDMDL
MODEL 9
REMARK VINA RESULT:    -5.682      1.553      2.351
REMARK INTER + INTRA:          -6.791
REMARK INTER:                  -6.371
REMARK INTRA:                  -0.420
REMARK UNBOUND:                -0.279
REMARK SMILES C=C(C)[C@H]1CC[C@]2(C(=O)[O-])CC[C@@]3(C)[C@H](CC[C@@H]4[C@@]5(C)CC[C@@H](O)C(C)(C)[C@H]5CC[C@@]43C)[C@H]12
REMARK SMILES IDX 7 1 6 2 33 3 11 4 5 5 15 6 4 7 12 8 16 9 13 10 17 11 31 12
REMARK SMILES IDX 14 13 18 14 30 15 32 16 19 17 29 18 21 19 20 20 28 21 22 22
REMARK SMILES IDX 25 23 23 24 26 25 27 26 8 27 9 28 10 29 2 30 3 31 1 32 24 33
REMARK H PARENT 24 34
REMARK Flexibility Score: inf
ROOT
ATOM      1  C   UNL     1      16.017  -1.866  29.557  1.00  0.00     0.014 C 
ATOM      2  C   UNL     1      15.488  -3.270  29.904  1.00  0.00     0.014 C 
ATOM      3  C   UNL     1      14.953  -0.934  30.207  1.00  0.00     0.012 C 
ATOM      4  C   UNL     1      17.463  -1.667  30.128  1.00  0.00     0.014 C 
ATOM      5  C   UNL     1      14.868  -3.161  31.287  1.00  0.00     0.009 C 
ATOM      6  C   UNL     1      15.453   0.527  30.470  1.00  0.00     0.000 C 
ATOM      7  C   UNL     1      14.383  -1.711  31.426  1.00  0.00     0.018 C 
ATOM      8  C   UNL     1      17.552  -0.704  31.321  1.00  0.00     0.008 C 
ATOM      9  C   UNL     1      14.391   1.408  31.145  1.00  0.00     0.005 C 
ATOM     10  C   UNL     1      16.930   0.707  31.048  1.00  0.00    -0.024 C 
ATOM     11  C   UNL     1      14.912   2.835  31.265  1.00  0.00     0.005 C 
ATOM     12  C   UNL     1      16.993   1.644  32.386  1.00  0.00    -0.024 C 
ATOM     13  C   UNL     1      17.775   1.343  29.898  1.00  0.00     0.012 C 
ATOM     14  C   UNL     1      16.076   2.958  32.291  1.00  0.00     0.002 C 
ATOM     15  C   UNL     1      18.458   2.066  32.729  1.00  0.00     0.008 C 
ATOM     16  C   UNL     1      16.515   0.813  33.638  1.00  0.00     0.012 C 
ATOM     17  C   UNL     1      16.788   4.400  32.287  1.00  0.00    -0.026 C 
ATOM     18  C   UNL     1      18.517   3.122  33.835  1.00  0.00     0.005 C 
ATOM     19  C   UNL     1      15.669   5.467  32.569  1.00  0.00     0.010 C 
ATOM     20  C   UNL     1      17.381   4.770  30.893  1.00  0.00     0.012 C 
ATOM     21  C   UNL     1      17.982   4.492  33.350  1.00  0.00     0.003 C 
ATOM     22  C   UNL     1      16.142   6.860  32.999  1.00  0.00     0.033 C 
ATOM     23  C   UNL     1      17.781   5.522  34.525  1.00  0.00    -0.006 C 
ATOM     24  C   UNL     1      17.396   6.893  33.890  1.00  0.00     0.120 C 
ATOM     25  C   UNL     1      16.732   5.038  35.569  1.00  0.00     0.014 C 
ATOM     26  C   UNL     1      19.124   5.732  35.283  1.00  0.00     0.014 C 
ENDROOT
BRANCH   1  27
ATOM     27  C   UNL     1      16.066  -1.722  28.043  1.00  0.00     0.048 C 
ATOM     28  O   UNL     1      15.915  -0.599  27.492  1.00  0.00    -0.550 OA
ATOM     29  O   UNL     1      16.363  -2.825  27.250  1.00  0.00    -0.550 OA
ENDBRANCH   1  27
BRANCH   7  30
ATOM     30  C   UNL     1      12.862  -1.625  31.539  1.00  0.00    -0.077 C 
ATOM     31  C   UNL     1      12.157  -2.176  32.752  1.00  0.00     0.039 C 
ATOM     32  C   UNL     1      12.121  -1.080  30.557  1.00  0.00     0.008 C 
ENDBRANCH   7  30
BRANCH  24  33
ATOM     33  O   UNL     1      17.220   7.873  34.888  1.00  0.00    -0.393 OA
ATOM     34  H   UNL     1      16.279   8.191  34.837  1.00  0.00     0.210 HD
ENDBRANCH  24  33
TORSDOF 3
ENDMDL
