MODEL 1
REMARK VINA RESULT:    -4.456      0.000      0.000
REMARK INTER + INTRA:          -6.498
REMARK INTER:                  -6.019
REMARK INTRA:                  -0.479
REMARK UNBOUND:                -0.479
REMARK SMILES [NH3+]CCCC[C@@H]([NH3+])C(=O)[O-]
REMARK SMILES IDX 4 1 3 2 2 3 1 4 5 8 6 9 7 10 8 14 9 15 10 16
REMARK H PARENT 1 5 1 6 1 7 7 11 7 12 7 13
REMARK Flexibility Score: inf
ROOT
ATOM      1  C   UNL     1     -19.810  13.376 -13.226  1.00  0.00     0.012 C 
ENDROOT
BRANCH   1   2
ATOM      2  C   UNL     1     -19.806  12.040 -12.467  1.00  0.00     0.061 C 
BRANCH   2   3
ATOM      3  C   UNL     1     -19.333  12.185 -11.012  1.00  0.00     0.258 C 
BRANCH   3   4
ATOM      4  N   UNL     1     -18.557  13.411 -10.836  1.00  0.00    -0.358 N 
ATOM      5  H   UNL     1     -18.386  13.585  -9.820  1.00  0.00     0.344 HD
ATOM      6  H   UNL     1     -17.637  13.307 -11.321  1.00  0.00     0.344 HD
ATOM      7  H   UNL     1     -19.068  14.223 -11.254  1.00  0.00     0.344 HD
ENDBRANCH   3   4
ENDBRANCH   2   3
ENDBRANCH   1   2
BRANCH   1   8
ATOM      8  C   UNL     1     -18.743  13.430 -14.334  1.00  0.00     0.072 C 
BRANCH   8   9
ATOM      9  C   UNL     1     -17.747  12.253 -14.255  1.00  0.00     0.227 C 
BRANCH   9  10
ATOM     10  N   UNL     1     -17.581  11.593 -15.558  1.00  0.00    -0.350 N 
ATOM     11  H   UNL     1     -18.497  11.528 -16.060  1.00  0.00     0.345 HD
ATOM     12  H   UNL     1     -16.907  12.135 -16.148  1.00  0.00     0.345 HD
ATOM     13  H   UNL     1     -17.187  10.634 -15.428  1.00  0.00     0.345 HD
ENDBRANCH   9  10
BRANCH   9  14
ATOM     14  C   UNL     1     -16.416  12.752 -13.759  1.00  0.00     0.099 C 
ATOM     15  O   UNL     1     -15.348  12.255 -14.201  1.00  0.00    -0.544 OA
ATOM     16  O   UNL     1     -16.359  13.749 -12.792  1.00  0.00    -0.544 OA
ENDBRANCH   9  14
ENDBRANCH   8   9
ENDBRANCH   1   8
TORSDOF 7
ENDMDL
MODEL 2
REMARK VINA RESULT:    -4.454      2.259      4.533
REMARK INTER + INTRA:          -6.496
REMARK INTER:                  -6.341
REMARK INTRA:                  -0.155
REMARK UNBOUND:                -0.479
REMARK SMILES [NH3+]CCCC[C@@H]([NH3+])C(=O)[O-]
REMARK SMILES IDX 4 1 3 2 2 3 1 4 5 8 6 9 7 10 8 14 9 15 10 16
REMARK H PARENT 1 5 1 6 1 7 7 11 7 12 7 13
REMARK Flexibility Score: inf
ROOT
ATOM      1  C   UNL     1     -16.026  12.688 -13.582  1.00  0.00     0.012 C 
ENDROOT
BRANCH   1   2
ATOM      2  C   UNL     1     -16.284  12.298 -15.046  1.00  0.00     0.061 C 
BRANCH   2   3
ATOM      3  C   UNL     1     -15.301  11.233 -15.558  1.00  0.00     0.258 C 
BRANCH   3   4
ATOM      4  N   UNL     1     -15.938  10.371 -16.552  1.00  0.00    -0.358 N 
ATOM      5  H   UNL     1     -15.473   9.434 -16.565  1.00  0.00     0.344 HD
ATOM      6  H   UNL     1     -16.945  10.245 -16.301  1.00  0.00     0.344 HD
ATOM      7  H   UNL     1     -15.879  10.810 -17.499  1.00  0.00     0.344 HD
ENDBRANCH   3   4
ENDBRANCH   2   3
ENDBRANCH   1   2
BRANCH   1   8
ATOM      8  C   UNL     1     -17.098  13.643 -13.026  1.00  0.00     0.072 C 
BRANCH   8   9
ATOM      9  C   UNL     1     -18.228  12.897 -12.282  1.00  0.00     0.227 C 
BRANCH   9  10
ATOM     10  N   UNL     1     -18.493  13.491 -10.964  1.00  0.00    -0.350 N 
ATOM     11  H   UNL     1     -18.927  14.438 -11.064  1.00  0.00     0.345 HD
ATOM     12  H   UNL     1     -19.143  12.874 -10.421  1.00  0.00     0.345 HD
ATOM     13  H   UNL     1     -17.605  13.570 -10.420  1.00  0.00     0.345 HD
ENDBRANCH   9  10
BRANCH   9  14
ATOM     14  C   UNL     1     -19.480  12.917 -13.118  1.00  0.00     0.099 C 
ATOM     15  O   UNL     1     -20.463  12.197 -12.802  1.00  0.00    -0.544 OA
ATOM     16  O   UNL     1     -19.550  13.711 -14.256  1.00  0.00    -0.544 OA
ENDBRANCH   9  14
ENDBRANCH   8   9
ENDBRANCH   1   8
TORSDOF 7
ENDMDL
MODEL 3
REMARK VINA RESULT:    -4.425      2.457      4.098
REMARK INTER + INTRA:          -6.457
REMARK INTER:                  -6.123
REMARK INTRA:                  -0.334
REMARK UNBOUND:                -0.479
REMARK SMILES [NH3+]CCCC[C@@H]([NH3+])C(=O)[O-]
REMARK SMILES IDX 4 1 3 2 2 3 1 4 5 8 6 9 7 10 8 14 9 15 10 16
REMARK H PARENT 1 5 1 6 1 7 7 11 7 12 7 13
REMARK Flexibility Score: inf
ROOT
ATOM      1  C   UNL     1     -17.287  13.784 -12.449  1.00  0.00     0.012 C 
ENDROOT
BRANCH   1   2
ATOM      2  C   UNL     1     -16.660  12.568 -13.150  1.00  0.00     0.061 C 
BRANCH   2   3
ATOM      3  C   UNL     1     -16.496  12.776 -14.663  1.00  0.00     0.258 C 
BRANCH   3   4
ATOM      4  N   UNL     1     -17.397  11.900 -15.410  1.00  0.00    -0.358 N 
ATOM      5  H   UNL     1     -17.764  12.397 -16.253  1.00  0.00     0.344 HD
ATOM      6  H   UNL     1     -16.870  11.052 -15.721  1.00  0.00     0.344 HD
ATOM      7  H   UNL     1     -18.192  11.598 -14.802  1.00  0.00     0.344 HD
ENDBRANCH   3   4
ENDBRANCH   2   3
ENDBRANCH   1   2
BRANCH   1   8
ATOM      8  C   UNL     1     -18.622  13.447 -11.761  1.00  0.00     0.072 C 
BRANCH   8   9
ATOM      9  C   UNL     1     -19.403  12.336 -12.496  1.00  0.00     0.227 C 
BRANCH   9  10
ATOM     10  N   UNL     1     -20.157  11.491 -11.558  1.00  0.00    -0.350 N 
ATOM     11  H   UNL     1     -19.509  10.987 -10.909  1.00  0.00     0.345 HD
ATOM     12  H   UNL     1     -20.811  12.082 -10.995  1.00  0.00     0.345 HD
ATOM     13  H   UNL     1     -20.733  10.795 -12.084  1.00  0.00     0.345 HD
ENDBRANCH   9  10
BRANCH   9  14
ATOM     14  C   UNL     1     -20.341  12.957 -13.497  1.00  0.00     0.099 C 
ATOM     15  O   UNL     1     -19.905  13.768 -14.355  1.00  0.00    -0.544 OA
ATOM     16  O   UNL     1     -21.698  12.656 -13.465  1.00  0.00    -0.544 OA
ENDBRANCH   9  14
ENDBRANCH   8   9
ENDBRANCH   1   8
TORSDOF 7
ENDMDL
MODEL 4
REMARK VINA RESULT:    -4.394      1.985      2.794
REMARK INTER + INTRA:          -6.415
REMARK INTER:                  -6.232
REMARK INTRA:                  -0.183
REMARK UNBOUND:                -0.479
REMARK SMILES [NH3+]CCCC[C@@H]([NH3+])C(=O)[O-]
REMARK SMILES IDX 4 1 3 2 2 3 1 4 5 8 6 9 7 10 8 14 9 15 10 16
REMARK H PARENT 1 5 1 6 1 7 7 11 7 12 7 13
REMARK Flexibility Score: inf
ROOT
ATOM      1  C   UNL     1     -19.854  12.480 -13.116  1.00  0.00     0.012 C 
ENDROOT
BRANCH   1   2
ATOM      2  C   UNL     1     -19.953  13.638 -14.122  1.00  0.00     0.061 C 
BRANCH   2   3
ATOM      3  C   UNL     1     -21.397  14.125 -14.325  1.00  0.00     0.258 C 
BRANCH   3   4
ATOM      4  N   UNL     1     -22.342  13.262 -13.619  1.00  0.00    -0.358 N 
ATOM      5  H   UNL     1     -22.961  13.837 -13.002  1.00  0.00     0.344 HD
ATOM      6  H   UNL     1     -22.935  12.759 -14.318  1.00  0.00     0.344 HD
ATOM      7  H   UNL     1     -21.826  12.557 -13.045  1.00  0.00     0.344 HD
ENDBRANCH   3   4
ENDBRANCH   2   3
ENDBRANCH   1   2
BRANCH   1   8
ATOM      8  C   UNL     1     -18.399  12.067 -12.832  1.00  0.00     0.072 C 
BRANCH   8   9
ATOM      9  C   UNL     1     -17.381  13.144 -13.267  1.00  0.00     0.227 C 
BRANCH   9  10
ATOM     10  N   UNL     1     -16.815  13.855 -12.112  1.00  0.00    -0.350 N 
ATOM     11  H   UNL     1     -16.588  14.846 -12.360  1.00  0.00     0.345 HD
ATOM     12  H   UNL     1     -17.500  13.850 -11.321  1.00  0.00     0.345 HD
ATOM     13  H   UNL     1     -15.949  13.372 -11.782  1.00  0.00     0.345 HD
ENDBRANCH   9  10
BRANCH   9  14
ATOM     14  C   UNL     1     -16.279  12.501 -14.067  1.00  0.00     0.099 C 
ATOM     15  O   UNL     1     -16.453  12.233 -15.285  1.00  0.00    -0.544 OA
ATOM     16  O   UNL     1     -15.071  12.178 -13.461  1.00  0.00    -0.544 OA
ENDBRANCH   9  14
ENDBRANCH   8   9
ENDBRANCH   1   8
TORSDOF 7
ENDMDL
MODEL 5
REMARK VINA RESULT:    -4.333     18.760     19.755
REMARK INTER + INTRA:          -6.333
REMARK INTER:                  -6.109
REMARK INTRA:                  -0.224
REMARK UNBOUND:                -0.479
REMARK SMILES [NH3+]CCCC[C@@H]([NH3+])C(=O)[O-]
REMARK SMILES IDX 4 1 3 2 2 3 1 4 5 8 6 9 7 10 8 14 9 15 10 16
REMARK H PARENT 1 5 1 6 1 7 7 11 7 12 7 13
REMARK Flexibility Score: inf
ROOT
ATOM      1  C   UNL     1     -12.186  -4.073 -24.089  1.00  0.00     0.012 C 
ENDROOT
BRANCH   1   2
ATOM      2  C   UNL     1     -12.980  -2.763 -24.213  1.00  0.00     0.061 C 
BRANCH   2   3
ATOM      3  C   UNL     1     -13.865  -2.721 -25.469  1.00  0.00     0.258 C 
BRANCH   3   4
ATOM      4  N   UNL     1     -15.255  -3.034 -25.137  1.00  0.00    -0.358 N 
ATOM      5  H   UNL     1     -15.368  -3.108 -24.101  1.00  0.00     0.344 HD
ATOM      6  H   UNL     1     -15.871  -2.266 -25.491  1.00  0.00     0.344 HD
ATOM      7  H   UNL     1     -15.540  -3.931 -25.591  1.00  0.00     0.344 HD
ENDBRANCH   3   4
ENDBRANCH   2   3
ENDBRANCH   1   2
BRANCH   1   8
ATOM      8  C   UNL     1     -12.311  -4.711 -22.694  1.00  0.00     0.072 C 
BRANCH   8   9
ATOM      9  C   UNL     1     -13.201  -3.882 -21.741  1.00  0.00     0.227 C 
BRANCH   9  10
ATOM     10  N   UNL     1     -14.436  -4.598 -21.392  1.00  0.00    -0.350 N 
ATOM     11  H   UNL     1     -14.255  -5.623 -21.289  1.00  0.00     0.345 HD
ATOM     12  H   UNL     1     -14.819  -4.227 -20.491  1.00  0.00     0.345 HD
ATOM     13  H   UNL     1     -15.161  -4.444 -22.129  1.00  0.00     0.345 HD
ENDBRANCH   9  10
BRANCH   9  14
ATOM     14  C   UNL     1     -12.428  -3.550 -20.492  1.00  0.00     0.099 C 
ATOM     15  O   UNL     1     -13.027  -3.118 -19.473  1.00  0.00    -0.544 OA
ATOM     16  O   UNL     1     -11.046  -3.695 -20.465  1.00  0.00    -0.544 OA
ENDBRANCH   9  14
ENDBRANCH   8   9
ENDBRANCH   1   8
TORSDOF 7
ENDMDL
MODEL 6
REMARK VINA RESULT:    -4.237     18.141     19.562
REMARK INTER + INTRA:          -6.203
REMARK INTER:                  -5.815
REMARK INTRA:                  -0.388
REMARK UNBOUND:                -0.479
REMARK SMILES [NH3+]CCCC[C@@H]([NH3+])C(=O)[O-]
REMARK SMILES IDX 4 1 3 2 2 3 1 4 5 8 6 9 7 10 8 14 9 15 10 16
REMARK H PARENT 1 5 1 6 1 7 7 11 7 12 7 13
REMARK Flexibility Score: inf
ROOT
ATOM      1  C   UNL     1     -14.340  -4.853 -22.878  1.00  0.00     0.012 C 
ENDROOT
BRANCH   1   2
ATOM      2  C   UNL     1     -14.133  -3.522 -23.618  1.00  0.00     0.061 C 
BRANCH   2   3
ATOM      3  C   UNL     1     -12.834  -3.495 -24.438  1.00  0.00     0.258 C 
BRANCH   3   4
ATOM      4  N   UNL     1     -11.951  -4.596 -24.053  1.00  0.00    -0.358 N 
ATOM      5  H   UNL     1     -11.624  -5.108 -24.904  1.00  0.00     0.344 HD
ATOM      6  H   UNL     1     -11.120  -4.208 -23.552  1.00  0.00     0.344 HD
ATOM      7  H   UNL     1     -12.455  -5.253 -23.415  1.00  0.00     0.344 HD
ENDBRANCH   3   4
ENDBRANCH   2   3
ENDBRANCH   1   2
BRANCH   1   8
ATOM      8  C   UNL     1     -14.023  -4.749 -21.375  1.00  0.00     0.072 C 
BRANCH   8   9
ATOM      9  C   UNL     1     -13.526  -3.344 -20.969  1.00  0.00     0.227 C 
BRANCH   9  10
ATOM     10  N   UNL     1     -14.304  -2.795 -19.849  1.00  0.00    -0.350 N 
ATOM     11  H   UNL     1     -14.439  -1.764 -19.960  1.00  0.00     0.345 HD
ATOM     12  H   UNL     1     -15.241  -3.259 -19.807  1.00  0.00     0.345 HD
ATOM     13  H   UNL     1     -13.816  -2.987 -18.945  1.00  0.00     0.345 HD
ENDBRANCH   9  10
BRANCH   9  14
ATOM     14  C   UNL     1     -12.068  -3.413 -20.599  1.00  0.00     0.099 C 
ATOM     15  O   UNL     1     -11.622  -2.715 -19.651  1.00  0.00    -0.544 OA
ATOM     16  O   UNL     1     -11.202  -4.229 -21.316  1.00  0.00    -0.544 OA
ENDBRANCH   9  14
ENDBRANCH   8   9
ENDBRANCH   1   8
TORSDOF 7
ENDMDL
MODEL 7
REMARK VINA RESULT:    -4.207     18.060     19.257
REMARK INTER + INTRA:          -6.162
REMARK INTER:                  -5.966
REMARK INTRA:                  -0.197
REMARK UNBOUND:                -0.479
REMARK SMILES [NH3+]CCCC[C@@H]([NH3+])C(=O)[O-]
REMARK SMILES IDX 4 1 3 2 2 3 1 4 5 8 6 9 7 10 8 14 9 15 10 16
REMARK H PARENT 1 5 1 6 1 7 7 11 7 12 7 13
REMARK Flexibility Score: inf
ROOT
ATOM      1  C   UNL     1     -11.946  -3.515 -21.157  1.00  0.00     0.012 C 
ENDROOT
BRANCH   1   2
ATOM      2  C   UNL     1     -12.782  -3.750 -19.889  1.00  0.00     0.061 C 
BRANCH   2   3
ATOM      3  C   UNL     1     -13.118  -2.446 -19.150  1.00  0.00     0.258 C 
BRANCH   3   4
ATOM      4  N   UNL     1     -14.564  -2.230 -19.106  1.00  0.00    -0.358 N 
ATOM      5  H   UNL     1     -15.059  -3.012 -19.592  1.00  0.00     0.344 HD
ATOM      6  H   UNL     1     -14.875  -2.201 -18.108  1.00  0.00     0.344 HD
ATOM      7  H   UNL     1     -14.805  -1.320 -19.560  1.00  0.00     0.344 HD
ENDBRANCH   3   4
ENDBRANCH   2   3
ENDBRANCH   1   2
BRANCH   1   8
ATOM      8  C   UNL     1     -12.504  -4.264 -22.381  1.00  0.00     0.072 C 
BRANCH   8   9
ATOM      9  C   UNL     1     -13.822  -3.650 -22.902  1.00  0.00     0.227 C 
BRANCH   9  10
ATOM     10  N   UNL     1     -13.672  -3.120 -24.265  1.00  0.00    -0.350 N 
ATOM     11  H   UNL     1     -13.042  -3.731 -24.834  1.00  0.00     0.345 HD
ATOM     12  H   UNL     1     -14.608  -3.068 -24.731  1.00  0.00     0.345 HD
ATOM     13  H   UNL     1     -13.281  -2.151 -24.234  1.00  0.00     0.345 HD
ENDBRANCH   9  10
BRANCH   9  14
ATOM     14  C   UNL     1     -14.910  -4.690 -22.870  1.00  0.00     0.099 C 
ATOM     15  O   UNL     1     -14.836  -5.659 -22.070  1.00  0.00    -0.544 OA
ATOM     16  O   UNL     1     -15.989  -4.601 -23.741  1.00  0.00    -0.544 OA
ENDBRANCH   9  14
ENDBRANCH   8   9
ENDBRANCH   1   8
TORSDOF 7
ENDMDL
MODEL 8
REMARK VINA RESULT:    -4.129      2.591      4.554
REMARK INTER + INTRA:          -6.057
REMARK INTER:                  -5.977
REMARK INTRA:                  -0.080
REMARK UNBOUND:                -0.479
REMARK SMILES [NH3+]CCCC[C@@H]([NH3+])C(=O)[O-]
REMARK SMILES IDX 4 1 3 2 2 3 1 4 5 8 6 9 7 10 8 14 9 15 10 16
REMARK H PARENT 1 5 1 6 1 7 7 11 7 12 7 13
REMARK Flexibility Score: inf
ROOT
ATOM      1  C   UNL     1     -16.537  12.365 -14.912  1.00  0.00     0.012 C 
ENDROOT
BRANCH   1   2
ATOM      2  C   UNL     1     -15.228  11.561 -14.923  1.00  0.00     0.061 C 
BRANCH   2   3
ATOM      3  C   UNL     1     -15.101  10.651 -16.155  1.00  0.00     0.258 C 
BRANCH   3   4
ATOM      4  N   UNL     1     -13.721  10.617 -16.639  1.00  0.00    -0.358 N 
ATOM      5  H   UNL     1     -13.257   9.730 -16.337  1.00  0.00     0.344 HD
ATOM      6  H   UNL     1     -13.724  10.659 -17.683  1.00  0.00     0.344 HD
ATOM      7  H   UNL     1     -13.191  11.439 -16.270  1.00  0.00     0.344 HD
ENDBRANCH   3   4
ENDBRANCH   2   3
ENDBRANCH   1   2
BRANCH   1   8
ATOM      8  C   UNL     1     -16.837  12.987 -13.536  1.00  0.00     0.072 C 
BRANCH   8   9
ATOM      9  C   UNL     1     -18.298  13.474 -13.412  1.00  0.00     0.227 C 
BRANCH   9  10
ATOM     10  N   UNL     1     -19.073  13.181 -14.626  1.00  0.00    -0.350 N 
ATOM     11  H   UNL     1     -18.775  13.800 -15.415  1.00  0.00     0.345 HD
ATOM     12  H   UNL     1     -18.933  12.182 -14.904  1.00  0.00     0.345 HD
ATOM     13  H   UNL     1     -20.093  13.317 -14.443  1.00  0.00     0.345 HD
ENDBRANCH   9  10
BRANCH   9  14
ATOM     14  C   UNL     1     -18.945  12.824 -12.218  1.00  0.00     0.099 C 
ATOM     15  O   UNL     1     -19.917  12.040 -12.374  1.00  0.00    -0.544 OA
ATOM     16  O   UNL     1     -18.489  13.104 -10.935  1.00  0.00    -0.544 OA
ENDBRANCH   9  14
ENDBRANCH   8   9
ENDBRANCH   1   8
TORSDOF 7
ENDMDL
MODEL 9
REMARK VINA RESULT:    -4.088      1.785      2.214
REMARK INTER + INTRA:          -6.001
REMARK INTER:                  -5.870
REMARK INTRA:                  -0.131
REMARK UNBOUND:                -0.479
REMARK SMILES [NH3+]CCCC[C@@H]([NH3+])C(=O)[O-]
REMARK SMILES IDX 4 1 3 2 2 3 1 4 5 8 6 9 7 10 8 14 9 15 10 16
REMARK H PARENT 1 5 1 6 1 7 7 11 7 12 7 13
REMARK Flexibility Score: inf
ROOT
ATOM      1  C   UNL     1     -19.826  13.724 -14.257  1.00  0.00     0.012 C 
ENDROOT
BRANCH   1   2
ATOM      2  C   UNL     1     -21.250  13.317 -13.846  1.00  0.00     0.061 C 
BRANCH   2   3
ATOM      3  C   UNL     1     -21.266  12.212 -12.779  1.00  0.00     0.258 C 
BRANCH   3   4
ATOM      4  N   UNL     1     -22.630  11.747 -12.530  1.00  0.00    -0.358 N 
ATOM      5  H   UNL     1     -22.670  10.704 -12.587  1.00  0.00     0.344 HD
ATOM      6  H   UNL     1     -22.924  12.045 -11.572  1.00  0.00     0.344 HD
ATOM      7  H   UNL     1     -23.285  12.166 -13.229  1.00  0.00     0.344 HD
ENDBRANCH   3   4
ENDBRANCH   2   3
ENDBRANCH   1   2
BRANCH   1   8
ATOM      8  C   UNL     1     -18.788  13.438 -13.157  1.00  0.00     0.072 C 
BRANCH   8   9
ATOM      9  C   UNL     1     -17.778  12.343 -13.564  1.00  0.00     0.227 C 
BRANCH   9  10
ATOM     10  N   UNL     1     -18.011  11.874 -14.938  1.00  0.00    -0.350 N 
ATOM     11  H   UNL     1     -18.987  12.092 -15.244  1.00  0.00     0.345 HD
ATOM     12  H   UNL     1     -17.337  12.338 -15.590  1.00  0.00     0.345 HD
ATOM     13  H   UNL     1     -17.849  10.843 -14.998  1.00  0.00     0.345 HD
ENDBRANCH   9  10
BRANCH   9  14
ATOM     14  C   UNL     1     -16.376  12.876 -13.432  1.00  0.00     0.099 C 
ATOM     15  O   UNL     1     -16.156  13.922 -12.767  1.00  0.00    -0.544 OA
ATOM     16  O   UNL     1     -15.320  12.231 -14.064  1.00  0.00    -0.544 OA
ENDBRANCH   9  14
ENDBRANCH   8   9
ENDBRANCH   1   8
TORSDOF 7
ENDMDL
