MODEL 1
REMARK VINA RESULT:    -3.621      0.000      0.000
REMARK INTER + INTRA:          -8.843
REMARK INTER:                  -6.690
REMARK INTRA:                  -2.153
REMARK UNBOUND:                -2.153
REMARK SMILES CCCCCCCCCCCCCCCCO
REMARK SMILES IDX 9 1 8 2 7 3 6 4 5 5 4 6 3 7 2 8 1 9 10 10 11 11 12 12 13 13
REMARK SMILES IDX 14 14 15 15 16 16 17 17
REMARK H PARENT 17 18
REMARK Flexibility Score: inf
ROOT
ATOM      1  C   UNL     1     117.428 115.133 114.432  1.00  0.00     0.000 C 
ENDROOT
BRANCH   1   2
ATOM      2  C   UNL     1     118.412 114.203 113.706  1.00  0.00    -0.000 C 
BRANCH   2   3
ATOM      3  C   UNL     1     118.703 114.654 112.264  1.00  0.00    -0.000 C 
BRANCH   3   4
ATOM      4  C   UNL     1     118.370 116.145 112.043  1.00  0.00    -0.000 C 
BRANCH   4   5
ATOM      5  C   UNL     1     119.614 117.040 111.876  1.00  0.00    -0.000 C 
BRANCH   5   6
ATOM      6  C   UNL     1     119.636 118.291 112.770  1.00  0.00    -0.000 C 
BRANCH   6   7
ATOM      7  C   UNL     1     118.333 118.479 113.562  1.00  0.00    -0.000 C 
BRANCH   7   8
ATOM      8  C   UNL     1     118.611 118.513 115.069  1.00  0.00    -0.003 C 
ATOM      9  C   UNL     1     119.942 117.845 115.400  1.00  0.00     0.004 C 
ENDBRANCH   7   8
ENDBRANCH   6   7
ENDBRANCH   5   6
ENDBRANCH   4   5
ENDBRANCH   3   4
ENDBRANCH   2   3
ENDBRANCH   1   2
BRANCH   1  10
ATOM     10  C   UNL     1     116.179 114.392 114.941  1.00  0.00     0.000 C 
BRANCH  10  11
ATOM     11  C   UNL     1     114.872 114.991 114.381  1.00  0.00     0.000 C 
BRANCH  11  12
ATOM     12  C   UNL     1     114.885 115.186 112.852  1.00  0.00     0.000 C 
BRANCH  12  13
ATOM     13  C   UNL     1     114.093 116.406 112.345  1.00  0.00     0.000 C 
BRANCH  13  14
ATOM     14  C   UNL     1     114.955 117.620 111.951  1.00  0.00     0.002 C 
BRANCH  14  15
ATOM     15  C   UNL     1     114.599 118.888 112.742  1.00  0.00     0.028 C 
BRANCH  15  16
ATOM     16  C   UNL     1     114.758 118.677 114.249  1.00  0.00     0.156 C 
BRANCH  16  17
ATOM     17  O   UNL     1     115.184 119.863 114.861  1.00  0.00    -0.396 OA
ATOM     18  H   UNL     1     116.095 120.041 114.512  1.00  0.00     0.210 HD
ENDBRANCH  16  17
ENDBRANCH  15  16
ENDBRANCH  14  15
ENDBRANCH  13  14
ENDBRANCH  12  13
ENDBRANCH  11  12
ENDBRANCH  10  11
ENDBRANCH   1  10
TORSDOF 15
ENDMDL
MODEL 2
REMARK VINA RESULT:    -3.574      1.115      2.307
REMARK INTER + INTRA:          -8.756
REMARK INTER:                  -6.671
REMARK INTRA:                  -2.084
REMARK UNBOUND:                -2.153
REMARK SMILES CCCCCCCCCCCCCCCCO
REMARK SMILES IDX 9 1 8 2 7 3 6 4 5 5 4 6 3 7 2 8 1 9 10 10 11 11 12 12 13 13
REMARK SMILES IDX 14 14 15 15 16 16 17 17
REMARK H PARENT 17 18
REMARK Flexibility Score: inf
ROOT
ATOM      1  C   UNL     1     114.976 114.853 113.823  1.00  0.00     0.000 C 
ENDROOT
BRANCH   1   2
ATOM      2  C   UNL     1     116.450 115.128 114.157  1.00  0.00    -0.000 C 
BRANCH   2   3
ATOM      3  C   UNL     1     117.393 114.033 113.628  1.00  0.00    -0.000 C 
BRANCH   3   4
ATOM      4  C   UNL     1     118.536 114.614 112.768  1.00  0.00    -0.000 C 
BRANCH   4   5
ATOM      5  C   UNL     1     118.166 115.927 112.050  1.00  0.00    -0.000 C 
BRANCH   5   6
ATOM      6  C   UNL     1     119.299 116.963 111.972  1.00  0.00    -0.000 C 
BRANCH   6   7
ATOM      7  C   UNL     1     118.889 118.337 112.524  1.00  0.00    -0.000 C 
BRANCH   7   8
ATOM      8  C   UNL     1     118.536 118.243 114.013  1.00  0.00    -0.003 C 
ATOM      9  C   UNL     1     119.769 117.927 114.853  1.00  0.00     0.004 C 
ENDBRANCH   7   8
ENDBRANCH   6   7
ENDBRANCH   5   6
ENDBRANCH   4   5
ENDBRANCH   3   4
ENDBRANCH   2   3
ENDBRANCH   1   2
BRANCH   1  10
ATOM     10  C   UNL     1     114.197 116.136 113.485  1.00  0.00     0.000 C 
BRANCH  10  11
ATOM     11  C   UNL     1     114.555 116.689 112.089  1.00  0.00     0.000 C 
BRANCH  11  12
ATOM     12  C   UNL     1     115.138 118.115 112.119  1.00  0.00     0.000 C 
BRANCH  12  13
ATOM     13  C   UNL     1     114.412 119.094 113.063  1.00  0.00     0.000 C 
BRANCH  13  14
ATOM     14  C   UNL     1     115.263 119.614 114.236  1.00  0.00     0.002 C 
BRANCH  14  15
ATOM     15  C   UNL     1     114.940 118.914 115.566  1.00  0.00     0.028 C 
BRANCH  15  16
ATOM     16  C   UNL     1     114.782 119.919 116.709  1.00  0.00     0.156 C 
BRANCH  16  17
ATOM     17  O   UNL     1     115.570 121.051 116.469  1.00  0.00    -0.396 OA
ATOM     18  H   UNL     1     116.500 120.793 116.700  1.00  0.00     0.210 HD
ENDBRANCH  16  17
ENDBRANCH  15  16
ENDBRANCH  14  15
ENDBRANCH  13  14
ENDBRANCH  12  13
ENDBRANCH  11  12
ENDBRANCH  10  11
ENDBRANCH   1  10
TORSDOF 15
ENDMDL
MODEL 3
REMARK VINA RESULT:    -3.569      2.023      4.055
REMARK INTER + INTRA:          -8.747
REMARK INTER:                  -6.937
REMARK INTRA:                  -1.810
REMARK UNBOUND:                -2.153
REMARK SMILES CCCCCCCCCCCCCCCCO
REMARK SMILES IDX 9 1 8 2 7 3 6 4 5 5 4 6 3 7 2 8 1 9 10 10 11 11 12 12 13 13
REMARK SMILES IDX 14 14 15 15 16 16 17 17
REMARK H PARENT 17 18
REMARK Flexibility Score: inf
ROOT
ATOM      1  C   UNL     1     116.935 118.740 114.729  1.00  0.00     0.000 C 
ENDROOT
BRANCH   1   2
ATOM      2  C   UNL     1     118.319 118.106 114.515  1.00  0.00    -0.000 C 
BRANCH   2   3
ATOM      3  C   UNL     1     118.912 118.428 113.131  1.00  0.00    -0.000 C 
BRANCH   3   4
ATOM      4  C   UNL     1     118.966 117.184 112.218  1.00  0.00    -0.000 C 
BRANCH   4   5
ATOM      5  C   UNL     1     118.300 115.936 112.829  1.00  0.00    -0.000 C 
BRANCH   5   6
ATOM      6  C   UNL     1     118.698 114.604 112.172  1.00  0.00    -0.000 C 
BRANCH   6   7
ATOM      7  C   UNL     1     118.588 113.410 113.132  1.00  0.00    -0.000 C 
BRANCH   7   8
ATOM      8  C   UNL     1     117.555 113.688 114.231  1.00  0.00    -0.003 C 
ATOM      9  C   UNL     1     118.112 113.347 115.610  1.00  0.00     0.004 C 
ENDBRANCH   7   8
ENDBRANCH   6   7
ENDBRANCH   5   6
ENDBRANCH   4   5
ENDBRANCH   3   4
ENDBRANCH   2   3
ENDBRANCH   1   2
BRANCH   1  10
ATOM     10  C   UNL     1     116.307 119.244 113.418  1.00  0.00     0.000 C 
BRANCH  10  11
ATOM     11  C   UNL     1     114.853 118.758 113.240  1.00  0.00     0.000 C 
BRANCH  11  12
ATOM     12  C   UNL     1     114.666 117.783 112.061  1.00  0.00     0.000 C 
BRANCH  12  13
ATOM     13  C   UNL     1     114.794 116.291 112.426  1.00  0.00     0.000 C 
BRANCH  13  14
ATOM     14  C   UNL     1     114.587 115.969 113.917  1.00  0.00     0.002 C 
BRANCH  14  15
ATOM     15  C   UNL     1     113.604 114.809 114.147  1.00  0.00     0.028 C 
BRANCH  15  16
ATOM     16  C   UNL     1     113.006 114.847 115.554  1.00  0.00     0.156 C 
BRANCH  16  17
ATOM     17  O   UNL     1     111.853 114.055 115.611  1.00  0.00    -0.396 OA
ATOM     18  H   UNL     1     111.748 113.789 116.561  1.00  0.00     0.210 HD
ENDBRANCH  16  17
ENDBRANCH  15  16
ENDBRANCH  14  15
ENDBRANCH  13  14
ENDBRANCH  12  13
ENDBRANCH  11  12
ENDBRANCH  10  11
ENDBRANCH   1  10
TORSDOF 15
ENDMDL
MODEL 4
REMARK VINA RESULT:    -3.564      2.311      3.849
REMARK INTER + INTRA:          -8.739
REMARK INTER:                  -6.816
REMARK INTRA:                  -1.923
REMARK UNBOUND:                -2.153
REMARK SMILES CCCCCCCCCCCCCCCCO
REMARK SMILES IDX 9 1 8 2 7 3 6 4 5 5 4 6 3 7 2 8 1 9 10 10 11 11 12 12 13 13
REMARK SMILES IDX 14 14 15 15 16 16 17 17
REMARK H PARENT 17 18
REMARK Flexibility Score: inf
ROOT
ATOM      1  C   UNL     1     115.053 117.834 114.893  1.00  0.00     0.000 C 
ENDROOT
BRANCH   1   2
ATOM      2  C   UNL     1     114.821 118.620 113.594  1.00  0.00    -0.000 C 
BRANCH   2   3
ATOM      3  C   UNL     1     116.133 119.101 112.949  1.00  0.00    -0.000 C 
BRANCH   3   4
ATOM      4  C   UNL     1     116.884 117.958 112.233  1.00  0.00    -0.000 C 
BRANCH   4   5
ATOM      5  C   UNL     1     118.351 118.292 111.900  1.00  0.00    -0.000 C 
BRANCH   5   6
ATOM      6  C   UNL     1     119.394 117.547 112.751  1.00  0.00    -0.000 C 
BRANCH   6   7
ATOM      7  C   UNL     1     119.934 118.398 113.909  1.00  0.00    -0.000 C 
BRANCH   7   8
ATOM      8  C   UNL     1     119.670 117.716 115.257  1.00  0.00    -0.003 C 
ATOM      9  C   UNL     1     118.499 118.367 115.985  1.00  0.00     0.004 C 
ENDBRANCH   7   8
ENDBRANCH   6   7
ENDBRANCH   5   6
ENDBRANCH   4   5
ENDBRANCH   3   4
ENDBRANCH   2   3
ENDBRANCH   1   2
BRANCH   1  10
ATOM     10  C   UNL     1     114.539 116.387 114.808  1.00  0.00     0.000 C 
BRANCH  10  11
ATOM     11  C   UNL     1     113.984 116.043 113.409  1.00  0.00     0.000 C 
BRANCH  11  12
ATOM     12  C   UNL     1     114.419 114.657 112.895  1.00  0.00     0.000 C 
BRANCH  12  13
ATOM     13  C   UNL     1     115.607 114.672 111.912  1.00  0.00     0.000 C 
BRANCH  13  14
ATOM     14  C   UNL     1     116.908 114.057 112.459  1.00  0.00     0.002 C 
BRANCH  14  15
ATOM     15  C   UNL     1     117.227 114.508 113.893  1.00  0.00     0.028 C 
BRANCH  15  16
ATOM     16  C   UNL     1     118.111 113.494 114.620  1.00  0.00     0.156 C 
BRANCH  16  17
ATOM     17  O   UNL     1     118.926 112.818 113.704  1.00  0.00    -0.396 OA
ATOM     18  H   UNL     1     119.274 113.509 113.083  1.00  0.00     0.210 HD
ENDBRANCH  16  17
ENDBRANCH  15  16
ENDBRANCH  14  15
ENDBRANCH  13  14
ENDBRANCH  12  13
ENDBRANCH  11  12
ENDBRANCH  10  11
ENDBRANCH   1  10
TORSDOF 15
ENDMDL
MODEL 5
REMARK VINA RESULT:    -3.556      2.212      3.598
REMARK INTER + INTRA:          -8.723
REMARK INTER:                  -6.566
REMARK INTRA:                  -2.157
REMARK UNBOUND:                -2.153
REMARK SMILES CCCCCCCCCCCCCCCCO
REMARK SMILES IDX 9 1 8 2 7 3 6 4 5 5 4 6 3 7 2 8 1 9 10 10 11 11 12 12 13 13
REMARK SMILES IDX 14 14 15 15 16 16 17 17
REMARK H PARENT 17 18
REMARK Flexibility Score: inf
ROOT
ATOM      1  C   UNL     1     117.138 113.993 113.185  1.00  0.00     0.000 C 
ENDROOT
BRANCH   1   2
ATOM      2  C   UNL     1     118.459 114.714 113.498  1.00  0.00    -0.000 C 
BRANCH   2   3
ATOM      3  C   UNL     1     118.499 115.287 114.925  1.00  0.00    -0.000 C 
BRANCH   3   4
ATOM      4  C   UNL     1     118.783 116.804 114.936  1.00  0.00    -0.000 C 
BRANCH   4   5
ATOM      5  C   UNL     1     117.626 117.655 114.377  1.00  0.00    -0.000 C 
BRANCH   5   6
ATOM      6  C   UNL     1     117.988 118.514 113.153  1.00  0.00    -0.000 C 
BRANCH   6   7
ATOM      7  C   UNL     1     116.924 118.453 112.048  1.00  0.00    -0.000 C 
BRANCH   7   8
ATOM      8  C   UNL     1     115.895 119.577 112.218  1.00  0.00    -0.003 C 
ATOM      9  C   UNL     1     114.550 119.027 112.682  1.00  0.00     0.004 C 
ENDBRANCH   7   8
ENDBRANCH   6   7
ENDBRANCH   5   6
ENDBRANCH   4   5
ENDBRANCH   3   4
ENDBRANCH   2   3
ENDBRANCH   1   2
BRANCH   1  10
ATOM     10  C   UNL     1     116.495 114.480 111.875  1.00  0.00     0.000 C 
BRANCH  10  11
ATOM     11  C   UNL     1     115.213 115.304 112.122  1.00  0.00     0.000 C 
BRANCH  11  12
ATOM     12  C   UNL     1     114.006 114.453 112.563  1.00  0.00     0.000 C 
BRANCH  12  13
ATOM     13  C   UNL     1     113.423 114.819 113.942  1.00  0.00     0.000 C 
BRANCH  13  14
ATOM     14  C   UNL     1     114.264 115.817 114.758  1.00  0.00     0.002 C 
BRANCH  14  15
ATOM     15  C   UNL     1     114.916 115.180 115.995  1.00  0.00     0.028 C 
BRANCH  15  16
ATOM     16  C   UNL     1     113.897 114.938 117.110  1.00  0.00     0.156 C 
BRANCH  16  17
ATOM     17  O   UNL     1     113.535 113.586 117.149  1.00  0.00    -0.396 OA
ATOM     18  H   UNL     1     113.853 113.241 118.023  1.00  0.00     0.210 HD
ENDBRANCH  16  17
ENDBRANCH  15  16
ENDBRANCH  14  15
ENDBRANCH  13  14
ENDBRANCH  12  13
ENDBRANCH  11  12
ENDBRANCH  10  11
ENDBRANCH   1  10
TORSDOF 15
ENDMDL
MODEL 6
REMARK VINA RESULT:    -3.514      2.588      5.184
REMARK INTER + INTRA:          -8.646
REMARK INTER:                  -6.592
REMARK INTRA:                  -2.054
REMARK UNBOUND:                -2.153
REMARK SMILES CCCCCCCCCCCCCCCCO
REMARK SMILES IDX 9 1 8 2 7 3 6 4 5 5 4 6 3 7 2 8 1 9 10 10 11 11 12 12 13 13
REMARK SMILES IDX 14 14 15 15 16 16 17 17
REMARK H PARENT 17 18
REMARK Flexibility Score: inf
ROOT
ATOM      1  C   UNL     1     118.798 118.112 112.089  1.00  0.00     0.000 C 
ENDROOT
BRANCH   1   2
ATOM      2  C   UNL     1     119.396 118.783 113.335  1.00  0.00    -0.000 C 
BRANCH   2   3
ATOM      3  C   UNL     1     119.571 117.804 114.510  1.00  0.00    -0.000 C 
BRANCH   3   4
ATOM      4  C   UNL     1     118.588 118.098 115.663  1.00  0.00    -0.000 C 
BRANCH   4   5
ATOM      5  C   UNL     1     117.106 117.966 115.264  1.00  0.00    -0.000 C 
BRANCH   5   6
ATOM      6  C   UNL     1     116.261 119.232 115.486  1.00  0.00    -0.000 C 
BRANCH   6   7
ATOM      7  C   UNL     1     115.236 119.468 114.366  1.00  0.00    -0.000 C 
BRANCH   7   8
ATOM      8  C   UNL     1     115.346 118.382 113.289  1.00  0.00    -0.003 C 
ATOM      9  C   UNL     1     115.121 118.962 111.896  1.00  0.00     0.004 C 
ENDBRANCH   7   8
ENDBRANCH   6   7
ENDBRANCH   5   6
ENDBRANCH   4   5
ENDBRANCH   3   4
ENDBRANCH   2   3
ENDBRANCH   1   2
BRANCH   1  10
ATOM     10  C   UNL     1     118.993 116.586 112.087  1.00  0.00     0.000 C 
BRANCH  10  11
ATOM     11  C   UNL     1     117.666 115.825 111.879  1.00  0.00     0.000 C 
BRANCH  11  12
ATOM     12  C   UNL     1     117.662 114.410 112.491  1.00  0.00     0.000 C 
BRANCH  12  13
ATOM     13  C   UNL     1     118.470 114.264 113.795  1.00  0.00     0.000 C 
BRANCH  13  14
ATOM     14  C   UNL     1     117.622 114.041 115.060  1.00  0.00     0.002 C 
BRANCH  14  15
ATOM     15  C   UNL     1     118.246 113.022 116.027  1.00  0.00     0.028 C 
BRANCH  15  16
ATOM     16  C   UNL     1     118.929 113.711 117.210  1.00  0.00     0.156 C 
BRANCH  16  17
ATOM     17  O   UNL     1     120.189 113.144 117.438  1.00  0.00    -0.396 OA
ATOM     18  H   UNL     1     120.355 113.225 118.413  1.00  0.00     0.210 HD
ENDBRANCH  16  17
ENDBRANCH  15  16
ENDBRANCH  14  15
ENDBRANCH  13  14
ENDBRANCH  12  13
ENDBRANCH  11  12
ENDBRANCH  10  11
ENDBRANCH   1  10
TORSDOF 15
ENDMDL
MODEL 7
REMARK VINA RESULT:    -3.513      1.454      4.414
REMARK INTER + INTRA:          -8.644
REMARK INTER:                  -6.410
REMARK INTRA:                  -2.234
REMARK UNBOUND:                -2.153
REMARK SMILES CCCCCCCCCCCCCCCCO
REMARK SMILES IDX 9 1 8 2 7 3 6 4 5 5 4 6 3 7 2 8 1 9 10 10 11 11 12 12 13 13
REMARK SMILES IDX 14 14 15 15 16 16 17 17
REMARK H PARENT 17 18
REMARK Flexibility Score: inf
ROOT
ATOM      1  C   UNL     1     119.345 118.492 113.514  1.00  0.00     0.000 C 
ENDROOT
BRANCH   1   2
ATOM      2  C   UNL     1     119.218 117.109 114.171  1.00  0.00    -0.000 C 
BRANCH   2   3
ATOM      3  C   UNL     1     118.258 117.110 115.375  1.00  0.00    -0.000 C 
BRANCH   3   4
ATOM      4  C   UNL     1     117.292 115.907 115.349  1.00  0.00    -0.000 C 
BRANCH   4   5
ATOM      5  C   UNL     1     117.007 115.369 113.933  1.00  0.00    -0.000 C 
BRANCH   5   6
ATOM      6  C   UNL     1     115.825 114.389 113.839  1.00  0.00    -0.000 C 
BRANCH   6   7
ATOM      7  C   UNL     1     114.510 114.992 114.354  1.00  0.00    -0.000 C 
BRANCH   7   8
ATOM      8  C   UNL     1     113.382 114.793 113.334  1.00  0.00    -0.003 C 
ATOM      9  C   UNL     1     113.848 115.135 111.923  1.00  0.00     0.004 C 
ENDBRANCH   7   8
ENDBRANCH   6   7
ENDBRANCH   5   6
ENDBRANCH   4   5
ENDBRANCH   3   4
ENDBRANCH   2   3
ENDBRANCH   1   2
BRANCH   1  10
ATOM     10  C   UNL     1     118.886 118.493 112.045  1.00  0.00     0.000 C 
BRANCH  10  11
ATOM     11  C   UNL     1     117.404 118.091 111.894  1.00  0.00     0.000 C 
BRANCH  11  12
ATOM     12  C   UNL     1     116.417 119.196 112.317  1.00  0.00     0.000 C 
BRANCH  12  13
ATOM     13  C   UNL     1     115.048 118.690 112.813  1.00  0.00     0.000 C 
BRANCH  13  14
ATOM     14  C   UNL     1     114.897 118.629 114.344  1.00  0.00     0.002 C 
BRANCH  14  15
ATOM     15  C   UNL     1     115.818 119.617 115.076  1.00  0.00     0.028 C 
BRANCH  15  16
ATOM     16  C   UNL     1     115.340 119.882 116.505  1.00  0.00     0.156 C 
BRANCH  16  17
ATOM     17  O   UNL     1     114.033 120.386 116.491  1.00  0.00    -0.396 OA
ATOM     18  H   UNL     1     113.894 120.816 117.374  1.00  0.00     0.210 HD
ENDBRANCH  16  17
ENDBRANCH  15  16
ENDBRANCH  14  15
ENDBRANCH  13  14
ENDBRANCH  12  13
ENDBRANCH  11  12
ENDBRANCH  10  11
ENDBRANCH   1  10
TORSDOF 15
ENDMDL
MODEL 8
REMARK VINA RESULT:    -3.500      2.022      4.557
REMARK INTER + INTRA:          -8.619
REMARK INTER:                  -6.346
REMARK INTRA:                  -2.273
REMARK UNBOUND:                -2.153
REMARK SMILES CCCCCCCCCCCCCCCCO
REMARK SMILES IDX 9 1 8 2 7 3 6 4 5 5 4 6 3 7 2 8 1 9 10 10 11 11 12 12 13 13
REMARK SMILES IDX 14 14 15 15 16 16 17 17
REMARK H PARENT 17 18
REMARK Flexibility Score: inf
ROOT
ATOM      1  C   UNL     1     118.156 113.253 113.244  1.00  0.00     0.000 C 
ENDROOT
BRANCH   1   2
ATOM      2  C   UNL     1     118.171 113.900 114.637  1.00  0.00    -0.000 C 
BRANCH   2   3
ATOM      3  C   UNL     1     116.766 114.006 115.257  1.00  0.00    -0.000 C 
BRANCH   3   4
ATOM      4  C   UNL     1     116.324 115.473 115.450  1.00  0.00    -0.000 C 
BRANCH   4   5
ATOM      5  C   UNL     1     115.422 116.002 114.318  1.00  0.00    -0.000 C 
BRANCH   5   6
ATOM      6  C   UNL     1     114.402 117.070 114.749  1.00  0.00    -0.000 C 
BRANCH   6   7
ATOM      7  C   UNL     1     115.036 118.198 115.576  1.00  0.00    -0.000 C 
BRANCH   7   8
ATOM      8  C   UNL     1     115.649 119.266 114.662  1.00  0.00    -0.003 C 
ATOM      9  C   UNL     1     114.703 119.623 113.520  1.00  0.00     0.004 C 
ENDBRANCH   7   8
ENDBRANCH   6   7
ENDBRANCH   5   6
ENDBRANCH   4   5
ENDBRANCH   3   4
ENDBRANCH   2   3
ENDBRANCH   1   2
BRANCH   1  10
ATOM     10  C   UNL     1     117.893 114.272 112.122  1.00  0.00     0.000 C 
BRANCH  10  11
ATOM     11  C   UNL     1     118.858 115.476 112.184  1.00  0.00     0.000 C 
BRANCH  11  12
ATOM     12  C   UNL     1     118.147 116.842 112.133  1.00  0.00     0.000 C 
BRANCH  12  13
ATOM     13  C   UNL     1     118.674 117.887 113.136  1.00  0.00     0.000 C 
BRANCH  13  14
ATOM     14  C   UNL     1     119.293 117.300 114.418  1.00  0.00     0.002 C 
BRANCH  14  15
ATOM     15  C   UNL     1     119.160 118.237 115.629  1.00  0.00     0.028 C 
BRANCH  15  16
ATOM     16  C   UNL     1     120.502 118.443 116.333  1.00  0.00     0.156 C 
BRANCH  16  17
ATOM     17  O   UNL     1     121.401 119.094 115.480  1.00  0.00    -0.396 OA
ATOM     18  H   UNL     1     121.036 118.990 114.564  1.00  0.00     0.210 HD
ENDBRANCH  16  17
ENDBRANCH  15  16
ENDBRANCH  14  15
ENDBRANCH  13  14
ENDBRANCH  12  13
ENDBRANCH  11  12
ENDBRANCH  10  11
ENDBRANCH   1  10
TORSDOF 15
ENDMDL
MODEL 9
REMARK VINA RESULT:    -3.388      2.837      5.302
REMARK INTER + INTRA:          -8.413
REMARK INTER:                  -6.014
REMARK INTRA:                  -2.399
REMARK UNBOUND:                -2.153
REMARK SMILES CCCCCCCCCCCCCCCCO
REMARK SMILES IDX 9 1 8 2 7 3 6 4 5 5 4 6 3 7 2 8 1 9 10 10 11 11 12 12 13 13
REMARK SMILES IDX 14 14 15 15 16 16 17 17
REMARK H PARENT 17 18
REMARK Flexibility Score: inf
ROOT
ATOM      1  C   UNL     1     114.874 115.107 111.875  1.00  0.00     0.000 C 
ENDROOT
BRANCH   1   2
ATOM      2  C   UNL     1     114.172 114.371 113.027  1.00  0.00    -0.000 C 
BRANCH   2   3
ATOM      3  C   UNL     1     113.578 115.333 114.071  1.00  0.00    -0.000 C 
BRANCH   3   4
ATOM      4  C   UNL     1     114.498 115.500 115.299  1.00  0.00    -0.000 C 
BRANCH   4   5
ATOM      5  C   UNL     1     114.681 116.965 115.742  1.00  0.00    -0.000 C 
BRANCH   5   6
ATOM      6  C   UNL     1     116.077 117.551 115.477  1.00  0.00    -0.000 C 
BRANCH   6   7
ATOM      7  C   UNL     1     116.186 118.232 114.105  1.00  0.00    -0.000 C 
BRANCH   7   8
ATOM      8  C   UNL     1     114.849 118.865 113.703  1.00  0.00    -0.003 C 
ATOM      9  C   UNL     1     114.698 118.919 112.186  1.00  0.00     0.004 C 
ENDBRANCH   7   8
ENDBRANCH   6   7
ENDBRANCH   5   6
ENDBRANCH   4   5
ENDBRANCH   3   4
ENDBRANCH   2   3
ENDBRANCH   1   2
BRANCH   1  10
ATOM     10  C   UNL     1     116.391 115.238 112.095  1.00  0.00     0.000 C 
BRANCH  10  11
ATOM     11  C   UNL     1     117.123 113.885 111.958  1.00  0.00     0.000 C 
BRANCH  11  12
ATOM     12  C   UNL     1     118.241 113.679 112.998  1.00  0.00     0.000 C 
BRANCH  12  13
ATOM     13  C   UNL     1     118.463 114.864 113.957  1.00  0.00     0.000 C 
BRANCH  13  14
ATOM     14  C   UNL     1     118.139 114.573 115.433  1.00  0.00     0.002 C 
BRANCH  14  15
ATOM     15  C   UNL     1     117.804 113.096 115.692  1.00  0.00     0.028 C 
BRANCH  15  16
ATOM     16  C   UNL     1     118.623 112.526 116.851  1.00  0.00     0.156 C 
BRANCH  16  17
ATOM     17  O   UNL     1     119.725 113.349 117.115  1.00  0.00    -0.396 OA
ATOM     18  H   UNL     1     120.347 113.230 116.351  1.00  0.00     0.210 HD
ENDBRANCH  16  17
ENDBRANCH  15  16
ENDBRANCH  14  15
ENDBRANCH  13  14
ENDBRANCH  12  13
ENDBRANCH  11  12
ENDBRANCH  10  11
ENDBRANCH   1  10
TORSDOF 15
ENDMDL
