MODEL 1
REMARK VINA RESULT:     0.000      0.000      0.000
REMARK INTER + INTRA:          -3.674
REMARK INTER:                   0.000
REMARK INTRA:                  -3.674
REMARK UNBOUND:                -3.674
REMARK SMILES CCCCCC=CCC=CCCCCCCCC(=O)[O-]
REMARK SMILES IDX 11 1 12 2 13 3 14 4 15 5 16 6 17 7 18 8 19 9 20 10 10 11
REMARK SMILES IDX 9 12 8 13 7 14 6 15 5 16 4 17 3 18 2 19 1 20
REMARK H PARENT
REMARK Flexibility Score: inf
ROOT
ATOM      1  C   UNL     1      12.385  17.171  54.336  1.00  0.00     0.027 C 
ENDROOT
BRANCH   1   2
ATOM      2  C   UNL     1      11.232  16.198  54.631  1.00  0.00     0.004 C 
BRANCH   2   3
ATOM      3  C   UNL     1       9.866  16.878  54.839  1.00  0.00     0.000 C 
BRANCH   3   4
ATOM      4  C   UNL     1       9.291  16.692  56.259  1.00  0.00     0.000 C 
BRANCH   4   5
ATOM      5  C   UNL     1       9.505  17.931  57.141  1.00  0.00     0.000 C 
BRANCH   5   6
ATOM      6  C   UNL     1      10.328  17.582  58.390  1.00  0.00     0.006 C 
BRANCH   6   7
ATOM      7  C   UNL     1      11.785  18.049  58.273  1.00  0.00     0.053 C 
BRANCH   7   8
ATOM      8  C   UNL     1      12.709  16.911  57.964  1.00  0.00     0.041 C 
ATOM      9  O   UNL     1      13.894  17.135  57.602  1.00  0.00    -0.550 OA
ATOM     10  O   UNL     1      12.248  15.603  58.040  1.00  0.00    -0.550 OA
ENDBRANCH   7   8
ENDBRANCH   6   7
ENDBRANCH   5   6
ENDBRANCH   4   5
ENDBRANCH   3   4
ENDBRANCH   2   3
ENDBRANCH   1   2
BRANCH   1  11
ATOM     11  C   UNL     1      11.989  18.613  54.512  1.00  0.00    -0.031 C 
ATOM     12  C   UNL     1      12.849  19.527  54.982  1.00  0.00    -0.027 C 
BRANCH  12  13
ATOM     13  C   UNL     1      12.433  20.961  55.152  1.00  0.00     0.054 C 
BRANCH  13  14
ATOM     14  C   UNL     1      11.504  21.127  56.324  1.00  0.00    -0.027 C 
ATOM     15  C   UNL     1      10.203  21.463  56.233  1.00  0.00    -0.031 C 
BRANCH  15  16
ATOM     16  C   UNL     1       9.453  21.692  54.940  1.00  0.00     0.027 C 
BRANCH  16  17
ATOM     17  C   UNL     1       8.702  20.435  54.470  1.00  0.00     0.004 C 
BRANCH  17  18
ATOM     18  C   UNL     1       8.964  20.032  53.004  1.00  0.00     0.000 C 
BRANCH  18  19
ATOM     19  C   UNL     1       9.999  20.899  52.268  1.00  0.00    -0.003 C 
ATOM     20  C   UNL     1      10.921  20.085  51.361  1.00  0.00     0.004 C 
ENDBRANCH  18  19
ENDBRANCH  17  18
ENDBRANCH  16  17
ENDBRANCH  15  16
ENDBRANCH  13  14
ENDBRANCH  12  13
ENDBRANCH   1  11
TORSDOF 14
ENDMDL
MODEL 2
REMARK VINA RESULT:     0.004      7.435      9.706
REMARK INTER + INTRA:          -3.666
REMARK INTER:                   0.000
REMARK INTRA:                  -3.666
REMARK UNBOUND:                -3.674
REMARK SMILES CCCCCC=CCC=CCCCCCCCC(=O)[O-]
REMARK SMILES IDX 11 1 12 2 13 3 14 4 15 5 16 6 17 7 18 8 19 9 20 10 10 11
REMARK SMILES IDX 9 12 8 13 7 14 6 15 5 16 4 17 3 18 2 19 1 20
REMARK H PARENT
REMARK Flexibility Score: inf
ROOT
ATOM      1  C   UNL     1       6.561  17.414  50.408  1.00  0.00     0.027 C 
ENDROOT
BRANCH   1   2
ATOM      2  C   UNL     1       5.081  17.423  50.822  1.00  0.00     0.004 C 
BRANCH   2   3
ATOM      3  C   UNL     1       4.190  18.349  49.972  1.00  0.00     0.000 C 
BRANCH   3   4
ATOM      4  C   UNL     1       3.106  17.600  49.169  1.00  0.00     0.000 C 
BRANCH   4   5
ATOM      5  C   UNL     1       3.491  17.426  47.693  1.00  0.00     0.000 C 
BRANCH   5   6
ATOM      6  C   UNL     1       3.542  15.940  47.308  1.00  0.00     0.006 C 
BRANCH   6   7
ATOM      7  C   UNL     1       4.982  15.418  47.203  1.00  0.00     0.053 C 
BRANCH   7   8
ATOM      8  C   UNL     1       5.369  14.614  48.406  1.00  0.00     0.041 C 
ATOM      9  O   UNL     1       6.569  14.279  48.587  1.00  0.00    -0.550 OA
ATOM     10  O   UNL     1       4.395  14.202  49.308  1.00  0.00    -0.550 OA
ENDBRANCH   7   8
ENDBRANCH   6   7
ENDBRANCH   5   6
ENDBRANCH   4   5
ENDBRANCH   3   4
ENDBRANCH   2   3
ENDBRANCH   1   2
BRANCH   1  11
ATOM     11  C   UNL     1       6.813  18.172  49.132  1.00  0.00    -0.031 C 
ATOM     12  C   UNL     1       7.728  17.766  48.241  1.00  0.00    -0.027 C 
BRANCH  12  13
ATOM     13  C   UNL     1       7.965  18.538  46.974  1.00  0.00     0.054 C 
BRANCH  13  14
ATOM     14  C   UNL     1       6.858  18.313  45.979  1.00  0.00    -0.027 C 
ATOM     15  C   UNL     1       5.951  19.241  45.614  1.00  0.00    -0.031 C 
BRANCH  15  16
ATOM     16  C   UNL     1       5.920  20.667  46.113  1.00  0.00     0.027 C 
BRANCH  16  17
ATOM     17  C   UNL     1       4.933  20.858  47.276  1.00  0.00     0.004 C 
BRANCH  17  18
ATOM     18  C   UNL     1       5.524  21.551  48.522  1.00  0.00     0.000 C 
BRANCH  18  19
ATOM     19  C   UNL     1       7.024  21.881  48.430  1.00  0.00    -0.003 C 
ATOM     20  C   UNL     1       7.770  21.629  49.740  1.00  0.00     0.004 C 
ENDBRANCH  18  19
ENDBRANCH  17  18
ENDBRANCH  16  17
ENDBRANCH  15  16
ENDBRANCH  13  14
ENDBRANCH  12  13
ENDBRANCH   1  11
TORSDOF 14
ENDMDL
MODEL 3
REMARK VINA RESULT:     0.005      5.723      7.722
REMARK INTER + INTRA:          -3.665
REMARK INTER:                   0.000
REMARK INTRA:                  -3.665
REMARK UNBOUND:                -3.674
REMARK SMILES CCCCCC=CCC=CCCCCCCCC(=O)[O-]
REMARK SMILES IDX 11 1 12 2 13 3 14 4 15 5 16 6 17 7 18 8 19 9 20 10 10 11
REMARK SMILES IDX 9 12 8 13 7 14 6 15 5 16 4 17 3 18 2 19 1 20
REMARK H PARENT
REMARK Flexibility Score: inf
ROOT
ATOM      1  C   UNL     1       6.603  14.551  56.082  1.00  0.00     0.027 C 
ENDROOT
BRANCH   1   2
ATOM      2  C   UNL     1       6.331  15.505  57.256  1.00  0.00     0.004 C 
BRANCH   2   3
ATOM      3  C   UNL     1       5.686  16.843  56.849  1.00  0.00     0.000 C 
BRANCH   3   4
ATOM      4  C   UNL     1       4.273  17.053  57.432  1.00  0.00     0.000 C 
BRANCH   4   5
ATOM      5  C   UNL     1       3.170  16.762  56.403  1.00  0.00     0.000 C 
BRANCH   5   6
ATOM      6  C   UNL     1       2.238  15.644  56.896  1.00  0.00     0.006 C 
BRANCH   6   7
ATOM      7  C   UNL     1       2.510  14.310  56.187  1.00  0.00     0.053 C 
BRANCH   7   8
ATOM      8  C   UNL     1       3.293  13.372  57.053  1.00  0.00     0.041 C 
ATOM      9  O   UNL     1       3.785  12.320  56.567  1.00  0.00    -0.550 OA
ATOM     10  O   UNL     1       3.446  13.642  58.407  1.00  0.00    -0.550 OA
ENDBRANCH   7   8
ENDBRANCH   6   7
ENDBRANCH   5   6
ENDBRANCH   4   5
ENDBRANCH   3   4
ENDBRANCH   2   3
ENDBRANCH   1   2
BRANCH   1  11
ATOM     11  C   UNL     1       6.013  15.039  54.786  1.00  0.00    -0.031 C 
ATOM     12  C   UNL     1       5.478  14.195  53.893  1.00  0.00    -0.027 C 
BRANCH  12  13
ATOM     13  C   UNL     1       4.896  14.702  52.605  1.00  0.00     0.054 C 
BRANCH  13  14
ATOM     14  C   UNL     1       3.547  15.334  52.824  1.00  0.00    -0.027 C 
ATOM     15  C   UNL     1       3.286  16.651  52.712  1.00  0.00    -0.031 C 
BRANCH  15  16
ATOM     16  C   UNL     1       4.294  17.704  52.312  1.00  0.00     0.027 C 
BRANCH  16  17
ATOM     17  C   UNL     1       4.911  18.414  53.528  1.00  0.00     0.004 C 
BRANCH  17  18
ATOM     18  C   UNL     1       6.453  18.458  53.541  1.00  0.00     0.000 C 
BRANCH  18  19
ATOM     19  C   UNL     1       7.133  17.724  52.372  1.00  0.00    -0.003 C 
ATOM     20  C   UNL     1       8.384  16.957  52.798  1.00  0.00     0.004 C 
ENDBRANCH  18  19
ENDBRANCH  17  18
ENDBRANCH  16  17
ENDBRANCH  15  16
ENDBRANCH  13  14
ENDBRANCH  12  13
ENDBRANCH   1  11
TORSDOF 14
ENDMDL
MODEL 4
REMARK VINA RESULT:     0.008      3.856      5.457
REMARK INTER + INTRA:          -3.660
REMARK INTER:                   0.000
REMARK INTRA:                  -3.660
REMARK UNBOUND:                -3.674
REMARK SMILES CCCCCC=CCC=CCCCCCCCC(=O)[O-]
REMARK SMILES IDX 11 1 12 2 13 3 14 4 15 5 16 6 17 7 18 8 19 9 20 10 10 11
REMARK SMILES IDX 9 12 8 13 7 14 6 15 5 16 4 17 3 18 2 19 1 20
REMARK H PARENT
REMARK Flexibility Score: inf
ROOT
ATOM      1  C   UNL     1      10.977  13.024  54.527  1.00  0.00     0.027 C 
ENDROOT
BRANCH   1   2
ATOM      2  C   UNL     1      10.666  11.675  55.194  1.00  0.00     0.004 C 
BRANCH   2   3
ATOM      3  C   UNL     1       9.355  11.654  56.002  1.00  0.00     0.000 C 
BRANCH   3   4
ATOM      4  C   UNL     1       9.563  11.419  57.514  1.00  0.00     0.000 C 
BRANCH   4   5
ATOM      5  C   UNL     1       9.455  12.719  58.325  1.00  0.00     0.000 C 
BRANCH   5   6
ATOM      6  C   UNL     1      10.749  12.990  59.106  1.00  0.00     0.006 C 
BRANCH   6   7
ATOM      7  C   UNL     1      11.595  14.095  58.459  1.00  0.00     0.053 C 
BRANCH   7   8
ATOM      8  C   UNL     1      12.735  13.529  57.668  1.00  0.00     0.041 C 
ATOM      9  O   UNL     1      13.045  12.314  57.782  1.00  0.00    -0.550 OA
ATOM     10  O   UNL     1      13.478  14.354  56.833  1.00  0.00    -0.550 OA
ENDBRANCH   7   8
ENDBRANCH   6   7
ENDBRANCH   5   6
ENDBRANCH   4   5
ENDBRANCH   3   4
ENDBRANCH   2   3
ENDBRANCH   1   2
BRANCH   1  11
ATOM     11  C   UNL     1      10.022  14.111  54.940  1.00  0.00    -0.031 C 
ATOM     12  C   UNL     1      10.432  15.372  55.133  1.00  0.00    -0.027 C 
BRANCH  12  13
ATOM     13  C   UNL     1       9.463  16.443  55.547  1.00  0.00     0.054 C 
BRANCH  13  14
ATOM     14  C   UNL     1       9.107  16.326  57.006  1.00  0.00    -0.027 C 
ATOM     15  C   UNL     1       7.893  15.982  57.476  1.00  0.00    -0.031 C 
BRANCH  15  16
ATOM     16  C   UNL     1       6.700  15.622  56.620  1.00  0.00     0.027 C 
BRANCH  16  17
ATOM     17  C   UNL     1       6.564  14.104  56.418  1.00  0.00     0.004 C 
BRANCH  17  18
ATOM     18  C   UNL     1       6.361  13.659  54.954  1.00  0.00     0.000 C 
BRANCH  18  19
ATOM     19  C   UNL     1       6.498  14.782  53.911  1.00  0.00    -0.003 C 
ATOM     20  C   UNL     1       7.208  14.326  52.636  1.00  0.00     0.004 C 
ENDBRANCH  18  19
ENDBRANCH  17  18
ENDBRANCH  16  17
ENDBRANCH  15  16
ENDBRANCH  13  14
ENDBRANCH  12  13
ENDBRANCH   1  11
TORSDOF 14
ENDMDL
MODEL 5
REMARK VINA RESULT:     0.013      4.932      7.663
REMARK INTER + INTRA:          -3.651
REMARK INTER:                   0.000
REMARK INTRA:                  -3.651
REMARK UNBOUND:                -3.674
REMARK SMILES CCCCCC=CCC=CCCCCCCCC(=O)[O-]
REMARK SMILES IDX 11 1 12 2 13 3 14 4 15 5 16 6 17 7 18 8 19 9 20 10 10 11
REMARK SMILES IDX 9 12 8 13 7 14 6 15 5 16 4 17 3 18 2 19 1 20
REMARK H PARENT
REMARK Flexibility Score: inf
ROOT
ATOM      1  C   UNL     1      15.266  18.025  52.797  1.00  0.00     0.027 C 
ENDROOT
BRANCH   1   2
ATOM      2  C   UNL     1      16.677  17.649  52.317  1.00  0.00     0.004 C 
BRANCH   2   3
ATOM      3  C   UNL     1      17.815  18.218  53.185  1.00  0.00     0.000 C 
BRANCH   3   4
ATOM      4  C   UNL     1      18.500  19.459  52.572  1.00  0.00     0.000 C 
BRANCH   4   5
ATOM      5  C   UNL     1      18.477  20.665  53.523  1.00  0.00     0.000 C 
BRANCH   5   6
ATOM      6  C   UNL     1      17.549  21.768  52.992  1.00  0.00     0.006 C 
BRANCH   6   7
ATOM      7  C   UNL     1      16.900  21.385  51.655  1.00  0.00     0.053 C 
BRANCH   7   8
ATOM      8  C   UNL     1      15.418  21.599  51.677  1.00  0.00     0.041 C 
ATOM      9  O   UNL     1      14.673  20.963  50.886  1.00  0.00    -0.550 OA
ATOM     10  O   UNL     1      14.864  22.530  52.547  1.00  0.00    -0.550 OA
ENDBRANCH   7   8
ENDBRANCH   6   7
ENDBRANCH   5   6
ENDBRANCH   4   5
ENDBRANCH   3   4
ENDBRANCH   2   3
ENDBRANCH   1   2
BRANCH   1  11
ATOM     11  C   UNL     1      15.275  18.758  54.113  1.00  0.00    -0.031 C 
ATOM     12  C   UNL     1      14.230  19.494  54.515  1.00  0.00    -0.027 C 
BRANCH  12  13
ATOM     13  C   UNL     1      14.260  20.219  55.831  1.00  0.00     0.054 C 
BRANCH  13  14
ATOM     14  C   UNL     1      15.324  21.285  55.845  1.00  0.00    -0.027 C 
ATOM     15  C   UNL     1      16.445  21.242  56.592  1.00  0.00    -0.031 C 
BRANCH  15  16
ATOM     16  C   UNL     1      16.837  20.104  57.506  1.00  0.00     0.027 C 
BRANCH  16  17
ATOM     17  C   UNL     1      17.830  19.137  56.842  1.00  0.00     0.004 C 
BRANCH  17  18
ATOM     18  C   UNL     1      17.414  17.651  56.880  1.00  0.00     0.000 C 
BRANCH  18  19
ATOM     19  C   UNL     1      16.044  17.378  57.525  1.00  0.00    -0.003 C 
ATOM     20  C   UNL     1      15.245  16.302  56.791  1.00  0.00     0.004 C 
ENDBRANCH  18  19
ENDBRANCH  17  18
ENDBRANCH  16  17
ENDBRANCH  15  16
ENDBRANCH  13  14
ENDBRANCH  12  13
ENDBRANCH   1  11
TORSDOF 14
ENDMDL
MODEL 6
REMARK VINA RESULT:     0.020      3.623      5.615
REMARK INTER + INTRA:          -3.638
REMARK INTER:                   0.000
REMARK INTRA:                  -3.638
REMARK UNBOUND:                -3.674
REMARK SMILES CCCCCC=CCC=CCCCCCCCC(=O)[O-]
REMARK SMILES IDX 11 1 12 2 13 3 14 4 15 5 16 6 17 7 18 8 19 9 20 10 10 11
REMARK SMILES IDX 9 12 8 13 7 14 6 15 5 16 4 17 3 18 2 19 1 20
REMARK H PARENT
REMARK Flexibility Score: inf
ROOT
ATOM      1  C   UNL     1      10.203  20.185  52.536  1.00  0.00     0.027 C 
ENDROOT
BRANCH   1   2
ATOM      2  C   UNL     1      10.715  21.370  51.702  1.00  0.00     0.004 C 
BRANCH   2   3
ATOM      3  C   UNL     1       9.702  22.520  51.544  1.00  0.00     0.000 C 
BRANCH   3   4
ATOM      4  C   UNL     1      10.050  23.771  52.378  1.00  0.00     0.000 C 
BRANCH   4   5
ATOM      5  C   UNL     1       8.918  24.161  53.341  1.00  0.00     0.000 C 
BRANCH   5   6
ATOM      6  C   UNL     1       9.255  23.751  54.782  1.00  0.00     0.006 C 
BRANCH   6   7
ATOM      7  C   UNL     1      10.725  23.338  54.938  1.00  0.00     0.053 C 
BRANCH   7   8
ATOM      8  C   UNL     1      10.860  22.030  55.656  1.00  0.00     0.041 C 
ATOM      9  O   UNL     1      11.874  21.307  55.473  1.00  0.00    -0.550 OA
ATOM     10  O   UNL     1       9.845  21.593  56.499  1.00  0.00    -0.550 OA
ENDBRANCH   7   8
ENDBRANCH   6   7
ENDBRANCH   5   6
ENDBRANCH   4   5
ENDBRANCH   3   4
ENDBRANCH   2   3
ENDBRANCH   1   2
BRANCH   1  11
ATOM     11  C   UNL     1       8.786  20.376  53.009  1.00  0.00    -0.031 C 
ATOM     12  C   UNL     1       8.260  19.617  53.979  1.00  0.00    -0.027 C 
BRANCH  12  13
ATOM     13  C   UNL     1       6.843  19.822  54.435  1.00  0.00     0.054 C 
BRANCH  13  14
ATOM     14  C   UNL     1       6.630  21.221  54.950  1.00  0.00    -0.027 C 
ATOM     15  C   UNL     1       5.908  22.169  54.321  1.00  0.00    -0.031 C 
BRANCH  15  16
ATOM     16  C   UNL     1       5.165  21.975  53.020  1.00  0.00     0.027 C 
BRANCH  16  17
ATOM     17  C   UNL     1       5.940  22.534  51.815  1.00  0.00     0.004 C 
BRANCH  17  18
ATOM     18  C   UNL     1       6.188  21.523  50.676  1.00  0.00     0.000 C 
BRANCH  18  19
ATOM     19  C   UNL     1       5.605  20.120  50.917  1.00  0.00    -0.003 C 
ATOM     20  C   UNL     1       6.557  19.000  50.498  1.00  0.00     0.004 C 
ENDBRANCH  18  19
ENDBRANCH  17  18
ENDBRANCH  16  17
ENDBRANCH  15  16
ENDBRANCH  13  14
ENDBRANCH  12  13
ENDBRANCH   1  11
TORSDOF 14
ENDMDL
MODEL 7
REMARK VINA RESULT:     0.024      3.787      6.028
REMARK INTER + INTRA:          -3.631
REMARK INTER:                   0.000
REMARK INTRA:                  -3.631
REMARK UNBOUND:                -3.674
REMARK SMILES CCCCCC=CCC=CCCCCCCCC(=O)[O-]
REMARK SMILES IDX 11 1 12 2 13 3 14 4 15 5 16 6 17 7 18 8 19 9 20 10 10 11
REMARK SMILES IDX 9 12 8 13 7 14 6 15 5 16 4 17 3 18 2 19 1 20
REMARK H PARENT
REMARK Flexibility Score: inf
ROOT
ATOM      1  C   UNL     1      15.257  18.949  52.346  1.00  0.00     0.027 C 
ENDROOT
BRANCH   1   2
ATOM      2  C   UNL     1      15.736  18.581  50.933  1.00  0.00     0.004 C 
BRANCH   2   3
ATOM      3  C   UNL     1      14.675  17.881  50.065  1.00  0.00     0.000 C 
BRANCH   3   4
ATOM      4  C   UNL     1      15.058  16.442  49.657  1.00  0.00     0.000 C 
BRANCH   4   5
ATOM      5  C   UNL     1      14.386  15.386  50.547  1.00  0.00     0.000 C 
BRANCH   5   6
ATOM      6  C   UNL     1      15.432  14.479  51.211  1.00  0.00     0.006 C 
BRANCH   6   7
ATOM      7  C   UNL     1      15.604  14.790  52.704  1.00  0.00     0.053 C 
BRANCH   7   8
ATOM      8  C   UNL     1      16.792  15.667  52.954  1.00  0.00     0.041 C 
ATOM      9  O   UNL     1      17.689  15.785  52.079  1.00  0.00    -0.550 OA
ATOM     10  O   UNL     1      16.926  16.324  54.171  1.00  0.00    -0.550 OA
ENDBRANCH   7   8
ENDBRANCH   6   7
ENDBRANCH   5   6
ENDBRANCH   4   5
ENDBRANCH   3   4
ENDBRANCH   2   3
ENDBRANCH   1   2
BRANCH   1  11
ATOM     11  C   UNL     1      13.890  18.400  52.658  1.00  0.00    -0.031 C 
ATOM     12  C   UNL     1      13.645  17.719  53.786  1.00  0.00    -0.027 C 
BRANCH  12  13
ATOM     13  C   UNL     1      12.274  17.178  54.078  1.00  0.00     0.054 C 
BRANCH  13  14
ATOM     14  C   UNL     1      12.099  15.794  53.511  1.00  0.00    -0.027 C 
ATOM     15  C   UNL     1      11.253  15.473  52.513  1.00  0.00    -0.031 C 
BRANCH  15  16
ATOM     16  C   UNL     1      10.369  16.452  51.775  1.00  0.00     0.027 C 
BRANCH  16  17
ATOM     17  C   UNL     1      11.058  17.039  50.532  1.00  0.00     0.004 C 
BRANCH  17  18
ATOM     18  C   UNL     1      11.003  18.577  50.424  1.00  0.00     0.000 C 
BRANCH  18  19
ATOM     19  C   UNL     1      10.144  19.272  51.496  1.00  0.00    -0.003 C 
ATOM     20  C   UNL     1      10.890  20.391  52.222  1.00  0.00     0.004 C 
ENDBRANCH  18  19
ENDBRANCH  17  18
ENDBRANCH  16  17
ENDBRANCH  15  16
ENDBRANCH  13  14
ENDBRANCH  12  13
ENDBRANCH   1  11
TORSDOF 14
ENDMDL
MODEL 8
REMARK VINA RESULT:     0.024      4.740      7.737
REMARK INTER + INTRA:          -3.630
REMARK INTER:                   0.000
REMARK INTRA:                  -3.630
REMARK UNBOUND:                -3.674
REMARK SMILES CCCCCC=CCC=CCCCCCCCC(=O)[O-]
REMARK SMILES IDX 11 1 12 2 13 3 14 4 15 5 16 6 17 7 18 8 19 9 20 10 10 11
REMARK SMILES IDX 9 12 8 13 7 14 6 15 5 16 4 17 3 18 2 19 1 20
REMARK H PARENT
REMARK Flexibility Score: inf
ROOT
ATOM      1  C   UNL     1      11.844  21.860  49.688  1.00  0.00     0.027 C 
ENDROOT
BRANCH   1   2
ATOM      2  C   UNL     1      10.894  23.037  49.414  1.00  0.00     0.004 C 
BRANCH   2   3
ATOM      3  C   UNL     1       9.485  22.869  50.013  1.00  0.00     0.000 C 
BRANCH   3   4
ATOM      4  C   UNL     1       8.396  22.574  48.960  1.00  0.00     0.000 C 
BRANCH   4   5
ATOM      5  C   UNL     1       7.686  21.236  49.217  1.00  0.00     0.000 C 
BRANCH   5   6
ATOM      6  C   UNL     1       7.942  20.247  48.070  1.00  0.00     0.006 C 
BRANCH   6   7
ATOM      7  C   UNL     1       8.982  20.775  47.072  1.00  0.00     0.053 C 
BRANCH   7   8
ATOM      8  C   UNL     1      10.151  19.847  46.948  1.00  0.00     0.041 C 
ATOM      9  O   UNL     1      10.038  18.636  47.272  1.00  0.00    -0.550 OA
ATOM     10  O   UNL     1      11.378  20.331  46.509  1.00  0.00    -0.550 OA
ENDBRANCH   7   8
ENDBRANCH   6   7
ENDBRANCH   5   6
ENDBRANCH   4   5
ENDBRANCH   3   4
ENDBRANCH   2   3
ENDBRANCH   1   2
BRANCH   1  11
ATOM     11  C   UNL     1      11.205  20.779  50.519  1.00  0.00    -0.031 C 
ATOM     12  C   UNL     1      11.523  19.487  50.357  1.00  0.00    -0.027 C 
BRANCH  12  13
ATOM     13  C   UNL     1      10.873  18.423  51.196  1.00  0.00     0.054 C 
BRANCH  13  14
ATOM     14  C   UNL     1       9.443  18.196  50.782  1.00  0.00    -0.027 C 
ATOM     15  C   UNL     1       8.367  18.500  51.533  1.00  0.00    -0.031 C 
BRANCH  15  16
ATOM     16  C   UNL     1       8.416  19.153  52.896  1.00  0.00     0.027 C 
BRANCH  16  17
ATOM     17  C   UNL     1       8.217  20.676  52.822  1.00  0.00     0.004 C 
BRANCH  17  18
ATOM     18  C   UNL     1       9.296  21.508  53.545  1.00  0.00     0.000 C 
BRANCH  18  19
ATOM     19  C   UNL     1      10.409  20.684  54.216  1.00  0.00    -0.003 C 
ATOM     20  C   UNL     1      11.790  21.324  54.076  1.00  0.00     0.004 C 
ENDBRANCH  18  19
ENDBRANCH  17  18
ENDBRANCH  16  17
ENDBRANCH  15  16
ENDBRANCH  13  14
ENDBRANCH  12  13
ENDBRANCH   1  11
TORSDOF 14
ENDMDL
MODEL 9
REMARK VINA RESULT:     0.037      4.371      7.236
REMARK INTER + INTRA:          -3.608
REMARK INTER:                   0.000
REMARK INTRA:                  -3.608
REMARK UNBOUND:                -3.674
REMARK SMILES CCCCCC=CCC=CCCCCCCCC(=O)[O-]
REMARK SMILES IDX 11 1 12 2 13 3 14 4 15 5 16 6 17 7 18 8 19 9 20 10 10 11
REMARK SMILES IDX 9 12 8 13 7 14 6 15 5 16 4 17 3 18 2 19 1 20
REMARK H PARENT
REMARK Flexibility Score: inf
ROOT
ATOM      1  C   UNL     1       8.870  18.710  51.569  1.00  0.00     0.027 C 
ENDROOT
BRANCH   1   2
ATOM      2  C   UNL     1       8.864  19.510  50.257  1.00  0.00     0.004 C 
BRANCH   2   3
ATOM      3  C   UNL     1       9.416  18.741  49.042  1.00  0.00     0.000 C 
BRANCH   3   4
ATOM      4  C   UNL     1      10.681  19.377  48.428  1.00  0.00     0.000 C 
BRANCH   4   5
ATOM      5  C   UNL     1      11.964  18.650  48.857  1.00  0.00     0.000 C 
BRANCH   5   6
ATOM      6  C   UNL     1      12.919  19.603  49.591  1.00  0.00     0.006 C 
BRANCH   6   7
ATOM      7  C   UNL     1      12.945  19.345  51.104  1.00  0.00     0.053 C 
BRANCH   7   8
ATOM      8  C   UNL     1      12.129  20.354  51.853  1.00  0.00     0.041 C 
ATOM      9  O   UNL     1      11.748  21.410  51.283  1.00  0.00    -0.550 OA
ATOM     10  O   UNL     1      11.824  20.144  53.192  1.00  0.00    -0.550 OA
ENDBRANCH   7   8
ENDBRANCH   6   7
ENDBRANCH   5   6
ENDBRANCH   4   5
ENDBRANCH   3   4
ENDBRANCH   2   3
ENDBRANCH   1   2
BRANCH   1  11
ATOM     11  C   UNL     1       9.553  17.375  51.434  1.00  0.00    -0.031 C 
ATOM     12  C   UNL     1      10.436  16.940  52.342  1.00  0.00    -0.027 C 
BRANCH  12  13
ATOM     13  C   UNL     1      11.107  15.605  52.188  1.00  0.00     0.054 C 
BRANCH  13  14
ATOM     14  C   UNL     1      12.263  15.681  51.226  1.00  0.00    -0.027 C 
ATOM     15  C   UNL     1      12.250  15.196  49.968  1.00  0.00    -0.031 C 
BRANCH  15  16
ATOM     16  C   UNL     1      11.065  14.532  49.305  1.00  0.00     0.027 C 
BRANCH  16  17
ATOM     17  C   UNL     1      10.582  15.303  48.066  1.00  0.00     0.004 C 
BRANCH  17  18
ATOM     18  C   UNL     1       9.055  15.289  47.846  1.00  0.00     0.000 C 
BRANCH  18  19
ATOM     19  C   UNL     1       8.224  14.945  49.095  1.00  0.00    -0.003 C 
ATOM     20  C   UNL     1       6.994  15.838  49.256  1.00  0.00     0.004 C 
ENDBRANCH  18  19
ENDBRANCH  17  18
ENDBRANCH  16  17
ENDBRANCH  15  16
ENDBRANCH  13  14
ENDBRANCH  12  13
ENDBRANCH   1  11
TORSDOF 14
ENDMDL
