MODEL 1
REMARK VINA RESULT:     6.600      0.000      0.000
REMARK INTER + INTRA:           8.804
REMARK INTER:                   8.915
REMARK INTRA:                  -0.110
REMARK UNBOUND:                -0.110
REMARK SMILES CC(=O)CCC=C(C)CCC=C(C)C
REMARK SMILES IDX 7 1 6 2 8 3 9 4 10 5 11 6 13 7 12 8 14 9 5 10 4 11 2 12 3 13
REMARK SMILES IDX 1 14
REMARK H PARENT
REMARK Flexibility Score: inf
ROOT
ATOM      1  C   UNL     1      88.941   7.637 109.414  1.00  0.00    -0.077 C 
ATOM      2  C   UNL     1      89.776   7.029 108.543  1.00  0.00    -0.028 C 
ATOM      3  C   UNL     1      89.174   9.058 109.868  1.00  0.00     0.039 C 
ENDROOT
BRANCH   1   4
ATOM      4  C   UNL     1      87.744   6.875 109.947  1.00  0.00     0.034 C 
BRANCH   4   5
ATOM      5  C   UNL     1      86.983   7.675 111.014  1.00  0.00     0.032 C 
BRANCH   5   6
ATOM      6  C   UNL     1      87.069   7.020 112.373  1.00  0.00    -0.028 C 
ATOM      7  C   UNL     1      86.489   9.119 113.610  1.00  0.00     0.039 C 
ATOM      8  C   UNL     1      86.811   7.647 113.542  1.00  0.00    -0.080 C 
ATOM      9  C   UNL     1      86.899   6.882 114.837  1.00  0.00     0.039 C 
ENDBRANCH   5   6
ENDBRANCH   4   5
ENDBRANCH   1   4
BRANCH   2  10
ATOM     10  C   UNL     1      90.991   7.710 107.954  1.00  0.00     0.035 C 
BRANCH  10  11
ATOM     11  C   UNL     1      90.743   8.190 106.519  1.00  0.00     0.079 C 
BRANCH  11  12
ATOM     12  C   UNL     1      90.154   9.578 106.488  1.00  0.00     0.130 C 
ATOM     13  O   UNL     1      90.209  10.278 107.488  1.00  0.00    -0.300 OA
ATOM     14  C   UNL     1      89.489  10.118 105.257  1.00  0.00     0.087 C 
ENDBRANCH  11  12
ENDBRANCH  10  11
ENDBRANCH   2  10
TORSDOF 6
ENDMDL
MODEL 2
REMARK VINA RESULT:     6.697      2.015      6.632
REMARK INTER + INTRA:           8.935
REMARK INTER:                   9.238
REMARK INTRA:                  -0.303
REMARK UNBOUND:                -0.110
REMARK SMILES CC(=O)CCC=C(C)CCC=C(C)C
REMARK SMILES IDX 7 1 6 2 8 3 9 4 10 5 11 6 13 7 12 8 14 9 5 10 4 11 2 12 3 13
REMARK SMILES IDX 1 14
REMARK H PARENT
REMARK Flexibility Score: inf
ROOT
ATOM      1  C   UNL     1      89.385   7.597 109.077  1.00  0.00    -0.077 C 
ATOM      2  C   UNL     1      88.327   6.921 109.576  1.00  0.00    -0.028 C 
ATOM      3  C   UNL     1      89.723   8.991 109.550  1.00  0.00     0.039 C 
ENDROOT
BRANCH   1   4
ATOM      4  C   UNL     1      90.251   6.942 108.021  1.00  0.00     0.034 C 
BRANCH   4   5
ATOM      5  C   UNL     1      91.024   7.977 107.190  1.00  0.00     0.032 C 
BRANCH   5   6
ATOM      6  C   UNL     1      90.192   8.515 106.050  1.00  0.00    -0.028 C 
ATOM      7  C   UNL     1      90.041  10.819 107.021  1.00  0.00     0.039 C 
ATOM      8  C   UNL     1      89.778   9.797 105.943  1.00  0.00    -0.080 C 
ATOM      9  C   UNL     1      88.976  10.227 104.742  1.00  0.00     0.039 C 
ENDBRANCH   5   6
ENDBRANCH   4   5
ENDBRANCH   1   4
BRANCH   2  10
ATOM     10  C   UNL     1      87.410   7.489 110.635  1.00  0.00     0.035 C 
BRANCH  10  11
ATOM     11  C   UNL     1      87.679   6.881 112.017  1.00  0.00     0.079 C 
BRANCH  11  12
ATOM     12  C   UNL     1      86.794   7.488 113.076  1.00  0.00     0.130 C 
ATOM     13  O   UNL     1      86.084   8.441 112.794  1.00  0.00    -0.300 OA
ATOM     14  C   UNL     1      86.774   6.954 114.479  1.00  0.00     0.087 C 
ENDBRANCH  11  12
ENDBRANCH  10  11
ENDBRANCH   2  10
TORSDOF 6
ENDMDL
MODEL 3
REMARK VINA RESULT:     7.723      2.131      6.583
REMARK INTER + INTRA:          10.322
REMARK INTER:                  10.929
REMARK INTRA:                  -0.607
REMARK UNBOUND:                -0.110
REMARK SMILES CC(=O)CCC=C(C)CCC=C(C)C
REMARK SMILES IDX 7 1 6 2 8 3 9 4 10 5 11 6 13 7 12 8 14 9 5 10 4 11 2 12 3 13
REMARK SMILES IDX 1 14
REMARK H PARENT
REMARK Flexibility Score: inf
ROOT
ATOM      1  C   UNL     1      90.701   8.506 107.341  1.00  0.00    -0.077 C 
ATOM      2  C   UNL     1      89.772   8.599 108.318  1.00  0.00    -0.028 C 
ATOM      3  C   UNL     1      91.802   7.474 107.397  1.00  0.00     0.039 C 
ENDROOT
BRANCH   1   4
ATOM      4  C   UNL     1      90.636   9.457 106.164  1.00  0.00     0.034 C 
BRANCH   4   5
ATOM      5  C   UNL     1      89.224  10.026 105.963  1.00  0.00     0.032 C 
BRANCH   5   6
ATOM      6  C   UNL     1      89.241  11.295 105.142  1.00  0.00    -0.028 C 
ATOM      7  C   UNL     1      88.742  12.772 107.102  1.00  0.00     0.039 C 
ATOM      8  C   UNL     1      89.066  12.536 105.648  1.00  0.00    -0.080 C 
ATOM      9  C   UNL     1      89.135  13.733 104.735  1.00  0.00     0.039 C 
ENDBRANCH   5   6
ENDBRANCH   4   5
ENDBRANCH   1   4
BRANCH   2  10
ATOM     10  C   UNL     1      89.752   7.691 109.526  1.00  0.00     0.035 C 
BRANCH  10  11
ATOM     11  C   UNL     1      88.455   6.878 109.615  1.00  0.00     0.079 C 
BRANCH  11  12
ATOM     12  C   UNL     1      87.513   7.439 110.650  1.00  0.00     0.130 C 
ATOM     13  O   UNL     1      86.707   8.298 110.327  1.00  0.00    -0.300 OA
ATOM     14  C   UNL     1      87.552   6.974 112.076  1.00  0.00     0.087 C 
ENDBRANCH  11  12
ENDBRANCH  10  11
ENDBRANCH   2  10
TORSDOF 6
ENDMDL
