MODEL 1
REMARK VINA RESULT:    -3.544      0.000      0.000
REMARK INTER + INTRA:          -4.315
REMARK INTER:                  -4.062
REMARK INTRA:                  -0.253
REMARK UNBOUND:                -0.253
REMARK SMILES COc1ccc(C=O)c(O)c1
REMARK SMILES IDX 3 1 11 2 9 3 6 4 5 5 4 6 2 7 1 8 10 9 7 11 8 12
REMARK H PARENT 10 10
REMARK Flexibility Score: inf
ROOT
ATOM      1  C   UNL     1       6.028  13.144   7.873  1.00  0.00     0.122 A 
ATOM      2  C   UNL     1       7.281  13.644   7.503  1.00  0.00     0.093 A 
ATOM      3  C   UNL     1       8.347  12.777   7.226  1.00  0.00     0.129 A 
ATOM      4  C   UNL     1       8.162  11.383   7.318  1.00  0.00     0.056 A 
ATOM      5  C   UNL     1       6.902  10.883   7.689  1.00  0.00     0.019 A 
ATOM      6  C   UNL     1       5.845  11.753   7.964  1.00  0.00     0.047 A 
ENDROOT
BRANCH   1   7
ATOM      7  O   UNL     1       4.998  14.058   8.139  1.00  0.00    -0.497 OA
ATOM      8  C   UNL     1       4.252  14.744   7.138  1.00  0.00     0.278 C 
ENDBRANCH   1   7
BRANCH   3   9
ATOM      9  O   UNL     1       9.588  13.299   6.860  1.00  0.00    -0.507 OA
ATOM     10  H   UNL     1      10.454  12.901   7.203  1.00  0.00     0.293 HD
ENDBRANCH   3   9
BRANCH   4  11
ATOM     11  C   UNL     1       9.279  10.460   7.028  1.00  0.00     0.263 C 
ATOM     12  O   UNL     1       9.814  10.426   5.887  1.00  0.00    -0.298 OA
ENDBRANCH   4  11
TORSDOF 3
ENDMDL
MODEL 2
REMARK VINA RESULT:    -3.381      1.393      1.501
REMARK INTER + INTRA:          -4.129
REMARK INTER:                  -3.859
REMARK INTRA:                  -0.271
REMARK UNBOUND:                -0.253
REMARK SMILES COc1ccc(C=O)c(O)c1
REMARK SMILES IDX 3 1 11 2 9 3 6 4 5 5 4 6 2 7 1 8 10 9 7 11 8 12
REMARK H PARENT 10 10
REMARK Flexibility Score: inf
ROOT
ATOM      1  C   UNL     1       4.775  13.016   7.607  1.00  0.00     0.122 A 
ATOM      2  C   UNL     1       5.971  13.733   7.495  1.00  0.00     0.093 A 
ATOM      3  C   UNL     1       7.210  13.087   7.613  1.00  0.00     0.129 A 
ATOM      4  C   UNL     1       7.259  11.699   7.848  1.00  0.00     0.056 A 
ATOM      5  C   UNL     1       6.057  10.980   7.960  1.00  0.00     0.019 A 
ATOM      6  C   UNL     1       4.827  11.631   7.842  1.00  0.00     0.047 A 
ENDROOT
BRANCH   1   7
ATOM      7  O   UNL     1       3.565  13.714   7.481  1.00  0.00    -0.497 OA
ATOM      8  C   UNL     1       3.415  14.942   6.775  1.00  0.00     0.278 C 
ENDBRANCH   1   7
BRANCH   3   9
ATOM      9  O   UNL     1       8.389  13.824   7.498  1.00  0.00    -0.507 OA
ATOM     10  H   UNL     1       9.194  13.464   6.998  1.00  0.00     0.293 HD
ENDBRANCH   3   9
BRANCH   4  11
ATOM     11  C   UNL     1       8.560  11.008   7.974  1.00  0.00     0.263 C 
ATOM     12  O   UNL     1       9.436  11.414   8.784  1.00  0.00    -0.298 OA
ENDBRANCH   4  11
TORSDOF 3
ENDMDL
MODEL 3
REMARK VINA RESULT:    -3.376      2.111      4.585
REMARK INTER + INTRA:          -4.123
REMARK INTER:                  -3.864
REMARK INTRA:                  -0.259
REMARK UNBOUND:                -0.253
REMARK SMILES COc1ccc(C=O)c(O)c1
REMARK SMILES IDX 3 1 11 2 9 3 6 4 5 5 4 6 2 7 1 8 10 9 7 11 8 12
REMARK H PARENT 10 10
REMARK Flexibility Score: inf
ROOT
ATOM      1  C   UNL     1       9.041   9.384   6.036  1.00  0.00     0.122 A 
ATOM      2  C   UNL     1       9.630  10.650   6.122  1.00  0.00     0.093 A 
ATOM      3  C   UNL     1       9.104  11.632   6.973  1.00  0.00     0.129 A 
ATOM      4  C   UNL     1       7.967  11.347   7.755  1.00  0.00     0.056 A 
ATOM      5  C   UNL     1       7.377  10.075   7.669  1.00  0.00     0.019 A 
ATOM      6  C   UNL     1       7.907   9.102   6.818  1.00  0.00     0.047 A 
ENDROOT
BRANCH   1   7
ATOM      7  O   UNL     1       9.610   8.441   5.168  1.00  0.00    -0.497 OA
ATOM      8  C   UNL     1       8.999   7.984   3.966  1.00  0.00     0.278 C 
ENDBRANCH   1   7
BRANCH   3   9
ATOM      9  O   UNL     1       9.708  12.887   7.040  1.00  0.00    -0.507 OA
ATOM     10  H   UNL     1       9.252  13.717   6.680  1.00  0.00     0.293 HD
ENDBRANCH   3   9
BRANCH   4  11
ATOM     11  C   UNL     1       7.404  12.375   8.656  1.00  0.00     0.263 C 
ATOM     12  O   UNL     1       8.098  12.883   9.577  1.00  0.00    -0.298 OA
ENDBRANCH   4  11
TORSDOF 3
ENDMDL
MODEL 4
REMARK VINA RESULT:    -3.306      1.865      2.113
REMARK INTER + INTRA:          -4.042
REMARK INTER:                  -3.772
REMARK INTRA:                  -0.270
REMARK UNBOUND:                -0.253
REMARK SMILES COc1ccc(C=O)c(O)c1
REMARK SMILES IDX 3 1 11 2 9 3 6 4 5 5 4 6 2 7 1 8 10 9 7 11 8 12
REMARK H PARENT 10 10
REMARK Flexibility Score: inf
ROOT
ATOM      1  C   UNL     1       4.597  12.012   7.682  1.00  0.00     0.122 A 
ATOM      2  C   UNL     1       5.569  13.015   7.764  1.00  0.00     0.093 A 
ATOM      3  C   UNL     1       6.932  12.691   7.836  1.00  0.00     0.129 A 
ATOM      4  C   UNL     1       7.334  11.341   7.828  1.00  0.00     0.056 A 
ATOM      5  C   UNL     1       6.356  10.335   7.745  1.00  0.00     0.019 A 
ATOM      6  C   UNL     1       5.001  10.666   7.674  1.00  0.00     0.047 A 
ENDROOT
BRANCH   1   7
ATOM      7  O   UNL     1       3.250  12.395   7.612  1.00  0.00    -0.497 OA
ATOM      8  C   UNL     1       2.160  11.485   7.496  1.00  0.00     0.278 C 
ENDBRANCH   1   7
BRANCH   3   9
ATOM      9  O   UNL     1       7.882  13.708   7.918  1.00  0.00    -0.507 OA
ATOM     10  H   UNL     1       8.347  14.069   7.092  1.00  0.00     0.293 HD
ENDBRANCH   3   9
BRANCH   4  11
ATOM     11  C   UNL     1       8.767  10.988   7.904  1.00  0.00     0.263 C 
ATOM     12  O   UNL     1       9.502  11.444   8.821  1.00  0.00    -0.298 OA
ENDBRANCH   4  11
TORSDOF 3
ENDMDL
MODEL 5
REMARK VINA RESULT:    -3.296      2.226      3.154
REMARK INTER + INTRA:          -4.031
REMARK INTER:                  -3.761
REMARK INTRA:                  -0.269
REMARK UNBOUND:                -0.253
REMARK SMILES COc1ccc(C=O)c(O)c1
REMARK SMILES IDX 3 1 11 2 9 3 6 4 5 5 4 6 2 7 1 8 10 9 7 11 8 12
REMARK H PARENT 10 10
REMARK Flexibility Score: inf
ROOT
ATOM      1  C   UNL     1       8.374  11.467   7.787  1.00  0.00     0.122 A 
ATOM      2  C   UNL     1       9.449  11.252   6.919  1.00  0.00     0.093 A 
ATOM      3  C   UNL     1       9.518  10.094   6.132  1.00  0.00     0.129 A 
ATOM      4  C   UNL     1       8.494   9.129   6.211  1.00  0.00     0.056 A 
ATOM      5  C   UNL     1       7.414   9.346   7.083  1.00  0.00     0.019 A 
ATOM      6  C   UNL     1       7.353  10.503   7.865  1.00  0.00     0.047 A 
ENDROOT
BRANCH   1   7
ATOM      7  O   UNL     1       8.358  12.643   8.550  1.00  0.00    -0.497 OA
ATOM      8  C   UNL     1       7.369  12.955   9.527  1.00  0.00     0.278 C 
ENDBRANCH   1   7
BRANCH   3   9
ATOM      9  O   UNL     1      10.601   9.902   5.274  1.00  0.00    -0.507 OA
ATOM     10  H   UNL     1      11.402   9.344   5.546  1.00  0.00     0.293 HD
ENDBRANCH   3   9
BRANCH   4  11
ATOM     11  C   UNL     1       8.556   7.904   5.386  1.00  0.00     0.263 C 
ATOM     12  O   UNL     1       8.675   7.970   4.133  1.00  0.00    -0.298 OA
ENDBRANCH   4  11
TORSDOF 3
ENDMDL
MODEL 6
REMARK VINA RESULT:    -3.197      1.332      4.456
REMARK INTER + INTRA:          -3.918
REMARK INTER:                  -3.865
REMARK INTRA:                  -0.053
REMARK UNBOUND:                -0.253
REMARK SMILES COc1ccc(C=O)c(O)c1
REMARK SMILES IDX 3 1 11 2 9 3 6 4 5 5 4 6 2 7 1 8 10 9 7 11 8 12
REMARK H PARENT 10 10
REMARK Flexibility Score: inf
ROOT
ATOM      1  C   UNL     1       8.686   9.892   6.900  1.00  0.00     0.122 A 
ATOM      2  C   UNL     1       9.416  11.065   6.680  1.00  0.00     0.093 A 
ATOM      3  C   UNL     1       8.877  12.318   7.005  1.00  0.00     0.129 A 
ATOM      4  C   UNL     1       7.585  12.405   7.562  1.00  0.00     0.056 A 
ATOM      5  C   UNL     1       6.854  11.225   7.783  1.00  0.00     0.019 A 
ATOM      6  C   UNL     1       7.398   9.981   7.455  1.00  0.00     0.047 A 
ENDROOT
BRANCH   1   7
ATOM      7  O   UNL     1       9.275   8.667   6.555  1.00  0.00    -0.497 OA
ATOM      8  C   UNL     1      10.316   8.038   7.295  1.00  0.00     0.278 C 
ENDBRANCH   1   7
BRANCH   3   9
ATOM      9  O   UNL     1       9.623  13.474   6.776  1.00  0.00    -0.507 OA
ATOM     10  H   UNL     1      10.138  13.612   5.914  1.00  0.00     0.293 HD
ENDBRANCH   3   9
BRANCH   4  11
ATOM     11  C   UNL     1       7.008  13.720   7.909  1.00  0.00     0.263 C 
ATOM     12  O   UNL     1       5.814  14.002   7.622  1.00  0.00    -0.298 OA
ENDBRANCH   4  11
TORSDOF 3
ENDMDL
MODEL 7
REMARK VINA RESULT:    -3.160      2.241      3.436
REMARK INTER + INTRA:          -3.875
REMARK INTER:                  -3.632
REMARK INTRA:                  -0.243
REMARK UNBOUND:                -0.253
REMARK SMILES COc1ccc(C=O)c(O)c1
REMARK SMILES IDX 3 1 11 2 9 3 6 4 5 5 4 6 2 7 1 8 10 9 7 11 8 12
REMARK H PARENT 10 10
REMARK Flexibility Score: inf
ROOT
ATOM      1  C   UNL     1       4.827  10.387   7.715  1.00  0.00     0.122 A 
ATOM      2  C   UNL     1       6.208  10.164   7.668  1.00  0.00     0.093 A 
ATOM      3  C   UNL     1       7.110  11.237   7.689  1.00  0.00     0.129 A 
ATOM      4  C   UNL     1       6.628  12.559   7.758  1.00  0.00     0.056 A 
ATOM      5  C   UNL     1       5.241  12.782   7.807  1.00  0.00     0.019 A 
ATOM      6  C   UNL     1       4.349  11.708   7.785  1.00  0.00     0.047 A 
ENDROOT
BRANCH   1   7
ATOM      7  O   UNL     1       3.972   9.277   7.691  1.00  0.00    -0.497 OA
ATOM      8  C   UNL     1       2.587   9.335   7.363  1.00  0.00     0.278 C 
ENDBRANCH   1   7
BRANCH   3   9
ATOM      9  O   UNL     1       8.482  10.990   7.640  1.00  0.00    -0.507 OA
ATOM     10  H   UNL     1       8.854  10.133   7.248  1.00  0.00     0.293 HD
ENDBRANCH   3   9
BRANCH   4  11
ATOM     11  C   UNL     1       7.571  13.698   7.782  1.00  0.00     0.263 C 
ATOM     12  O   UNL     1       8.630  13.679   7.099  1.00  0.00    -0.298 OA
ENDBRANCH   4  11
TORSDOF 3
ENDMDL
MODEL 8
REMARK VINA RESULT:    -3.101     11.427     12.278
REMARK INTER + INTRA:          -3.808
REMARK INTER:                  -3.541
REMARK INTRA:                  -0.267
REMARK UNBOUND:                -0.253
REMARK SMILES COc1ccc(C=O)c(O)c1
REMARK SMILES IDX 3 1 11 2 9 3 6 4 5 5 4 6 2 7 1 8 10 9 7 11 8 12
REMARK H PARENT 10 10
REMARK Flexibility Score: inf
ROOT
ATOM      1  C   UNL     1      14.292  13.590  -1.740  1.00  0.00     0.122 A 
ATOM      2  C   UNL     1      13.317  12.732  -2.260  1.00  0.00     0.093 A 
ATOM      3  C   UNL     1      12.188  13.241  -2.917  1.00  0.00     0.129 A 
ATOM      4  C   UNL     1      12.025  14.633  -3.059  1.00  0.00     0.056 A 
ATOM      5  C   UNL     1      13.006  15.494  -2.537  1.00  0.00     0.019 A 
ATOM      6  C   UNL     1      14.128  14.979  -1.883  1.00  0.00     0.047 A 
ENDROOT
BRANCH   1   7
ATOM      7  O   UNL     1      15.400  13.026  -1.092  1.00  0.00    -0.497 OA
ATOM      8  C   UNL     1      16.703  13.601  -1.078  1.00  0.00     0.278 C 
ENDBRANCH   1   7
BRANCH   3   9
ATOM      9  O   UNL     1      11.230  12.365  -3.426  1.00  0.00    -0.507 OA
ATOM     10  H   UNL     1      11.153  11.410  -3.096  1.00  0.00     0.293 HD
ENDBRANCH   3   9
BRANCH   4  11
ATOM     11  C   UNL     1      10.839  15.180  -3.750  1.00  0.00     0.263 C 
ATOM     12  O   UNL     1       9.676  14.806  -3.440  1.00  0.00    -0.298 OA
ENDBRANCH   4  11
TORSDOF 3
ENDMDL
MODEL 9
REMARK VINA RESULT:    -3.051      1.891      4.236
REMARK INTER + INTRA:          -3.751
REMARK INTER:                  -3.486
REMARK INTRA:                  -0.265
REMARK UNBOUND:                -0.253
REMARK SMILES COc1ccc(C=O)c(O)c1
REMARK SMILES IDX 3 1 11 2 9 3 6 4 5 5 4 6 2 7 1 8 10 9 7 11 8 12
REMARK H PARENT 10 10
REMARK Flexibility Score: inf
ROOT
ATOM      1  C   UNL     1       6.616   9.866   7.650  1.00  0.00     0.122 A 
ATOM      2  C   UNL     1       7.625  10.830   7.739  1.00  0.00     0.093 A 
ATOM      3  C   UNL     1       7.310  12.194   7.824  1.00  0.00     0.129 A 
ATOM      4  C   UNL     1       5.962  12.606   7.820  1.00  0.00     0.056 A 
ATOM      5  C   UNL     1       4.950  11.635   7.731  1.00  0.00     0.019 A 
ATOM      6  C   UNL     1       5.272  10.279   7.646  1.00  0.00     0.047 A 
ENDROOT
BRANCH   1   7
ATOM      7  O   UNL     1       6.989   8.516   7.567  1.00  0.00    -0.497 OA
ATOM      8  C   UNL     1       6.529   7.615   6.565  1.00  0.00     0.278 C 
ENDBRANCH   1   7
BRANCH   3   9
ATOM      9  O   UNL     1       8.333  13.137   7.911  1.00  0.00    -0.507 OA
ATOM     10  H   UNL     1       8.626  13.524   8.801  1.00  0.00     0.293 HD
ENDBRANCH   3   9
BRANCH   4  11
ATOM     11  C   UNL     1       5.619  14.041   7.910  1.00  0.00     0.263 C 
ATOM     12  O   UNL     1       6.045  14.753   8.858  1.00  0.00    -0.298 OA
ENDBRANCH   4  11
TORSDOF 3
ENDMDL
