MODEL 1
REMARK VINA RESULT:    -4.353      0.000      0.000
REMARK INTER + INTRA:          -5.212
REMARK INTER:                  -5.116
REMARK INTRA:                  -0.096
REMARK UNBOUND:                -0.096
REMARK SMILES CCCCC(=O)[O-]
REMARK SMILES IDX 4 1 5 2 6 3 7 4 3 5 2 6 1 7
REMARK H PARENT
REMARK Flexibility Score: inf
ROOT
ATOM      1  C   UNL     1      12.243  34.927  22.943  1.00  0.00     0.053 C 
ENDROOT
BRANCH   1   2
ATOM      2  C   UNL     1      11.482  35.922  22.126  1.00  0.00     0.041 C 
ATOM      3  O   UNL     1      11.976  36.378  21.060  1.00  0.00    -0.550 OA
ATOM      4  O   UNL     1      10.206  36.310  22.514  1.00  0.00    -0.550 OA
ENDBRANCH   1   2
BRANCH   1   5
ATOM      5  C   UNL     1      11.676  34.856  24.366  1.00  0.00     0.006 C 
BRANCH   5   6
ATOM      6  C   UNL     1      11.258  33.432  24.765  1.00  0.00    -0.003 C 
ATOM      7  C   UNL     1      10.392  32.752  23.705  1.00  0.00     0.004 C 
ENDBRANCH   5   6
ENDBRANCH   1   5
TORSDOF 3
ENDMDL
MODEL 2
REMARK VINA RESULT:    -4.335      1.325      1.513
REMARK INTER + INTRA:          -5.191
REMARK INTER:                  -5.169
REMARK INTRA:                  -0.022
REMARK UNBOUND:                -0.096
REMARK SMILES CCCCC(=O)[O-]
REMARK SMILES IDX 4 1 5 2 6 3 7 4 3 5 2 6 1 7
REMARK H PARENT
REMARK Flexibility Score: inf
ROOT
ATOM      1  C   UNL     1      11.318  35.167  23.081  1.00  0.00     0.053 C 
ENDROOT
BRANCH   1   2
ATOM      2  C   UNL     1      10.209  36.168  23.157  1.00  0.00     0.041 C 
ATOM      3  O   UNL     1       9.282  36.153  22.304  1.00  0.00    -0.550 OA
ATOM      4  O   UNL     1      10.172  37.088  24.197  1.00  0.00    -0.550 OA
ENDBRANCH   1   2
BRANCH   1   5
ATOM      5  C   UNL     1      11.728  34.714  24.487  1.00  0.00     0.006 C 
BRANCH   5   6
ATOM      6  C   UNL     1      11.167  33.329  24.848  1.00  0.00    -0.003 C 
ATOM      7  C   UNL     1      10.379  32.693  23.702  1.00  0.00     0.004 C 
ENDBRANCH   5   6
ENDBRANCH   1   5
TORSDOF 3
ENDMDL
MODEL 3
REMARK VINA RESULT:    -4.308      1.423      1.853
REMARK INTER + INTRA:          -5.160
REMARK INTER:                  -5.144
REMARK INTRA:                  -0.016
REMARK UNBOUND:                -0.096
REMARK SMILES CCCCC(=O)[O-]
REMARK SMILES IDX 4 1 5 2 6 3 7 4 3 5 2 6 1 7
REMARK H PARENT
REMARK Flexibility Score: inf
ROOT
ATOM      1  C   UNL     1      12.980  35.340  22.262  1.00  0.00     0.053 C 
ENDROOT
BRANCH   1   2
ATOM      2  C   UNL     1      12.641  36.382  21.244  1.00  0.00     0.041 C 
ATOM      3  O   UNL     1      11.723  36.174  20.406  1.00  0.00    -0.550 OA
ATOM      4  O   UNL     1      13.302  37.603  21.251  1.00  0.00    -0.550 OA
ENDBRANCH   1   2
BRANCH   1   5
ATOM      5  C   UNL     1      11.971  35.369  23.416  1.00  0.00     0.006 C 
BRANCH   5   6
ATOM      6  C   UNL     1      12.419  34.518  24.615  1.00  0.00    -0.003 C 
ATOM      7  C   UNL     1      11.356  33.515  25.059  1.00  0.00     0.004 C 
ENDBRANCH   5   6
ENDBRANCH   1   5
TORSDOF 3
ENDMDL
MODEL 4
REMARK VINA RESULT:    -4.286      2.627      3.898
REMARK INTER + INTRA:          -5.134
REMARK INTER:                  -5.117
REMARK INTRA:                  -0.017
REMARK UNBOUND:                -0.096
REMARK SMILES CCCCC(=O)[O-]
REMARK SMILES IDX 4 1 5 2 6 3 7 4 3 5 2 6 1 7
REMARK H PARENT
REMARK Flexibility Score: inf
ROOT
ATOM      1  C   UNL     1      11.059  34.511  23.302  1.00  0.00     0.053 C 
ENDROOT
BRANCH   1   2
ATOM      2  C   UNL     1      10.960  33.679  24.541  1.00  0.00     0.041 C 
ATOM      3  O   UNL     1      11.222  34.183  25.666  1.00  0.00    -0.550 OA
ATOM      4  O   UNL     1      10.533  32.360  24.462  1.00  0.00    -0.550 OA
ENDBRANCH   1   2
BRANCH   1   5
ATOM      5  C   UNL     1      12.469  35.098  23.162  1.00  0.00     0.006 C 
BRANCH   5   6
ATOM      6  C   UNL     1      12.857  35.358  21.698  1.00  0.00    -0.003 C 
ATOM      7  C   UNL     1      13.191  36.825  21.426  1.00  0.00     0.004 C 
ENDBRANCH   5   6
ENDBRANCH   1   5
TORSDOF 3
ENDMDL
MODEL 5
REMARK VINA RESULT:    -4.248      1.789      3.042
REMARK INTER + INTRA:          -5.089
REMARK INTER:                  -4.971
REMARK INTRA:                  -0.118
REMARK UNBOUND:                -0.096
REMARK SMILES CCCCC(=O)[O-]
REMARK SMILES IDX 4 1 5 2 6 3 7 4 3 5 2 6 1 7
REMARK H PARENT
REMARK Flexibility Score: inf
ROOT
ATOM      1  C   UNL     1      10.919  34.737  23.305  1.00  0.00     0.053 C 
ENDROOT
BRANCH   1   2
ATOM      2  C   UNL     1      10.046  35.927  23.057  1.00  0.00     0.041 C 
ATOM      3  O   UNL     1      10.093  36.920  23.831  1.00  0.00    -0.550 OA
ATOM      4  O   UNL     1       9.216  35.961  21.943  1.00  0.00    -0.550 OA
ENDBRANCH   1   2
BRANCH   1   5
ATOM      5  C   UNL     1      12.396  35.115  23.146  1.00  0.00     0.006 C 
BRANCH   5   6
ATOM      6  C   UNL     1      12.792  35.341  21.678  1.00  0.00    -0.003 C 
ATOM      7  C   UNL     1      13.154  36.796  21.381  1.00  0.00     0.004 C 
ENDBRANCH   5   6
ENDBRANCH   1   5
TORSDOF 3
ENDMDL
MODEL 6
REMARK VINA RESULT:    -4.247      1.896      3.714
REMARK INTER + INTRA:          -5.088
REMARK INTER:                  -5.001
REMARK INTRA:                  -0.087
REMARK UNBOUND:                -0.096
REMARK SMILES CCCCC(=O)[O-]
REMARK SMILES IDX 4 1 5 2 6 3 7 4 3 5 2 6 1 7
REMARK H PARENT
REMARK Flexibility Score: inf
ROOT
ATOM      1  C   UNL     1      12.451  35.113  23.241  1.00  0.00     0.053 C 
ENDROOT
BRANCH   1   2
ATOM      2  C   UNL     1      11.256  35.220  24.135  1.00  0.00     0.041 C 
ATOM      3  O   UNL     1      11.249  34.644  25.255  1.00  0.00    -0.550 OA
ATOM      4  O   UNL     1      10.169  35.997  23.753  1.00  0.00    -0.550 OA
ENDBRANCH   1   2
BRANCH   1   5
ATOM      5  C   UNL     1      12.158  35.748  21.876  1.00  0.00     0.006 C 
BRANCH   5   6
ATOM      6  C   UNL     1      13.097  36.921  21.557  1.00  0.00    -0.003 C 
ATOM      7  C   UNL     1      13.062  38.015  22.624  1.00  0.00     0.004 C 
ENDBRANCH   5   6
ENDBRANCH   1   5
TORSDOF 3
ENDMDL
MODEL 7
REMARK VINA RESULT:    -3.889      2.761      3.689
REMARK INTER + INTRA:          -4.667
REMARK INTER:                  -4.563
REMARK INTRA:                  -0.104
REMARK UNBOUND:                -0.096
REMARK SMILES CCCCC(=O)[O-]
REMARK SMILES IDX 4 1 5 2 6 3 7 4 3 5 2 6 1 7
REMARK H PARENT
REMARK Flexibility Score: inf
ROOT
ATOM      1  C   UNL     1      12.260  34.085  24.141  1.00  0.00     0.053 C 
ENDROOT
BRANCH   1   2
ATOM      2  C   UNL     1      11.415  33.931  25.366  1.00  0.00     0.041 C 
ATOM      3  O   UNL     1      10.932  32.806  25.665  1.00  0.00    -0.550 OA
ATOM      4  O   UNL     1      11.202  35.016  26.206  1.00  0.00    -0.550 OA
ENDBRANCH   1   2
BRANCH   1   5
ATOM      5  C   UNL     1      12.342  35.560  23.730  1.00  0.00     0.006 C 
BRANCH   5   6
ATOM      6  C   UNL     1      11.329  35.925  22.634  1.00  0.00    -0.003 C 
ATOM      7  C   UNL     1      10.075  36.600  23.189  1.00  0.00     0.004 C 
ENDBRANCH   5   6
ENDBRANCH   1   5
TORSDOF 3
ENDMDL
MODEL 8
REMARK VINA RESULT:    -3.730      2.066      2.990
REMARK INTER + INTRA:          -4.480
REMARK INTER:                  -4.430
REMARK INTRA:                  -0.050
REMARK UNBOUND:                -0.096
REMARK SMILES CCCCC(=O)[O-]
REMARK SMILES IDX 4 1 5 2 6 3 7 4 3 5 2 6 1 7
REMARK H PARENT
REMARK Flexibility Score: inf
ROOT
ATOM      1  C   UNL     1      10.455  36.226  23.278  1.00  0.00     0.053 C 
ENDROOT
BRANCH   1   2
ATOM      2  C   UNL     1      10.499  37.609  23.847  1.00  0.00     0.041 C 
ATOM      3  O   UNL     1       9.624  37.983  24.673  1.00  0.00    -0.550 OA
ATOM      4  O   UNL     1      11.534  38.469  23.504  1.00  0.00    -0.550 OA
ENDBRANCH   1   2
BRANCH   1   5
ATOM      5  C   UNL     1      11.593  36.024  22.270  1.00  0.00     0.006 C 
BRANCH   5   6
ATOM      6  C   UNL     1      12.671  35.056  22.782  1.00  0.00    -0.003 C 
ATOM      7  C   UNL     1      12.435  34.619  24.227  1.00  0.00     0.004 C 
ENDBRANCH   5   6
ENDBRANCH   1   5
TORSDOF 3
ENDMDL
MODEL 9
REMARK VINA RESULT:    -3.634     15.417     16.138
REMARK INTER + INTRA:          -4.367
REMARK INTER:                  -4.346
REMARK INTRA:                  -0.021
REMARK UNBOUND:                -0.096
REMARK SMILES CCCCC(=O)[O-]
REMARK SMILES IDX 4 1 5 2 6 3 7 4 3 5 2 6 1 7
REMARK H PARENT
REMARK Flexibility Score: inf
ROOT
ATOM      1  C   UNL     1      25.467  29.892  24.435  1.00  0.00     0.053 C 
ENDROOT
BRANCH   1   2
ATOM      2  C   UNL     1      25.936  28.682  23.693  1.00  0.00     0.041 C 
ATOM      3  O   UNL     1      27.037  28.144  23.989  1.00  0.00    -0.550 OA
ATOM      4  O   UNL     1      25.138  28.117  22.707  1.00  0.00    -0.550 OA
ENDBRANCH   1   2
BRANCH   1   5
ATOM      5  C   UNL     1      26.656  30.634  25.057  1.00  0.00     0.006 C 
BRANCH   5   6
ATOM      6  C   UNL     1      26.281  32.037  25.559  1.00  0.00    -0.003 C 
ATOM      7  C   UNL     1      27.239  32.558  26.629  1.00  0.00     0.004 C 
ENDBRANCH   5   6
ENDBRANCH   1   5
TORSDOF 3
ENDMDL
