MODEL 1
REMARK VINA RESULT:    -3.437      0.000      0.000
REMARK INTER + INTRA:          -5.022
REMARK INTER:                  -4.642
REMARK INTRA:                  -0.379
REMARK UNBOUND:                -0.379
REMARK SMILES CCCCCCCC(=O)[O-]
REMARK SMILES IDX 5 1 6 2 7 3 8 4 9 5 10 6 4 7 3 8 2 9 1 10
REMARK H PARENT
REMARK Flexibility Score: inf
ROOT
ATOM      1  C   UNL     1     153.186 157.123 165.923  1.00  0.00     0.000 C 
ENDROOT
BRANCH   1   2
ATOM      2  C   UNL     1     153.957 158.254 165.225  1.00  0.00     0.006 C 
BRANCH   2   3
ATOM      3  C   UNL     1     153.279 158.703 163.923  1.00  0.00     0.053 C 
BRANCH   3   4
ATOM      4  C   UNL     1     153.910 158.073 162.720  1.00  0.00     0.041 C 
ATOM      5  O   UNL     1     154.516 158.786 161.877  1.00  0.00    -0.550 OA
ATOM      6  O   UNL     1     153.799 156.704 162.512  1.00  0.00    -0.550 OA
ENDBRANCH   3   4
ENDBRANCH   2   3
ENDBRANCH   1   2
BRANCH   1   7
ATOM      7  C   UNL     1     154.057 155.865 166.058  1.00  0.00     0.000 C 
BRANCH   7   8
ATOM      8  C   UNL     1     155.561 156.178 166.000  1.00  0.00    -0.000 C 
BRANCH   8   9
ATOM      9  C   UNL     1     156.405 155.169 166.793  1.00  0.00    -0.003 C 
ATOM     10  C   UNL     1     155.559 154.447 167.838  1.00  0.00     0.004 C 
ENDBRANCH   8   9
ENDBRANCH   7   8
ENDBRANCH   1   7
TORSDOF 6
ENDMDL
MODEL 2
REMARK VINA RESULT:    -3.386      3.101      4.998
REMARK INTER + INTRA:          -4.953
REMARK INTER:                  -4.375
REMARK INTRA:                  -0.578
REMARK UNBOUND:                -0.379
REMARK SMILES CCCCCCCC(=O)[O-]
REMARK SMILES IDX 5 1 6 2 7 3 8 4 9 5 10 6 4 7 3 8 2 9 1 10
REMARK H PARENT
REMARK Flexibility Score: inf
ROOT
ATOM      1  C   UNL     1     155.480 153.842 164.948  1.00  0.00     0.000 C 
ENDROOT
BRANCH   1   2
ATOM      2  C   UNL     1     156.599 154.348 165.872  1.00  0.00     0.006 C 
BRANCH   2   3
ATOM      3  C   UNL     1     156.102 155.420 166.853  1.00  0.00     0.053 C 
BRANCH   3   4
ATOM      4  C   UNL     1     154.941 154.936 167.666  1.00  0.00     0.041 C 
ATOM      5  O   UNL     1     153.829 155.523 167.594  1.00  0.00    -0.550 OA
ATOM      6  O   UNL     1     155.097 153.859 168.530  1.00  0.00    -0.550 OA
ENDBRANCH   3   4
ENDBRANCH   2   3
ENDBRANCH   1   2
BRANCH   1   7
ATOM      7  C   UNL     1     155.277 154.794 163.760  1.00  0.00     0.000 C 
BRANCH   7   8
ATOM      8  C   UNL     1     153.907 155.491 163.788  1.00  0.00    -0.000 C 
BRANCH   8   9
ATOM      9  C   UNL     1     154.014 157.010 163.588  1.00  0.00    -0.003 C 
ATOM     10  C   UNL     1     153.870 157.750 164.915  1.00  0.00     0.004 C 
ENDBRANCH   8   9
ENDBRANCH   7   8
ENDBRANCH   1   7
TORSDOF 6
ENDMDL
MODEL 3
REMARK VINA RESULT:    -3.328      1.906      2.450
REMARK INTER + INTRA:          -4.875
REMARK INTER:                  -4.378
REMARK INTRA:                  -0.497
REMARK UNBOUND:                -0.379
REMARK SMILES CCCCCCCC(=O)[O-]
REMARK SMILES IDX 5 1 6 2 7 3 8 4 9 5 10 6 4 7 3 8 2 9 1 10
REMARK H PARENT
REMARK Flexibility Score: inf
ROOT
ATOM      1  C   UNL     1     154.953 154.706 164.136  1.00  0.00     0.000 C 
ENDROOT
BRANCH   1   2
ATOM      2  C   UNL     1     154.575 155.943 163.305  1.00  0.00     0.006 C 
BRANCH   2   3
ATOM      3  C   UNL     1     153.396 156.713 163.915  1.00  0.00     0.053 C 
BRANCH   3   4
ATOM      4  C   UNL     1     153.769 158.123 164.258  1.00  0.00     0.041 C 
ATOM      5  O   UNL     1     154.032 158.436 165.449  1.00  0.00    -0.550 OA
ATOM      6  O   UNL     1     153.791 159.097 163.268  1.00  0.00    -0.550 OA
ENDBRANCH   3   4
ENDBRANCH   2   3
ENDBRANCH   1   2
BRANCH   1   7
ATOM      7  C   UNL     1     156.280 154.927 164.877  1.00  0.00     0.000 C 
BRANCH   7   8
ATOM      8  C   UNL     1     156.105 155.722 166.181  1.00  0.00    -0.000 C 
BRANCH   8   9
ATOM      9  C   UNL     1     155.389 154.913 167.273  1.00  0.00    -0.003 C 
ATOM     10  C   UNL     1     153.966 155.421 167.488  1.00  0.00     0.004 C 
ENDBRANCH   8   9
ENDBRANCH   7   8
ENDBRANCH   1   7
TORSDOF 6
ENDMDL
MODEL 4
REMARK VINA RESULT:    -3.322      1.703      2.380
REMARK INTER + INTRA:          -4.867
REMARK INTER:                  -4.452
REMARK INTRA:                  -0.415
REMARK UNBOUND:                -0.379
REMARK SMILES CCCCCCCC(=O)[O-]
REMARK SMILES IDX 5 1 6 2 7 3 8 4 9 5 10 6 4 7 3 8 2 9 1 10
REMARK H PARENT
REMARK Flexibility Score: inf
ROOT
ATOM      1  C   UNL     1     154.600 156.066 166.170  1.00  0.00     0.000 C 
ENDROOT
BRANCH   1   2
ATOM      2  C   UNL     1     154.305 157.451 165.574  1.00  0.00     0.006 C 
BRANCH   2   3
ATOM      3  C   UNL     1     153.307 157.382 164.409  1.00  0.00     0.053 C 
BRANCH   3   4
ATOM      4  C   UNL     1     153.916 157.856 163.125  1.00  0.00     0.041 C 
ATOM      5  O   UNL     1     154.496 157.040 162.361  1.00  0.00    -0.550 OA
ATOM      6  O   UNL     1     153.874 159.203 162.790  1.00  0.00    -0.550 OA
ENDBRANCH   3   4
ENDBRANCH   2   3
ENDBRANCH   1   2
BRANCH   1   7
ATOM      7  C   UNL     1     156.113 155.804 166.226  1.00  0.00     0.000 C 
BRANCH   7   8
ATOM      8  C   UNL     1     156.511 154.486 165.542  1.00  0.00    -0.000 C 
BRANCH   8   9
ATOM      9  C   UNL     1     155.828 154.299 164.179  1.00  0.00    -0.003 C 
ATOM     10  C   UNL     1     156.859 154.212 163.056  1.00  0.00     0.004 C 
ENDBRANCH   8   9
ENDBRANCH   7   8
ENDBRANCH   1   7
TORSDOF 6
ENDMDL
MODEL 5
REMARK VINA RESULT:    -3.303      3.179      5.424
REMARK INTER + INTRA:          -4.841
REMARK INTER:                  -4.557
REMARK INTRA:                  -0.284
REMARK UNBOUND:                -0.379
REMARK SMILES CCCCCCCC(=O)[O-]
REMARK SMILES IDX 5 1 6 2 7 3 8 4 9 5 10 6 4 7 3 8 2 9 1 10
REMARK H PARENT
REMARK Flexibility Score: inf
ROOT
ATOM      1  C   UNL     1     155.790 156.068 165.968  1.00  0.00     0.000 C 
ENDROOT
BRANCH   1   2
ATOM      2  C   UNL     1     156.213 155.038 167.026  1.00  0.00     0.006 C 
BRANCH   2   3
ATOM      3  C   UNL     1     155.104 154.769 168.052  1.00  0.00     0.053 C 
BRANCH   3   4
ATOM      4  C   UNL     1     154.601 153.360 167.973  1.00  0.00     0.041 C 
ATOM      5  O   UNL     1     154.304 152.734 169.025  1.00  0.00    -0.550 OA
ATOM      6  O   UNL     1     154.495 152.727 166.741  1.00  0.00    -0.550 OA
ENDBRANCH   3   4
ENDBRANCH   2   3
ENDBRANCH   1   2
BRANCH   1   7
ATOM      7  C   UNL     1     154.310 156.448 166.132  1.00  0.00     0.000 C 
BRANCH   7   8
ATOM      8  C   UNL     1     153.600 156.657 164.786  1.00  0.00    -0.000 C 
BRANCH   8   9
ATOM      9  C   UNL     1     153.795 158.075 164.229  1.00  0.00    -0.003 C 
ATOM     10  C   UNL     1     153.664 159.121 165.333  1.00  0.00     0.004 C 
ENDBRANCH   8   9
ENDBRANCH   7   8
ENDBRANCH   1   7
TORSDOF 6
ENDMDL
MODEL 6
REMARK VINA RESULT:    -3.257      4.226      6.058
REMARK INTER + INTRA:          -4.779
REMARK INTER:                  -4.400
REMARK INTRA:                  -0.379
REMARK UNBOUND:                -0.379
REMARK SMILES CCCCCCCC(=O)[O-]
REMARK SMILES IDX 5 1 6 2 7 3 8 4 9 5 10 6 4 7 3 8 2 9 1 10
REMARK H PARENT
REMARK Flexibility Score: inf
ROOT
ATOM      1  C   UNL     1     155.938 155.016 167.348  1.00  0.00     0.000 C 
ENDROOT
BRANCH   1   2
ATOM      2  C   UNL     1     154.480 154.997 167.833  1.00  0.00     0.006 C 
BRANCH   2   3
ATOM      3  C   UNL     1     154.130 153.699 168.573  1.00  0.00     0.053 C 
BRANCH   3   4
ATOM      4  C   UNL     1     154.020 153.913 170.052  1.00  0.00     0.041 C 
ATOM      5  O   UNL     1     153.577 152.996 170.792  1.00  0.00    -0.550 OA
ATOM      6  O   UNL     1     154.374 155.136 170.606  1.00  0.00    -0.550 OA
ENDBRANCH   3   4
ENDBRANCH   2   3
ENDBRANCH   1   2
BRANCH   1   7
ATOM      7  C   UNL     1     156.080 155.852 166.067  1.00  0.00     0.000 C 
BRANCH   7   8
ATOM      8  C   UNL     1     154.814 156.663 165.746  1.00  0.00    -0.000 C 
BRANCH   8   9
ATOM      9  C   UNL     1     154.356 156.492 164.290  1.00  0.00    -0.003 C 
ATOM     10  C   UNL     1     154.468 155.035 163.847  1.00  0.00     0.004 C 
ENDBRANCH   8   9
ENDBRANCH   7   8
ENDBRANCH   1   7
TORSDOF 6
ENDMDL
MODEL 7
REMARK VINA RESULT:    -3.191      2.719      4.379
REMARK INTER + INTRA:          -4.690
REMARK INTER:                  -4.163
REMARK INTRA:                  -0.526
REMARK UNBOUND:                -0.379
REMARK SMILES CCCCCCCC(=O)[O-]
REMARK SMILES IDX 5 1 6 2 7 3 8 4 9 5 10 6 4 7 3 8 2 9 1 10
REMARK H PARENT
REMARK Flexibility Score: inf
ROOT
ATOM      1  C   UNL     1     153.555 156.259 165.846  1.00  0.00     0.000 C 
ENDROOT
BRANCH   1   2
ATOM      2  C   UNL     1     153.534 155.219 164.715  1.00  0.00     0.006 C 
BRANCH   2   3
ATOM      3  C   UNL     1     154.811 155.260 163.864  1.00  0.00     0.053 C 
BRANCH   3   4
ATOM      4  C   UNL     1     155.689 154.073 164.119  1.00  0.00     0.041 C 
ATOM      5  O   UNL     1     156.610 153.782 163.311  1.00  0.00    -0.550 OA
ATOM      6  O   UNL     1     155.468 153.270 165.231  1.00  0.00    -0.550 OA
ENDBRANCH   3   4
ENDBRANCH   2   3
ENDBRANCH   1   2
BRANCH   1   7
ATOM      7  C   UNL     1     154.508 157.416 165.509  1.00  0.00     0.000 C 
BRANCH   7   8
ATOM      8  C   UNL     1     153.781 158.765 165.388  1.00  0.00    -0.000 C 
BRANCH   8   9
ATOM      9  C   UNL     1     152.926 158.863 164.115  1.00  0.00    -0.003 C 
ATOM     10  C   UNL     1     153.791 158.753 162.863  1.00  0.00     0.004 C 
ENDBRANCH   8   9
ENDBRANCH   7   8
ENDBRANCH   1   7
TORSDOF 6
ENDMDL
MODEL 8
REMARK VINA RESULT:    -3.172      1.476      2.444
REMARK INTER + INTRA:          -4.664
REMARK INTER:                  -4.380
REMARK INTRA:                  -0.284
REMARK UNBOUND:                -0.379
REMARK SMILES CCCCCCCC(=O)[O-]
REMARK SMILES IDX 5 1 6 2 7 3 8 4 9 5 10 6 4 7 3 8 2 9 1 10
REMARK H PARENT
REMARK Flexibility Score: inf
ROOT
ATOM      1  C   UNL     1     156.068 155.949 166.023  1.00  0.00     0.000 C 
ENDROOT
BRANCH   1   2
ATOM      2  C   UNL     1     154.613 156.112 165.557  1.00  0.00     0.006 C 
BRANCH   2   3
ATOM      3  C   UNL     1     154.154 157.577 165.584  1.00  0.00     0.053 C 
BRANCH   3   4
ATOM      4  C   UNL     1     153.728 158.052 164.229  1.00  0.00     0.041 C 
ATOM      5  O   UNL     1     153.001 159.075 164.117  1.00  0.00    -0.550 OA
ATOM      6  O   UNL     1     154.104 157.346 163.093  1.00  0.00    -0.550 OA
ENDBRANCH   3   4
ENDBRANCH   2   3
ENDBRANCH   1   2
BRANCH   1   7
ATOM      7  C   UNL     1     156.155 155.001 167.229  1.00  0.00     0.000 C 
BRANCH   7   8
ATOM      8  C   UNL     1     154.797 154.382 167.594  1.00  0.00    -0.000 C 
BRANCH   8   9
ATOM      9  C   UNL     1     154.320 154.789 168.996  1.00  0.00    -0.003 C 
ATOM     10  C   UNL     1     153.943 153.564 169.825  1.00  0.00     0.004 C 
ENDBRANCH   8   9
ENDBRANCH   7   8
ENDBRANCH   1   7
TORSDOF 6
ENDMDL
MODEL 9
REMARK VINA RESULT:    -3.168      3.010      5.052
REMARK INTER + INTRA:          -4.658
REMARK INTER:                  -4.350
REMARK INTRA:                  -0.308
REMARK UNBOUND:                -0.379
REMARK SMILES CCCCCCCC(=O)[O-]
REMARK SMILES IDX 5 1 6 2 7 3 8 4 9 5 10 6 4 7 3 8 2 9 1 10
REMARK H PARENT
REMARK Flexibility Score: inf
ROOT
ATOM      1  C   UNL     1     155.857 156.093 166.012  1.00  0.00     0.000 C 
ENDROOT
BRANCH   1   2
ATOM      2  C   UNL     1     156.370 154.690 165.652  1.00  0.00     0.006 C 
BRANCH   2   3
ATOM      3  C   UNL     1     155.369 153.909 164.790  1.00  0.00     0.053 C 
BRANCH   3   4
ATOM      4  C   UNL     1     154.711 152.806 165.560  1.00  0.00     0.041 C 
ATOM      5  O   UNL     1     155.256 151.673 165.632  1.00  0.00    -0.550 OA
ATOM      6  O   UNL     1     153.481 153.020 166.169  1.00  0.00    -0.550 OA
ENDBRANCH   3   4
ENDBRANCH   2   3
ENDBRANCH   1   2
BRANCH   1   7
ATOM      7  C   UNL     1     154.680 156.495 165.112  1.00  0.00     0.000 C 
BRANCH   7   8
ATOM      8  C   UNL     1     154.010 157.804 165.562  1.00  0.00    -0.000 C 
BRANCH   8   9
ATOM      9  C   UNL     1     153.584 158.686 164.379  1.00  0.00    -0.003 C 
ATOM     10  C   UNL     1     153.802 157.967 163.051  1.00  0.00     0.004 C 
ENDBRANCH   8   9
ENDBRANCH   7   8
ENDBRANCH   1   7
TORSDOF 6
ENDMDL
