MODEL 1
REMARK VINA RESULT:    -6.590      0.000      0.000
REMARK INTER + INTRA:          -7.552
REMARK INTER:                  -7.938
REMARK INTRA:                   0.386
REMARK UNBOUND:                 0.386
REMARK SMILES O=c1c(O)c(-c2ccc(O)c(O)c2)oc2cc(O)cc(O)c12
REMARK SMILES IDX 5 1 3 2 2 3 1 4 22 5 20 6 19 7 17 8 16 9 15 10 14 11 6 12
REMARK SMILES IDX 7 13 8 14 9 15 13 16 11 17 10 18 12 20 4 22 21 24 18 26
REMARK H PARENT 10 19 12 21 4 23 21 25 18 27
REMARK Flexibility Score: inf
ROOT
ATOM      1  C   UNL     1      10.230  -3.237  19.139  1.00  0.00     0.180 A 
ATOM      2  C   UNL     1      11.465  -2.675  18.770  1.00  0.00     0.208 A 
ATOM      3  C   UNL     1      11.543  -1.291  18.544  1.00  0.00     0.238 A 
ATOM      4  O   UNL     1      12.662  -0.786  18.268  1.00  0.00    -0.285 OA
ATOM      5  C   UNL     1      10.383  -0.489  18.676  1.00  0.00     0.111 A 
ATOM      6  C   UNL     1      10.339   0.916  18.432  1.00  0.00     0.134 A 
ATOM      7  C   UNL     1       9.168   1.630  18.719  1.00  0.00     0.093 A 
ATOM      8  C   UNL     1       8.021   0.977  19.179  1.00  0.00     0.123 A 
ATOM      9  C   UNL     1       8.037  -0.402  19.362  1.00  0.00     0.094 A 
ATOM     10  C   UNL     1       9.201  -1.137  19.119  1.00  0.00     0.146 A 
ATOM     11  O   UNL     1       9.176  -2.448  19.318  1.00  0.00    -0.452 OA
ENDROOT
BRANCH   1  12
ATOM     12  C   UNL     1      10.063  -4.689  19.369  1.00  0.00     0.025 A 
ATOM     13  C   UNL     1      11.167  -5.456  19.775  1.00  0.00     0.016 A 
ATOM     14  C   UNL     1      11.027  -6.825  20.018  1.00  0.00     0.051 A 
ATOM     15  C   UNL     1       9.782  -7.445  19.877  1.00  0.00     0.157 A 
ATOM     16  C   UNL     1       8.806  -5.311  19.248  1.00  0.00     0.062 A 
ATOM     17  C   UNL     1       8.664  -6.685  19.493  1.00  0.00     0.158 A 
BRANCH  15  18
ATOM     18  O   UNL     1       9.674  -8.812  20.125  1.00  0.00    -0.504 OA
ATOM     19  H   UNL     1       9.889  -9.506  19.419  1.00  0.00     0.293 HD
ENDBRANCH  15  18
BRANCH  17  20
ATOM     20  O   UNL     1       7.417  -7.294  19.364  1.00  0.00    -0.504 OA
ATOM     21  H   UNL     1       7.171  -8.119  19.898  1.00  0.00     0.293 HD
ENDBRANCH  17  20
ENDBRANCH   1  12
BRANCH   2  22
ATOM     22  O   UNL     1      12.601  -3.481  18.668  1.00  0.00    -0.502 OA
ATOM     23  H   UNL     1      12.570  -4.422  18.294  1.00  0.00     0.293 HD
ENDBRANCH   2  22
BRANCH   6  24
ATOM     24  O   UNL     1      11.397   1.649  17.887  1.00  0.00    -0.507 OA
ATOM     25  H   UNL     1      11.332   2.604  17.572  1.00  0.00     0.293 HD
ENDBRANCH   6  24
BRANCH   8  26
ATOM     26  O   UNL     1       6.856   1.693  19.447  1.00  0.00    -0.508 OA
ATOM     27  H   UNL     1       6.266   2.043  18.701  1.00  0.00     0.293 HD
ENDBRANCH   8  26
TORSDOF 6
ENDMDL
MODEL 2
REMARK VINA RESULT:    -6.328      1.390      6.623
REMARK INTER + INTRA:          -7.237
REMARK INTER:                  -7.254
REMARK INTRA:                   0.018
REMARK UNBOUND:                 0.386
REMARK SMILES O=c1c(O)c(-c2ccc(O)c(O)c2)oc2cc(O)cc(O)c12
REMARK SMILES IDX 5 1 3 2 2 3 1 4 22 5 20 6 19 7 17 8 16 9 15 10 14 11 6 12
REMARK SMILES IDX 7 13 8 14 9 15 13 16 11 17 10 18 12 20 4 22 21 24 18 26
REMARK H PARENT 10 19 12 21 4 23 21 25 18 27
REMARK Flexibility Score: inf
ROOT
ATOM      1  C   UNL     1       9.925  -2.035  19.399  1.00  0.00     0.180 A 
ATOM      2  C   UNL     1      11.280  -2.410  19.403  1.00  0.00     0.208 A 
ATOM      3  C   UNL     1      11.612  -3.767  19.552  1.00  0.00     0.238 A 
ATOM      4  O   UNL     1      12.824  -4.103  19.499  1.00  0.00    -0.285 OA
ATOM      5  C   UNL     1      10.585  -4.729  19.711  1.00  0.00     0.111 A 
ATOM      6  C   UNL     1      10.808  -6.125  19.910  1.00  0.00     0.134 A 
ATOM      7  C   UNL     1       9.716  -7.003  19.926  1.00  0.00     0.093 A 
ATOM      8  C   UNL     1       8.407  -6.526  19.815  1.00  0.00     0.123 A 
ATOM      9  C   UNL     1       8.178  -5.160  19.680  1.00  0.00     0.094 A 
ATOM     10  C   UNL     1       9.248  -4.263  19.625  1.00  0.00     0.146 A 
ATOM     11  O   UNL     1       8.985  -2.970  19.485  1.00  0.00    -0.452 OA
ENDROOT
BRANCH   1  12
ATOM     12  C   UNL     1       9.499  -0.624  19.271  1.00  0.00     0.025 A 
ATOM     13  C   UNL     1      10.079   0.351  20.098  1.00  0.00     0.016 A 
ATOM     14  C   UNL     1       9.706   1.692  19.980  1.00  0.00     0.051 A 
ATOM     15  C   UNL     1       8.763   2.083  19.024  1.00  0.00     0.157 A 
ATOM     16  C   UNL     1       8.566  -0.227  18.296  1.00  0.00     0.062 A 
ATOM     17  C   UNL     1       8.192   1.121  18.175  1.00  0.00     0.158 A 
BRANCH  15  18
ATOM     18  O   UNL     1       8.410   3.428  18.931  1.00  0.00    -0.504 OA
ATOM     19  H   UNL     1       8.032   3.942  19.718  1.00  0.00     0.293 HD
ENDBRANCH  15  18
BRANCH  17  20
ATOM     20  O   UNL     1       7.261   1.505  17.211  1.00  0.00    -0.504 OA
ATOM     21  H   UNL     1       7.483   2.197  16.505  1.00  0.00     0.293 HD
ENDBRANCH  17  20
ENDBRANCH   1  12
BRANCH   2  22
ATOM     22  O   UNL     1      12.277  -1.447  19.222  1.00  0.00    -0.502 OA
ATOM     23  H   UNL     1      12.327  -0.604  19.781  1.00  0.00     0.293 HD
ENDBRANCH   2  22
BRANCH   6  24
ATOM     24  O   UNL     1      12.067  -6.693  20.124  1.00  0.00    -0.507 OA
ATOM     25  H   UNL     1      12.292  -7.664  19.974  1.00  0.00     0.293 HD
ENDBRANCH   6  24
BRANCH   8  26
ATOM     26  O   UNL     1       7.327  -7.404  19.847  1.00  0.00    -0.508 OA
ATOM     27  H   UNL     1       6.544  -7.259  20.475  1.00  0.00     0.293 HD
ENDBRANCH   8  26
TORSDOF 6
ENDMDL
MODEL 3
REMARK VINA RESULT:    -6.273      1.356      2.824
REMARK INTER + INTRA:          -7.171
REMARK INTER:                  -7.599
REMARK INTRA:                   0.428
REMARK UNBOUND:                 0.386
REMARK SMILES O=c1c(O)c(-c2ccc(O)c(O)c2)oc2cc(O)cc(O)c12
REMARK SMILES IDX 5 1 3 2 2 3 1 4 22 5 20 6 19 7 17 8 16 9 15 10 14 11 6 12
REMARK SMILES IDX 7 13 8 14 9 15 13 16 11 17 10 18 12 20 4 22 21 24 18 26
REMARK H PARENT 10 19 12 21 4 23 21 25 18 27
REMARK Flexibility Score: inf
ROOT
ATOM      1  C   UNL     1       9.162  -2.871  19.174  1.00  0.00     0.180 A 
ATOM      2  C   UNL     1       7.940  -2.305  18.771  1.00  0.00     0.208 A 
ATOM      3  C   UNL     1       7.857  -0.913  18.600  1.00  0.00     0.238 A 
ATOM      4  O   UNL     1       6.776  -0.419  18.186  1.00  0.00    -0.285 OA
ATOM      5  C   UNL     1       8.992  -0.104  18.848  1.00  0.00     0.111 A 
ATOM      6  C   UNL     1       9.010   1.319  18.745  1.00  0.00     0.134 A 
ATOM      7  C   UNL     1      10.222   2.007  18.888  1.00  0.00     0.093 A 
ATOM      8  C   UNL     1      11.403   1.327  19.194  1.00  0.00     0.123 A 
ATOM      9  C   UNL     1      11.384  -0.056  19.355  1.00  0.00     0.094 A 
ATOM     10  C   UNL     1      10.197  -0.773  19.184  1.00  0.00     0.146 A 
ATOM     11  O   UNL     1      10.226  -2.091  19.336  1.00  0.00    -0.452 OA
ENDROOT
BRANCH   1  12
ATOM     12  C   UNL     1       9.321  -4.325  19.399  1.00  0.00     0.025 A 
ATOM     13  C   UNL     1      10.602  -4.856  19.614  1.00  0.00     0.016 A 
ATOM     14  C   UNL     1      10.772  -6.222  19.849  1.00  0.00     0.051 A 
ATOM     15  C   UNL     1       9.665  -7.076  19.890  1.00  0.00     0.157 A 
ATOM     16  C   UNL     1       8.206  -5.182  19.461  1.00  0.00     0.062 A 
ATOM     17  C   UNL     1       8.375  -6.554  19.699  1.00  0.00     0.158 A 
BRANCH  15  18
ATOM     18  O   UNL     1       9.866  -8.435  20.125  1.00  0.00    -0.504 OA
ATOM     19  H   UNL     1       9.156  -9.019  20.552  1.00  0.00     0.293 HD
ENDBRANCH  15  18
BRANCH  17  20
ATOM     20  O   UNL     1       7.266  -7.397  19.752  1.00  0.00    -0.504 OA
ATOM     21  H   UNL     1       6.331  -7.036  19.901  1.00  0.00     0.293 HD
ENDBRANCH  17  20
ENDBRANCH   1  12
BRANCH   2  22
ATOM     22  O   UNL     1       6.839  -3.124  18.509  1.00  0.00    -0.502 OA
ATOM     23  H   UNL     1       6.169  -3.381  19.225  1.00  0.00     0.293 HD
ENDBRANCH   2  22
BRANCH   6  24
ATOM     24  O   UNL     1       7.871   2.101  18.534  1.00  0.00    -0.507 OA
ATOM     25  H   UNL     1       7.572   2.855  19.134  1.00  0.00     0.293 HD
ENDBRANCH   6  24
BRANCH   8  26
ATOM     26  O   UNL     1      12.601   2.020  19.349  1.00  0.00    -0.508 OA
ATOM     27  H   UNL     1      13.461   1.697  18.919  1.00  0.00     0.293 HD
ENDBRANCH   8  26
TORSDOF 6
ENDMDL
MODEL 4
REMARK VINA RESULT:    -5.954      1.809      7.230
REMARK INTER + INTRA:          -6.786
REMARK INTER:                  -6.805
REMARK INTRA:                   0.019
REMARK UNBOUND:                 0.386
REMARK SMILES O=c1c(O)c(-c2ccc(O)c(O)c2)oc2cc(O)cc(O)c12
REMARK SMILES IDX 5 1 3 2 2 3 1 4 22 5 20 6 19 7 17 8 16 9 15 10 14 11 6 12
REMARK SMILES IDX 7 13 8 14 9 15 13 16 11 17 10 18 12 20 4 22 21 24 18 26
REMARK H PARENT 10 19 12 21 4 23 21 25 18 27
REMARK Flexibility Score: inf
ROOT
ATOM      1  C   UNL     1       8.639  -2.161  19.419  1.00  0.00     0.180 A 
ATOM      2  C   UNL     1       7.477  -2.946  19.527  1.00  0.00     0.208 A 
ATOM      3  C   UNL     1       7.607  -4.335  19.690  1.00  0.00     0.238 A 
ATOM      4  O   UNL     1       6.565  -5.026  19.842  1.00  0.00    -0.285 OA
ATOM      5  C   UNL     1       8.894  -4.923  19.728  1.00  0.00     0.111 A 
ATOM      6  C   UNL     1       9.141  -6.324  19.849  1.00  0.00     0.134 A 
ATOM      7  C   UNL     1      10.456  -6.782  20.007  1.00  0.00     0.093 A 
ATOM      8  C   UNL     1      11.535  -5.894  19.982  1.00  0.00     0.123 A 
ATOM      9  C   UNL     1      11.307  -4.533  19.804  1.00  0.00     0.094 A 
ATOM     10  C   UNL     1      10.005  -4.042  19.680  1.00  0.00     0.146 A 
ATOM     11  O   UNL     1       9.832  -2.735  19.524  1.00  0.00    -0.452 OA
ENDROOT
BRANCH   1  12
ATOM     12  C   UNL     1       8.583  -0.696  19.221  1.00  0.00     0.025 A 
ATOM     13  C   UNL     1       9.430   0.136  19.969  1.00  0.00     0.016 A 
ATOM     14  C   UNL     1       9.408   1.520  19.783  1.00  0.00     0.051 A 
ATOM     15  C   UNL     1       8.554   2.093  18.836  1.00  0.00     0.157 A 
ATOM     16  C   UNL     1       7.738  -0.120  18.254  1.00  0.00     0.062 A 
ATOM     17  C   UNL     1       7.716   1.271  18.065  1.00  0.00     0.158 A 
BRANCH  15  18
ATOM     18  O   UNL     1       8.553   3.478  18.674  1.00  0.00    -0.504 OA
ATOM     19  H   UNL     1       8.893   4.105  19.394  1.00  0.00     0.293 HD
ENDBRANCH  15  18
BRANCH  17  20
ATOM     20  O   UNL     1       6.872   1.834  17.109  1.00  0.00    -0.504 OA
ATOM     21  H   UNL     1       6.498   2.770  17.216  1.00  0.00     0.293 HD
ENDBRANCH  17  20
ENDBRANCH   1  12
BRANCH   2  22
ATOM     22  O   UNL     1       6.217  -2.343  19.510  1.00  0.00    -0.502 OA
ATOM     23  H   UNL     1       5.857  -1.812  20.294  1.00  0.00     0.293 HD
ENDBRANCH   2  22
BRANCH   6  24
ATOM     24  O   UNL     1       8.144  -7.301  19.793  1.00  0.00    -0.507 OA
ATOM     25  H   UNL     1       8.009  -7.940  19.025  1.00  0.00     0.293 HD
ENDBRANCH   6  24
BRANCH   8  26
ATOM     26  O   UNL     1      12.840  -6.359  20.124  1.00  0.00    -0.508 OA
ATOM     27  H   UNL     1      13.548  -6.178  19.420  1.00  0.00     0.293 HD
ENDBRANCH   8  26
TORSDOF 6
ENDMDL
MODEL 5
REMARK VINA RESULT:    -5.922      3.723      4.206
REMARK INTER + INTRA:          -6.748
REMARK INTER:                  -6.724
REMARK INTRA:                  -0.023
REMARK UNBOUND:                 0.386
REMARK SMILES O=c1c(O)c(-c2ccc(O)c(O)c2)oc2cc(O)cc(O)c12
REMARK SMILES IDX 5 1 3 2 2 3 1 4 22 5 20 6 19 7 17 8 16 9 15 10 14 11 6 12
REMARK SMILES IDX 7 13 8 14 9 15 13 16 11 17 10 18 12 20 4 22 21 24 18 26
REMARK H PARENT 10 19 12 21 4 23 21 25 18 27
REMARK Flexibility Score: inf
ROOT
ATOM      1  C   UNL     1       9.527  -0.907  17.182  1.00  0.00     0.180 A 
ATOM      2  C   UNL     1      10.851  -0.778  17.636  1.00  0.00     0.208 A 
ATOM      3  C   UNL     1      11.177   0.285  18.494  1.00  0.00     0.238 A 
ATOM      4  O   UNL     1      12.351   0.363  18.941  1.00  0.00    -0.285 OA
ATOM      5  C   UNL     1      10.179   1.214  18.875  1.00  0.00     0.111 A 
ATOM      6  C   UNL     1      10.406   2.351  19.707  1.00  0.00     0.134 A 
ATOM      7  C   UNL     1       9.319   3.129  20.125  1.00  0.00     0.093 A 
ATOM      8  C   UNL     1       8.022   2.849  19.687  1.00  0.00     0.123 A 
ATOM      9  C   UNL     1       7.799   1.777  18.827  1.00  0.00     0.094 A 
ATOM     10  C   UNL     1       8.859   0.961  18.421  1.00  0.00     0.146 A 
ATOM     11  O   UNL     1       8.600  -0.057  17.610  1.00  0.00    -0.452 OA
ENDROOT
BRANCH   1  12
ATOM     12  C   UNL     1       9.113  -1.986  16.257  1.00  0.00     0.025 A 
ATOM     13  C   UNL     1       7.957  -2.731  16.538  1.00  0.00     0.016 A 
ATOM     14  C   UNL     1       7.538  -3.740  15.668  1.00  0.00     0.051 A 
ATOM     15  C   UNL     1       8.253  -4.008  14.497  1.00  0.00     0.157 A 
ATOM     16  C   UNL     1       9.821  -2.242  15.069  1.00  0.00     0.062 A 
ATOM     17  C   UNL     1       9.399  -3.254  14.193  1.00  0.00     0.158 A 
BRANCH  15  18
ATOM     18  O   UNL     1       7.810  -5.022  13.649  1.00  0.00    -0.504 OA
ATOM     19  H   UNL     1       8.450  -5.576  13.091  1.00  0.00     0.293 HD
ENDBRANCH  15  18
BRANCH  17  20
ATOM     20  O   UNL     1      10.110  -3.507  13.021  1.00  0.00    -0.504 OA
ATOM     21  H   UNL     1       9.898  -3.022  12.156  1.00  0.00     0.293 HD
ENDBRANCH  17  20
ENDBRANCH   1  12
BRANCH   2  22
ATOM     22  O   UNL     1      11.816  -1.719  17.266  1.00  0.00    -0.502 OA
ATOM     23  H   UNL     1      11.923  -2.606  17.744  1.00  0.00     0.293 HD
ENDBRANCH   2  22
BRANCH   6  24
ATOM     24  O   UNL     1      11.671   2.773  20.125  1.00  0.00    -0.507 OA
ATOM     25  H   UNL     1      12.332   3.267  19.545  1.00  0.00     0.293 HD
ENDBRANCH   6  24
BRANCH   8  26
ATOM     26  O   UNL     1       6.949   3.637  20.094  1.00  0.00    -0.508 OA
ATOM     27  H   UNL     1       6.051   3.229  20.333  1.00  0.00     0.293 HD
ENDBRANCH   8  26
TORSDOF 6
ENDMDL
MODEL 6
REMARK VINA RESULT:    -5.775      2.204      4.531
REMARK INTER + INTRA:          -6.570
REMARK INTER:                  -7.090
REMARK INTRA:                   0.520
REMARK UNBOUND:                 0.386
REMARK SMILES O=c1c(O)c(-c2ccc(O)c(O)c2)oc2cc(O)cc(O)c12
REMARK SMILES IDX 5 1 3 2 2 3 1 4 22 5 20 6 19 7 17 8 16 9 15 10 14 11 6 12
REMARK SMILES IDX 7 13 8 14 9 15 13 16 11 17 10 18 12 20 4 22 21 24 18 26
REMARK H PARENT 10 19 12 21 4 23 21 25 18 27
REMARK Flexibility Score: inf
ROOT
ATOM      1  C   UNL     1      10.956  -3.768  19.721  1.00  0.00     0.180 A 
ATOM      2  C   UNL     1      10.663  -2.410  19.504  1.00  0.00     0.208 A 
ATOM      3  C   UNL     1      11.714  -1.479  19.501  1.00  0.00     0.238 A 
ATOM      4  O   UNL     1      11.453  -0.273  19.251  1.00  0.00    -0.285 OA
ATOM      5  C   UNL     1      13.042  -1.914  19.731  1.00  0.00     0.111 A 
ATOM      6  C   UNL     1      14.178  -1.052  19.790  1.00  0.00     0.134 A 
ATOM      7  C   UNL     1      15.460  -1.606  19.893  1.00  0.00     0.093 A 
ATOM      8  C   UNL     1      15.641  -2.987  20.006  1.00  0.00     0.123 A 
ATOM      9  C   UNL     1      14.534  -3.832  20.009  1.00  0.00     0.094 A 
ATOM     10  C   UNL     1      13.245  -3.311  19.871  1.00  0.00     0.146 A 
ATOM     11  O   UNL     1      12.219  -4.153  19.868  1.00  0.00    -0.452 OA
ENDROOT
BRANCH   1  12
ATOM     12  C   UNL     1       9.900  -4.804  19.763  1.00  0.00     0.025 A 
ATOM     13  C   UNL     1       8.551  -4.418  19.748  1.00  0.00     0.016 A 
ATOM     14  C   UNL     1       7.538  -5.380  19.766  1.00  0.00     0.051 A 
ATOM     15  C   UNL     1       7.856  -6.741  19.781  1.00  0.00     0.157 A 
ATOM     16  C   UNL     1      10.219  -6.175  19.757  1.00  0.00     0.062 A 
ATOM     17  C   UNL     1       9.202  -7.143  19.773  1.00  0.00     0.158 A 
BRANCH  15  18
ATOM     18  O   UNL     1       6.824  -7.678  19.800  1.00  0.00    -0.504 OA
ATOM     19  H   UNL     1       6.904  -8.557  20.298  1.00  0.00     0.293 HD
ENDBRANCH  15  18
BRANCH  17  20
ATOM     20  O   UNL     1       9.527  -8.498  19.775  1.00  0.00    -0.504 OA
ATOM     21  H   UNL     1       9.486  -9.054  20.621  1.00  0.00     0.293 HD
ENDBRANCH  17  20
ENDBRANCH   1  12
BRANCH   2  22
ATOM     22  O   UNL     1       9.349  -2.005  19.257  1.00  0.00    -0.502 OA
ATOM     23  H   UNL     1       9.127  -1.176  18.718  1.00  0.00     0.293 HD
ENDBRANCH   2  22
BRANCH   6  24
ATOM     24  O   UNL     1      14.101   0.343  19.779  1.00  0.00    -0.507 OA
ATOM     25  H   UNL     1      14.281   0.922  18.973  1.00  0.00     0.293 HD
ENDBRANCH   6  24
BRANCH   8  26
ATOM     26  O   UNL     1      16.919  -3.529  20.124  1.00  0.00    -0.508 OA
ATOM     27  H   UNL     1      17.749  -2.955  20.031  1.00  0.00     0.293 HD
ENDBRANCH   8  26
TORSDOF 6
ENDMDL
MODEL 7
REMARK VINA RESULT:    -5.659      1.737      6.728
REMARK INTER + INTRA:          -6.431
REMARK INTER:                  -6.511
REMARK INTRA:                   0.081
REMARK UNBOUND:                 0.386
REMARK SMILES O=c1c(O)c(-c2ccc(O)c(O)c2)oc2cc(O)cc(O)c12
REMARK SMILES IDX 5 1 3 2 2 3 1 4 22 5 20 6 19 7 17 8 16 9 15 10 14 11 6 12
REMARK SMILES IDX 7 13 8 14 9 15 13 16 11 17 10 18 12 20 4 22 21 24 18 26
REMARK H PARENT 10 19 12 21 4 23 21 25 18 27
REMARK Flexibility Score: inf
ROOT
ATOM      1  C   UNL     1      11.447  -1.401  19.430  1.00  0.00     0.180 A 
ATOM      2  C   UNL     1      12.851  -1.403  19.360  1.00  0.00     0.208 A 
ATOM      3  C   UNL     1      13.539  -2.618  19.513  1.00  0.00     0.238 A 
ATOM      4  O   UNL     1      14.792  -2.622  19.394  1.00  0.00    -0.285 OA
ATOM      5  C   UNL     1      12.815  -3.812  19.748  1.00  0.00     0.111 A 
ATOM      6  C   UNL     1      13.411  -5.092  19.957  1.00  0.00     0.134 A 
ATOM      7  C   UNL     1      12.596  -6.226  20.052  1.00  0.00     0.093 A 
ATOM      8  C   UNL     1      11.203  -6.117  20.009  1.00  0.00     0.123 A 
ATOM      9  C   UNL     1      10.612  -4.866  19.866  1.00  0.00     0.094 A 
ATOM     10  C   UNL     1      11.400  -3.720  19.733  1.00  0.00     0.146 A 
ATOM     11  O   UNL     1      10.794  -2.548  19.586  1.00  0.00    -0.452 OA
ENDROOT
BRANCH   1  12
ATOM     12  C   UNL     1      10.654  -0.157  19.303  1.00  0.00     0.025 A 
ATOM     13  C   UNL     1      11.051   0.990  20.006  1.00  0.00     0.016 A 
ATOM     14  C   UNL     1      10.329   2.180  19.885  1.00  0.00     0.051 A 
ATOM     15  C   UNL     1       9.211   2.247  19.048  1.00  0.00     0.157 A 
ATOM     16  C   UNL     1       9.541  -0.083  18.445  1.00  0.00     0.062 A 
ATOM     17  C   UNL     1       8.816   1.112  18.321  1.00  0.00     0.158 A 
BRANCH  15  18
ATOM     18  O   UNL     1       8.510   3.448  18.948  1.00  0.00    -0.504 OA
ATOM     19  H   UNL     1       8.959   4.347  19.080  1.00  0.00     0.293 HD
ENDBRANCH  15  18
BRANCH  17  20
ATOM     20  O   UNL     1       7.711   1.175  17.473  1.00  0.00    -0.504 OA
ATOM     21  H   UNL     1       7.561   0.489  16.743  1.00  0.00     0.293 HD
ENDBRANCH  17  20
ENDBRANCH   1  12
BRANCH   2  22
ATOM     22  O   UNL     1      13.544  -0.217  19.104  1.00  0.00    -0.502 OA
ATOM     23  H   UNL     1      14.447  -0.202  18.646  1.00  0.00     0.293 HD
ENDBRANCH   2  22
BRANCH   6  24
ATOM     24  O   UNL     1      14.786  -5.298  20.106  1.00  0.00    -0.507 OA
ATOM     25  H   UNL     1      15.500  -4.653  19.804  1.00  0.00     0.293 HD
ENDBRANCH   6  24
BRANCH   8  26
ATOM     26  O   UNL     1      10.399  -7.249  20.120  1.00  0.00    -0.508 OA
ATOM     27  H   UNL     1      10.786  -8.153  20.366  1.00  0.00     0.293 HD
ENDBRANCH   8  26
TORSDOF 6
ENDMDL
MODEL 8
REMARK VINA RESULT:    -5.548      3.194      6.665
REMARK INTER + INTRA:          -6.297
REMARK INTER:                  -6.032
REMARK INTRA:                  -0.265
REMARK UNBOUND:                 0.386
REMARK SMILES O=c1c(O)c(-c2ccc(O)c(O)c2)oc2cc(O)cc(O)c12
REMARK SMILES IDX 5 1 3 2 2 3 1 4 22 5 20 6 19 7 17 8 16 9 15 10 14 11 6 12
REMARK SMILES IDX 7 13 8 14 9 15 13 16 11 17 10 18 12 20 4 22 21 24 18 26
REMARK H PARENT 10 19 12 21 4 23 21 25 18 27
REMARK Flexibility Score: inf
ROOT
ATOM      1  C   UNL     1      12.114  -2.457  18.981  1.00  0.00     0.180 A 
ATOM      2  C   UNL     1      12.066  -3.817  19.332  1.00  0.00     0.208 A 
ATOM      3  C   UNL     1      13.259  -4.476  19.671  1.00  0.00     0.238 A 
ATOM      4  O   UNL     1      13.203  -5.679  20.038  1.00  0.00    -0.285 OA
ATOM      5  C   UNL     1      14.487  -3.770  19.641  1.00  0.00     0.111 A 
ATOM      6  C   UNL     1      15.760  -4.348  19.927  1.00  0.00     0.134 A 
ATOM      7  C   UNL     1      16.892  -3.526  19.993  1.00  0.00     0.093 A 
ATOM      8  C   UNL     1      16.805  -2.158  19.720  1.00  0.00     0.123 A 
ATOM      9  C   UNL     1      15.577  -1.597  19.381  1.00  0.00     0.094 A 
ATOM     10  C   UNL     1      14.424  -2.385  19.342  1.00  0.00     0.146 A 
ATOM     11  O   UNL     1      13.272  -1.807  19.026  1.00  0.00    -0.452 OA
ENDROOT
BRANCH   1  12
ATOM     12  C   UNL     1      10.904  -1.702  18.588  1.00  0.00     0.025 A 
ATOM     13  C   UNL     1      10.394  -0.717  19.448  1.00  0.00     0.016 A 
ATOM     14  C   UNL     1       9.264   0.022  19.087  1.00  0.00     0.051 A 
ATOM     15  C   UNL     1       8.637  -0.199  17.857  1.00  0.00     0.157 A 
ATOM     16  C   UNL     1      10.284  -1.909  17.342  1.00  0.00     0.062 A 
ATOM     17  C   UNL     1       9.151  -1.166  16.977  1.00  0.00     0.158 A 
BRANCH  15  18
ATOM     18  O   UNL     1       7.511   0.552  17.526  1.00  0.00    -0.504 OA
ATOM     19  H   UNL     1       7.158   0.604  16.577  1.00  0.00     0.293 HD
ENDBRANCH  15  18
BRANCH  17  20
ATOM     20  O   UNL     1       8.539  -1.383  15.744  1.00  0.00    -0.504 OA
ATOM     21  H   UNL     1       7.905  -2.159  15.594  1.00  0.00     0.293 HD
ENDBRANCH  17  20
ENDBRANCH   1  12
BRANCH   2  22
ATOM     22  O   UNL     1      10.842  -4.489  19.377  1.00  0.00    -0.502 OA
ATOM     23  H   UNL     1      10.498  -4.938  20.218  1.00  0.00     0.293 HD
ENDBRANCH   2  22
BRANCH   6  24
ATOM     24  O   UNL     1      15.971  -5.716  20.124  1.00  0.00    -0.507 OA
ATOM     25  H   UNL     1      16.877  -6.156  20.172  1.00  0.00     0.293 HD
ENDBRANCH   6  24
BRANCH   8  26
ATOM     26  O   UNL     1      17.939  -1.350  19.773  1.00  0.00    -0.508 OA
ATOM     27  H   UNL     1      18.603  -1.418  20.536  1.00  0.00     0.293 HD
ENDBRANCH   8  26
TORSDOF 6
ENDMDL
MODEL 9
REMARK VINA RESULT:    -5.406      4.042      7.893
REMARK INTER + INTRA:          -6.126
REMARK INTER:                  -6.208
REMARK INTRA:                   0.082
REMARK UNBOUND:                 0.386
REMARK SMILES O=c1c(O)c(-c2ccc(O)c(O)c2)oc2cc(O)cc(O)c12
REMARK SMILES IDX 5 1 3 2 2 3 1 4 22 5 20 6 19 7 17 8 16 9 15 10 14 11 6 12
REMARK SMILES IDX 7 13 8 14 9 15 13 16 11 17 10 18 12 20 4 22 21 24 18 26
REMARK H PARENT 10 19 12 21 4 23 21 25 18 27
REMARK Flexibility Score: inf
ROOT
ATOM      1  C   UNL     1      13.858  -1.397  19.422  1.00  0.00     0.180 A 
ATOM      2  C   UNL     1      13.522  -2.740  19.669  1.00  0.00     0.208 A 
ATOM      3  C   UNL     1      14.552  -3.677  19.849  1.00  0.00     0.238 A 
ATOM      4  O   UNL     1      14.245  -4.867  20.125  1.00  0.00    -0.285 OA
ATOM      5  C   UNL     1      15.904  -3.264  19.765  1.00  0.00     0.111 A 
ATOM      6  C   UNL     1      17.026  -4.136  19.891  1.00  0.00     0.134 A 
ATOM      7  C   UNL     1      18.319  -3.598  19.919  1.00  0.00     0.093 A 
ATOM      8  C   UNL     1      18.531  -2.225  19.761  1.00  0.00     0.123 A 
ATOM      9  C   UNL     1      17.445  -1.374  19.577  1.00  0.00     0.094 A 
ATOM     10  C   UNL     1      16.141  -1.878  19.580  1.00  0.00     0.146 A 
ATOM     11  O   UNL     1      15.134  -1.029  19.413  1.00  0.00    -0.452 OA
ENDROOT
BRANCH   1  12
ATOM     12  C   UNL     1      12.829  -0.356  19.197  1.00  0.00     0.025 A 
ATOM     13  C   UNL     1      13.007   0.921  19.750  1.00  0.00     0.016 A 
ATOM     14  C   UNL     1      12.058   1.924  19.533  1.00  0.00     0.051 A 
ATOM     15  C   UNL     1      10.929   1.672  18.748  1.00  0.00     0.157 A 
ATOM     16  C   UNL     1      11.703  -0.603  18.390  1.00  0.00     0.062 A 
ATOM     17  C   UNL     1      10.750   0.404  18.170  1.00  0.00     0.158 A 
BRANCH  15  18
ATOM     18  O   UNL     1       9.999   2.692  18.551  1.00  0.00    -0.504 OA
ATOM     19  H   UNL     1       9.244   2.610  17.880  1.00  0.00     0.293 HD
ENDBRANCH  15  18
BRANCH  17  20
ATOM     20  O   UNL     1       9.634   0.149  17.376  1.00  0.00    -0.504 OA
ATOM     21  H   UNL     1       9.674   0.218  16.366  1.00  0.00     0.293 HD
ENDBRANCH  17  20
ENDBRANCH   1  12
BRANCH   2  22
ATOM     22  O   UNL     1      12.182  -3.122  19.771  1.00  0.00    -0.502 OA
ATOM     23  H   UNL     1      11.651  -3.463  18.978  1.00  0.00     0.293 HD
ENDBRANCH   2  22
BRANCH   6  24
ATOM     24  O   UNL     1      16.930  -5.529  19.962  1.00  0.00    -0.507 OA
ATOM     25  H   UNL     1      16.105  -6.033  20.247  1.00  0.00     0.293 HD
ENDBRANCH   6  24
BRANCH   8  26
ATOM     26  O   UNL     1      19.821  -1.700  19.775  1.00  0.00    -0.508 OA
ATOM     27  H   UNL     1      20.588  -2.164  19.301  1.00  0.00     0.293 HD
ENDBRANCH   8  26
TORSDOF 6
ENDMDL
