MODEL 1
REMARK VINA RESULT:    10.479      0.000      0.000
REMARK INTER + INTRA:          17.637
REMARK INTER:                  18.443
REMARK INTRA:                  -0.806
REMARK UNBOUND:                -0.806
REMARK SMILES CCCCCCC=CCCCCCCCC(=O)[O-]
REMARK SMILES IDX 10 1 11 2 12 3 13 4 14 5 15 6 16 7 17 8 18 9 9 10 8 11 7 12
REMARK SMILES IDX 6 13 5 14 4 15 3 16 2 17 1 18
REMARK H PARENT
REMARK Flexibility Score: inf
ROOT
ATOM      1  C   UNL     1      78.115   2.458  61.955  1.00  0.00     0.004 C 
ENDROOT
BRANCH   1   2
ATOM      2  C   UNL     1      77.977   0.986  62.375  1.00  0.00     0.000 C 
BRANCH   2   3
ATOM      3  C   UNL     1      77.790   0.814  63.892  1.00  0.00     0.000 C 
BRANCH   3   4
ATOM      4  C   UNL     1      79.101   0.496  64.643  1.00  0.00     0.000 C 
BRANCH   4   5
ATOM      5  C   UNL     1      79.025  -0.837  65.408  1.00  0.00     0.006 C 
BRANCH   5   6
ATOM      6  C   UNL     1      79.882  -0.825  66.680  1.00  0.00     0.053 C 
BRANCH   6   7
ATOM      7  C   UNL     1      79.411  -1.839  67.677  1.00  0.00     0.041 C 
ATOM      8  O   UNL     1      78.187  -2.116  67.769  1.00  0.00    -0.550 OA
ATOM      9  O   UNL     1      80.321  -2.458  68.525  1.00  0.00    -0.550 OA
ENDBRANCH   6   7
ENDBRANCH   5   6
ENDBRANCH   4   5
ENDBRANCH   3   4
ENDBRANCH   2   3
ENDBRANCH   1   2
BRANCH   1  10
ATOM     10  C   UNL     1      76.919   3.305  62.410  1.00  0.00     0.027 C 
BRANCH  10  11
ATOM     11  C   UNL     1      77.370   4.583  63.063  1.00  0.00    -0.031 C 
ATOM     12  C   UNL     1      78.567   4.684  63.662  1.00  0.00    -0.031 C 
BRANCH  12  13
ATOM     13  C   UNL     1      79.040   5.981  64.259  1.00  0.00     0.027 C 
BRANCH  13  14
ATOM     14  C   UNL     1      77.971   6.580  65.186  1.00  0.00     0.004 C 
BRANCH  14  15
ATOM     15  C   UNL     1      77.971   8.117  65.169  1.00  0.00     0.000 C 
BRANCH  15  16
ATOM     16  C   UNL     1      77.168   8.722  66.334  1.00  0.00    -0.000 C 
BRANCH  16  17
ATOM     17  C   UNL     1      77.736  10.072  66.801  1.00  0.00    -0.003 C 
ATOM     18  C   UNL     1      79.263  10.106  66.785  1.00  0.00     0.004 C 
ENDBRANCH  16  17
ENDBRANCH  15  16
ENDBRANCH  14  15
ENDBRANCH  13  14
ENDBRANCH  12  13
ENDBRANCH  10  11
ENDBRANCH   1  10
TORSDOF 13
ENDMDL
MODEL 2
REMARK VINA RESULT:    11.504      1.593      2.019
REMARK INTER + INTRA:          19.441
REMARK INTER:                  19.833
REMARK INTRA:                  -0.392
REMARK UNBOUND:                -0.806
REMARK SMILES CCCCCCC=CCCCCCCCC(=O)[O-]
REMARK SMILES IDX 10 1 11 2 12 3 13 4 14 5 15 6 16 7 17 8 18 9 9 10 8 11 7 12
REMARK SMILES IDX 6 13 5 14 4 15 3 16 2 17 1 18
REMARK H PARENT
REMARK Flexibility Score: inf
ROOT
ATOM      1  C   UNL     1      77.155   1.802  62.549  1.00  0.00     0.004 C 
ENDROOT
BRANCH   1   2
ATOM      2  C   UNL     1      78.579   1.382  62.149  1.00  0.00     0.000 C 
BRANCH   2   3
ATOM      3  C   UNL     1      79.451   1.004  63.357  1.00  0.00     0.000 C 
BRANCH   3   4
ATOM      4  C   UNL     1      78.660   0.350  64.509  1.00  0.00     0.000 C 
BRANCH   4   5
ATOM      5  C   UNL     1      79.567  -0.455  65.456  1.00  0.00     0.006 C 
BRANCH   5   6
ATOM      6  C   UNL     1      78.939  -0.642  66.842  1.00  0.00     0.053 C 
BRANCH   6   7
ATOM      7  C   UNL     1      79.413  -1.900  67.503  1.00  0.00     0.041 C 
ATOM      8  O   UNL     1      78.587  -2.786  67.844  1.00  0.00    -0.550 OA
ATOM      9  O   UNL     1      80.764  -2.082  67.768  1.00  0.00    -0.550 OA
ENDBRANCH   6   7
ENDBRANCH   5   6
ENDBRANCH   4   5
ENDBRANCH   3   4
ENDBRANCH   2   3
ENDBRANCH   1   2
BRANCH   1  10
ATOM     10  C   UNL     1      77.023   3.322  62.708  1.00  0.00     0.027 C 
BRANCH  10  11
ATOM     11  C   UNL     1      78.191   3.898  63.461  1.00  0.00    -0.031 C 
ATOM     12  C   UNL     1      78.327   5.220  63.647  1.00  0.00    -0.031 C 
BRANCH  12  13
ATOM     13  C   UNL     1      79.462   5.787  64.453  1.00  0.00     0.027 C 
BRANCH  13  14
ATOM     14  C   UNL     1      79.570   7.307  64.257  1.00  0.00     0.004 C 
BRANCH  14  15
ATOM     15  C   UNL     1      80.833   7.714  63.482  1.00  0.00     0.000 C 
BRANCH  15  16
ATOM     16  C   UNL     1      81.777   8.602  64.311  1.00  0.00    -0.000 C 
BRANCH  16  17
ATOM     17  C   UNL     1      81.278  10.052  64.416  1.00  0.00    -0.003 C 
ATOM     18  C   UNL     1      81.030  10.486  65.860  1.00  0.00     0.004 C 
ENDBRANCH  16  17
ENDBRANCH  15  16
ENDBRANCH  14  15
ENDBRANCH  13  14
ENDBRANCH  12  13
ENDBRANCH  10  11
ENDBRANCH   1  10
TORSDOF 13
ENDMDL
MODEL 3
REMARK VINA RESULT:    12.017      4.324      8.463
REMARK INTER + INTRA:          20.343
REMARK INTER:                  20.876
REMARK INTRA:                  -0.533
REMARK UNBOUND:                -0.806
REMARK SMILES CCCCCCC=CCCCCCCCC(=O)[O-]
REMARK SMILES IDX 10 1 11 2 12 3 13 4 14 5 15 6 16 7 17 8 18 9 9 10 8 11 7 12
REMARK SMILES IDX 6 13 5 14 4 15 3 16 2 17 1 18
REMARK H PARENT
REMARK Flexibility Score: inf
ROOT
ATOM      1  C   UNL     1      78.277   3.050  62.246  1.00  0.00     0.004 C 
ENDROOT
BRANCH   1   2
ATOM      2  C   UNL     1      77.556   3.908  63.298  1.00  0.00     0.000 C 
BRANCH   2   3
ATOM      3  C   UNL     1      78.526   4.699  64.190  1.00  0.00     0.000 C 
BRANCH   3   4
ATOM      4  C   UNL     1      78.672   6.180  63.780  1.00  0.00     0.000 C 
BRANCH   4   5
ATOM      5  C   UNL     1      79.907   6.842  64.416  1.00  0.00     0.006 C 
BRANCH   5   6
ATOM      6  C   UNL     1      80.676   7.717  63.418  1.00  0.00     0.053 C 
BRANCH   6   7
ATOM      7  C   UNL     1      81.805   8.450  64.075  1.00  0.00     0.041 C 
ATOM      8  O   UNL     1      82.932   7.903  64.192  1.00  0.00    -0.550 OA
ATOM      9  O   UNL     1      81.604   9.727  64.583  1.00  0.00    -0.550 OA
ENDBRANCH   6   7
ENDBRANCH   5   6
ENDBRANCH   4   5
ENDBRANCH   3   4
ENDBRANCH   2   3
ENDBRANCH   1   2
BRANCH   1  10
ATOM     10  C   UNL     1      77.479   1.792  61.879  1.00  0.00     0.027 C 
BRANCH  10  11
ATOM     11  C   UNL     1      77.513   0.778  62.990  1.00  0.00    -0.031 C 
ATOM     12  C   UNL     1      78.573   0.661  63.805  1.00  0.00    -0.031 C 
BRANCH  12  13
ATOM     13  C   UNL     1      78.578  -0.310  64.952  1.00  0.00     0.027 C 
BRANCH  13  14
ATOM     14  C   UNL     1      79.941  -0.315  65.662  1.00  0.00     0.004 C 
BRANCH  14  15
ATOM     15  C   UNL     1      79.818  -0.567  67.173  1.00  0.00     0.000 C 
BRANCH  15  16
ATOM     16  C   UNL     1      80.246  -1.989  67.574  1.00  0.00    -0.000 C 
BRANCH  16  17
ATOM     17  C   UNL     1      79.047  -2.896  67.894  1.00  0.00    -0.003 C 
ATOM     18  C   UNL     1      77.709  -2.171  67.763  1.00  0.00     0.004 C 
ENDBRANCH  16  17
ENDBRANCH  15  16
ENDBRANCH  14  15
ENDBRANCH  13  14
ENDBRANCH  12  13
ENDBRANCH  10  11
ENDBRANCH   1  10
TORSDOF 13
ENDMDL
MODEL 4
REMARK VINA RESULT:    12.233      2.719      5.022
REMARK INTER + INTRA:          20.725
REMARK INTER:                  21.388
REMARK INTRA:                  -0.663
REMARK UNBOUND:                -0.806
REMARK SMILES CCCCCCC=CCCCCCCCC(=O)[O-]
REMARK SMILES IDX 10 1 11 2 12 3 13 4 14 5 15 6 16 7 17 8 18 9 9 10 8 11 7 12
REMARK SMILES IDX 6 13 5 14 4 15 3 16 2 17 1 18
REMARK H PARENT
REMARK Flexibility Score: inf
ROOT
ATOM      1  C   UNL     1      79.069  -0.374  66.724  1.00  0.00     0.004 C 
ENDROOT
BRANCH   1   2
ATOM      2  C   UNL     1      78.274  -1.635  67.098  1.00  0.00     0.000 C 
BRANCH   2   3
ATOM      3  C   UNL     1      79.120  -2.670  67.857  1.00  0.00     0.000 C 
BRANCH   3   4
ATOM      4  C   UNL     1      80.294  -2.050  68.643  1.00  0.00     0.000 C 
BRANCH   4   5
ATOM      5  C   UNL     1      81.662  -2.470  68.076  1.00  0.00     0.006 C 
BRANCH   5   6
ATOM      6  C   UNL     1      82.704  -2.692  69.179  1.00  0.00     0.053 C 
BRANCH   6   7
ATOM      7  C   UNL     1      84.018  -3.144  68.619  1.00  0.00     0.041 C 
ATOM      8  O   UNL     1      84.669  -4.058  69.189  1.00  0.00    -0.550 OA
ATOM      9  O   UNL     1      84.538  -2.537  67.483  1.00  0.00    -0.550 OA
ENDBRANCH   6   7
ENDBRANCH   5   6
ENDBRANCH   4   5
ENDBRANCH   3   4
ENDBRANCH   2   3
ENDBRANCH   1   2
BRANCH   1  10
ATOM     10  C   UNL     1      79.349  -0.291  65.218  1.00  0.00     0.027 C 
BRANCH  10  11
ATOM     11  C   UNL     1      78.212   0.365  64.484  1.00  0.00    -0.031 C 
ATOM     12  C   UNL     1      78.334   0.767  63.209  1.00  0.00    -0.031 C 
BRANCH  12  13
ATOM     13  C   UNL     1      77.177   1.366  62.460  1.00  0.00     0.027 C 
BRANCH  13  14
ATOM     14  C   UNL     1      77.551   2.737  61.875  1.00  0.00     0.004 C 
BRANCH  14  15
ATOM     15  C   UNL     1      77.218   3.896  62.828  1.00  0.00     0.000 C 
BRANCH  15  16
ATOM     16  C   UNL     1      78.416   4.310  63.699  1.00  0.00    -0.000 C 
BRANCH  16  17
ATOM     17  C   UNL     1      78.314   5.765  64.186  1.00  0.00    -0.003 C 
ATOM     18  C   UNL     1      79.648   6.506  64.112  1.00  0.00     0.004 C 
ENDBRANCH  16  17
ENDBRANCH  15  16
ENDBRANCH  14  15
ENDBRANCH  13  14
ENDBRANCH  12  13
ENDBRANCH  10  11
ENDBRANCH   1  10
TORSDOF 13
ENDMDL
MODEL 5
REMARK VINA RESULT:    12.435      4.150      8.651
REMARK INTER + INTRA:          21.079
REMARK INTER:                  20.803
REMARK INTRA:                   0.276
REMARK UNBOUND:                -0.806
REMARK SMILES CCCCCCC=CCCCCCCCC(=O)[O-]
REMARK SMILES IDX 10 1 11 2 12 3 13 4 14 5 15 6 16 7 17 8 18 9 9 10 8 11 7 12
REMARK SMILES IDX 6 13 5 14 4 15 3 16 2 17 1 18
REMARK H PARENT
REMARK Flexibility Score: inf
ROOT
ATOM      1  C   UNL     1      76.964   2.884  63.013  1.00  0.00     0.004 C 
ENDROOT
BRANCH   1   2
ATOM      2  C   UNL     1      78.152   3.818  63.297  1.00  0.00     0.000 C 
BRANCH   2   3
ATOM      3  C   UNL     1      77.713   5.229  63.720  1.00  0.00     0.000 C 
BRANCH   3   4
ATOM      4  C   UNL     1      78.659   5.887  64.747  1.00  0.00     0.000 C 
BRANCH   4   5
ATOM      5  C   UNL     1      78.466   7.412  64.824  1.00  0.00     0.006 C 
BRANCH   5   6
ATOM      6  C   UNL     1      77.586   7.827  66.009  1.00  0.00     0.053 C 
BRANCH   6   7
ATOM      7  C   UNL     1      77.821   9.253  66.405  1.00  0.00     0.041 C 
ATOM      8  O   UNL     1      76.876  10.084  66.370  1.00  0.00    -0.550 OA
ATOM      9  O   UNL     1      79.090   9.670  66.785  1.00  0.00    -0.550 OA
ENDBRANCH   6   7
ENDBRANCH   5   6
ENDBRANCH   4   5
ENDBRANCH   3   4
ENDBRANCH   2   3
ENDBRANCH   1   2
BRANCH   1  10
ATOM     10  C   UNL     1      77.416   1.449  62.711  1.00  0.00     0.027 C 
BRANCH  10  11
ATOM     11  C   UNL     1      78.627   1.074  63.520  1.00  0.00    -0.031 C 
ATOM     12  C   UNL     1      78.570   0.144  64.485  1.00  0.00    -0.031 C 
BRANCH  12  13
ATOM     13  C   UNL     1      79.796  -0.271  65.249  1.00  0.00     0.027 C 
BRANCH  13  14
ATOM     14  C   UNL     1      79.462  -0.529  66.727  1.00  0.00     0.004 C 
BRANCH  14  15
ATOM     15  C   UNL     1      80.572  -1.301  67.457  1.00  0.00     0.000 C 
BRANCH  15  16
ATOM     16  C   UNL     1      80.018  -2.318  68.470  1.00  0.00    -0.000 C 
BRANCH  16  17
ATOM     17  C   UNL     1      78.873  -3.163  67.889  1.00  0.00    -0.003 C 
ATOM     18  C   UNL     1      77.618  -2.339  67.607  1.00  0.00     0.004 C 
ENDBRANCH  16  17
ENDBRANCH  15  16
ENDBRANCH  14  15
ENDBRANCH  13  14
ENDBRANCH  12  13
ENDBRANCH  10  11
ENDBRANCH   1  10
TORSDOF 13
ENDMDL
MODEL 6
REMARK VINA RESULT:    12.570      3.843      8.517
REMARK INTER + INTRA:          21.318
REMARK INTER:                  22.063
REMARK INTRA:                  -0.745
REMARK UNBOUND:                -0.806
REMARK SMILES CCCCCCC=CCCCCCCCC(=O)[O-]
REMARK SMILES IDX 10 1 11 2 12 3 13 4 14 5 15 6 16 7 17 8 18 9 9 10 8 11 7 12
REMARK SMILES IDX 6 13 5 14 4 15 3 16 2 17 1 18
REMARK H PARENT
REMARK Flexibility Score: inf
ROOT
ATOM      1  C   UNL     1      78.356   0.422  63.224  1.00  0.00     0.004 C 
ENDROOT
BRANCH   1   2
ATOM      2  C   UNL     1      77.083   1.284  63.229  1.00  0.00     0.000 C 
BRANCH   2   3
ATOM      3  C   UNL     1      76.884   2.062  61.918  1.00  0.00     0.000 C 
BRANCH   3   4
ATOM      4  C   UNL     1      77.262   3.555  62.023  1.00  0.00     0.000 C 
BRANCH   4   5
ATOM      5  C   UNL     1      77.417   4.015  63.483  1.00  0.00     0.006 C 
BRANCH   5   6
ATOM      6  C   UNL     1      78.843   4.488  63.794  1.00  0.00     0.053 C 
BRANCH   6   7
ATOM      7  C   UNL     1      78.881   5.942  64.151  1.00  0.00     0.041 C 
ATOM      8  O   UNL     1      79.896   6.635  63.880  1.00  0.00    -0.550 OA
ATOM      9  O   UNL     1      77.806   6.527  64.809  1.00  0.00    -0.550 OA
ENDBRANCH   6   7
ENDBRANCH   5   6
ENDBRANCH   4   5
ENDBRANCH   3   4
ENDBRANCH   2   3
ENDBRANCH   1   2
BRANCH   1  10
ATOM     10  C   UNL     1      79.061   0.423  64.587  1.00  0.00     0.027 C 
BRANCH  10  11
ATOM     11  C   UNL     1      78.706  -0.800  65.388  1.00  0.00    -0.031 C 
ATOM     12  C   UNL     1      78.678  -0.781  66.729  1.00  0.00    -0.031 C 
BRANCH  12  13
ATOM     13  C   UNL     1      78.263  -1.987  67.524  1.00  0.00     0.027 C 
BRANCH  13  14
ATOM     14  C   UNL     1      79.476  -2.642  68.202  1.00  0.00     0.004 C 
BRANCH  14  15
ATOM     15  C   UNL     1      80.788  -1.898  67.911  1.00  0.00     0.000 C 
BRANCH  15  16
ATOM     16  C   UNL     1      81.975  -2.449  68.720  1.00  0.00    -0.000 C 
BRANCH  16  17
ATOM     17  C   UNL     1      83.251  -2.585  67.874  1.00  0.00    -0.003 C 
ATOM     18  C   UNL     1      84.346  -3.380  68.584  1.00  0.00     0.004 C 
ENDBRANCH  16  17
ENDBRANCH  15  16
ENDBRANCH  14  15
ENDBRANCH  13  14
ENDBRANCH  12  13
ENDBRANCH  10  11
ENDBRANCH   1  10
TORSDOF 13
ENDMDL
MODEL 7
REMARK VINA RESULT:    13.127      5.766     11.288
REMARK INTER + INTRA:          22.297
REMARK INTER:                  22.746
REMARK INTRA:                  -0.448
REMARK UNBOUND:                -0.806
REMARK SMILES CCCCCCC=CCCCCCCCC(=O)[O-]
REMARK SMILES IDX 10 1 11 2 12 3 13 4 14 5 15 6 16 7 17 8 18 9 9 10 8 11 7 12
REMARK SMILES IDX 6 13 5 14 4 15 3 16 2 17 1 18
REMARK H PARENT
REMARK Flexibility Score: inf
ROOT
ATOM      1  C   UNL     1      80.028  -2.374  68.226  1.00  0.00     0.004 C 
ENDROOT
BRANCH   1   2
ATOM      2  C   UNL     1      79.000  -1.500  67.488  1.00  0.00     0.000 C 
BRANCH   2   3
ATOM      3  C   UNL     1      79.597  -0.776  66.270  1.00  0.00     0.000 C 
BRANCH   3   4
ATOM      4  C   UNL     1      78.601  -0.610  65.103  1.00  0.00     0.000 C 
BRANCH   4   5
ATOM      5  C   UNL     1      78.931   0.610  64.224  1.00  0.00     0.006 C 
BRANCH   5   6
ATOM      6  C   UNL     1      77.684   1.191  63.546  1.00  0.00     0.053 C 
BRANCH   6   7
ATOM      7  C   UNL     1      78.024   2.347  62.655  1.00  0.00     0.041 C 
ATOM      8  O   UNL     1      79.017   2.282  61.885  1.00  0.00    -0.550 OA
ATOM      9  O   UNL     1      77.259   3.506  62.695  1.00  0.00    -0.550 OA
ENDBRANCH   6   7
ENDBRANCH   5   6
ENDBRANCH   4   5
ENDBRANCH   3   4
ENDBRANCH   2   3
ENDBRANCH   1   2
BRANCH   1  10
ATOM     10  C   UNL     1      81.471  -1.933  67.945  1.00  0.00     0.027 C 
BRANCH  10  11
ATOM     11  C   UNL     1      82.454  -2.730  68.758  1.00  0.00    -0.031 C 
ATOM     12  C   UNL     1      83.716  -2.925  68.343  1.00  0.00    -0.031 C 
BRANCH  12  13
ATOM     13  C   UNL     1      84.713  -3.670  69.187  1.00  0.00     0.027 C 
BRANCH  13  14
ATOM     14  C   UNL     1      85.716  -4.433  68.307  1.00  0.00     0.004 C 
BRANCH  14  15
ATOM     15  C   UNL     1      87.031  -4.736  69.040  1.00  0.00     0.000 C 
BRANCH  15  16
ATOM     16  C   UNL     1      88.221  -4.901  68.079  1.00  0.00    -0.000 C 
BRANCH  16  17
ATOM     17  C   UNL     1      88.160  -6.217  67.288  1.00  0.00    -0.003 C 
ATOM     18  C   UNL     1      88.550  -7.430  68.131  1.00  0.00     0.004 C 
ENDBRANCH  16  17
ENDBRANCH  15  16
ENDBRANCH  14  15
ENDBRANCH  13  14
ENDBRANCH  12  13
ENDBRANCH  10  11
ENDBRANCH   1  10
TORSDOF 13
ENDMDL
