MODEL 1
REMARK VINA RESULT:    -3.790      0.000      0.000
REMARK INTER + INTRA:          -5.922
REMARK INTER:                  -5.784
REMARK INTRA:                  -0.138
REMARK UNBOUND:                -0.138
REMARK SMILES CC1=CCC[C@@H](C)C(=O)C[C@H](C(C)C)C(=O)C1
REMARK SMILES IDX 8 1 9 2 6 3 7 4 5 5 4 6 3 7 2 8 1 9 10 11 11 12 15 13 16 14
REMARK SMILES IDX 17 15 12 17 13 18 14 19
REMARK H PARENT
REMARK Flexibility Score: 70.00
ROOT
ATOM      1  C   UNL     1      19.194 -24.917 -24.165  1.00  0.00     0.136 C 
ATOM      2  O   UNL     1      18.891 -25.725 -25.032  1.00  0.00    -0.299 OA
ENDROOT
BRANCH   1   3
ATOM      3  C   UNL     1      19.278 -25.393 -22.702  1.00  0.00     0.053 C 
ATOM      4  C   UNL     1      20.026 -26.733 -22.668  1.00  0.00     0.016 C 
BRANCH   3   5
ATOM      5  C   UNL     1      17.872 -25.517 -21.978  1.00  0.00     0.015 C 
BRANCH   5   6
ATOM      6  C   UNL     1      17.203 -24.161 -21.545  1.00  0.00     0.028 C 
BRANCH   6   7
ATOM      7  C   UNL     1      18.026 -23.222 -20.641  1.00  0.00    -0.028 C 
ATOM      8  C   UNL     1      18.496 -22.003 -21.020  1.00  0.00    -0.070 CG0
ATOM      9  C   UNL     1      19.335 -21.181 -20.080  1.00  0.00     0.039 C 
ATOM     10  G   UNL     1      17.912 -21.436 -22.264  1.00  0.00     0.000 G0
ENDBRANCH   6   7
ENDBRANCH   5   6
ENDBRANCH   3   5
ENDBRANCH   1   3
BRANCH   1  11
ATOM     11  C   UNL     1      19.507 -23.472 -24.588  1.00  0.00     0.087 C 
BRANCH  11  12
ATOM     12  C   UNL     1      18.270 -22.474 -24.574  1.00  0.00     0.066 C 
BRANCH  12  13
ATOM     13  C   UNL     1      18.515 -21.289 -23.612  1.00  0.00     0.140 C 
ATOM     14  O   UNL     1      19.254 -20.354 -23.879  1.00  0.00    -0.299 OA
BRANCH  13  15
ATOM     15  C   UNL     1      17.923 -21.428 -22.264  1.00  0.00     0.106 CG0
ATOM     16  G   UNL     1      18.512 -22.019 -21.033  1.00  0.00     0.000 G0
ENDBRANCH  13  15
ENDBRANCH  12  13
BRANCH  12  17
ATOM     17  C   UNL     1      17.856 -21.962 -26.001  1.00  0.00    -0.006 C 
ATOM     18  C   UNL     1      17.495 -23.084 -26.992  1.00  0.00     0.008 C 
ATOM     19  C   UNL     1      16.654 -21.001 -25.910  1.00  0.00     0.008 C 
ENDBRANCH  12  17
ENDBRANCH  11  12
ENDBRANCH   1  11
TORSDOF 1
ENDMDL
MODEL 2
REMARK VINA RESULT:    -3.590      1.296      1.622
REMARK INTER + INTRA:          -5.617
REMARK INTER:                  -5.537
REMARK INTRA:                  -0.080
REMARK UNBOUND:                -0.138
REMARK SMILES CC1=CCC[C@@H](C)C(=O)C[C@H](C(C)C)C(=O)C1
REMARK SMILES IDX 8 1 9 2 6 3 7 4 5 5 4 6 3 7 2 8 1 9 10 11 11 12 15 13 16 14
REMARK SMILES IDX 17 15 12 17 13 18 14 19
REMARK H PARENT
REMARK Flexibility Score: 70.00
ROOT
ATOM      1  C   UNL     1      19.826 -25.635 -23.249  1.00  0.00     0.136 C 
ATOM      2  O   UNL     1      19.498 -26.428 -24.120  1.00  0.00    -0.299 OA
ENDROOT
BRANCH   1   3
ATOM      3  C   UNL     1      20.100 -26.163 -21.827  1.00  0.00     0.053 C 
ATOM      4  C   UNL     1      21.100 -27.323 -21.922  1.00  0.00     0.016 C 
BRANCH   3   5
ATOM      5  C   UNL     1      18.797 -26.610 -21.040  1.00  0.00     0.015 C 
BRANCH   5   6
ATOM      6  C   UNL     1      17.883 -25.443 -20.512  1.00  0.00     0.028 C 
BRANCH   6   7
ATOM      7  C   UNL     1      18.571 -24.292 -19.752  1.00  0.00    -0.028 C 
ATOM      8  C   UNL     1      18.754 -23.040 -20.251  1.00  0.00    -0.070 CG0
ATOM      9  C   UNL     1      19.483 -21.997 -19.451  1.00  0.00     0.039 C 
ATOM     10  G   UNL     1      17.968 -22.701 -21.468  1.00  0.00     0.000 G0
ENDBRANCH   6   7
ENDBRANCH   5   6
ENDBRANCH   3   5
ENDBRANCH   1   3
BRANCH   1  11
ATOM     11  C   UNL     1      19.981 -24.152 -23.627  1.00  0.00     0.087 C 
BRANCH  11  12
ATOM     12  C   UNL     1      18.623 -23.357 -23.842  1.00  0.00     0.066 C 
BRANCH  12  13
ATOM     13  C   UNL     1      18.456 -22.234 -22.794  1.00  0.00     0.140 C 
ATOM     14  O   UNL     1      18.823 -21.084 -22.984  1.00  0.00    -0.299 OA
BRANCH  13  15
ATOM     15  C   UNL     1      17.967 -22.666 -21.467  1.00  0.00     0.106 CG0
ATOM     16  G   UNL     1      18.742 -23.036 -20.253  1.00  0.00     0.000 G0
ENDBRANCH  13  15
ENDBRANCH  12  13
BRANCH  12  17
ATOM     17  C   UNL     1      18.443 -22.797 -25.300  1.00  0.00    -0.006 C 
ATOM     18  C   UNL     1      19.705 -22.128 -25.877  1.00  0.00     0.008 C 
ATOM     19  C   UNL     1      18.013 -23.917 -26.268  1.00  0.00     0.008 C 
ENDBRANCH  12  17
ENDBRANCH  11  12
ENDBRANCH   1  11
TORSDOF 1
ENDMDL
MODEL 3
REMARK VINA RESULT:    -3.456      2.059      2.752
REMARK INTER + INTRA:          -5.412
REMARK INTER:                  -5.212
REMARK INTRA:                  -0.200
REMARK UNBOUND:                -0.138
REMARK SMILES CC1=CCC[C@@H](C)C(=O)C[C@H](C(C)C)C(=O)C1
REMARK SMILES IDX 8 1 9 2 6 3 7 4 5 5 4 6 3 7 2 8 1 9 10 11 11 12 15 13 16 14
REMARK SMILES IDX 17 15 12 17 13 18 14 19
REMARK H PARENT
REMARK Flexibility Score: 70.00
ROOT
ATOM      1  C   UNL     1      19.139 -22.794 -24.708  1.00  0.00     0.136 C 
ATOM      2  O   UNL     1      19.748 -22.394 -25.690  1.00  0.00    -0.299 OA
ENDROOT
BRANCH   1   3
ATOM      3  C   UNL     1      19.598 -24.100 -24.031  1.00  0.00     0.053 C 
ATOM      4  C   UNL     1      18.943 -25.283 -24.757  1.00  0.00     0.016 C 
BRANCH   3   5
ATOM      5  C   UNL     1      19.298 -24.164 -22.474  1.00  0.00     0.015 C 
BRANCH   5   6
ATOM      6  C   UNL     1      17.909 -24.785 -22.070  1.00  0.00     0.028 C 
BRANCH   6   7
ATOM      7  C   UNL     1      17.101 -24.061 -20.975  1.00  0.00    -0.028 C 
ATOM      8  C   UNL     1      16.050 -23.231 -21.214  1.00  0.00    -0.070 CG0
ATOM      9  C   UNL     1      15.356 -22.529 -20.080  1.00  0.00     0.039 C 
ATOM     10  G   UNL     1      15.475 -23.284 -22.585  1.00  0.00     0.000 G0
ENDBRANCH   6   7
ENDBRANCH   5   6
ENDBRANCH   3   5
ENDBRANCH   1   3
BRANCH   1  11
ATOM     11  C   UNL     1      17.964 -21.954 -24.181  1.00  0.00     0.087 C 
BRANCH  11  12
ATOM     12  C   UNL     1      16.531 -22.361 -24.734  1.00  0.00     0.066 C 
BRANCH  12  13
ATOM     13  C   UNL     1      15.449 -22.232 -23.639  1.00  0.00     0.140 C 
ATOM     14  O   UNL     1      14.708 -21.264 -23.543  1.00  0.00    -0.299 OA
BRANCH  13  15
ATOM     15  C   UNL     1      15.462 -23.284 -22.600  1.00  0.00     0.106 CG0
ATOM     16  G   UNL     1      16.036 -23.245 -21.229  1.00  0.00     0.000 G0
ENDBRANCH  13  15
ENDBRANCH  12  13
BRANCH  12  17
ATOM     17  C   UNL     1      16.112 -21.582 -26.033  1.00  0.00    -0.006 C 
ATOM     18  C   UNL     1      16.658 -20.144 -26.110  1.00  0.00     0.008 C 
ATOM     19  C   UNL     1      16.576 -22.336 -27.296  1.00  0.00     0.008 C 
ENDBRANCH  12  17
ENDBRANCH  11  12
ENDBRANCH   1  11
TORSDOF 1
ENDMDL
MODEL 4
REMARK VINA RESULT:    -3.428      2.603      4.863
REMARK INTER + INTRA:          -5.369
REMARK INTER:                  -5.247
REMARK INTRA:                  -0.122
REMARK UNBOUND:                -0.138
REMARK SMILES CC1=CCC[C@@H](C)C(=O)C[C@H](C(C)C)C(=O)C1
REMARK SMILES IDX 8 1 9 2 6 3 7 4 5 5 4 6 3 7 2 8 1 9 10 11 11 12 15 13 16 14
REMARK SMILES IDX 17 15 12 17 13 18 14 19
REMARK H PARENT
REMARK Flexibility Score: 70.00
ROOT
ATOM      1  C   UNL     1      18.129 -23.685 -25.054  1.00  0.00     0.136 C 
ATOM      2  O   UNL     1      17.652 -24.780 -25.321  1.00  0.00    -0.299 OA
ENDROOT
BRANCH   1   3
ATOM      3  C   UNL     1      18.337 -22.668 -26.193  1.00  0.00     0.053 C 
ATOM      4  C   UNL     1      18.932 -21.385 -25.599  1.00  0.00     0.016 C 
BRANCH   3   5
ATOM      5  C   UNL     1      17.023 -22.345 -27.022  1.00  0.00     0.015 C 
BRANCH   5   6
ATOM      6  C   UNL     1      15.795 -21.831 -26.183  1.00  0.00     0.028 C 
BRANCH   6   7
ATOM      7  C   UNL     1      14.667 -22.840 -25.887  1.00  0.00    -0.028 C 
ATOM      8  C   UNL     1      14.385 -23.340 -24.655  1.00  0.00    -0.070 CG0
ATOM      9  C   UNL     1      13.295 -24.361 -24.475  1.00  0.00     0.039 C 
ATOM     10  G   UNL     1      15.004 -22.631 -23.504  1.00  0.00     0.000 G0
ENDBRANCH   6   7
ENDBRANCH   5   6
ENDBRANCH   3   5
ENDBRANCH   1   3
BRANCH   1  11
ATOM     11  C   UNL     1      18.467 -23.370 -23.588  1.00  0.00     0.087 C 
BRANCH  11  12
ATOM     12  C   UNL     1      17.461 -22.384 -22.853  1.00  0.00     0.066 C 
BRANCH  12  13
ATOM     13  C   UNL     1      16.093 -23.060 -22.604  1.00  0.00     0.140 C 
ATOM     14  O   UNL     1      15.939 -23.988 -21.826  1.00  0.00    -0.299 OA
BRANCH  13  15
ATOM     15  C   UNL     1      14.993 -22.621 -23.490  1.00  0.00     0.106 CG0
ATOM     16  G   UNL     1      14.374 -23.330 -24.642  1.00  0.00     0.000 G0
ENDBRANCH  13  15
ENDBRANCH  12  13
BRANCH  12  17
ATOM     17  C   UNL     1      18.035 -21.772 -21.524  1.00  0.00    -0.006 C 
ATOM     18  C   UNL     1      18.908 -22.743 -20.709  1.00  0.00     0.008 C 
ATOM     19  C   UNL     1      18.872 -20.511 -21.820  1.00  0.00     0.008 C 
ENDBRANCH  12  17
ENDBRANCH  11  12
ENDBRANCH   1  11
TORSDOF 1
ENDMDL
MODEL 5
REMARK VINA RESULT:    -3.366      2.647      4.551
REMARK INTER + INTRA:          -5.275
REMARK INTER:                  -5.417
REMARK INTRA:                   0.142
REMARK UNBOUND:                -0.138
REMARK SMILES CC1=CCC[C@@H](C)C(=O)C[C@H](C(C)C)C(=O)C1
REMARK SMILES IDX 8 1 9 2 6 3 7 4 5 5 4 6 3 7 2 8 1 9 10 11 11 12 15 13 16 14
REMARK SMILES IDX 17 15 12 17 13 18 14 19
REMARK H PARENT
REMARK Flexibility Score: 70.00
ROOT
ATOM      1  C   UNL     1      18.291 -21.028 -21.954  1.00  0.00     0.136 C 
ATOM      2  O   UNL     1      19.183 -21.547 -21.298  1.00  0.00    -0.299 OA
ENDROOT
BRANCH   1   3
ATOM      3  C   UNL     1      17.005 -20.577 -21.235  1.00  0.00     0.053 C 
ATOM      4  C   UNL     1      17.369 -20.153 -19.806  1.00  0.00     0.016 C 
BRANCH   3   5
ATOM      5  C   UNL     1      15.853 -21.668 -21.220  1.00  0.00     0.015 C 
BRANCH   5   6
ATOM      6  C   UNL     1      14.618 -21.371 -22.147  1.00  0.00     0.028 C 
BRANCH   6   7
ATOM      7  C   UNL     1      14.264 -22.425 -23.215  1.00  0.00    -0.028 C 
ATOM      8  C   UNL     1      14.499 -22.280 -24.547  1.00  0.00    -0.070 CG0
ATOM      9  C   UNL     1      14.070 -23.345 -25.519  1.00  0.00     0.039 C 
ATOM     10  G   UNL     1      15.423 -21.181 -24.932  1.00  0.00     0.000 G0
ENDBRANCH   6   7
ENDBRANCH   5   6
ENDBRANCH   3   5
ENDBRANCH   1   3
BRANCH   1  11
ATOM     11  C   UNL     1      18.515 -20.824 -23.462  1.00  0.00     0.087 C 
BRANCH  11  12
ATOM     12  C   UNL     1      17.820 -21.896 -24.406  1.00  0.00     0.066 C 
BRANCH  12  13
ATOM     13  C   UNL     1      16.828 -21.225 -25.384  1.00  0.00     0.140 C 
ATOM     14  O   UNL     1      17.181 -20.648 -26.401  1.00  0.00    -0.299 OA
BRANCH  13  15
ATOM     15  C   UNL     1      15.420 -21.179 -24.934  1.00  0.00     0.106 CG0
ATOM     16  G   UNL     1      14.510 -22.299 -24.573  1.00  0.00     0.000 G0
ENDBRANCH  13  15
ENDBRANCH  12  13
BRANCH  12  17
ATOM     17  C   UNL     1      18.838 -22.810 -25.179  1.00  0.00    -0.006 C 
ATOM     18  C   UNL     1      19.619 -23.785 -24.278  1.00  0.00     0.008 C 
ATOM     19  C   UNL     1      18.117 -23.637 -26.263  1.00  0.00     0.008 C 
ENDBRANCH  12  17
ENDBRANCH  11  12
ENDBRANCH   1  11
TORSDOF 1
ENDMDL
MODEL 6
REMARK VINA RESULT:    -3.365      2.432      4.466
REMARK INTER + INTRA:          -5.273
REMARK INTER:                  -5.389
REMARK INTRA:                   0.115
REMARK UNBOUND:                -0.138
REMARK SMILES CC1=CCC[C@@H](C)C(=O)C[C@H](C(C)C)C(=O)C1
REMARK SMILES IDX 8 1 9 2 6 3 7 4 5 5 4 6 3 7 2 8 1 9 10 11 11 12 15 13 16 14
REMARK SMILES IDX 17 15 12 17 13 18 14 19
REMARK H PARENT
REMARK Flexibility Score: 70.00
ROOT
ATOM      1  C   UNL     1      17.858 -21.315 -23.546  1.00  0.00     0.136 C 
ATOM      2  O   UNL     1      18.541 -21.362 -22.532  1.00  0.00    -0.299 OA
ENDROOT
BRANCH   1   3
ATOM      3  C   UNL     1      18.524 -20.894 -24.870  1.00  0.00     0.053 C 
ATOM      4  C   UNL     1      17.423 -20.545 -25.880  1.00  0.00     0.016 C 
BRANCH   3   5
ATOM      5  C   UNL     1      19.514 -21.977 -25.472  1.00  0.00     0.015 C 
BRANCH   5   6
ATOM      6  C   UNL     1      19.094 -23.479 -25.261  1.00  0.00     0.028 C 
BRANCH   6   7
ATOM      7  C   UNL     1      19.762 -24.246 -24.103  1.00  0.00    -0.028 C 
ATOM      8  C   UNL     1      19.086 -24.868 -23.099  1.00  0.00    -0.070 CG0
ATOM      9  C   UNL     1      19.829 -25.548 -21.983  1.00  0.00     0.039 C 
ATOM     10  G   UNL     1      17.629 -25.069 -23.321  1.00  0.00     0.000 G0
ENDBRANCH   6   7
ENDBRANCH   5   6
ENDBRANCH   3   5
ENDBRANCH   1   3
BRANCH   1  11
ATOM     11  C   UNL     1      16.375 -21.711 -23.451  1.00  0.00     0.087 C 
BRANCH  11  12
ATOM     12  C   UNL     1      16.030 -23.183 -23.937  1.00  0.00     0.066 C 
BRANCH  12  13
ATOM     13  C   UNL     1      16.478 -24.238 -22.900  1.00  0.00     0.140 C 
ATOM     14  O   UNL     1      16.021 -24.297 -21.768  1.00  0.00    -0.299 OA
BRANCH  13  15
ATOM     15  C   UNL     1      17.622 -25.084 -23.302  1.00  0.00     0.106 CG0
ATOM     16  G   UNL     1      19.077 -24.863 -23.088  1.00  0.00     0.000 G0
ENDBRANCH  13  15
ENDBRANCH  12  13
BRANCH  12  17
ATOM     17  C   UNL     1      14.519 -23.382 -24.323  1.00  0.00    -0.006 C 
ATOM     18  C   UNL     1      13.534 -23.110 -23.172  1.00  0.00     0.008 C 
ATOM     19  C   UNL     1      14.133 -22.472 -25.507  1.00  0.00     0.008 C 
ENDBRANCH  12  17
ENDBRANCH  11  12
ENDBRANCH   1  11
TORSDOF 1
ENDMDL
MODEL 7
REMARK VINA RESULT:    -3.290      2.097      4.801
REMARK INTER + INTRA:          -5.160
REMARK INTER:                  -5.143
REMARK INTRA:                  -0.017
REMARK UNBOUND:                -0.138
REMARK SMILES CC1=CCC[C@@H](C)C(=O)C[C@H](C(C)C)C(=O)C1
REMARK SMILES IDX 8 1 9 2 6 3 7 4 5 5 4 6 3 7 2 8 1 9 10 11 11 12 15 13 16 14
REMARK SMILES IDX 17 15 12 17 13 18 14 19
REMARK H PARENT
REMARK Flexibility Score: 70.00
ROOT
ATOM      1  C   UNL     1      17.830 -21.430 -23.459  1.00  0.00     0.136 C 
ATOM      2  O   UNL     1      16.613 -21.546 -23.456  1.00  0.00    -0.299 OA
ENDROOT
BRANCH   1   3
ATOM      3  C   UNL     1      18.573 -21.432 -24.810  1.00  0.00     0.053 C 
ATOM      4  C   UNL     1      17.533 -21.427 -25.938  1.00  0.00     0.016 C 
BRANCH   3   5
ATOM      5  C   UNL     1      19.589 -22.638 -24.989  1.00  0.00     0.015 C 
BRANCH   5   6
ATOM      6  C   UNL     1      19.114 -24.024 -24.416  1.00  0.00     0.028 C 
BRANCH   6   7
ATOM      7  C   UNL     1      20.128 -24.831 -23.582  1.00  0.00    -0.028 C 
ATOM      8  C   UNL     1      20.152 -24.866 -22.222  1.00  0.00    -0.070 CG0
ATOM      9  C   UNL     1      21.214 -25.644 -21.496  1.00  0.00     0.039 C 
ATOM     10  G   UNL     1      18.941 -24.344 -21.534  1.00  0.00     0.000 G0
ENDBRANCH   6   7
ENDBRANCH   5   6
ENDBRANCH   3   5
ENDBRANCH   1   3
BRANCH   1  11
ATOM     11  C   UNL     1      18.554 -21.255 -22.114  1.00  0.00     0.087 C 
BRANCH  11  12
ATOM     12  C   UNL     1      17.944 -22.077 -20.899  1.00  0.00     0.066 C 
BRANCH  12  13
ATOM     13  C   UNL     1      18.851 -23.268 -20.514  1.00  0.00     0.140 C 
ATOM     14  O   UNL     1      19.550 -23.277 -19.512  1.00  0.00    -0.299 OA
BRANCH  13  15
ATOM     15  C   UNL     1      18.951 -24.347 -21.520  1.00  0.00     0.106 CG0
ATOM     16  G   UNL     1      20.155 -24.878 -22.214  1.00  0.00     0.000 G0
ENDBRANCH  13  15
ENDBRANCH  12  13
BRANCH  12  17
ATOM     17  C   UNL     1      17.613 -21.194 -19.642  1.00  0.00    -0.006 C 
ATOM     18  C   UNL     1      18.369 -19.854 -19.597  1.00  0.00     0.008 C 
ATOM     19  C   UNL     1      16.102 -20.891 -19.569  1.00  0.00     0.008 C 
ENDBRANCH  12  17
ENDBRANCH  11  12
ENDBRANCH   1  11
TORSDOF 1
ENDMDL
MODEL 8
REMARK VINA RESULT:    -3.275      1.868      4.271
REMARK INTER + INTRA:          -5.137
REMARK INTER:                  -4.959
REMARK INTRA:                  -0.178
REMARK UNBOUND:                -0.138
REMARK SMILES CC1=CCC[C@@H](C)C(=O)C[C@H](C(C)C)C(=O)C1
REMARK SMILES IDX 8 1 9 2 6 3 7 4 5 5 4 6 3 7 2 8 1 9 10 11 11 12 15 13 16 14
REMARK SMILES IDX 17 15 12 17 13 18 14 19
REMARK H PARENT
REMARK Flexibility Score: 70.00
ROOT
ATOM      1  C   UNL     1      17.174 -24.637 -22.966  1.00  0.00     0.136 C 
ATOM      2  O   UNL     1      16.059 -24.784 -23.446  1.00  0.00    -0.299 OA
ENDROOT
BRANCH   1   3
ATOM      3  C   UNL     1      18.353 -25.423 -23.572  1.00  0.00     0.053 C 
ATOM      4  C   UNL     1      19.609 -25.137 -22.739  1.00  0.00     0.016 C 
BRANCH   3   5
ATOM      5  C   UNL     1      18.616 -25.118 -25.107  1.00  0.00     0.015 C 
BRANCH   5   6
ATOM      6  C   UNL     1      18.861 -23.607 -25.471  1.00  0.00     0.028 C 
BRANCH   6   7
ATOM      7  C   UNL     1      17.792 -22.902 -26.329  1.00  0.00    -0.028 C 
ATOM      8  C   UNL     1      16.962 -21.925 -25.876  1.00  0.00    -0.070 CG0
ATOM      9  C   UNL     1      15.914 -21.333 -26.778  1.00  0.00     0.039 C 
ATOM     10  G   UNL     1      17.330 -21.306 -24.575  1.00  0.00     0.000 G0
ENDBRANCH   6   7
ENDBRANCH   5   6
ENDBRANCH   3   5
ENDBRANCH   1   3
BRANCH   1  11
ATOM     11  C   UNL     1      17.347 -23.648 -21.801  1.00  0.00     0.087 C 
BRANCH  11  12
ATOM     12  C   UNL     1      17.780 -22.177 -22.214  1.00  0.00     0.066 C 
BRANCH  12  13
ATOM     13  C   UNL     1      16.787 -21.561 -23.225  1.00  0.00     0.140 C 
ATOM     14  O   UNL     1      15.596 -21.423 -22.990  1.00  0.00    -0.299 OA
BRANCH  13  15
ATOM     15  C   UNL     1      17.332 -21.289 -24.572  1.00  0.00     0.106 CG0
ATOM     16  G   UNL     1      16.966 -21.903 -25.876  1.00  0.00     0.000 G0
ENDBRANCH  13  15
ENDBRANCH  12  13
BRANCH  12  17
ATOM     17  C   UNL     1      18.002 -21.217 -20.989  1.00  0.00    -0.006 C 
ATOM     18  C   UNL     1      18.637 -21.898 -19.762  1.00  0.00     0.008 C 
ATOM     19  C   UNL     1      18.893 -20.022 -21.385  1.00  0.00     0.008 C 
ENDBRANCH  12  17
ENDBRANCH  11  12
ENDBRANCH   1  11
TORSDOF 1
ENDMDL
MODEL 9
REMARK VINA RESULT:    -3.273      2.126      3.730
REMARK INTER + INTRA:          -5.133
REMARK INTER:                  -4.925
REMARK INTRA:                  -0.209
REMARK UNBOUND:                -0.138
REMARK SMILES CC1=CCC[C@@H](C)C(=O)C[C@H](C(C)C)C(=O)C1
REMARK SMILES IDX 8 1 9 2 6 3 7 4 5 5 4 6 3 7 2 8 1 9 10 11 11 12 15 13 16 14
REMARK SMILES IDX 17 15 12 17 13 18 14 19
REMARK H PARENT
REMARK Flexibility Score: 70.00
ROOT
ATOM      1  C   UNL     1      16.721 -23.483 -22.270  1.00  0.00     0.136 C 
ATOM      2  O   UNL     1      16.369 -24.644 -22.109  1.00  0.00    -0.299 OA
ENDROOT
BRANCH   1   3
ATOM      3  C   UNL     1      16.975 -22.606 -21.029  1.00  0.00     0.053 C 
ATOM      4  C   UNL     1      17.304 -21.182 -21.498  1.00  0.00     0.016 C 
BRANCH   3   5
ATOM      5  C   UNL     1      18.111 -23.155 -20.067  1.00  0.00     0.015 C 
BRANCH   5   6
ATOM      6  C   UNL     1      19.490 -23.480 -20.753  1.00  0.00     0.028 C 
BRANCH   6   7
ATOM      7  C   UNL     1      19.884 -24.964 -20.884  1.00  0.00    -0.028 C 
ATOM      8  C   UNL     1      19.977 -25.635 -22.064  1.00  0.00    -0.070 CG0
ATOM      9  C   UNL     1      20.320 -27.099 -22.086  1.00  0.00     0.039 C 
ATOM     10  G   UNL     1      20.000 -24.797 -23.292  1.00  0.00     0.000 G0
ENDBRANCH   6   7
ENDBRANCH   5   6
ENDBRANCH   3   5
ENDBRANCH   1   3
BRANCH   1  11
ATOM     11  C   UNL     1      16.922 -22.971 -23.706  1.00  0.00     0.087 C 
BRANCH  11  12
ATOM     12  C   UNL     1      18.412 -23.043 -24.253  1.00  0.00     0.066 C 
BRANCH  12  13
ATOM     13  C   UNL     1      18.933 -24.498 -24.272  1.00  0.00     0.140 C 
ATOM     14  O   UNL     1      18.415 -25.384 -24.935  1.00  0.00    -0.299 OA
BRANCH  13  15
ATOM     15  C   UNL     1      20.012 -24.803 -23.308  1.00  0.00     0.106 CG0
ATOM     16  G   UNL     1      19.965 -25.634 -22.075  1.00  0.00     0.000 G0
ENDBRANCH  13  15
ENDBRANCH  12  13
BRANCH  12  17
ATOM     17  C   UNL     1      18.603 -22.360 -25.656  1.00  0.00    -0.006 C 
ATOM     18  C   UNL     1      17.410 -22.541 -26.613  1.00  0.00     0.008 C 
ATOM     19  C   UNL     1      18.860 -20.847 -25.496  1.00  0.00     0.008 C 
ENDBRANCH  12  17
ENDBRANCH  11  12
ENDBRANCH   1  11
TORSDOF 1
ENDMDL
