MODEL 1
REMARK VINA RESULT:    -4.131      0.000      0.000
REMARK INTER + INTRA:          -4.131
REMARK INTER:                  -4.131
REMARK INTRA:                   0.000
REMARK UNBOUND:                 0.000
REMARK SMILES CC1=CC[C@H]2[C@H](C1)C2(C)C
REMARK SMILES IDX 1 1 2 2 3 3 4 4 5 5 6 6 7 7 8 8 9 9 10 10
REMARK H PARENT
REMARK Flexibility Score: inf
ROOT
ATOM      1  C   UNL     1     134.544 140.372 130.138  1.00  0.00     0.039 C 
ATOM      2  C   UNL     1     134.321 138.991 130.683  1.00  0.00    -0.077 C 
ATOM      3  C   UNL     1     133.873 138.837 131.965  1.00  0.00    -0.028 C 
ATOM      4  C   UNL     1     133.602 137.461 132.567  1.00  0.00     0.031 C 
ATOM      5  C   UNL     1     133.351 136.484 131.414  1.00  0.00     0.003 C 
ATOM      6  C   UNL     1     134.732 136.542 130.659  1.00  0.00     0.003 C 
ATOM      7  C   UNL     1     134.536 137.776 129.771  1.00  0.00     0.034 C 
ATOM      8  C   UNL     1     134.011 135.231 130.880  1.00  0.00    -0.029 C 
ATOM      9  C   UNL     1     134.593 134.288 131.936  1.00  0.00     0.012 C 
ATOM     10  C   UNL     1     133.391 134.598 129.631  1.00  0.00     0.012 C 
ENDROOT
TORSDOF 0
ENDMDL
MODEL 2
REMARK VINA RESULT:    -4.125      5.245      6.823
REMARK INTER + INTRA:          -4.125
REMARK INTER:                  -4.125
REMARK INTRA:                   0.000
REMARK UNBOUND:                 0.000
REMARK SMILES CC1=CC[C@H]2[C@H](C1)C2(C)C
REMARK SMILES IDX 1 1 2 2 3 3 4 4 5 5 6 6 7 7 8 8 9 9 10 10
REMARK H PARENT
REMARK Flexibility Score: inf
ROOT
ATOM      1  C   UNL     1     139.307 133.454 130.292  1.00  0.00     0.039 C 
ATOM      2  C   UNL     1     139.490 134.856 130.798  1.00  0.00    -0.077 C 
ATOM      3  C   UNL     1     139.918 135.059 132.080  1.00  0.00    -0.028 C 
ATOM      4  C   UNL     1     140.147 136.459 132.644  1.00  0.00     0.031 C 
ATOM      5  C   UNL     1     140.388 137.407 131.465  1.00  0.00     0.003 C 
ATOM      6  C   UNL     1     139.019 137.293 130.696  1.00  0.00     0.003 C 
ATOM      7  C   UNL     1     139.256 136.038 129.848  1.00  0.00     0.034 C 
ATOM      8  C   UNL     1     139.705 138.627 130.886  1.00  0.00    -0.029 C 
ATOM      9  C   UNL     1     139.087 139.586 131.907  1.00  0.00     0.012 C 
ATOM     10  C   UNL     1     140.325 139.238 129.626  1.00  0.00     0.012 C 
ENDROOT
TORSDOF 0
ENDMDL
MODEL 3
REMARK VINA RESULT:    -4.102      3.431      4.820
REMARK INTER + INTRA:          -4.102
REMARK INTER:                  -4.102
REMARK INTRA:                   0.000
REMARK UNBOUND:                 0.000
REMARK SMILES CC1=CC[C@H]2[C@H](C1)C2(C)C
REMARK SMILES IDX 1 1 2 2 3 3 4 4 5 5 6 6 7 7 8 8 9 9 10 10
REMARK H PARENT
REMARK Flexibility Score: inf
ROOT
ATOM      1  C   UNL     1     140.396 139.248 130.179  1.00  0.00     0.039 C 
ATOM      2  C   UNL     1     139.010 139.461 130.715  1.00  0.00    -0.077 C 
ATOM      3  C   UNL     1     138.845 139.939 131.984  1.00  0.00    -0.028 C 
ATOM      4  C   UNL     1     137.462 140.201 132.577  1.00  0.00     0.031 C 
ATOM      5  C   UNL     1     136.484 140.404 131.415  1.00  0.00     0.003 C 
ATOM      6  C   UNL     1     136.568 139.005 130.697  1.00  0.00     0.003 C 
ATOM      7  C   UNL     1     137.801 139.199 129.807  1.00  0.00     0.034 C 
ATOM      8  C   UNL     1     135.244 139.708 130.896  1.00  0.00    -0.029 C 
ATOM      9  C   UNL     1     134.310 139.137 131.965  1.00  0.00     0.012 C 
ATOM     10  C   UNL     1     134.603 140.284 129.630  1.00  0.00     0.012 C 
ENDROOT
TORSDOF 0
ENDMDL
MODEL 4
REMARK VINA RESULT:    -4.036      2.627      4.318
REMARK INTER + INTRA:          -4.036
REMARK INTER:                  -4.036
REMARK INTRA:                   0.000
REMARK UNBOUND:                 0.000
REMARK SMILES CC1=CC[C@H]2[C@H](C1)C2(C)C
REMARK SMILES IDX 1 1 2 2 3 3 4 4 5 5 6 6 7 7 8 8 9 9 10 10
REMARK H PARENT
REMARK Flexibility Score: inf
ROOT
ATOM      1  C   UNL     1     132.557 135.829 131.239  1.00  0.00     0.039 C 
ATOM      2  C   UNL     1     133.888 135.156 131.070  1.00  0.00    -0.077 C 
ATOM      3  C   UNL     1     134.441 135.061 129.824  1.00  0.00    -0.028 C 
ATOM      4  C   UNL     1     135.803 134.410 129.591  1.00  0.00     0.031 C 
ATOM      5  C   UNL     1     136.583 134.468 130.909  1.00  0.00     0.003 C 
ATOM      6  C   UNL     1     135.663 133.601 131.847  1.00  0.00     0.003 C 
ATOM      7  C   UNL     1     134.637 134.643 132.307  1.00  0.00     0.034 C 
ATOM      8  C   UNL     1     137.168 133.464 131.877  1.00  0.00    -0.029 C 
ATOM      9  C   UNL     1     137.762 132.203 131.244  1.00  0.00     0.012 C 
ATOM     10  C   UNL     1     137.859 134.022 133.125  1.00  0.00     0.012 C 
ENDROOT
TORSDOF 0
ENDMDL
MODEL 5
REMARK VINA RESULT:    -4.030      1.349      2.497
REMARK INTER + INTRA:          -4.030
REMARK INTER:                  -4.030
REMARK INTRA:                   0.000
REMARK UNBOUND:                 0.000
REMARK SMILES CC1=CC[C@H]2[C@H](C1)C2(C)C
REMARK SMILES IDX 1 1 2 2 3 3 4 4 5 5 6 6 7 7 8 8 9 9 10 10
REMARK H PARENT
REMARK Flexibility Score: inf
ROOT
ATOM      1  C   UNL     1     135.879 141.154 131.236  1.00  0.00     0.039 C 
ATOM      2  C   UNL     1     135.194 139.830 131.057  1.00  0.00    -0.077 C 
ATOM      3  C   UNL     1     135.090 139.289 129.807  1.00  0.00    -0.028 C 
ATOM      4  C   UNL     1     134.428 137.934 129.564  1.00  0.00     0.031 C 
ATOM      5  C   UNL     1     134.483 137.143 130.875  1.00  0.00     0.003 C 
ATOM      6  C   UNL     1     133.626 138.062 131.823  1.00  0.00     0.003 C 
ATOM      7  C   UNL     1     134.678 139.075 132.289  1.00  0.00     0.034 C 
ATOM      8  C   UNL     1     133.475 136.558 131.841  1.00  0.00    -0.029 C 
ATOM      9  C   UNL     1     132.208 135.979 131.206  1.00  0.00     0.012 C 
ATOM     10  C   UNL     1     134.031 135.852 133.081  1.00  0.00     0.012 C 
ENDROOT
TORSDOF 0
ENDMDL
MODEL 6
REMARK VINA RESULT:    -4.015      5.302      6.923
REMARK INTER + INTRA:          -4.015
REMARK INTER:                  -4.015
REMARK INTRA:                   0.000
REMARK UNBOUND:                 0.000
REMARK SMILES CC1=CC[C@H]2[C@H](C1)C2(C)C
REMARK SMILES IDX 1 1 2 2 3 3 4 4 5 5 6 6 7 7 8 8 9 9 10 10
REMARK H PARENT
REMARK Flexibility Score: inf
ROOT
ATOM      1  C   UNL     1     137.864 132.537 131.255  1.00  0.00     0.039 C 
ATOM      2  C   UNL     1     138.546 133.864 131.085  1.00  0.00    -0.077 C 
ATOM      3  C   UNL     1     138.630 134.423 129.841  1.00  0.00    -0.028 C 
ATOM      4  C   UNL     1     139.288 135.781 129.608  1.00  0.00     0.031 C 
ATOM      5  C   UNL     1     139.253 136.554 130.930  1.00  0.00     0.003 C 
ATOM      6  C   UNL     1     140.125 135.622 131.852  1.00  0.00     0.003 C 
ATOM      7  C   UNL     1     139.080 134.602 132.320  1.00  0.00     0.034 C 
ATOM      8  C   UNL     1     140.275 137.126 131.889  1.00  0.00    -0.029 C 
ATOM      9  C   UNL     1     141.532 137.714 131.244  1.00  0.00     0.012 C 
ATOM     10  C   UNL     1     139.737 137.814 133.147  1.00  0.00     0.012 C 
ENDROOT
TORSDOF 0
ENDMDL
MODEL 7
REMARK VINA RESULT:    -4.013      3.415      4.879
REMARK INTER + INTRA:          -4.013
REMARK INTER:                  -4.013
REMARK INTRA:                   0.000
REMARK UNBOUND:                 0.000
REMARK SMILES CC1=CC[C@H]2[C@H](C1)C2(C)C
REMARK SMILES IDX 1 1 2 2 3 3 4 4 5 5 6 6 7 7 8 8 9 9 10 10
REMARK H PARENT
REMARK Flexibility Score: inf
ROOT
ATOM      1  C   UNL     1     133.473 134.474 130.485  1.00  0.00     0.039 C 
ATOM      2  C   UNL     1     134.873 134.321 131.006  1.00  0.00    -0.077 C 
ATOM      3  C   UNL     1     135.072 134.013 132.322  1.00  0.00    -0.028 C 
ATOM      4  C   UNL     1     136.469 133.819 132.905  1.00  0.00     0.031 C 
ATOM      5  C   UNL     1     137.413 133.457 131.754  1.00  0.00     0.003 C 
ATOM      6  C   UNL     1     137.315 134.749 130.860  1.00  0.00     0.003 C 
ATOM      7  C   UNL     1     136.057 134.451 130.038  1.00  0.00     0.034 C 
ATOM      8  C   UNL     1     138.641 134.068 131.114  1.00  0.00    -0.029 C 
ATOM      9  C   UNL     1     139.609 134.767 132.073  1.00  0.00     0.012 C 
ATOM     10  C   UNL     1     139.243 133.325 129.918  1.00  0.00     0.012 C 
ENDROOT
TORSDOF 0
ENDMDL
MODEL 8
REMARK VINA RESULT:    -4.010      4.355      6.061
REMARK INTER + INTRA:          -4.010
REMARK INTER:                  -4.010
REMARK INTRA:                   0.000
REMARK UNBOUND:                 0.000
REMARK SMILES CC1=CC[C@H]2[C@H](C1)C2(C)C
REMARK SMILES IDX 1 1 2 2 3 3 4 4 5 5 6 6 7 7 8 8 9 9 10 10
REMARK H PARENT
REMARK Flexibility Score: inf
ROOT
ATOM      1  C   UNL     1     141.329 137.810 131.299  1.00  0.00     0.039 C 
ATOM      2  C   UNL     1     140.005 138.497 131.129  1.00  0.00    -0.077 C 
ATOM      3  C   UNL     1     139.462 138.613 129.880  1.00  0.00    -0.028 C 
ATOM      4  C   UNL     1     138.107 139.278 129.646  1.00  0.00     0.031 C 
ATOM      5  C   UNL     1     137.318 139.211 130.957  1.00  0.00     0.003 C 
ATOM      6  C   UNL     1     138.238 140.058 131.912  1.00  0.00     0.003 C 
ATOM      7  C   UNL     1     139.251 139.001 132.367  1.00  0.00     0.034 C 
ATOM      8  C   UNL     1     136.734 140.208 131.934  1.00  0.00    -0.029 C 
ATOM      9  C   UNL     1     136.155 141.482 131.313  1.00  0.00     0.012 C 
ATOM     10  C   UNL     1     136.029 139.640 133.169  1.00  0.00     0.012 C 
ENDROOT
TORSDOF 0
ENDMDL
MODEL 9
REMARK VINA RESULT:    -4.002      2.874      4.984
REMARK INTER + INTRA:          -4.002
REMARK INTER:                  -4.002
REMARK INTRA:                   0.000
REMARK UNBOUND:                 0.000
REMARK SMILES CC1=CC[C@H]2[C@H](C1)C2(C)C
REMARK SMILES IDX 1 1 2 2 3 3 4 4 5 5 6 6 7 7 8 8 9 9 10 10
REMARK H PARENT
REMARK Flexibility Score: inf
ROOT
ATOM      1  C   UNL     1     132.857 137.764 132.377  1.00  0.00     0.039 C 
ATOM      2  C   UNL     1     134.130 138.547 132.227  1.00  0.00    -0.077 C 
ATOM      3  C   UNL     1     134.270 139.408 131.175  1.00  0.00    -0.028 C 
ATOM      4  C   UNL     1     135.529 140.251 130.981  1.00  0.00     0.031 C 
ATOM      5  C   UNL     1     136.213 140.392 132.345  1.00  0.00     0.003 C 
ATOM      6  C   UNL     1     136.548 138.890 132.676  1.00  0.00     0.003 C 
ATOM      7  C   UNL     1     135.226 138.417 133.292  1.00  0.00     0.034 C 
ATOM      8  C   UNL     1     137.544 139.996 132.946  1.00  0.00    -0.029 C 
ATOM      9  C   UNL     1     138.749 140.089 132.006  1.00  0.00     0.012 C 
ATOM     10  C   UNL     1     137.769 140.338 134.421  1.00  0.00     0.012 C 
ENDROOT
TORSDOF 0
ENDMDL
