MODEL 1
REMARK VINA RESULT:    70.589      0.000      0.000
REMARK INTER + INTRA:         100.530
REMARK INTER:                  99.475
REMARK INTRA:                   1.055
REMARK UNBOUND:                 1.055
REMARK SMILES COc1c(O[C@H]2O[C@H](C(=O)[O-])[C@@H](O)[C@@H](O)[C@@H]2O)cc(O)c2c(=O)cc(-c3ccccc3)oc12
REMARK SMILES IDX 5 1 6 2 8 3 12 4 7 5 14 6 16 7 9 8 10 9 11 10 13 11 15 13
REMARK SMILES IDX 17 15 4 17 3 18 18 19 33 20 19 21 21 22 32 23 22 24 25 25
REMARK SMILES IDX 24 26 23 27 2 28 1 29 20 30 26 32 27 33 31 34 28 35 30 36
REMARK SMILES IDX 29 37
REMARK H PARENT 13 12 15 14 17 16 20 31
REMARK Flexibility Score: inf
ROOT
ATOM      1  O   UNL     1      12.866  11.526  18.180  1.00  0.00    -0.458 OA
ENDROOT
BRANCH   1   2
ATOM      2  C   UNL     1      14.256  11.520  18.529  1.00  0.00     0.339 C 
ATOM      3  C   UNL     1      14.848  10.406  16.547  1.00  0.00     0.199 C 
ATOM      4  C   UNL     1      15.612  11.624  15.979  1.00  0.00     0.180 C 
ATOM      5  O   UNL     1      14.902  10.389  17.965  1.00  0.00    -0.328 OA
ATOM      6  C   UNL     1      15.036  12.924  16.563  1.00  0.00     0.181 C 
ATOM      7  C   UNL     1      14.960  12.829  18.099  1.00  0.00     0.214 C 
BRANCH   3   8
ATOM      8  C   UNL     1      15.455   9.130  16.038  1.00  0.00     0.073 C 
ATOM      9  O   UNL     1      14.793   8.366  15.287  1.00  0.00    -0.547 OA
ATOM     10  O   UNL     1      16.742   8.771  16.419  1.00  0.00    -0.547 OA
ENDBRANCH   3   8
BRANCH   4  11
ATOM     11  O   UNL     1      15.502  11.662  14.577  1.00  0.00    -0.387 OA
ATOM     12  H   UNL     1      15.206  12.576  14.332  1.00  0.00     0.211 HD
ENDBRANCH   4  11
BRANCH   6  13
ATOM     13  O   UNL     1      13.759  13.164  16.024  1.00  0.00    -0.387 OA
ATOM     14  H   UNL     1      13.366  12.278  15.809  1.00  0.00     0.211 HD
ENDBRANCH   6  13
BRANCH   7  15
ATOM     15  O   UNL     1      16.262  12.860  18.627  1.00  0.00    -0.384 OA
ATOM     16  H   UNL     1      16.874  13.060  17.870  1.00  0.00     0.211 HD
ENDBRANCH   7  15
ENDBRANCH   1   2
BRANCH   1  17
ATOM     17  C   UNL     1      12.116  10.425  17.732  1.00  0.00     0.172 A 
ATOM     18  C   UNL     1      10.922  10.684  17.044  1.00  0.00     0.205 A 
ATOM     19  C   UNL     1      12.527   9.100  17.949  1.00  0.00     0.097 A 
ATOM     20  C   UNL     1      10.129   9.604  16.582  1.00  0.00     0.188 A 
ATOM     21  C   UNL     1      11.751   8.025  17.507  1.00  0.00     0.134 A 
ATOM     22  C   UNL     1      10.542   8.267  16.820  1.00  0.00     0.111 A 
ATOM     23  O   UNL     1       8.993   9.834  15.927  1.00  0.00    -0.452 OA
ATOM     24  C   UNL     1       9.713   7.226  16.351  1.00  0.00     0.197 A 
ATOM     25  C   UNL     1       8.185   8.875  15.483  1.00  0.00     0.138 A 
ATOM     26  C   UNL     1       8.530   7.533  15.684  1.00  0.00     0.100 A 
ATOM     27  O   UNL     1      10.018   6.014  16.520  1.00  0.00    -0.289 OA
BRANCH  18  28
ATOM     28  O   UNL     1      10.580  12.039  16.867  1.00  0.00    -0.490 OA
ATOM     29  C   UNL     1      10.732  13.084  17.821  1.00  0.00     0.278 C 
ENDBRANCH  18  28
BRANCH  21  30
ATOM     30  O   UNL     1      12.188   6.722  17.755  1.00  0.00    -0.507 OA
ATOM     31  H   UNL     1      11.956   5.954  17.136  1.00  0.00     0.293 HD
ENDBRANCH  21  30
BRANCH  25  32
ATOM     32  C   UNL     1       6.939   9.253  14.774  1.00  0.00     0.017 A 
ATOM     33  C   UNL     1       6.824  10.485  14.101  1.00  0.00     0.012 A 
ATOM     34  C   UNL     1       5.858   8.356  14.740  1.00  0.00     0.012 A 
ATOM     35  C   UNL     1       5.646  10.813  13.425  1.00  0.00     0.001 A 
ATOM     36  C   UNL     1       4.682   8.686  14.059  1.00  0.00     0.001 A 
ATOM     37  C   UNL     1       4.574   9.916  13.406  1.00  0.00     0.000 A 
ENDBRANCH  25  32
ENDBRANCH   1  17
TORSDOF 9
ENDMDL
MODEL 2
REMARK VINA RESULT:    71.873      3.284      6.253
REMARK INTER + INTRA:         102.340
REMARK INTER:                 100.569
REMARK INTRA:                   1.771
REMARK UNBOUND:                 1.055
REMARK SMILES COc1c(O[C@H]2O[C@H](C(=O)[O-])[C@@H](O)[C@@H](O)[C@@H]2O)cc(O)c2c(=O)cc(-c3ccccc3)oc12
REMARK SMILES IDX 5 1 6 2 8 3 12 4 7 5 14 6 16 7 9 8 10 9 11 10 13 11 15 13
REMARK SMILES IDX 17 15 4 17 3 18 18 19 33 20 19 21 21 22 32 23 22 24 25 25
REMARK SMILES IDX 24 26 23 27 2 28 1 29 20 30 26 32 27 33 31 34 28 35 30 36
REMARK SMILES IDX 29 37
REMARK H PARENT 13 12 15 14 17 16 20 31
REMARK Flexibility Score: inf
ROOT
ATOM      1  O   UNL     1      12.316  14.956  18.464  1.00  0.00    -0.458 OA
ENDROOT
BRANCH   1   2
ATOM      2  C   UNL     1      10.968  15.135  18.917  1.00  0.00     0.339 C 
ATOM      3  C   UNL     1      11.613  15.041  21.175  1.00  0.00     0.199 C 
ATOM      4  C   UNL     1      11.263  16.524  21.434  1.00  0.00     0.180 C 
ATOM      5  O   UNL     1      10.778  14.491  20.167  1.00  0.00    -0.328 OA
ATOM      6  C   UNL     1      11.379  17.327  20.129  1.00  0.00     0.181 C 
ATOM      7  C   UNL     1      10.588  16.633  19.005  1.00  0.00     0.214 C 
BRANCH   3   8
ATOM      8  C   UNL     1      11.429  14.238  22.429  1.00  0.00     0.073 C 
ATOM      9  O   UNL     1      10.518  13.370  22.500  1.00  0.00    -0.547 OA
ATOM     10  O   UNL     1      12.245  14.467  23.530  1.00  0.00    -0.547 OA
ENDBRANCH   3   8
BRANCH   4  11
ATOM     11  O   UNL     1      12.135  17.074  22.391  1.00  0.00    -0.387 OA
ATOM     12  H   UNL     1      12.483  17.924  22.016  1.00  0.00     0.211 HD
ENDBRANCH   4  11
BRANCH   6  13
ATOM     13  O   UNL     1      12.732  17.456  19.767  1.00  0.00    -0.387 OA
ATOM     14  H   UNL     1      13.267  17.075  20.511  1.00  0.00     0.211 HD
ENDBRANCH   6  13
BRANCH   7  15
ATOM     15  O   UNL     1       9.213  16.756  19.265  1.00  0.00    -0.384 OA
ATOM     16  H   UNL     1       8.892  17.542  18.748  1.00  0.00     0.211 HD
ENDBRANCH   7  15
ENDBRANCH   1   2
BRANCH   1  17
ATOM     17  C   UNL     1      12.864  13.777  17.928  1.00  0.00     0.172 A 
ATOM     18  C   UNL     1      12.047  12.639  17.884  1.00  0.00     0.205 A 
ATOM     19  C   UNL     1      14.181  13.715  17.445  1.00  0.00     0.097 A 
ATOM     20  C   UNL     1      12.560  11.426  17.360  1.00  0.00     0.188 A 
ATOM     21  C   UNL     1      14.703  12.524  16.935  1.00  0.00     0.134 A 
ATOM     22  C   UNL     1      13.898  11.366  16.889  1.00  0.00     0.111 A 
ATOM     23  O   UNL     1      11.796  10.337  17.311  1.00  0.00    -0.452 OA
ATOM     24  C   UNL     1      14.367  10.133  16.389  1.00  0.00     0.197 A 
ATOM     25  C   UNL     1      12.213   9.158  16.856  1.00  0.00     0.138 A 
ATOM     26  C   UNL     1      13.522   9.026  16.376  1.00  0.00     0.100 A 
ATOM     27  O   UNL     1      15.542  10.005  15.947  1.00  0.00    -0.289 OA
BRANCH  18  28
ATOM     28  O   UNL     1      10.739  12.783  18.388  1.00  0.00    -0.490 OA
ATOM     29  C   UNL     1       9.576  13.124  17.643  1.00  0.00     0.278 C 
ENDBRANCH  18  28
BRANCH  21  30
ATOM     30  O   UNL     1      16.022  12.500  16.476  1.00  0.00    -0.507 OA
ATOM     31  H   UNL     1      16.799  12.771  17.067  1.00  0.00     0.293 HD
ENDBRANCH  21  30
BRANCH  25  32
ATOM     32  C   UNL     1      11.274   8.012  16.858  1.00  0.00     0.017 A 
ATOM     33  C   UNL     1      11.430   6.938  17.756  1.00  0.00     0.012 A 
ATOM     34  C   UNL     1      10.182   8.003  15.972  1.00  0.00     0.012 A 
ATOM     35  C   UNL     1      10.522   5.876  17.753  1.00  0.00     0.001 A 
ATOM     36  C   UNL     1       9.274   6.941  15.974  1.00  0.00     0.001 A 
ATOM     37  C   UNL     1       9.446   5.875  16.861  1.00  0.00     0.000 A 
ENDBRANCH  25  32
ENDBRANCH   1  17
TORSDOF 9
ENDMDL
MODEL 3
REMARK VINA RESULT:    72.004      2.405      7.903
REMARK INTER + INTRA:         102.525
REMARK INTER:                 103.512
REMARK INTRA:                  -0.987
REMARK UNBOUND:                 1.055
REMARK SMILES COc1c(O[C@H]2O[C@H](C(=O)[O-])[C@@H](O)[C@@H](O)[C@@H]2O)cc(O)c2c(=O)cc(-c3ccccc3)oc12
REMARK SMILES IDX 5 1 6 2 8 3 12 4 7 5 14 6 16 7 9 8 10 9 11 10 13 11 15 13
REMARK SMILES IDX 17 15 4 17 3 18 18 19 33 20 19 21 21 22 32 23 22 24 25 25
REMARK SMILES IDX 24 26 23 27 2 28 1 29 20 30 26 32 27 33 31 34 28 35 30 36
REMARK SMILES IDX 29 37
REMARK H PARENT 13 12 15 14 17 16 20 31
REMARK Flexibility Score: inf
ROOT
ATOM      1  O   UNL     1       7.396   8.344  13.883  1.00  0.00    -0.458 OA
ENDROOT
BRANCH   1   2
ATOM      2  C   UNL     1       5.980   8.421  14.090  1.00  0.00     0.339 C 
ATOM      3  C   UNL     1       6.194  10.267  15.528  1.00  0.00     0.199 C 
ATOM      4  C   UNL     1       5.498  11.234  14.544  1.00  0.00     0.180 C 
ATOM      5  O   UNL     1       5.698   8.945  15.379  1.00  0.00    -0.328 OA
ATOM      6  C   UNL     1       5.686  10.740  13.101  1.00  0.00     0.181 C 
ATOM      7  C   UNL     1       5.284   9.257  12.989  1.00  0.00     0.214 C 
BRANCH   3   8
ATOM      8  C   UNL     1       5.949  10.703  16.944  1.00  0.00     0.073 C 
ATOM      9  O   UNL     1       5.442   9.906  17.776  1.00  0.00    -0.547 OA
ATOM     10  O   UNL     1       6.255  12.001  17.336  1.00  0.00    -0.547 OA
ENDBRANCH   3   8
BRANCH   4  11
ATOM     11  O   UNL     1       6.039  12.527  14.661  1.00  0.00    -0.387 OA
ATOM     12  H   UNL     1       6.765  12.602  13.990  1.00  0.00     0.211 HD
ENDBRANCH   4  11
BRANCH   6  13
ATOM     13  O   UNL     1       7.026  10.914  12.708  1.00  0.00    -0.387 OA
ATOM     14  H   UNL     1       7.012  11.212  11.761  1.00  0.00     0.211 HD
ENDBRANCH   6  13
BRANCH   7  15
ATOM     15  O   UNL     1       3.890   9.146  13.123  1.00  0.00    -0.384 OA
ATOM     16  H   UNL     1       3.558   8.694  12.302  1.00  0.00     0.211 HD
ENDBRANCH   7  15
ENDBRANCH   1   2
BRANCH   1  17
ATOM     17  C   UNL     1       8.376   8.198  14.880  1.00  0.00     0.172 A 
ATOM     18  C   UNL     1       9.362   9.191  14.976  1.00  0.00     0.205 A 
ATOM     19  C   UNL     1       8.390   7.108  15.765  1.00  0.00     0.097 A 
ATOM     20  C   UNL     1      10.376   9.080  15.961  1.00  0.00     0.188 A 
ATOM     21  C   UNL     1       9.388   6.981  16.734  1.00  0.00     0.134 A 
ATOM     22  C   UNL     1      10.393   7.967  16.841  1.00  0.00     0.111 A 
ATOM     23  O   UNL     1      11.319  10.015  16.065  1.00  0.00    -0.452 OA
ATOM     24  C   UNL     1      11.429   7.895  17.796  1.00  0.00     0.197 A 
ATOM     25  C   UNL     1      12.314   9.970  16.947  1.00  0.00     0.138 A 
ATOM     26  C   UNL     1      12.393   8.899  17.845  1.00  0.00     0.100 A 
ATOM     27  O   UNL     1      11.505   6.939  18.615  1.00  0.00    -0.289 OA
BRANCH  18  28
ATOM     28  O   UNL     1       9.280  10.251  14.053  1.00  0.00    -0.490 OA
ATOM     29  C   UNL     1      10.140  10.477  12.942  1.00  0.00     0.278 C 
ENDBRANCH  18  28
BRANCH  21  30
ATOM     30  O   UNL     1       9.373   5.875  17.586  1.00  0.00    -0.507 OA
ATOM     31  H   UNL     1       8.576   5.666  18.176  1.00  0.00     0.293 HD
ENDBRANCH  21  30
BRANCH  25  32
ATOM     32  C   UNL     1      13.312  11.065  16.963  1.00  0.00     0.017 A 
ATOM     33  C   UNL     1      14.685  10.808  16.784  1.00  0.00     0.012 A 
ATOM     34  C   UNL     1      12.885  12.394  17.126  1.00  0.00     0.012 A 
ATOM     35  C   UNL     1      15.607  11.858  16.786  1.00  0.00     0.001 A 
ATOM     36  C   UNL     1      13.809  13.443  17.124  1.00  0.00     0.001 A 
ATOM     37  C   UNL     1      15.170  13.175  16.958  1.00  0.00     0.000 A 
ENDBRANCH  25  32
ENDBRANCH   1  17
TORSDOF 9
ENDMDL
MODEL 4
REMARK VINA RESULT:    73.000      2.541      8.227
REMARK INTER + INTRA:         103.928
REMARK INTER:                 104.857
REMARK INTRA:                  -0.929
REMARK UNBOUND:                 1.055
REMARK SMILES COc1c(O[C@H]2O[C@H](C(=O)[O-])[C@@H](O)[C@@H](O)[C@@H]2O)cc(O)c2c(=O)cc(-c3ccccc3)oc12
REMARK SMILES IDX 5 1 6 2 8 3 12 4 7 5 14 6 16 7 9 8 10 9 11 10 13 11 15 13
REMARK SMILES IDX 17 15 4 17 3 18 18 19 33 20 19 21 21 22 32 23 22 24 25 25
REMARK SMILES IDX 24 26 23 27 2 28 1 29 20 30 26 32 27 33 31 34 28 35 30 36
REMARK SMILES IDX 29 37
REMARK H PARENT 13 12 15 14 17 16 20 31
REMARK Flexibility Score: inf
ROOT
ATOM      1  O   UNL     1       7.195   8.427  14.565  1.00  0.00    -0.458 OA
ENDROOT
BRANCH   1   2
ATOM      2  C   UNL     1       5.964   9.088  14.884  1.00  0.00     0.339 C 
ATOM      3  C   UNL     1       6.155  10.539  13.045  1.00  0.00     0.199 C 
ATOM      4  C   UNL     1       4.941   9.924  12.313  1.00  0.00     0.180 C 
ATOM      5  O   UNL     1       6.004  10.440  14.453  1.00  0.00    -0.328 OA
ATOM      6  C   UNL     1       4.756   8.460  12.742  1.00  0.00     0.181 C 
ATOM      7  C   UNL     1       4.745   8.352  14.278  1.00  0.00     0.214 C 
BRANCH   3   8
ATOM      8  C   UNL     1       6.296  11.990  12.689  1.00  0.00     0.073 C 
ATOM      9  O   UNL     1       6.996  12.338  11.701  1.00  0.00    -0.547 OA
ATOM     10  O   UNL     1       5.675  12.962  13.465  1.00  0.00    -0.547 OA
ENDBRANCH   3   8
BRANCH   4  11
ATOM     11  O   UNL     1       5.129   9.976  10.921  1.00  0.00    -0.387 OA
ATOM     12  H   UNL     1       6.059  10.282  10.763  1.00  0.00     0.211 HD
ENDBRANCH   4  11
BRANCH   6  13
ATOM     13  O   UNL     1       5.789   7.672  12.203  1.00  0.00    -0.387 OA
ATOM     14  H   UNL     1       5.606   6.734  12.472  1.00  0.00     0.211 HD
ENDBRANCH   6  13
BRANCH   7  15
ATOM     15  O   UNL     1       3.559   8.919  14.772  1.00  0.00    -0.384 OA
ATOM     16  H   UNL     1       3.553   8.765  15.754  1.00  0.00     0.211 HD
ENDBRANCH   7  15
ENDBRANCH   1   2
BRANCH   1  17
ATOM     17  C   UNL     1       8.299   8.266  15.420  1.00  0.00     0.172 A 
ATOM     18  C   UNL     1       9.277   9.271  15.420  1.00  0.00     0.205 A 
ATOM     19  C   UNL     1       8.442   7.148  16.258  1.00  0.00     0.097 A 
ATOM     20  C   UNL     1      10.412   9.146  16.260  1.00  0.00     0.188 A 
ATOM     21  C   UNL     1       9.560   7.008  17.084  1.00  0.00     0.134 A 
ATOM     22  C   UNL     1      10.558   8.006  17.092  1.00  0.00     0.111 A 
ATOM     23  O   UNL     1      11.349  10.093  16.271  1.00  0.00    -0.452 OA
ATOM     24  C   UNL     1      11.711   7.921  17.901  1.00  0.00     0.197 A 
ATOM     25  C   UNL     1      12.451  10.036  17.014  1.00  0.00     0.138 A 
ATOM     26  C   UNL     1      12.660   8.939  17.858  1.00  0.00     0.100 A 
ATOM     27  O   UNL     1      11.905   6.941  18.671  1.00  0.00    -0.289 OA
BRANCH  18  28
ATOM     28  O   UNL     1       9.061  10.359  14.552  1.00  0.00    -0.490 OA
ATOM     29  C   UNL     1       9.482  10.458  13.196  1.00  0.00     0.278 C 
ENDBRANCH  18  28
BRANCH  21  30
ATOM     30  O   UNL     1       9.671   5.875  17.893  1.00  0.00    -0.507 OA
ATOM     31  H   UNL     1       9.423   4.952  17.557  1.00  0.00     0.293 HD
ENDBRANCH  21  30
BRANCH  25  32
ATOM     32  C   UNL     1      13.429  11.147  16.937  1.00  0.00     0.017 A 
ATOM     33  C   UNL     1      14.793  10.906  16.684  1.00  0.00     0.012 A 
ATOM     34  C   UNL     1      12.989  12.474  17.084  1.00  0.00     0.012 A 
ATOM     35  C   UNL     1      15.695  11.970  16.598  1.00  0.00     0.001 A 
ATOM     36  C   UNL     1      13.893  13.537  16.994  1.00  0.00     0.001 A 
ATOM     37  C   UNL     1      15.247  13.285  16.756  1.00  0.00     0.000 A 
ENDBRANCH  25  32
ENDBRANCH   1  17
TORSDOF 9
ENDMDL
