MODEL 1
REMARK VINA RESULT:    -4.904      0.000      0.000
REMARK INTER + INTRA:          -5.534
REMARK INTER:                  -5.334
REMARK INTRA:                  -0.200
REMARK UNBOUND:                -0.200
REMARK SMILES CC(C)(C)[C@H]1C=C[C@H](O)CC1
REMARK SMILES IDX 5 1 11 2 10 3 8 4 7 5 6 6 2 7 1 8 3 9 4 10 9 11
REMARK H PARENT 9 12
REMARK Flexibility Score: inf
ROOT
ATOM      1  C   UNL     1     116.913 129.254 126.412  1.00  0.00     0.017 C 
ATOM      2  C   UNL     1     117.686 128.127 125.660  1.00  0.00     0.011 C 
ATOM      3  C   UNL     1     117.065 126.710 125.791  1.00  0.00     0.037 C 
ATOM      4  C   UNL     1     115.931 126.619 126.826  1.00  0.00     0.137 C 
ATOM      5  C   UNL     1     114.960 127.747 126.600  1.00  0.00     0.000 C 
ATOM      6  C   UNL     1     115.417 128.984 126.371  1.00  0.00    -0.025 C 
ENDROOT
BRANCH   1   7
ATOM      7  C   UNL     1     117.302 130.715 125.967  1.00  0.00    -0.032 C 
ATOM      8  C   UNL     1     116.192 131.315 125.073  1.00  0.00     0.011 C 
ATOM      9  C   UNL     1     117.522 131.659 127.175  1.00  0.00     0.011 C 
ATOM     10  C   UNL     1     118.602 130.676 125.128  1.00  0.00     0.011 C 
ENDBRANCH   1   7
BRANCH   4  11
ATOM     11  O   UNL     1     116.466 126.690 128.121  1.00  0.00    -0.389 OA
ATOM     12  H   UNL     1     117.425 126.440 128.048  1.00  0.00     0.211 HD
ENDBRANCH   4  11
TORSDOF 2
ENDMDL
MODEL 2
REMARK VINA RESULT:    -4.781     15.323     16.009
REMARK INTER + INTRA:          -5.400
REMARK INTER:                  -5.199
REMARK INTRA:                  -0.201
REMARK UNBOUND:                -0.200
REMARK SMILES CC(C)(C)[C@H]1C=C[C@H](O)CC1
REMARK SMILES IDX 5 1 11 2 10 3 8 4 7 5 6 6 2 7 1 8 3 9 4 10 9 11
REMARK H PARENT 9 12
REMARK Flexibility Score: inf
ROOT
ATOM      1  C   UNL     1     122.592 118.702 115.916  1.00  0.00     0.017 C 
ATOM      2  C   UNL     1     122.686 117.150 116.038  1.00  0.00     0.011 C 
ATOM      3  C   UNL     1     121.361 116.391 115.756  1.00  0.00     0.037 C 
ATOM      4  C   UNL     1     120.131 117.307 115.634  1.00  0.00     0.137 C 
ATOM      5  C   UNL     1     120.451 118.446 114.703  1.00  0.00     0.000 C 
ATOM      6  C   UNL     1     121.622 119.085 114.809  1.00  0.00    -0.025 C 
ENDROOT
BRANCH   1   7
ATOM      7  C   UNL     1     123.986 119.430 115.812  1.00  0.00    -0.032 C 
ATOM      8  C   UNL     1     123.787 120.911 115.411  1.00  0.00     0.011 C 
ATOM      9  C   UNL     1     124.774 119.384 117.144  1.00  0.00     0.011 C 
ATOM     10  C   UNL     1     124.842 118.764 114.709  1.00  0.00     0.011 C 
ENDBRANCH   1   7
BRANCH   4  11
ATOM     11  O   UNL     1     119.780 117.798 116.901  1.00  0.00    -0.389 OA
ATOM     12  H   UNL     1     119.316 117.058 117.376  1.00  0.00     0.211 HD
ENDBRANCH   4  11
TORSDOF 2
ENDMDL
MODEL 3
REMARK VINA RESULT:    -4.569     15.330     16.053
REMARK INTER + INTRA:          -5.169
REMARK INTER:                  -4.968
REMARK INTRA:                  -0.201
REMARK UNBOUND:                -0.200
REMARK SMILES CC(C)(C)[C@H]1C=C[C@H](O)CC1
REMARK SMILES IDX 5 1 11 2 10 3 8 4 7 5 6 6 2 7 1 8 3 9 4 10 9 11
REMARK H PARENT 9 12
REMARK Flexibility Score: inf
ROOT
ATOM      1  C   UNL     1     122.676 118.397 115.713  1.00  0.00     0.017 C 
ATOM      2  C   UNL     1     121.589 118.853 114.691  1.00  0.00     0.011 C 
ATOM      3  C   UNL     1     120.183 118.230 114.912  1.00  0.00     0.037 C 
ATOM      4  C   UNL     1     120.160 117.096 115.951  1.00  0.00     0.137 C 
ATOM      5  C   UNL     1     120.886 117.544 117.191  1.00  0.00     0.000 C 
ATOM      6  C   UNL     1     122.056 118.187 117.084  1.00  0.00    -0.025 C 
ENDROOT
BRANCH   1   7
ATOM      7  C   UNL     1     123.965 119.305 115.736  1.00  0.00    -0.032 C 
ATOM      8  C   UNL     1     124.614 119.275 117.139  1.00  0.00     0.011 C 
ATOM      9  C   UNL     1     125.021 118.854 114.697  1.00  0.00     0.011 C 
ATOM     10  C   UNL     1     123.575 120.772 115.438  1.00  0.00     0.011 C 
ENDBRANCH   1   7
BRANCH   4  11
ATOM     11  O   UNL     1     120.771 115.952 115.416  1.00  0.00    -0.389 OA
ATOM     12  H   UNL     1     120.401 115.831 114.502  1.00  0.00     0.211 HD
ENDBRANCH   4  11
TORSDOF 2
ENDMDL
MODEL 4
REMARK VINA RESULT:    -4.498     12.977     14.154
REMARK INTER + INTRA:          -5.092
REMARK INTER:                  -4.891
REMARK INTRA:                  -0.201
REMARK UNBOUND:                -0.200
REMARK SMILES CC(C)(C)[C@H]1C=C[C@H](O)CC1
REMARK SMILES IDX 5 1 11 2 10 3 8 4 7 5 6 6 2 7 1 8 3 9 4 10 9 11
REMARK H PARENT 9 12
REMARK Flexibility Score: inf
ROOT
ATOM      1  C   UNL     1     110.863 116.427 127.884  1.00  0.00     0.017 C 
ATOM      2  C   UNL     1     109.627 116.432 128.836  1.00  0.00     0.011 C 
ATOM      3  C   UNL     1     109.968 116.507 130.349  1.00  0.00     0.037 C 
ATOM      4  C   UNL     1     111.464 116.328 130.660  1.00  0.00     0.137 C 
ATOM      5  C   UNL     1     112.270 117.222 129.756  1.00  0.00     0.000 C 
ATOM      6  C   UNL     1     111.970 117.299 128.454  1.00  0.00    -0.025 C 
ENDROOT
BRANCH   1   7
ATOM      7  C   UNL     1     110.522 116.746 126.378  1.00  0.00    -0.032 C 
ATOM      8  C   UNL     1     111.739 117.399 125.681  1.00  0.00     0.011 C 
ATOM      9  C   UNL     1     110.125 115.477 125.583  1.00  0.00     0.011 C 
ATOM     10  C   UNL     1     109.352 117.757 126.310  1.00  0.00     0.011 C 
ENDBRANCH   1   7
BRANCH   4  11
ATOM     11  O   UNL     1     111.830 114.986 130.469  1.00  0.00    -0.389 OA
ATOM     12  H   UNL     1     111.409 114.468 131.205  1.00  0.00     0.211 HD
ENDBRANCH   4  11
TORSDOF 2
ENDMDL
MODEL 5
REMARK VINA RESULT:    -4.425     12.813     13.925
REMARK INTER + INTRA:          -5.012
REMARK INTER:                  -4.816
REMARK INTRA:                  -0.196
REMARK UNBOUND:                -0.200
REMARK SMILES CC(C)(C)[C@H]1C=C[C@H](O)CC1
REMARK SMILES IDX 5 1 11 2 10 3 8 4 7 5 6 6 2 7 1 8 3 9 4 10 9 11
REMARK H PARENT 9 12
REMARK Flexibility Score: inf
ROOT
ATOM      1  C   UNL     1     110.609 117.007 127.188  1.00  0.00     0.017 C 
ATOM      2  C   UNL     1     112.035 116.556 127.634  1.00  0.00     0.011 C 
ATOM      3  C   UNL     1     112.159 116.174 129.134  1.00  0.00     0.037 C 
ATOM      4  C   UNL     1     110.920 116.528 129.973  1.00  0.00     0.137 C 
ATOM      5  C   UNL     1     109.685 116.035 129.266  1.00  0.00     0.000 C 
ATOM      6  C   UNL     1     109.548 116.228 127.949  1.00  0.00    -0.025 C 
ENDROOT
BRANCH   1   7
ATOM      7  C   UNL     1     110.390 117.012 125.627  1.00  0.00    -0.032 C 
ATOM      8  C   UNL     1     109.217 117.950 125.256  1.00  0.00     0.011 C 
ATOM      9  C   UNL     1     111.651 117.476 124.857  1.00  0.00     0.011 C 
ATOM     10  C   UNL     1     110.014 115.590 125.148  1.00  0.00     0.011 C 
ENDBRANCH   1   7
BRANCH   4  11
ATOM     11  O   UNL     1     110.854 117.917 130.156  1.00  0.00    -0.389 OA
ATOM     12  H   UNL     1     111.509 118.320 129.527  1.00  0.00     0.211 HD
ENDBRANCH   4  11
TORSDOF 2
ENDMDL
MODEL 6
REMARK VINA RESULT:    -4.421     13.143     14.187
REMARK INTER + INTRA:          -5.008
REMARK INTER:                  -4.813
REMARK INTRA:                  -0.195
REMARK UNBOUND:                -0.200
REMARK SMILES CC(C)(C)[C@H]1C=C[C@H](O)CC1
REMARK SMILES IDX 5 1 11 2 10 3 8 4 7 5 6 6 2 7 1 8 3 9 4 10 9 11
REMARK H PARENT 9 12
REMARK Flexibility Score: inf
ROOT
ATOM      1  C   UNL     1     110.893 116.394 128.388  1.00  0.00     0.017 C 
ATOM      2  C   UNL     1     112.098 116.519 127.404  1.00  0.00     0.011 C 
ATOM      3  C   UNL     1     111.706 116.716 125.915  1.00  0.00     0.037 C 
ATOM      4  C   UNL     1     110.206 116.521 125.633  1.00  0.00     0.137 C 
ATOM      5  C   UNL     1     109.406 117.309 126.636  1.00  0.00     0.000 C 
ATOM      6  C   UNL     1     109.746 117.280 127.931  1.00  0.00    -0.025 C 
ENDROOT
BRANCH   1   7
ATOM      7  C   UNL     1     111.274 116.589 129.906  1.00  0.00    -0.032 C 
ATOM      8  C   UNL     1     111.871 115.282 130.478  1.00  0.00     0.011 C 
ATOM      9  C   UNL     1     112.301 117.729 130.113  1.00  0.00     0.011 C 
ATOM     10  C   UNL     1     110.002 116.914 130.725  1.00  0.00     0.011 C 
ENDBRANCH   1   7
BRANCH   4  11
ATOM     11  O   UNL     1     109.882 115.158 125.715  1.00  0.00    -0.389 OA
ATOM     12  H   UNL     1     110.464 114.768 126.420  1.00  0.00     0.211 HD
ENDBRANCH   4  11
TORSDOF 2
ENDMDL
MODEL 7
REMARK VINA RESULT:    -4.379     14.154     15.201
REMARK INTER + INTRA:          -4.962
REMARK INTER:                  -4.761
REMARK INTRA:                  -0.201
REMARK UNBOUND:                -0.200
REMARK SMILES CC(C)(C)[C@H]1C=C[C@H](O)CC1
REMARK SMILES IDX 5 1 11 2 10 3 8 4 7 5 6 6 2 7 1 8 3 9 4 10 9 11
REMARK H PARENT 9 12
REMARK Flexibility Score: inf
ROOT
ATOM      1  C   UNL     1     122.401 118.730 116.871  1.00  0.00     0.017 C 
ATOM      2  C   UNL     1     123.616 118.181 117.682  1.00  0.00     0.011 C 
ATOM      3  C   UNL     1     123.251 117.523 119.040  1.00  0.00     0.037 C 
ATOM      4  C   UNL     1     121.787 117.733 119.461  1.00  0.00     0.137 C 
ATOM      5  C   UNL     1     120.884 117.400 118.303  1.00  0.00     0.000 C 
ATOM      6  C   UNL     1     121.187 117.839 117.075  1.00  0.00    -0.025 C 
ENDROOT
BRANCH   1   7
ATOM      7  C   UNL     1     122.716 119.031 115.356  1.00  0.00    -0.032 C 
ATOM      8  C   UNL     1     121.412 119.008 114.525  1.00  0.00     0.011 C 
ATOM      9  C   UNL     1     123.400 120.406 115.159  1.00  0.00     0.011 C 
ATOM     10  C   UNL     1     123.645 117.931 114.788  1.00  0.00     0.011 C 
ENDBRANCH   1   7
BRANCH   4  11
ATOM     11  O   UNL     1     121.595 119.065 119.860  1.00  0.00    -0.389 OA
ATOM     12  H   UNL     1     122.498 119.470 119.947  1.00  0.00     0.211 HD
ENDBRANCH   4  11
TORSDOF 2
ENDMDL
MODEL 8
REMARK VINA RESULT:    -4.336     14.936     16.546
REMARK INTER + INTRA:          -4.916
REMARK INTER:                  -4.716
REMARK INTRA:                  -0.201
REMARK UNBOUND:                -0.200
REMARK SMILES CC(C)(C)[C@H]1C=C[C@H](O)CC1
REMARK SMILES IDX 5 1 11 2 10 3 8 4 7 5 6 6 2 7 1 8 3 9 4 10 9 11
REMARK H PARENT 9 12
REMARK Flexibility Score: inf
ROOT
ATOM      1  C   UNL     1     122.560 118.194 116.185  1.00  0.00     0.017 C 
ATOM      2  C   UNL     1     122.894 119.313 115.150  1.00  0.00     0.011 C 
ATOM      3  C   UNL     1     124.409 119.608 114.975  1.00  0.00     0.037 C 
ATOM      4  C   UNL     1     125.305 118.914 116.015  1.00  0.00     0.137 C 
ATOM      5  C   UNL     1     124.921 117.461 116.110  1.00  0.00     0.000 C 
ATOM      6  C   UNL     1     123.629 117.114 116.157  1.00  0.00    -0.025 C 
ENDROOT
BRANCH   1   7
ATOM      7  C   UNL     1     121.091 117.631 116.078  1.00  0.00    -0.032 C 
ATOM      8  C   UNL     1     121.122 116.108 115.807  1.00  0.00     0.011 C 
ATOM      9  C   UNL     1     120.269 117.883 117.365  1.00  0.00     0.011 C 
ATOM     10  C   UNL     1     120.362 118.298 114.886  1.00  0.00     0.011 C 
ENDBRANCH   1   7
BRANCH   4  11
ATOM     11  O   UNL     1     125.153 119.540 117.262  1.00  0.00    -0.389 OA
ATOM     12  H   UNL     1     125.774 119.083 117.888  1.00  0.00     0.211 HD
ENDBRANCH   4  11
TORSDOF 2
ENDMDL
MODEL 9
REMARK VINA RESULT:    -4.219     12.868     13.945
REMARK INTER + INTRA:          -4.789
REMARK INTER:                  -4.590
REMARK INTRA:                  -0.199
REMARK UNBOUND:                -0.200
REMARK SMILES CC(C)(C)[C@H]1C=C[C@H](O)CC1
REMARK SMILES IDX 5 1 11 2 10 3 8 4 7 5 6 6 2 7 1 8 3 9 4 10 9 11
REMARK H PARENT 9 12
REMARK Flexibility Score: inf
ROOT
ATOM      1  C   UNL     1     110.798 117.158 128.385  1.00  0.00     0.017 C 
ATOM      2  C   UNL     1     109.875 118.406 128.224  1.00  0.00     0.011 C 
ATOM      3  C   UNL     1     109.178 118.529 126.842  1.00  0.00     0.037 C 
ATOM      4  C   UNL     1     109.696 117.532 125.791  1.00  0.00     0.137 C 
ATOM      5  C   UNL     1     109.733 116.152 126.392  1.00  0.00     0.000 C 
ATOM      6  C   UNL     1     110.220 115.975 127.626  1.00  0.00    -0.025 C 
ENDROOT
BRANCH   1   7
ATOM      7  C   UNL     1     111.182 116.825 129.877  1.00  0.00    -0.032 C 
ATOM      8  C   UNL     1     109.967 117.059 130.806  1.00  0.00     0.011 C 
ATOM      9  C   UNL     1     111.656 115.361 130.049  1.00  0.00     0.011 C 
ATOM     10  C   UNL     1     112.314 117.769 130.348  1.00  0.00     0.011 C 
ENDBRANCH   1   7
BRANCH   4  11
ATOM     11  O   UNL     1     110.979 117.914 125.369  1.00  0.00    -0.389 OA
ATOM     12  H   UNL     1     111.095 117.557 124.450  1.00  0.00     0.211 HD
ENDBRANCH   4  11
TORSDOF 2
ENDMDL
