MODEL 1
REMARK VINA RESULT:    -5.216      0.000      0.000
REMARK INTER + INTRA:          -5.798
REMARK INTER:                  -5.673
REMARK INTRA:                  -0.125
REMARK UNBOUND:                -0.125
REMARK SMILES Cc1ccc(C(C)C)cc1O
REMARK SMILES IDX 1 1 2 2 10 3 9 4 5 5 4 6 3 7 11 8 6 10 7 11 8 12
REMARK H PARENT 11 9
REMARK Flexibility Score: inf
ROOT
ATOM      1  C   UNL     1      -5.316  -2.560   7.861  1.00  0.00     0.048 C 
ATOM      2  C   UNL     1      -5.489  -1.452   8.863  1.00  0.00    -0.009 A 
ATOM      3  C   UNL     1      -5.672  -0.113   8.452  1.00  0.00     0.118 A 
ATOM      4  C   UNL     1      -5.829   0.895   9.410  1.00  0.00     0.050 A 
ATOM      5  C   UNL     1      -5.807   0.597  10.783  1.00  0.00    -0.042 A 
ATOM      6  C   UNL     1      -5.624  -0.737  11.184  1.00  0.00     0.004 A 
ATOM      7  C   UNL     1      -5.467  -1.749  10.236  1.00  0.00     0.007 A 
ENDROOT
BRANCH   3   8
ATOM      8  O   UNL     1      -5.702   0.246   7.102  1.00  0.00    -0.508 OA
ATOM      9  H   UNL     1      -4.921   0.682   6.629  1.00  0.00     0.293 HD
ENDBRANCH   3   8
BRANCH   5  10
ATOM     10  C   UNL     1      -5.980   1.706  11.804  1.00  0.00     0.013 C 
ATOM     11  C   UNL     1      -7.087   1.366  12.808  1.00  0.00     0.012 C 
ATOM     12  C   UNL     1      -4.658   2.009  12.519  1.00  0.00     0.012 C 
ENDBRANCH   5  10
TORSDOF 2
ENDMDL
MODEL 2
REMARK VINA RESULT:    -5.128      3.449      4.272
REMARK INTER + INTRA:          -5.703
REMARK INTER:                  -5.577
REMARK INTRA:                  -0.126
REMARK UNBOUND:                -0.125
REMARK SMILES Cc1ccc(C(C)C)cc1O
REMARK SMILES IDX 1 1 2 2 10 3 9 4 5 5 4 6 3 7 11 8 6 10 7 11 8 12
REMARK H PARENT 11 9
REMARK Flexibility Score: inf
ROOT
ATOM      1  C   UNL     1      -2.580  -3.544  12.136  1.00  0.00     0.048 C 
ATOM      2  C   UNL     1      -3.381  -2.317  12.476  1.00  0.00    -0.009 A 
ATOM      3  C   UNL     1      -2.984  -1.447  13.515  1.00  0.00     0.118 A 
ATOM      4  C   UNL     1      -3.751  -0.314  13.806  1.00  0.00     0.050 A 
ATOM      5  C   UNL     1      -4.918  -0.024  13.079  1.00  0.00    -0.042 A 
ATOM      6  C   UNL     1      -5.307  -0.895  12.047  1.00  0.00     0.004 A 
ATOM      7  C   UNL     1      -4.548  -2.027  11.749  1.00  0.00     0.007 A 
ENDROOT
BRANCH   3   8
ATOM      8  O   UNL     1      -1.835  -1.681  14.274  1.00  0.00    -0.508 OA
ATOM      9  H   UNL     1      -1.664  -1.238  15.168  1.00  0.00     0.293 HD
ENDBRANCH   3   8
BRANCH   5  10
ATOM     10  C   UNL     1      -5.735   1.210  13.412  1.00  0.00     0.013 C 
ATOM     11  C   UNL     1      -4.947   2.491  13.115  1.00  0.00     0.012 C 
ATOM     12  C   UNL     1      -7.077   1.202  12.670  1.00  0.00     0.012 C 
ENDBRANCH   5  10
TORSDOF 2
ENDMDL
MODEL 3
REMARK VINA RESULT:    -5.117      3.914      5.466
REMARK INTER + INTRA:          -5.690
REMARK INTER:                  -5.565
REMARK INTRA:                  -0.126
REMARK UNBOUND:                -0.125
REMARK SMILES Cc1ccc(C(C)C)cc1O
REMARK SMILES IDX 1 1 2 2 10 3 9 4 5 5 4 6 3 7 11 8 6 10 7 11 8 12
REMARK H PARENT 11 9
REMARK Flexibility Score: inf
ROOT
ATOM      1  C   UNL     1       0.020  -1.637  11.944  1.00  0.00     0.048 C 
ATOM      2  C   UNL     1      -1.107  -2.006  11.019  1.00  0.00    -0.009 A 
ATOM      3  C   UNL     1      -0.964  -1.915   9.616  1.00  0.00     0.118 A 
ATOM      4  C   UNL     1      -2.031  -2.265   8.782  1.00  0.00     0.050 A 
ATOM      5  C   UNL     1      -3.252  -2.709   9.319  1.00  0.00    -0.042 A 
ATOM      6  C   UNL     1      -3.387  -2.797  10.715  1.00  0.00     0.004 A 
ATOM      7  C   UNL     1      -2.327  -2.450  11.554  1.00  0.00     0.007 A 
ENDROOT
BRANCH   3   8
ATOM      8  O   UNL     1       0.224  -1.480   9.023  1.00  0.00    -0.508 OA
ATOM      9  H   UNL     1       0.830  -2.090   8.489  1.00  0.00     0.293 HD
ENDBRANCH   3   8
BRANCH   5  10
ATOM     10  C   UNL     1      -4.396  -3.084   8.395  1.00  0.00     0.013 C 
ATOM     11  C   UNL     1      -5.070  -4.384   8.849  1.00  0.00     0.012 C 
ATOM     12  C   UNL     1      -5.414  -1.943   8.285  1.00  0.00     0.012 C 
ENDBRANCH   5  10
TORSDOF 2
ENDMDL
MODEL 4
REMARK VINA RESULT:    -5.105      4.295      4.998
REMARK INTER + INTRA:          -5.678
REMARK INTER:                  -5.563
REMARK INTRA:                  -0.115
REMARK UNBOUND:                -0.125
REMARK SMILES Cc1ccc(C(C)C)cc1O
REMARK SMILES IDX 1 1 2 2 10 3 9 4 5 5 4 6 3 7 11 8 6 10 7 11 8 12
REMARK H PARENT 11 9
REMARK Flexibility Score: inf
ROOT
ATOM      1  C   UNL     1       0.038  -2.055  11.885  1.00  0.00     0.048 C 
ATOM      2  C   UNL     1      -1.206  -1.286  12.236  1.00  0.00    -0.009 A 
ATOM      3  C   UNL     1      -1.698  -1.253  13.560  1.00  0.00     0.118 A 
ATOM      4  C   UNL     1      -2.858  -0.529  13.855  1.00  0.00     0.050 A 
ATOM      5  C   UNL     1      -3.548   0.170  12.850  1.00  0.00    -0.042 A 
ATOM      6  C   UNL     1      -3.054   0.132  11.535  1.00  0.00     0.004 A 
ATOM      7  C   UNL     1      -1.897  -0.588  11.233  1.00  0.00     0.007 A 
ENDROOT
BRANCH   3   8
ATOM      8  O   UNL     1      -1.057  -1.928  14.602  1.00  0.00    -0.508 OA
ATOM      9  H   UNL     1      -0.150  -1.657  14.960  1.00  0.00     0.293 HD
ENDBRANCH   3   8
BRANCH   5  10
ATOM     10  C   UNL     1      -4.805   0.949  13.192  1.00  0.00     0.013 C 
ATOM     11  C   UNL     1      -5.261   0.661  14.627  1.00  0.00     0.012 C 
ATOM     12  C   UNL     1      -4.601   2.452  12.968  1.00  0.00     0.012 C 
ENDBRANCH   5  10
TORSDOF 2
ENDMDL
MODEL 5
REMARK VINA RESULT:    -5.103      3.825      4.937
REMARK INTER + INTRA:          -5.675
REMARK INTER:                  -5.549
REMARK INTRA:                  -0.126
REMARK UNBOUND:                -0.125
REMARK SMILES Cc1ccc(C(C)C)cc1O
REMARK SMILES IDX 1 1 2 2 10 3 9 4 5 5 4 6 3 7 11 8 6 10 7 11 8 12
REMARK H PARENT 11 9
REMARK Flexibility Score: inf
ROOT
ATOM      1  C   UNL     1      -6.404  -2.468  10.277  1.00  0.00     0.048 C 
ATOM      2  C   UNL     1      -5.029  -2.532  10.883  1.00  0.00    -0.009 A 
ATOM      3  C   UNL     1      -4.143  -3.590  10.579  1.00  0.00     0.118 A 
ATOM      4  C   UNL     1      -2.870  -3.621  11.159  1.00  0.00     0.050 A 
ATOM      5  C   UNL     1      -2.455  -2.613  12.046  1.00  0.00    -0.042 A 
ATOM      6  C   UNL     1      -3.343  -1.564  12.344  1.00  0.00     0.004 A 
ATOM      7  C   UNL     1      -4.614  -1.525  11.769  1.00  0.00     0.007 A 
ENDROOT
BRANCH   3   8
ATOM      8  O   UNL     1      -4.498  -4.621   9.705  1.00  0.00    -0.508 OA
ATOM      9  H   UNL     1      -3.950  -4.868   8.891  1.00  0.00     0.293 HD
ENDBRANCH   3   8
BRANCH   5  10
ATOM     10  C   UNL     1      -1.071  -2.667  12.664  1.00  0.00     0.013 C 
ATOM     11  C   UNL     1       0.012  -2.366  11.622  1.00  0.00     0.012 C 
ATOM     12  C   UNL     1      -0.963  -1.718  13.863  1.00  0.00     0.012 C 
ENDBRANCH   5  10
TORSDOF 2
ENDMDL
MODEL 6
REMARK VINA RESULT:    -5.099      3.947      5.521
REMARK INTER + INTRA:          -5.671
REMARK INTER:                  -5.545
REMARK INTRA:                  -0.126
REMARK UNBOUND:                -0.125
REMARK SMILES Cc1ccc(C(C)C)cc1O
REMARK SMILES IDX 1 1 2 2 10 3 9 4 5 5 4 6 3 7 11 8 6 10 7 11 8 12
REMARK H PARENT 11 9
REMARK Flexibility Score: inf
ROOT
ATOM      1  C   UNL     1      -5.361   2.460  12.703  1.00  0.00     0.048 C 
ATOM      2  C   UNL     1      -4.140   1.581  12.707  1.00  0.00    -0.009 A 
ATOM      3  C   UNL     1      -2.878   2.077  12.312  1.00  0.00     0.118 A 
ATOM      4  C   UNL     1      -1.762   1.233  12.327  1.00  0.00     0.050 A 
ATOM      5  C   UNL     1      -1.875  -0.108  12.730  1.00  0.00    -0.042 A 
ATOM      6  C   UNL     1      -3.134  -0.595  13.121  1.00  0.00     0.004 A 
ATOM      7  C   UNL     1      -4.252   0.240  13.109  1.00  0.00     0.007 A 
ENDROOT
BRANCH   3   8
ATOM      8  O   UNL     1      -2.701   3.401  11.901  1.00  0.00    -0.508 OA
ATOM      9  H   UNL     1      -3.472   4.041  11.754  1.00  0.00     0.293 HD
ENDBRANCH   3   8
BRANCH   5  10
ATOM     10  C   UNL     1      -0.651  -1.005  12.738  1.00  0.00     0.013 C 
ATOM     11  C   UNL     1      -0.655  -1.935  13.957  1.00  0.00     0.012 C 
ATOM     12  C   UNL     1      -0.542  -1.803  11.434  1.00  0.00     0.012 C 
ENDBRANCH   5  10
TORSDOF 2
ENDMDL
MODEL 7
REMARK VINA RESULT:    -5.083      2.576      4.839
REMARK INTER + INTRA:          -5.654
REMARK INTER:                  -5.528
REMARK INTRA:                  -0.126
REMARK UNBOUND:                -0.125
REMARK SMILES Cc1ccc(C(C)C)cc1O
REMARK SMILES IDX 1 1 2 2 10 3 9 4 5 5 4 6 3 7 11 8 6 10 7 11 8 12
REMARK H PARENT 11 9
REMARK Flexibility Score: inf
ROOT
ATOM      1  C   UNL     1      -4.564  -0.176  14.093  1.00  0.00     0.048 C 
ATOM      2  C   UNL     1      -4.923  -0.932  12.844  1.00  0.00    -0.009 A 
ATOM      3  C   UNL     1      -6.162  -0.730  12.196  1.00  0.00     0.118 A 
ATOM      4  C   UNL     1      -6.466  -1.450  11.035  1.00  0.00     0.050 A 
ATOM      5  C   UNL     1      -5.555  -2.375  10.498  1.00  0.00    -0.042 A 
ATOM      6  C   UNL     1      -4.324  -2.570  11.149  1.00  0.00     0.004 A 
ATOM      7  C   UNL     1      -4.013  -1.857  12.307  1.00  0.00     0.007 A 
ENDROOT
BRANCH   3   8
ATOM      8  O   UNL     1      -7.110   0.175  12.680  1.00  0.00    -0.508 OA
ATOM      9  H   UNL     1      -7.092   1.163  12.461  1.00  0.00     0.293 HD
ENDBRANCH   3   8
BRANCH   5  10
ATOM     10  C   UNL     1      -5.906  -3.144   9.238  1.00  0.00     0.013 C 
ATOM     11  C   UNL     1      -5.965  -2.214   8.021  1.00  0.00     0.012 C 
ATOM     12  C   UNL     1      -4.924  -4.298   9.004  1.00  0.00     0.012 C 
ENDBRANCH   5  10
TORSDOF 2
ENDMDL
MODEL 8
REMARK VINA RESULT:    -5.022      3.988      5.170
REMARK INTER + INTRA:          -5.588
REMARK INTER:                  -5.463
REMARK INTRA:                  -0.125
REMARK UNBOUND:                -0.125
REMARK SMILES Cc1ccc(C(C)C)cc1O
REMARK SMILES IDX 1 1 2 2 10 3 9 4 5 5 4 6 3 7 11 8 6 10 7 11 8 12
REMARK H PARENT 11 9
REMARK Flexibility Score: inf
ROOT
ATOM      1  C   UNL     1      -1.128   3.281   6.490  1.00  0.00     0.048 C 
ATOM      2  C   UNL     1      -1.688   2.114   7.255  1.00  0.00    -0.009 A 
ATOM      3  C   UNL     1      -0.905   0.970   7.526  1.00  0.00     0.118 A 
ATOM      4  C   UNL     1      -1.456  -0.099   8.240  1.00  0.00     0.050 A 
ATOM      5  C   UNL     1      -2.784  -0.055   8.696  1.00  0.00    -0.042 A 
ATOM      6  C   UNL     1      -3.558   1.086   8.423  1.00  0.00     0.004 A 
ATOM      7  C   UNL     1      -3.016   2.157   7.711  1.00  0.00     0.007 A 
ENDROOT
BRANCH   3   8
ATOM      8  O   UNL     1       0.422   0.867   7.099  1.00  0.00    -0.508 OA
ATOM      9  H   UNL     1       1.144   1.518   7.379  1.00  0.00     0.293 HD
ENDBRANCH   3   8
BRANCH   5  10
ATOM     10  C   UNL     1      -3.362  -1.226   9.469  1.00  0.00     0.013 C 
ATOM     11  C   UNL     1      -3.809  -0.797  10.871  1.00  0.00     0.012 C 
ATOM     12  C   UNL     1      -4.513  -1.883   8.699  1.00  0.00     0.012 C 
ENDBRANCH   5  10
TORSDOF 2
ENDMDL
MODEL 9
REMARK VINA RESULT:    -4.936      2.337      4.676
REMARK INTER + INTRA:          -5.494
REMARK INTER:                  -5.368
REMARK INTRA:                  -0.126
REMARK UNBOUND:                -0.125
REMARK SMILES Cc1ccc(C(C)C)cc1O
REMARK SMILES IDX 1 1 2 2 10 3 9 4 5 5 4 6 3 7 11 8 6 10 7 11 8 12
REMARK H PARENT 11 9
REMARK Flexibility Score: inf
ROOT
ATOM      1  C   UNL     1      -4.981   2.399  13.108  1.00  0.00     0.048 C 
ATOM      2  C   UNL     1      -5.274   1.226  12.213  1.00  0.00    -0.009 A 
ATOM      3  C   UNL     1      -6.510   0.547  12.276  1.00  0.00     0.118 A 
ATOM      4  C   UNL     1      -6.752  -0.541  11.430  1.00  0.00     0.050 A 
ATOM      5  C   UNL     1      -5.779  -0.973  10.512  1.00  0.00    -0.042 A 
ATOM      6  C   UNL     1      -4.551  -0.291  10.455  1.00  0.00     0.004 A 
ATOM      7  C   UNL     1      -4.302   0.794  11.295  1.00  0.00     0.007 A 
ENDROOT
BRANCH   3   8
ATOM      8  O   UNL     1      -7.517   0.927  13.168  1.00  0.00    -0.508 OA
ATOM      9  H   UNL     1      -8.503   0.828  12.962  1.00  0.00     0.293 HD
ENDBRANCH   3   8
BRANCH   5  10
ATOM     10  C   UNL     1      -6.062  -2.154   9.604  1.00  0.00     0.013 C 
ATOM     11  C   UNL     1      -4.777  -2.925   9.281  1.00  0.00     0.012 C 
ATOM     12  C   UNL     1      -7.122  -3.079  10.214  1.00  0.00     0.012 C 
ENDBRANCH   5  10
TORSDOF 2
ENDMDL
