MODEL 1
REMARK VINA RESULT:    -3.618      0.000      0.000
REMARK INTER + INTRA:          -6.176
REMARK INTER:                  -5.522
REMARK INTRA:                  -0.654
REMARK UNBOUND:                -0.654
REMARK SMILES O=C([O-])CCCCCCCCC(=O)[O-]
REMARK SMILES IDX 7 1 6 2 5 3 4 4 2 5 1 6 3 7 8 8 9 9 10 10 11 11 12 12 13 13
REMARK SMILES IDX 14 14
REMARK H PARENT
REMARK Flexibility Score: inf
ROOT
ATOM      1  C   UNL     1    -101.916  30.721 -38.476  1.00  0.00     0.000 C 
ENDROOT
BRANCH   1   2
ATOM      2  C   UNL     1    -101.142  30.774 -37.149  1.00  0.00     0.000 C 
BRANCH   2   3
ATOM      3  C   UNL     1    -100.002  31.807 -37.170  1.00  0.00     0.006 C 
BRANCH   3   4
ATOM      4  C   UNL     1     -99.118  31.669 -38.418  1.00  0.00     0.053 C 
BRANCH   4   5
ATOM      5  C   UNL     1     -98.224  32.858 -38.602  1.00  0.00     0.041 C 
ATOM      6  O   UNL     1     -98.540  33.970 -38.104  1.00  0.00    -0.550 OA
ATOM      7  O   UNL     1     -97.030  32.729 -39.298  1.00  0.00    -0.550 OA
ENDBRANCH   4   5
ENDBRANCH   3   4
ENDBRANCH   2   3
ENDBRANCH   1   2
BRANCH   1   8
ATOM      8  C   UNL     1    -103.428  30.539 -38.273  1.00  0.00     0.000 C 
BRANCH   8   9
ATOM      9  C   UNL     1    -104.208  31.708 -38.886  1.00  0.00     0.000 C 
BRANCH   9  10
ATOM     10  C   UNL     1    -104.735  32.651 -37.798  1.00  0.00     0.006 C 
BRANCH  10  11
ATOM     11  C   UNL     1    -104.862  31.925 -36.456  1.00  0.00     0.053 C 
BRANCH  11  12
ATOM     12  C   UNL     1    -104.259  32.743 -35.358  1.00  0.00     0.041 C 
ATOM     13  O   UNL     1    -103.047  33.079 -35.411  1.00  0.00    -0.550 OA
ATOM     14  O   UNL     1    -105.047  33.176 -34.300  1.00  0.00    -0.550 OA
ENDBRANCH  11  12
ENDBRANCH  10  11
ENDBRANCH   9  10
ENDBRANCH   8   9
ENDBRANCH   1   8
TORSDOF 9
ENDMDL
MODEL 2
REMARK VINA RESULT:    -3.515      1.458      1.868
REMARK INTER + INTRA:          -6.019
REMARK INTER:                  -5.623
REMARK INTRA:                  -0.396
REMARK UNBOUND:                -0.654
REMARK SMILES O=C([O-])CCCCCCCCC(=O)[O-]
REMARK SMILES IDX 7 1 6 2 5 3 4 4 2 5 1 6 3 7 8 8 9 9 10 10 11 11 12 12 13 13
REMARK SMILES IDX 14 14
REMARK H PARENT
REMARK Flexibility Score: inf
ROOT
ATOM      1  C   UNL     1    -101.751  31.030 -37.682  1.00  0.00     0.000 C 
ENDROOT
BRANCH   1   2
ATOM      2  C   UNL     1    -100.945  31.330 -36.408  1.00  0.00     0.000 C 
BRANCH   2   3
ATOM      3  C   UNL     1     -99.516  31.812 -36.711  1.00  0.00     0.006 C 
BRANCH   3   4
ATOM      4  C   UNL     1     -99.187  31.746 -38.209  1.00  0.00     0.053 C 
BRANCH   4   5
ATOM      5  C   UNL     1     -98.276  32.859 -38.629  1.00  0.00     0.041 C 
ATOM      6  O   UNL     1     -98.477  34.032 -38.218  1.00  0.00    -0.550 OA
ATOM      7  O   UNL     1     -97.187  32.595 -39.450  1.00  0.00    -0.550 OA
ENDBRANCH   4   5
ENDBRANCH   3   4
ENDBRANCH   2   3
ENDBRANCH   1   2
BRANCH   1   8
ATOM      8  C   UNL     1    -103.255  31.289 -37.507  1.00  0.00     0.000 C 
BRANCH   8   9
ATOM      9  C   UNL     1    -103.906  31.668 -38.842  1.00  0.00     0.000 C 
BRANCH   9  10
ATOM     10  C   UNL     1    -105.432  31.728 -38.714  1.00  0.00     0.006 C 
BRANCH  10  11
ATOM     11  C   UNL     1    -105.886  33.088 -38.176  1.00  0.00     0.053 C 
BRANCH  11  12
ATOM     12  C   UNL     1    -106.674  32.917 -36.916  1.00  0.00     0.041 C 
ATOM     13  O   UNL     1    -107.925  33.056 -36.927  1.00  0.00    -0.550 OA
ATOM     14  O   UNL     1    -106.032  32.556 -35.739  1.00  0.00    -0.550 OA
ENDBRANCH  11  12
ENDBRANCH  10  11
ENDBRANCH   9  10
ENDBRANCH   8   9
ENDBRANCH   1   8
TORSDOF 9
ENDMDL
MODEL 3
REMARK VINA RESULT:    -3.497      1.938      3.008
REMARK INTER + INTRA:          -5.990
REMARK INTER:                  -5.233
REMARK INTRA:                  -0.757
REMARK UNBOUND:                -0.654
REMARK SMILES O=C([O-])CCCCCCCCC(=O)[O-]
REMARK SMILES IDX 7 1 6 2 5 3 4 4 2 5 1 6 3 7 8 8 9 9 10 10 11 11 12 12 13 13
REMARK SMILES IDX 14 14
REMARK H PARENT
REMARK Flexibility Score: inf
ROOT
ATOM      1  C   UNL     1     -99.457  30.753 -34.898  1.00  0.00     0.000 C 
ENDROOT
BRANCH   1   2
ATOM      2  C   UNL     1     -99.769  30.430 -36.367  1.00  0.00     0.000 C 
BRANCH   2   3
ATOM      3  C   UNL     1     -99.974  31.694 -37.221  1.00  0.00     0.006 C 
BRANCH   3   4
ATOM      4  C   UNL     1     -99.139  31.665 -38.508  1.00  0.00     0.053 C 
BRANCH   4   5
ATOM      5  C   UNL     1     -98.232  32.854 -38.612  1.00  0.00     0.041 C 
ATOM      6  O   UNL     1     -98.546  33.940 -38.056  1.00  0.00    -0.550 OA
ATOM      7  O   UNL     1     -97.027  32.753 -39.294  1.00  0.00    -0.550 OA
ENDBRANCH   4   5
ENDBRANCH   3   4
ENDBRANCH   2   3
ENDBRANCH   1   2
BRANCH   1   8
ATOM      8  C   UNL     1    -100.660  31.353 -34.154  1.00  0.00     0.000 C 
BRANCH   8   9
ATOM      9  C   UNL     1    -101.670  30.263 -33.776  1.00  0.00     0.000 C 
BRANCH   9  10
ATOM     10  C   UNL     1    -103.032  30.523 -34.429  1.00  0.00     0.006 C 
BRANCH  10  11
ATOM     11  C   UNL     1    -103.134  31.966 -34.933  1.00  0.00     0.053 C 
BRANCH  11  12
ATOM     12  C   UNL     1    -103.758  32.004 -36.292  1.00  0.00     0.041 C 
ATOM     13  O   UNL     1    -104.553  32.931 -36.599  1.00  0.00    -0.550 OA
ATOM     14  O   UNL     1    -103.424  31.043 -37.237  1.00  0.00    -0.550 OA
ENDBRANCH  11  12
ENDBRANCH  10  11
ENDBRANCH   9  10
ENDBRANCH   8   9
ENDBRANCH   1   8
TORSDOF 9
ENDMDL
MODEL 4
REMARK VINA RESULT:    -3.462      1.773      6.095
REMARK INTER + INTRA:          -5.937
REMARK INTER:                  -5.326
REMARK INTRA:                  -0.612
REMARK UNBOUND:                -0.654
REMARK SMILES O=C([O-])CCCCCCCCC(=O)[O-]
REMARK SMILES IDX 7 1 6 2 5 3 4 4 2 5 1 6 3 7 8 8 9 9 10 10 11 11 12 12 13 13
REMARK SMILES IDX 14 14
REMARK H PARENT
REMARK Flexibility Score: inf
ROOT
ATOM      1  C   UNL     1    -100.536  30.245 -34.914  1.00  0.00     0.000 C 
ENDROOT
BRANCH   1   2
ATOM      2  C   UNL     1    -100.951  30.979 -33.629  1.00  0.00     0.000 C 
BRANCH   2   3
ATOM      3  C   UNL     1    -102.428  30.750 -33.266  1.00  0.00     0.006 C 
BRANCH   3   4
ATOM      4  C   UNL     1    -103.215  32.065 -33.180  1.00  0.00     0.053 C 
BRANCH   4   5
ATOM      5  C   UNL     1    -104.083  32.276 -34.383  1.00  0.00     0.041 C 
ATOM      6  O   UNL     1    -103.932  33.299 -35.101  1.00  0.00    -0.550 OA
ATOM      7  O   UNL     1    -105.036  31.327 -34.729  1.00  0.00    -0.550 OA
ENDBRANCH   4   5
ENDBRANCH   3   4
ENDBRANCH   2   3
ENDBRANCH   1   2
BRANCH   1   8
ATOM      8  C   UNL     1    -101.615  30.307 -36.006  1.00  0.00     0.000 C 
BRANCH   8   9
ATOM      9  C   UNL     1    -101.252  31.342 -37.077  1.00  0.00     0.000 C 
BRANCH   9  10
ATOM     10  C   UNL     1     -99.763  31.703 -37.014  1.00  0.00     0.006 C 
BRANCH  10  11
ATOM     11  C   UNL     1     -99.126  31.656 -38.406  1.00  0.00     0.053 C 
BRANCH  11  12
ATOM     12  C   UNL     1     -98.239  32.842 -38.617  1.00  0.00     0.041 C 
ATOM     13  O   UNL     1     -98.552  33.962 -38.133  1.00  0.00    -0.550 OA
ATOM     14  O   UNL     1     -97.042  32.701 -39.305  1.00  0.00    -0.550 OA
ENDBRANCH  11  12
ENDBRANCH  10  11
ENDBRANCH   9  10
ENDBRANCH   8   9
ENDBRANCH   1   8
TORSDOF 9
ENDMDL
MODEL 5
REMARK VINA RESULT:    -3.456      1.127      6.381
REMARK INTER + INTRA:          -5.929
REMARK INTER:                  -5.423
REMARK INTRA:                  -0.506
REMARK UNBOUND:                -0.654
REMARK SMILES O=C([O-])CCCCCCCCC(=O)[O-]
REMARK SMILES IDX 7 1 6 2 5 3 4 4 2 5 1 6 3 7 8 8 9 9 10 10 11 11 12 12 13 13
REMARK SMILES IDX 14 14
REMARK H PARENT
REMARK Flexibility Score: inf
ROOT
ATOM      1  C   UNL     1    -103.151  31.137 -38.288  1.00  0.00     0.000 C 
ENDROOT
BRANCH   1   2
ATOM      2  C   UNL     1    -103.832  31.056 -36.913  1.00  0.00     0.000 C 
BRANCH   2   3
ATOM      3  C   UNL     1    -104.569  32.354 -36.539  1.00  0.00     0.006 C 
BRANCH   3   4
ATOM      4  C   UNL     1    -104.127  32.898 -35.174  1.00  0.00     0.053 C 
BRANCH   4   5
ATOM      5  C   UNL     1    -105.273  32.988 -34.212  1.00  0.00     0.041 C 
ATOM      6  O   UNL     1    -106.432  32.655 -34.575  1.00  0.00    -0.550 OA
ATOM      7  O   UNL     1    -105.055  33.409 -32.906  1.00  0.00    -0.550 OA
ENDBRANCH   4   5
ENDBRANCH   3   4
ENDBRANCH   2   3
ENDBRANCH   1   2
BRANCH   1   8
ATOM      8  C   UNL     1    -101.626  30.967 -38.204  1.00  0.00     0.000 C 
BRANCH   8   9
ATOM      9  C   UNL     1    -101.095  31.440 -36.846  1.00  0.00     0.000 C 
BRANCH   9  10
ATOM     10  C   UNL     1     -99.615  31.830 -36.938  1.00  0.00     0.006 C 
BRANCH  10  11
ATOM     11  C   UNL     1     -99.093  31.676 -38.370  1.00  0.00     0.053 C 
BRANCH  11  12
ATOM     12  C   UNL     1     -98.209  32.827 -38.733  1.00  0.00     0.041 C 
ATOM     13  O   UNL     1     -98.470  33.984 -38.311  1.00  0.00    -0.550 OA
ATOM     14  O   UNL     1     -97.069  32.614 -39.496  1.00  0.00    -0.550 OA
ENDBRANCH  11  12
ENDBRANCH  10  11
ENDBRANCH   9  10
ENDBRANCH   8   9
ENDBRANCH   1   8
TORSDOF 9
ENDMDL
MODEL 6
REMARK VINA RESULT:    -3.419      1.911      6.495
REMARK INTER + INTRA:          -5.872
REMARK INTER:                  -5.593
REMARK INTRA:                  -0.278
REMARK UNBOUND:                -0.654
REMARK SMILES O=C([O-])CCCCCCCCC(=O)[O-]
REMARK SMILES IDX 7 1 6 2 5 3 4 4 2 5 1 6 3 7 8 8 9 9 10 10 11 11 12 12 13 13
REMARK SMILES IDX 14 14
REMARK H PARENT
REMARK Flexibility Score: inf
ROOT
ATOM      1  C   UNL     1    -102.717  30.112 -38.900  1.00  0.00     0.000 C 
ENDROOT
BRANCH   1   2
ATOM      2  C   UNL     1    -103.543  31.314 -38.415  1.00  0.00     0.000 C 
BRANCH   2   3
ATOM      3  C   UNL     1    -104.783  31.571 -39.288  1.00  0.00     0.006 C 
BRANCH   3   4
ATOM      4  C   UNL     1    -106.076  31.613 -38.460  1.00  0.00     0.053 C 
BRANCH   4   5
ATOM      5  C   UNL     1    -106.225  32.910 -37.725  1.00  0.00     0.041 C 
ATOM      6  O   UNL     1    -105.615  33.937 -38.122  1.00  0.00    -0.550 OA
ATOM      7  O   UNL     1    -107.063  32.991 -36.620  1.00  0.00    -0.550 OA
ENDBRANCH   4   5
ENDBRANCH   3   4
ENDBRANCH   2   3
ENDBRANCH   1   2
BRANCH   1   8
ATOM      8  C   UNL     1    -101.226  30.445 -39.063  1.00  0.00     0.000 C 
BRANCH   8   9
ATOM      9  C   UNL     1    -100.720  31.289 -37.887  1.00  0.00     0.000 C 
BRANCH   9  10
ATOM     10  C   UNL     1     -99.193  31.419 -37.918  1.00  0.00     0.006 C 
BRANCH  10  11
ATOM     11  C   UNL     1     -98.768  32.888 -38.010  1.00  0.00     0.053 C 
BRANCH  11  12
ATOM     12  C   UNL     1     -97.876  33.102 -39.192  1.00  0.00     0.041 C 
ATOM     13  O   UNL     1     -96.653  32.811 -39.124  1.00  0.00    -0.550 OA
ATOM     14  O   UNL     1     -98.405  33.577 -40.385  1.00  0.00    -0.550 OA
ENDBRANCH  11  12
ENDBRANCH  10  11
ENDBRANCH   9  10
ENDBRANCH   8   9
ENDBRANCH   1   8
TORSDOF 9
ENDMDL
MODEL 7
REMARK VINA RESULT:    -3.373      1.755      6.091
REMARK INTER + INTRA:          -5.801
REMARK INTER:                  -5.147
REMARK INTRA:                  -0.654
REMARK UNBOUND:                -0.654
REMARK SMILES O=C([O-])CCCCCCCCC(=O)[O-]
REMARK SMILES IDX 7 1 6 2 5 3 4 4 2 5 1 6 3 7 8 8 9 9 10 10 11 11 12 12 13 13
REMARK SMILES IDX 14 14
REMARK H PARENT
REMARK Flexibility Score: inf
ROOT
ATOM      1  C   UNL     1    -100.936  30.986 -33.918  1.00  0.00     0.000 C 
ENDROOT
BRANCH   1   2
ATOM      2  C   UNL     1    -102.325  30.790 -34.545  1.00  0.00     0.000 C 
BRANCH   2   3
ATOM      3  C   UNL     1    -103.232  32.020 -34.371  1.00  0.00     0.006 C 
BRANCH   3   4
ATOM      4  C   UNL     1    -103.514  32.727 -35.704  1.00  0.00     0.053 C 
BRANCH   4   5
ATOM      5  C   UNL     1    -104.950  32.596 -36.113  1.00  0.00     0.041 C 
ATOM      6  O   UNL     1    -105.748  31.919 -35.413  1.00  0.00    -0.550 OA
ATOM      7  O   UNL     1    -105.412  33.248 -37.248  1.00  0.00    -0.550 OA
ENDBRANCH   4   5
ENDBRANCH   3   4
ENDBRANCH   2   3
ENDBRANCH   1   2
BRANCH   1   8
ATOM      8  C   UNL     1     -99.862  31.345 -34.956  1.00  0.00     0.000 C 
BRANCH   8   9
ATOM      9  C   UNL     1    -100.165  30.690 -36.308  1.00  0.00     0.000 C 
BRANCH   9  10
ATOM     10  C   UNL     1    -100.292  31.744 -37.415  1.00  0.00     0.006 C 
BRANCH  10  11
ATOM     11  C   UNL     1     -99.221  31.543 -38.491  1.00  0.00     0.053 C 
BRANCH  11  12
ATOM     12  C   UNL     1     -98.297  32.719 -38.536  1.00  0.00     0.041 C 
ATOM     13  O   UNL     1     -97.236  32.666 -39.211  1.00  0.00    -0.550 OA
ATOM     14  O   UNL     1     -98.632  33.892 -37.873  1.00  0.00    -0.550 OA
ENDBRANCH  11  12
ENDBRANCH  10  11
ENDBRANCH   9  10
ENDBRANCH   8   9
ENDBRANCH   1   8
TORSDOF 9
ENDMDL
MODEL 8
REMARK VINA RESULT:    -3.350      2.247      3.101
REMARK INTER + INTRA:          -5.766
REMARK INTER:                  -5.154
REMARK INTRA:                  -0.613
REMARK UNBOUND:                -0.654
REMARK SMILES O=C([O-])CCCCCCCCC(=O)[O-]
REMARK SMILES IDX 7 1 6 2 5 3 4 4 2 5 1 6 3 7 8 8 9 9 10 10 11 11 12 12 13 13
REMARK SMILES IDX 14 14
REMARK H PARENT
REMARK Flexibility Score: inf
ROOT
ATOM      1  C   UNL     1    -102.006  32.380 -35.106  1.00  0.00     0.000 C 
ENDROOT
BRANCH   1   2
ATOM      2  C   UNL     1    -100.907  31.434 -34.597  1.00  0.00     0.000 C 
BRANCH   2   3
ATOM      3  C   UNL     1     -99.725  31.319 -35.575  1.00  0.00     0.006 C 
BRANCH   3   4
ATOM      4  C   UNL     1     -99.867  32.271 -36.771  1.00  0.00     0.053 C 
BRANCH   4   5
ATOM      5  C   UNL     1     -99.353  31.657 -38.037  1.00  0.00     0.041 C 
ATOM      6  O   UNL     1     -98.568  32.303 -38.781  1.00  0.00    -0.550 OA
ATOM      7  O   UNL     1     -99.716  30.362 -38.381  1.00  0.00    -0.550 OA
ENDBRANCH   4   5
ENDBRANCH   3   4
ENDBRANCH   2   3
ENDBRANCH   1   2
BRANCH   1   8
ATOM      8  C   UNL     1    -103.421  31.853 -34.819  1.00  0.00     0.000 C 
BRANCH   8   9
ATOM      9  C   UNL     1    -104.481  32.896 -35.193  1.00  0.00     0.000 C 
BRANCH   9  10
ATOM     10  C   UNL     1    -105.385  32.384 -36.320  1.00  0.00     0.006 C 
BRANCH  10  11
ATOM     11  C   UNL     1    -104.985  32.994 -37.667  1.00  0.00     0.053 C 
BRANCH  11  12
ATOM     12  C   UNL     1    -104.387  31.952 -38.558  1.00  0.00     0.041 C 
ATOM     13  O   UNL     1    -103.210  31.550 -38.363  1.00  0.00    -0.550 OA
ATOM     14  O   UNL     1    -105.147  31.387 -39.574  1.00  0.00    -0.550 OA
ENDBRANCH  11  12
ENDBRANCH  10  11
ENDBRANCH   9  10
ENDBRANCH   8   9
ENDBRANCH   1   8
TORSDOF 9
ENDMDL
MODEL 9
REMARK VINA RESULT:    -3.325     15.474     16.695
REMARK INTER + INTRA:          -5.728
REMARK INTER:                  -5.011
REMARK INTRA:                  -0.717
REMARK UNBOUND:                -0.654
REMARK SMILES O=C([O-])CCCCCCCCC(=O)[O-]
REMARK SMILES IDX 7 1 6 2 5 3 4 4 2 5 1 6 3 7 8 8 9 9 10 10 11 11 12 12 13 13
REMARK SMILES IDX 14 14
REMARK H PARENT
REMARK Flexibility Score: inf
ROOT
ATOM      1  C   UNL     1     -96.116  45.959 -39.309  1.00  0.00     0.000 C 
ENDROOT
BRANCH   1   2
ATOM      2  C   UNL     1     -95.358  47.291 -39.421  1.00  0.00     0.000 C 
BRANCH   2   3
ATOM      3  C   UNL     1     -95.858  48.161 -40.587  1.00  0.00     0.006 C 
BRANCH   3   4
ATOM      4  C   UNL     1     -96.615  47.338 -41.640  1.00  0.00     0.053 C 
BRANCH   4   5
ATOM      5  C   UNL     1     -97.293  48.214 -42.650  1.00  0.00     0.041 C 
ATOM      6  O   UNL     1     -96.609  48.908 -43.447  1.00  0.00    -0.550 OA
ATOM      7  O   UNL     1     -98.679  48.238 -42.731  1.00  0.00    -0.550 OA
ENDBRANCH   4   5
ENDBRANCH   3   4
ENDBRANCH   2   3
ENDBRANCH   1   2
BRANCH   1   8
ATOM      8  C   UNL     1     -96.475  45.602 -37.858  1.00  0.00     0.000 C 
BRANCH   8   9
ATOM      9  C   UNL     1     -95.658  46.440 -36.868  1.00  0.00     0.000 C 
BRANCH   9  10
ATOM     10  C   UNL     1     -96.564  47.088 -35.815  1.00  0.00     0.006 C 
BRANCH  10  11
ATOM     11  C   UNL     1     -98.021  47.118 -36.286  1.00  0.00     0.053 C 
BRANCH  11  12
ATOM     12  C   UNL     1     -98.432  48.515 -36.629  1.00  0.00     0.041 C 
ATOM     13  O   UNL     1     -99.496  48.996 -36.158  1.00  0.00    -0.550 OA
ATOM     14  O   UNL     1     -97.616  49.303 -37.429  1.00  0.00    -0.550 OA
ENDBRANCH  11  12
ENDBRANCH  10  11
ENDBRANCH   9  10
ENDBRANCH   8   9
ENDBRANCH   1   8
TORSDOF 9
ENDMDL
