MODEL 1
REMARK VINA RESULT:    -4.305      0.000      0.000
REMARK INTER + INTRA:          -6.207
REMARK INTER:                  -6.067
REMARK INTRA:                  -0.140
REMARK UNBOUND:                -0.140
REMARK SMILES CC1=CCC(=C(C)C)C(=O)CC(C)=CCC1
REMARK SMILES IDX 12 1 14 2 13 3 15 4 16 5 2 6 1 7 3 8 11 10 9 11 10 12 5 13
REMARK SMILES IDX 6 14 7 15 8 16 4 17
REMARK H PARENT
REMARK Flexibility Score: 60.00
ROOT
ATOM      1  C   UNL     1      99.803 118.108 125.326  1.00  0.00    -0.070 C 
ATOM      2  C   UNL     1     100.374 117.174 126.121  1.00  0.00    -0.027 C 
ATOM      3  C   UNL     1      99.868 119.549 125.764  1.00  0.00     0.039 C 
ENDROOT
BRANCH   2   4
ATOM      4  C   UNL     1     100.275 115.684 125.912  1.00  0.00     0.032 C 
BRANCH   4   5
ATOM      5  C   UNL     1     101.482 115.191 125.106  1.00  0.00     0.034 C 
BRANCH   5   6
ATOM      6  C   UNL     1     101.094 114.195 124.031  1.00  0.00    -0.077 C 
ATOM      7  C   UNL     1     100.707 112.798 124.448  1.00  0.00     0.039 C 
ATOM      8  C   UNL     1     101.004 114.508 122.715  1.00  0.00    -0.023 CG0
ATOM      9  G   UNL     1     101.391 115.816 122.049  1.00  0.00     0.000 G0
ENDBRANCH   5   6
ENDBRANCH   4   5
ENDBRANCH   2   4
BRANCH   1  10
ATOM     10  C   UNL     1      99.121 117.780 124.012  1.00  0.00     0.111 C 
BRANCH  10  11
ATOM     11  C   UNL     1     100.065 117.908 122.841  1.00  0.00     0.163 C 
ATOM     12  O   UNL     1     100.724 118.979 122.750  1.00  0.00    -0.294 OA
BRANCH  11  13
ATOM     13  C   UNL     1     100.269 116.834 121.813  1.00  0.00    -0.002 C 
ATOM     14  C   UNL     1      99.575 116.859 120.634  1.00  0.00    -0.069 C 
ATOM     15  C   UNL     1      99.916 115.939 119.483  1.00  0.00     0.039 C 
ATOM     16  C   UNL     1      98.391 117.778 120.434  1.00  0.00     0.039 C 
BRANCH  13  17
ATOM     17  C   UNL     1     101.395 115.832 122.044  1.00  0.00     0.066 CG0
ATOM     18  G   UNL     1     101.012 114.528 122.719  1.00  0.00     0.000 G0
ENDBRANCH  13  17
ENDBRANCH  11  13
ENDBRANCH  10  11
ENDBRANCH   1  10
TORSDOF 0
ENDMDL
MODEL 2
REMARK VINA RESULT:    -4.248      1.873      4.239
REMARK INTER + INTRA:          -6.126
REMARK INTER:                  -5.953
REMARK INTRA:                  -0.173
REMARK UNBOUND:                -0.140
REMARK SMILES CC1=CCC(=C(C)C)C(=O)CC(C)=CCC1
REMARK SMILES IDX 12 1 14 2 13 3 15 4 16 5 2 6 1 7 3 8 11 10 9 11 10 12 5 13
REMARK SMILES IDX 6 14 7 15 8 16 4 17
REMARK H PARENT
REMARK Flexibility Score: 60.00
ROOT
ATOM      1  C   UNL     1     100.288 116.357 121.699  1.00  0.00    -0.070 C 
ATOM      2  C   UNL     1     100.529 115.189 122.340  1.00  0.00    -0.027 C 
ATOM      3  C   UNL     1      99.513 116.310 120.407  1.00  0.00     0.039 C 
ENDROOT
BRANCH   2   4
ATOM      4  C   UNL     1     101.406 115.037 123.557  1.00  0.00     0.032 C 
BRANCH   4   5
ATOM      5  C   UNL     1     100.535 114.883 124.809  1.00  0.00     0.034 C 
BRANCH   5   6
ATOM      6  C   UNL     1     101.053 115.695 125.979  1.00  0.00    -0.077 C 
ATOM      7  C   UNL     1     102.153 115.114 126.830  1.00  0.00     0.039 C 
ATOM      8  C   UNL     1     100.632 116.953 126.264  1.00  0.00    -0.023 CG0
ATOM      9  G   UNL     1      99.508 117.724 125.596  1.00  0.00     0.000 G0
ENDBRANCH   5   6
ENDBRANCH   4   5
ENDBRANCH   2   4
BRANCH   1  10
ATOM     10  C   UNL     1     100.738 117.705 122.226  1.00  0.00     0.111 C 
BRANCH  10  11
ATOM     11  C   UNL     1      99.682 118.354 123.088  1.00  0.00     0.163 C 
ATOM     12  O   UNL     1      98.553 118.550 122.562  1.00  0.00    -0.294 OA
BRANCH  11  13
ATOM     13  C   UNL     1      99.900 118.748 124.520  1.00  0.00    -0.002 C 
ATOM     14  C   UNL     1     100.278 120.023 124.840  1.00  0.00    -0.069 C 
ATOM     15  C   UNL     1     100.282 120.524 126.268  1.00  0.00     0.039 C 
ATOM     16  C   UNL     1     100.763 120.992 123.785  1.00  0.00     0.039 C 
BRANCH  13  17
ATOM     17  C   UNL     1      99.511 117.745 125.601  1.00  0.00     0.066 CG0
ATOM     18  G   UNL     1     100.649 116.984 126.257  1.00  0.00     0.000 G0
ENDBRANCH  13  17
ENDBRANCH  11  13
ENDBRANCH  10  11
ENDBRANCH   1  10
TORSDOF 0
ENDMDL
MODEL 3
REMARK VINA RESULT:    -4.058      1.080      1.213
REMARK INTER + INTRA:          -5.858
REMARK INTER:                  -6.085
REMARK INTRA:                   0.227
REMARK UNBOUND:                -0.140
REMARK SMILES CC1=CCC(=C(C)C)C(=O)CC(C)=CCC1
REMARK SMILES IDX 12 1 14 2 13 3 15 4 16 5 2 6 1 7 3 8 11 10 9 11 10 12 5 13
REMARK SMILES IDX 6 14 7 15 8 16 4 17
REMARK H PARENT
REMARK Flexibility Score: 60.00
ROOT
ATOM      1  C   UNL     1     100.239 116.716 125.844  1.00  0.00    -0.070 C 
ATOM      2  C   UNL     1     101.065 115.914 126.555  1.00  0.00    -0.027 C 
ATOM      3  C   UNL     1     100.061 118.140 126.305  1.00  0.00     0.039 C 
ENDROOT
BRANCH   2   4
ATOM      4  C   UNL     1     101.245 114.436 126.324  1.00  0.00     0.032 C 
BRANCH   4   5
ATOM      5  C   UNL     1     102.375 114.201 125.314  1.00  0.00     0.034 C 
BRANCH   5   6
ATOM      6  C   UNL     1     101.936 113.349 124.140  1.00  0.00    -0.077 C 
ATOM      7  C   UNL     1     101.708 111.875 124.363  1.00  0.00     0.039 C 
ATOM      8  C   UNL     1     101.664 113.850 122.910  1.00  0.00    -0.023 CG0
ATOM      9  G   UNL     1     101.869 115.275 122.428  1.00  0.00     0.000 G0
ENDBRANCH   5   6
ENDBRANCH   4   5
ENDBRANCH   2   4
BRANCH   1  10
ATOM     10  C   UNL     1      99.503 116.260 124.600  1.00  0.00     0.111 C 
BRANCH  10  11
ATOM     11  C   UNL     1     100.069 116.889 123.349  1.00  0.00     0.163 C 
ATOM     12  O   UNL     1     100.101 118.149 123.305  1.00  0.00    -0.294 OA
BRANCH  11  13
ATOM     13  C   UNL     1     100.603 116.103 122.188  1.00  0.00    -0.002 C 
ATOM     14  C   UNL     1     100.068 116.257 120.938  1.00  0.00    -0.069 C 
ATOM     15  C   UNL     1     100.721 115.666 119.708  1.00  0.00     0.039 C 
ATOM     16  C   UNL     1      98.761 116.987 120.724  1.00  0.00     0.039 C 
BRANCH  13  17
ATOM     17  C   UNL     1     101.866 115.277 122.409  1.00  0.00     0.066 CG0
ATOM     18  G   UNL     1     101.668 113.864 122.926  1.00  0.00     0.000 G0
ENDBRANCH  13  17
ENDBRANCH  11  13
ENDBRANCH  10  11
ENDBRANCH   1  10
TORSDOF 0
ENDMDL
MODEL 4
REMARK VINA RESULT:    -4.051      1.966      3.957
REMARK INTER + INTRA:          -5.849
REMARK INTER:                  -5.751
REMARK INTRA:                  -0.097
REMARK UNBOUND:                -0.140
REMARK SMILES CC1=CCC(=C(C)C)C(=O)CC(C)=CCC1
REMARK SMILES IDX 12 1 14 2 13 3 15 4 16 5 2 6 1 7 3 8 11 10 9 11 10 12 5 13
REMARK SMILES IDX 6 14 7 15 8 16 4 17
REMARK H PARENT
REMARK Flexibility Score: 60.00
ROOT
ATOM      1  C   UNL     1     102.101 113.759 125.280  1.00  0.00    -0.070 C 
ATOM      2  C   UNL     1     101.502 114.175 126.420  1.00  0.00    -0.027 C 
ATOM      3  C   UNL     1     102.388 112.287 125.125  1.00  0.00     0.039 C 
ENDROOT
BRANCH   2   4
ATOM      4  C   UNL     1     101.276 115.615 126.801  1.00  0.00     0.032 C 
BRANCH   4   5
ATOM      5  C   UNL     1      99.879 116.060 126.350  1.00  0.00     0.034 C 
BRANCH   5   6
ATOM      6  C   UNL     1      99.895 117.409 125.659  1.00  0.00    -0.077 C 
ATOM      7  C   UNL     1     100.078 118.647 126.500  1.00  0.00     0.039 C 
ATOM      8  C   UNL     1      99.826 117.565 124.314  1.00  0.00    -0.023 CG0
ATOM      9  G   UNL     1      99.586 116.488 123.272  1.00  0.00     0.000 G0
ENDBRANCH   5   6
ENDBRANCH   4   5
ENDBRANCH   2   4
BRANCH   1  10
ATOM     10  C   UNL     1     102.477 114.694 124.147  1.00  0.00     0.111 C 
BRANCH  10  11
ATOM     11  C   UNL     1     101.437 114.699 123.052  1.00  0.00     0.163 C 
ATOM     12  O   UNL     1     101.093 113.580 122.583  1.00  0.00    -0.294 OA
BRANCH  11  13
ATOM     13  C   UNL     1     100.790 115.944 122.522  1.00  0.00    -0.002 C 
ATOM     14  C   UNL     1     101.189 116.481 121.327  1.00  0.00    -0.069 C 
ATOM     15  C   UNL     1     100.415 117.588 120.648  1.00  0.00     0.039 C 
ATOM     16  C   UNL     1     102.458 116.027 120.643  1.00  0.00     0.039 C 
BRANCH  13  17
ATOM     17  C   UNL     1      99.566 116.479 123.257  1.00  0.00     0.066 CG0
ATOM     18  G   UNL     1      99.820 117.548 124.305  1.00  0.00     0.000 G0
ENDBRANCH  13  17
ENDBRANCH  11  13
ENDBRANCH  10  11
ENDBRANCH   1  10
TORSDOF 0
ENDMDL
MODEL 5
REMARK VINA RESULT:    -3.991      2.635      5.030
REMARK INTER + INTRA:          -5.764
REMARK INTER:                  -5.595
REMARK INTRA:                  -0.169
REMARK UNBOUND:                -0.140
REMARK SMILES CC1=CCC(=C(C)C)C(=O)CC(C)=CCC1
REMARK SMILES IDX 12 1 14 2 13 3 15 4 16 5 2 6 1 7 3 8 11 10 9 11 10 12 5 13
REMARK SMILES IDX 6 14 7 15 8 16 4 17
REMARK H PARENT
REMARK Flexibility Score: 60.00
ROOT
ATOM      1  C   UNL     1     100.613 115.644 125.282  1.00  0.00    -0.070 C 
ATOM      2  C   UNL     1     100.412 116.269 124.098  1.00  0.00    -0.027 C 
ATOM      3  C   UNL     1      99.776 116.069 126.460  1.00  0.00     0.039 C 
ENDROOT
BRANCH   2   4
ATOM      4  C   UNL     1     101.254 116.073 122.864  1.00  0.00     0.032 C 
BRANCH   4   5
ATOM      5  C   UNL     1     100.556 115.101 121.907  1.00  0.00     0.034 C 
BRANCH   5   6
ATOM      6  C   UNL     1     101.512 114.085 121.313  1.00  0.00    -0.077 C 
ATOM      7  C   UNL     1     102.391 114.508 120.163  1.00  0.00     0.039 C 
ATOM      8  C   UNL     1     101.675 112.832 121.803  1.00  0.00    -0.023 CG0
ATOM      9  G   UNL     1     100.876 112.161 122.906  1.00  0.00     0.000 G0
ENDBRANCH   5   6
ENDBRANCH   4   5
ENDBRANCH   2   4
BRANCH   1  10
ATOM     10  C   UNL     1     101.622 114.529 125.475  1.00  0.00     0.111 C 
BRANCH  10  11
ATOM     11  C   UNL     1     100.999 113.167 125.282  1.00  0.00     0.163 C 
ATOM     12  O   UNL     1      99.986 112.896 125.982  1.00  0.00    -0.294 OA
BRANCH  11  13
ATOM     13  C   UNL     1     101.504 112.150 124.301  1.00  0.00    -0.002 C 
ATOM     14  C   UNL     1     102.371 111.170 124.700  1.00  0.00    -0.069 C 
ATOM     15  C   UNL     1     102.719 109.997 123.811  1.00  0.00     0.039 C 
ATOM     16  C   UNL     1     103.071 111.232 126.039  1.00  0.00     0.039 C 
BRANCH  13  17
ATOM     17  C   UNL     1     100.882 112.134 122.909  1.00  0.00     0.066 CG0
ATOM     18  G   UNL     1     101.668 112.824 121.809  1.00  0.00     0.000 G0
ENDBRANCH  13  17
ENDBRANCH  11  13
ENDBRANCH  10  11
ENDBRANCH   1  10
TORSDOF 0
ENDMDL
MODEL 6
REMARK VINA RESULT:    -3.967      2.592      4.907
REMARK INTER + INTRA:          -5.730
REMARK INTER:                  -6.042
REMARK INTRA:                   0.312
REMARK UNBOUND:                -0.140
REMARK SMILES CC1=CCC(=C(C)C)C(=O)CC(C)=CCC1
REMARK SMILES IDX 12 1 14 2 13 3 15 4 16 5 2 6 1 7 3 8 11 10 9 11 10 12 5 13
REMARK SMILES IDX 6 14 7 15 8 16 4 17
REMARK H PARENT
REMARK Flexibility Score: 60.00
ROOT
ATOM      1  C   UNL     1     101.233 113.140 126.266  1.00  0.00    -0.070 C 
ATOM      2  C   UNL     1     101.030 114.331 126.876  1.00  0.00    -0.027 C 
ATOM      3  C   UNL     1     102.371 112.280 126.752  1.00  0.00     0.039 C 
ENDROOT
BRANCH   2   4
ATOM      4  C   UNL     1     100.038 115.374 126.426  1.00  0.00     0.032 C 
BRANCH   4   5
ATOM      5  C   UNL     1     100.724 116.373 125.488  1.00  0.00     0.034 C 
BRANCH   5   6
ATOM      6  C   UNL     1     100.399 116.117 124.030  1.00  0.00    -0.077 C 
ATOM      7  C   UNL     1      99.125 116.692 123.463  1.00  0.00     0.039 C 
ATOM      8  C   UNL     1     101.225 115.458 123.181  1.00  0.00    -0.023 CG0
ATOM      9  G   UNL     1     102.522 114.746 123.522  1.00  0.00     0.000 G0
ENDBRANCH   5   6
ENDBRANCH   4   5
ENDBRANCH   2   4
BRANCH   1  10
ATOM     10  C   UNL     1     100.364 112.622 125.138  1.00  0.00     0.111 C 
BRANCH  10  11
ATOM     11  C   UNL     1     101.112 112.575 123.827  1.00  0.00     0.163 C 
ATOM     12  O   UNL     1     100.550 111.982 122.867  1.00  0.00    -0.294 OA
BRANCH  11  13
ATOM     13  C   UNL     1     102.455 113.207 123.609  1.00  0.00    -0.002 C 
ATOM     14  C   UNL     1     103.551 112.436 123.332  1.00  0.00    -0.069 C 
ATOM     15  C   UNL     1     104.862 113.038 122.879  1.00  0.00     0.039 C 
ATOM     16  C   UNL     1     103.525 110.935 123.512  1.00  0.00     0.039 C 
BRANCH  13  17
ATOM     17  C   UNL     1     102.521 114.729 123.525  1.00  0.00     0.066 CG0
ATOM     18  G   UNL     1     101.229 115.443 123.172  1.00  0.00     0.000 G0
ENDBRANCH  13  17
ENDBRANCH  11  13
ENDBRANCH  10  11
ENDBRANCH   1  10
TORSDOF 0
ENDMDL
MODEL 7
REMARK VINA RESULT:    -3.917      1.918      3.910
REMARK INTER + INTRA:          -5.660
REMARK INTER:                  -5.774
REMARK INTRA:                   0.114
REMARK UNBOUND:                -0.140
REMARK SMILES CC1=CCC(=C(C)C)C(=O)CC(C)=CCC1
REMARK SMILES IDX 12 1 14 2 13 3 15 4 16 5 2 6 1 7 3 8 11 10 9 11 10 12 5 13
REMARK SMILES IDX 6 14 7 15 8 16 4 17
REMARK H PARENT
REMARK Flexibility Score: 60.00
ROOT
ATOM      1  C   UNL     1     100.379 115.332 125.727  1.00  0.00    -0.070 C 
ATOM      2  C   UNL     1      99.794 116.394 126.328  1.00  0.00    -0.027 C 
ATOM      3  C   UNL     1      99.888 113.954 126.086  1.00  0.00     0.039 C 
ENDROOT
BRANCH   2   4
ATOM      4  C   UNL     1     100.255 117.824 126.197  1.00  0.00     0.032 C 
BRANCH   4   5
ATOM      5  C   UNL     1      99.272 118.609 125.322  1.00  0.00     0.034 C 
BRANCH   5   6
ATOM      6  C   UNL     1      99.952 119.287 124.150  1.00  0.00    -0.077 C 
ATOM      7  C   UNL     1     100.480 120.687 124.333  1.00  0.00     0.039 C 
ATOM      8  C   UNL     1     100.180 118.677 122.960  1.00  0.00    -0.023 CG0
ATOM      9  G   UNL     1      99.700 117.306 122.519  1.00  0.00     0.000 G0
ENDBRANCH   5   6
ENDBRANCH   4   5
ENDBRANCH   2   4
BRANCH   1  10
ATOM     10  C   UNL     1     101.485 115.462 124.699  1.00  0.00     0.111 C 
BRANCH  10  11
ATOM     11  C   UNL     1     100.987 115.195 123.298  1.00  0.00     0.163 C 
ATOM     12  O   UNL     1     100.705 114.001 123.009  1.00  0.00    -0.294 OA
BRANCH  11  13
ATOM     13  C   UNL     1     100.794 116.263 122.263  1.00  0.00    -0.002 C 
ATOM     14  C   UNL     1     101.459 116.204 121.069  1.00  0.00    -0.069 C 
ATOM     15  C   UNL     1     101.121 117.123 119.916  1.00  0.00     0.039 C 
ATOM     16  C   UNL     1     102.608 115.245 120.853  1.00  0.00     0.039 C 
BRANCH  13  17
ATOM     17  C   UNL     1      99.706 117.304 122.509  1.00  0.00     0.066 CG0
ATOM     18  G   UNL     1     100.172 118.676 122.962  1.00  0.00     0.000 G0
ENDBRANCH  13  17
ENDBRANCH  11  13
ENDBRANCH  10  11
ENDBRANCH   1  10
TORSDOF 0
ENDMDL
MODEL 8
REMARK VINA RESULT:    -3.836      1.996      4.448
REMARK INTER + INTRA:          -5.546
REMARK INTER:                  -5.780
REMARK INTRA:                   0.234
REMARK UNBOUND:                -0.140
REMARK SMILES CC1=CCC(=C(C)C)C(=O)CC(C)=CCC1
REMARK SMILES IDX 12 1 14 2 13 3 15 4 16 5 2 6 1 7 3 8 11 10 9 11 10 12 5 13
REMARK SMILES IDX 6 14 7 15 8 16 4 17
REMARK H PARENT
REMARK Flexibility Score: 60.00
ROOT
ATOM      1  C   UNL     1     100.621 114.786 125.798  1.00  0.00    -0.070 C 
ATOM      2  C   UNL     1      99.606 115.493 125.249  1.00  0.00    -0.027 C 
ATOM      3  C   UNL     1     100.274 113.589 126.646  1.00  0.00     0.039 C 
ENDROOT
BRANCH   2   4
ATOM      4  C   UNL     1      99.764 116.792 124.500  1.00  0.00     0.032 C 
BRANCH   4   5
ATOM      5  C   UNL     1      99.366 116.598 123.033  1.00  0.00     0.034 C 
BRANCH   5   6
ATOM      6  C   UNL     1     100.566 116.559 122.107  1.00  0.00    -0.077 C 
ATOM      7  C   UNL     1     101.026 117.845 121.468  1.00  0.00     0.039 C 
ATOM      8  C   UNL     1     101.298 115.442 121.874  1.00  0.00    -0.023 CG0
ATOM      9  G   UNL     1     101.005 114.031 122.352  1.00  0.00     0.000 G0
ENDBRANCH   5   6
ENDBRANCH   4   5
ENDBRANCH   2   4
BRANCH   1  10
ATOM     10  C   UNL     1     102.083 115.124 125.587  1.00  0.00     0.111 C 
BRANCH  10  11
ATOM     11  C   UNL     1     102.627 114.506 124.321  1.00  0.00     0.163 C 
ATOM     12  O   UNL     1     103.785 114.854 123.965  1.00  0.00    -0.294 OA
BRANCH  11  13
ATOM     13  C   UNL     1     101.879 113.500 123.496  1.00  0.00    -0.002 C 
ATOM     14  C   UNL     1     101.847 112.183 123.865  1.00  0.00    -0.069 C 
ATOM     15  C   UNL     1     100.923 111.186 123.201  1.00  0.00     0.039 C 
ATOM     16  C   UNL     1     102.775 111.638 124.928  1.00  0.00     0.039 C 
BRANCH  13  17
ATOM     17  C   UNL     1     101.015 114.019 122.352  1.00  0.00     0.066 CG0
ATOM     18  G   UNL     1     101.297 115.434 121.879  1.00  0.00     0.000 G0
ENDBRANCH  13  17
ENDBRANCH  11  13
ENDBRANCH  10  11
ENDBRANCH   1  10
TORSDOF 0
ENDMDL
MODEL 9
REMARK VINA RESULT:    -3.763      2.026      4.244
REMARK INTER + INTRA:          -5.442
REMARK INTER:                  -6.159
REMARK INTRA:                   0.717
REMARK UNBOUND:                -0.140
REMARK SMILES CC1=CCC(=C(C)C)C(=O)CC(C)=CCC1
REMARK SMILES IDX 12 1 14 2 13 3 15 4 16 5 2 6 1 7 3 8 11 10 9 11 10 12 5 13
REMARK SMILES IDX 6 14 7 15 8 16 4 17
REMARK H PARENT
REMARK Flexibility Score: 60.00
ROOT
ATOM      1  C   UNL     1     101.072 113.436 125.369  1.00  0.00    -0.070 C 
ATOM      2  C   UNL     1     101.464 112.652 124.337  1.00  0.00    -0.027 C 
ATOM      3  C   UNL     1     100.105 112.859 126.371  1.00  0.00     0.039 C 
ENDROOT
BRANCH   2   4
ATOM      4  C   UNL     1     102.304 113.112 123.173  1.00  0.00     0.032 C 
BRANCH   4   5
ATOM      5  C   UNL     1     101.423 113.839 122.151  1.00  0.00     0.034 C 
BRANCH   5   6
ATOM      6  C   UNL     1     101.832 115.285 121.957  1.00  0.00    -0.077 C 
ATOM      7  C   UNL     1     103.073 115.583 121.155  1.00  0.00     0.039 C 
ATOM      8  C   UNL     1     101.103 116.337 122.406  1.00  0.00    -0.023 CG0
ATOM      9  G   UNL     1      99.860 116.295 123.277  1.00  0.00     0.000 G0
ENDBRANCH   5   6
ENDBRANCH   4   5
ENDBRANCH   2   4
BRANCH   1  10
ATOM     10  C   UNL     1     101.571 114.852 125.576  1.00  0.00     0.111 C 
BRANCH  10  11
ATOM     11  C   UNL     1     100.435 115.828 125.765  1.00  0.00     0.163 C 
ATOM     12  O   UNL     1      99.849 115.816 126.881  1.00  0.00    -0.294 OA
BRANCH  11  13
ATOM     13  C   UNL     1      99.991 116.805 124.717  1.00  0.00    -0.002 C 
ATOM     14  C   UNL     1      99.880 118.137 125.010  1.00  0.00    -0.069 C 
ATOM     15  C   UNL     1      99.666 119.180 123.935  1.00  0.00     0.039 C 
ATOM     16  C   UNL     1      99.915 118.637 126.437  1.00  0.00     0.039 C 
BRANCH  13  17
ATOM     17  C   UNL     1      99.850 116.299 123.285  1.00  0.00     0.066 CG0
ATOM     18  G   UNL     1     101.105 116.325 122.431  1.00  0.00     0.000 G0
ENDBRANCH  13  17
ENDBRANCH  11  13
ENDBRANCH  10  11
ENDBRANCH   1  10
TORSDOF 0
ENDMDL
