MODEL 1
REMARK VINA RESULT:    -3.978      0.000      0.000
REMARK INTER + INTRA:          -5.290
REMARK INTER:                  -5.140
REMARK INTRA:                  -0.149
REMARK UNBOUND:                -0.149
REMARK SMILES CCCCCCC(=O)[O-]
REMARK SMILES IDX 5 1 6 2 7 3 8 4 9 5 4 6 3 7 2 8 1 9
REMARK H PARENT
REMARK Flexibility Score: inf
ROOT
ATOM      1  C   UNL     1      42.151  17.189  12.276  1.00  0.00     0.006 C 
ENDROOT
BRANCH   1   2
ATOM      2  C   UNL     1      41.548  18.327  11.449  1.00  0.00     0.053 C 
BRANCH   2   3
ATOM      3  C   UNL     1      40.475  19.027  12.221  1.00  0.00     0.041 C 
ATOM      4  O   UNL     1      39.308  19.107  11.757  1.00  0.00    -0.550 OA
ATOM      5  O   UNL     1      40.752  19.548  13.479  1.00  0.00    -0.550 OA
ENDBRANCH   2   3
ENDBRANCH   1   2
BRANCH   1   6
ATOM      6  C   UNL     1      43.510  17.592  12.858  1.00  0.00     0.000 C 
BRANCH   6   7
ATOM      7  C   UNL     1      44.645  16.781  12.220  1.00  0.00    -0.000 C 
BRANCH   7   8
ATOM      8  C   UNL     1      44.319  15.283  12.221  1.00  0.00    -0.003 C 
ATOM      9  C   UNL     1      45.592  14.442  12.221  1.00  0.00     0.004 C 
ENDBRANCH   7   8
ENDBRANCH   6   7
ENDBRANCH   1   6
TORSDOF 5
ENDMDL
MODEL 2
REMARK VINA RESULT:    -3.973      1.752      2.323
REMARK INTER + INTRA:          -5.283
REMARK INTER:                  -5.087
REMARK INTRA:                  -0.196
REMARK UNBOUND:                -0.149
REMARK SMILES CCCCCCC(=O)[O-]
REMARK SMILES IDX 5 1 6 2 7 3 8 4 9 5 4 6 3 7 2 8 1 9
REMARK H PARENT
REMARK Flexibility Score: inf
ROOT
ATOM      1  C   UNL     1      40.756  18.910  12.478  1.00  0.00     0.006 C 
ENDROOT
BRANCH   1   2
ATOM      2  C   UNL     1      40.210  17.930  11.436  1.00  0.00     0.053 C 
BRANCH   2   3
ATOM      3  C   UNL     1      39.556  18.669  10.312  1.00  0.00     0.041 C 
ATOM      4  O   UNL     1      40.249  19.123   9.365  1.00  0.00    -0.550 OA
ATOM      5  O   UNL     1      38.175  18.813  10.285  1.00  0.00    -0.550 OA
ENDBRANCH   2   3
ENDBRANCH   1   2
BRANCH   1   6
ATOM      6  C   UNL     1      42.264  18.718  12.677  1.00  0.00     0.000 C 
BRANCH   6   7
ATOM      7  C   UNL     1      42.751  17.435  11.992  1.00  0.00    -0.000 C 
BRANCH   7   8
ATOM      8  C   UNL     1      44.222  17.159  12.325  1.00  0.00    -0.003 C 
ATOM      9  C   UNL     1      44.530  15.666  12.263  1.00  0.00     0.004 C 
ENDBRANCH   7   8
ENDBRANCH   6   7
ENDBRANCH   1   6
TORSDOF 5
ENDMDL
MODEL 3
REMARK VINA RESULT:    -3.946     15.071     15.877
REMARK INTER + INTRA:          -5.248
REMARK INTER:                  -5.058
REMARK INTRA:                  -0.190
REMARK UNBOUND:                -0.149
REMARK SMILES CCCCCCC(=O)[O-]
REMARK SMILES IDX 5 1 6 2 7 3 8 4 9 5 4 6 3 7 2 8 1 9
REMARK H PARENT
REMARK Flexibility Score: inf
ROOT
ATOM      1  C   UNL     1      35.635   4.751  14.537  1.00  0.00     0.006 C 
ENDROOT
BRANCH   1   2
ATOM      2  C   UNL     1      36.212   3.338  14.418  1.00  0.00     0.053 C 
BRANCH   2   3
ATOM      3  C   UNL     1      37.386   3.172  15.330  1.00  0.00     0.041 C 
ATOM      4  O   UNL     1      38.557   3.271  14.880  1.00  0.00    -0.550 OA
ATOM      5  O   UNL     1      37.187   2.958  16.688  1.00  0.00    -0.550 OA
ENDBRANCH   2   3
ENDBRANCH   1   2
BRANCH   1   6
ATOM      6  C   UNL     1      34.510   4.800  15.577  1.00  0.00     0.000 C 
BRANCH   6   7
ATOM      7  C   UNL     1      34.888   5.708  16.755  1.00  0.00    -0.000 C 
BRANCH   7   8
ATOM      8  C   UNL     1      33.646   6.116  17.554  1.00  0.00    -0.003 C 
ATOM      9  C   UNL     1      32.450   6.348  16.635  1.00  0.00     0.004 C 
ENDBRANCH   7   8
ENDBRANCH   6   7
ENDBRANCH   1   6
TORSDOF 5
ENDMDL
MODEL 4
REMARK VINA RESULT:    -3.945     15.099     15.861
REMARK INTER + INTRA:          -5.248
REMARK INTER:                  -5.058
REMARK INTRA:                  -0.190
REMARK UNBOUND:                -0.149
REMARK SMILES CCCCCCC(=O)[O-]
REMARK SMILES IDX 5 1 6 2 7 3 8 4 9 5 4 6 3 7 2 8 1 9
REMARK H PARENT
REMARK Flexibility Score: inf
ROOT
ATOM      1  C   UNL     1      34.877   4.398  15.690  1.00  0.00     0.006 C 
ENDROOT
BRANCH   1   2
ATOM      2  C   UNL     1      35.709   4.645  14.429  1.00  0.00     0.053 C 
BRANCH   2   3
ATOM      3  C   UNL     1      36.765   3.595  14.282  1.00  0.00     0.041 C 
ATOM      4  O   UNL     1      36.836   2.910  13.228  1.00  0.00    -0.550 OA
ATOM      5  O   UNL     1      37.702   3.407  15.289  1.00  0.00    -0.550 OA
ENDBRANCH   2   3
ENDBRANCH   1   2
BRANCH   1   6
ATOM      6  C   UNL     1      35.251   5.388  16.798  1.00  0.00     0.000 C 
BRANCH   6   7
ATOM      7  C   UNL     1      34.042   6.239  17.208  1.00  0.00    -0.000 C 
BRANCH   7   8
ATOM      8  C   UNL     1      32.805   5.871  16.382  1.00  0.00    -0.003 C 
ATOM      9  C   UNL     1      31.527   6.371  17.049  1.00  0.00     0.004 C 
ENDBRANCH   7   8
ENDBRANCH   6   7
ENDBRANCH   1   6
TORSDOF 5
ENDMDL
MODEL 5
REMARK VINA RESULT:    -3.937      2.381      3.117
REMARK INTER + INTRA:          -5.238
REMARK INTER:                  -4.918
REMARK INTRA:                  -0.319
REMARK UNBOUND:                -0.149
REMARK SMILES CCCCCCC(=O)[O-]
REMARK SMILES IDX 5 1 6 2 7 3 8 4 9 5 4 6 3 7 2 8 1 9
REMARK H PARENT
REMARK Flexibility Score: inf
ROOT
ATOM      1  C   UNL     1      40.294  17.905  11.479  1.00  0.00     0.006 C 
ENDROOT
BRANCH   1   2
ATOM      2  C   UNL     1      39.773  18.676  10.263  1.00  0.00     0.053 C 
BRANCH   2   3
ATOM      3  C   UNL     1      40.861  18.862   9.254  1.00  0.00     0.041 C 
ATOM      4  O   UNL     1      41.685  17.936   9.032  1.00  0.00    -0.550 OA
ATOM      5  O   UNL     1      40.936  20.039   8.521  1.00  0.00    -0.550 OA
ENDBRANCH   2   3
ENDBRANCH   1   2
BRANCH   1   6
ATOM      6  C   UNL     1      40.934  18.853  12.499  1.00  0.00     0.000 C 
BRANCH   6   7
ATOM      7  C   UNL     1      42.432  18.561  12.658  1.00  0.00    -0.000 C 
BRANCH   7   8
ATOM      8  C   UNL     1      42.748  17.104  12.302  1.00  0.00    -0.003 C 
ATOM      9  C   UNL     1      44.197  16.758  12.635  1.00  0.00     0.004 C 
ENDBRANCH   7   8
ENDBRANCH   6   7
ENDBRANCH   1   6
TORSDOF 5
ENDMDL
MODEL 6
REMARK VINA RESULT:    -3.927     14.836     15.360
REMARK INTER + INTRA:          -5.223
REMARK INTER:                  -5.019
REMARK INTRA:                  -0.205
REMARK UNBOUND:                -0.149
REMARK SMILES CCCCCCC(=O)[O-]
REMARK SMILES IDX 5 1 6 2 7 3 8 4 9 5 4 6 3 7 2 8 1 9
REMARK H PARENT
REMARK Flexibility Score: inf
ROOT
ATOM      1  C   UNL     1      35.124   5.715  16.743  1.00  0.00     0.006 C 
ENDROOT
BRANCH   1   2
ATOM      2  C   UNL     1      33.821   5.443  17.499  1.00  0.00     0.053 C 
BRANCH   2   3
ATOM      3  C   UNL     1      32.643   5.603  16.591  1.00  0.00     0.041 C 
ATOM      4  O   UNL     1      32.052   6.711  16.509  1.00  0.00    -0.550 OA
ATOM      5  O   UNL     1      32.230   4.542  15.796  1.00  0.00    -0.550 OA
ENDBRANCH   2   3
ENDBRANCH   1   2
BRANCH   1   6
ATOM      6  C   UNL     1      35.658   4.435  16.089  1.00  0.00     0.000 C 
BRANCH   6   7
ATOM      7  C   UNL     1      35.670   4.561  14.560  1.00  0.00    -0.000 C 
BRANCH   7   8
ATOM      8  C   UNL     1      36.784   3.706  13.947  1.00  0.00    -0.003 C 
ATOM      9  C   UNL     1      37.799   3.282  15.005  1.00  0.00     0.004 C 
ENDBRANCH   7   8
ENDBRANCH   6   7
ENDBRANCH   1   6
TORSDOF 5
ENDMDL
MODEL 7
REMARK VINA RESULT:    -3.897      2.670      5.135
REMARK INTER + INTRA:          -5.185
REMARK INTER:                  -4.997
REMARK INTRA:                  -0.188
REMARK UNBOUND:                -0.149
REMARK SMILES CCCCCCC(=O)[O-]
REMARK SMILES IDX 5 1 6 2 7 3 8 4 9 5 4 6 3 7 2 8 1 9
REMARK H PARENT
REMARK Flexibility Score: inf
ROOT
ATOM      1  C   UNL     1      41.695  18.848  12.700  1.00  0.00     0.006 C 
ENDROOT
BRANCH   1   2
ATOM      2  C   UNL     1      42.233  17.472  12.300  1.00  0.00     0.053 C 
BRANCH   2   3
ATOM      3  C   UNL     1      43.724  17.439  12.410  1.00  0.00     0.041 C 
ATOM      4  O   UNL     1      44.325  16.344  12.564  1.00  0.00    -0.550 OA
ATOM      5  O   UNL     1      44.456  18.614  12.292  1.00  0.00    -0.550 OA
ENDBRANCH   2   3
ENDBRANCH   1   2
BRANCH   1   6
ATOM      6  C   UNL     1      40.247  19.031  12.229  1.00  0.00     0.000 C 
BRANCH   6   7
ATOM      7  C   UNL     1      40.055  18.480  10.810  1.00  0.00    -0.000 C 
BRANCH   7   8
ATOM      8  C   UNL     1      38.629  18.734  10.311  1.00  0.00    -0.003 C 
ATOM      9  C   UNL     1      37.640  18.791  11.472  1.00  0.00     0.004 C 
ENDBRANCH   7   8
ENDBRANCH   6   7
ENDBRANCH   1   6
TORSDOF 5
ENDMDL
MODEL 8
REMARK VINA RESULT:    -3.876      2.530      4.445
REMARK INTER + INTRA:          -5.158
REMARK INTER:                  -4.818
REMARK INTRA:                  -0.340
REMARK UNBOUND:                -0.149
REMARK SMILES CCCCCCC(=O)[O-]
REMARK SMILES IDX 5 1 6 2 7 3 8 4 9 5 4 6 3 7 2 8 1 9
REMARK H PARENT
REMARK Flexibility Score: inf
ROOT
ATOM      1  C   UNL     1      41.735  17.671  11.852  1.00  0.00     0.006 C 
ENDROOT
BRANCH   1   2
ATOM      2  C   UNL     1      42.730  18.509  12.659  1.00  0.00     0.053 C 
BRANCH   2   3
ATOM      3  C   UNL     1      42.082  19.764  13.151  1.00  0.00     0.041 C 
ATOM      4  O   UNL     1      42.620  20.882  12.936  1.00  0.00    -0.550 OA
ATOM      5  O   UNL     1      40.858  19.704  13.803  1.00  0.00    -0.550 OA
ENDBRANCH   2   3
ENDBRANCH   1   2
BRANCH   1   6
ATOM      6  C   UNL     1      41.636  18.174  10.407  1.00  0.00     0.000 C 
BRANCH   6   7
ATOM      7  C   UNL     1      40.242  18.746  10.117  1.00  0.00    -0.000 C 
BRANCH   7   8
ATOM      8  C   UNL     1      39.207  18.200  11.107  1.00  0.00    -0.003 C 
ATOM      9  C   UNL     1      37.888  18.959  10.999  1.00  0.00     0.004 C 
ENDBRANCH   7   8
ENDBRANCH   6   7
ENDBRANCH   1   6
TORSDOF 5
ENDMDL
MODEL 9
REMARK VINA RESULT:    -3.853     14.972     15.477
REMARK INTER + INTRA:          -5.128
REMARK INTER:                  -4.972
REMARK INTRA:                  -0.156
REMARK UNBOUND:                -0.149
REMARK SMILES CCCCCCC(=O)[O-]
REMARK SMILES IDX 5 1 6 2 7 3 8 4 9 5 4 6 3 7 2 8 1 9
REMARK H PARENT
REMARK Flexibility Score: inf
ROOT
ATOM      1  C   UNL     1      34.947   5.488  16.448  1.00  0.00     0.006 C 
ENDROOT
BRANCH   1   2
ATOM      2  C   UNL     1      33.694   6.061  17.114  1.00  0.00     0.053 C 
BRANCH   2   3
ATOM      3  C   UNL     1      33.709   5.788  18.585  1.00  0.00     0.041 C 
ATOM      4  O   UNL     1      34.279   6.587  19.373  1.00  0.00    -0.550 OA
ATOM      5  O   UNL     1      33.050   4.675  19.092  1.00  0.00    -0.550 OA
ENDBRANCH   2   3
ENDBRANCH   1   2
BRANCH   1   6
ATOM      6  C   UNL     1      34.584   4.674  15.201  1.00  0.00     0.000 C 
BRANCH   6   7
ATOM      7  C   UNL     1      35.836   4.070  14.553  1.00  0.00    -0.000 C 
BRANCH   7   8
ATOM      8  C   UNL     1      36.816   3.564  15.617  1.00  0.00    -0.003 C 
ATOM      9  C   UNL     1      38.152   3.168  14.993  1.00  0.00     0.004 C 
ENDBRANCH   7   8
ENDBRANCH   6   7
ENDBRANCH   1   6
TORSDOF 5
ENDMDL
