MODEL 1
REMARK VINA RESULT:    -3.455      0.000      0.000
REMARK INTER + INTRA:          -3.859
REMARK INTER:                  -3.859
REMARK INTRA:                   0.000
REMARK UNBOUND:                 0.000
REMARK SMILES Oc1cc(O)c2c(ccc3ccc(O)c(O)c32)c1
REMARK SMILES IDX 9 1 8 2 7 3 18 4 2 5 3 6 4 7 6 8 17 9 10 10 11 11 12 12
REMARK SMILES IDX 13 13 15 14 16 15 1 17 5 19 14 21
REMARK H PARENT 16 16 1 18 5 20 14 22
REMARK Flexibility Score: inf
ROOT
ATOM      1  C   UNL     1      34.725  25.124  33.245  1.00  0.00     0.009 A 
ATOM      2  C   UNL     1      33.421  25.005  33.710  1.00  0.00     0.009 A 
ATOM      3  C   UNL     1      32.363  24.821  32.814  1.00  0.00    -0.010 A 
ATOM      4  C   UNL     1      31.050  24.778  33.304  1.00  0.00     0.055 A 
ATOM      5  C   UNL     1      29.970  24.728  32.427  1.00  0.00     0.119 A 
ATOM      6  C   UNL     1      30.194  24.780  31.051  1.00  0.00     0.093 A 
ATOM      7  C   UNL     1      31.498  24.845  30.539  1.00  0.00     0.127 A 
ATOM      8  C   UNL     1      32.614  24.726  31.415  1.00  0.00     0.035 A 
ATOM      9  C   UNL     1      33.973  24.622  30.969  1.00  0.00     0.039 A 
ATOM     10  C   UNL     1      35.014  24.929  31.890  1.00  0.00    -0.014 A 
ATOM     11  C   UNL     1      36.345  24.992  31.459  1.00  0.00     0.013 A 
ATOM     12  C   UNL     1      36.669  24.702  30.139  1.00  0.00     0.051 A 
ATOM     13  C   UNL     1      35.691  24.253  29.253  1.00  0.00     0.158 A 
ATOM     14  C   UNL     1      34.352  24.123  29.690  1.00  0.00     0.166 A 
ENDROOT
BRANCH  14  15
ATOM     15  O   UNL     1      33.435  23.396  28.927  1.00  0.00    -0.504 OA
ATOM     16  H   UNL     1      33.485  23.304  27.922  1.00  0.00     0.293 HD
ENDBRANCH  14  15
BRANCH   5  17
ATOM     17  O   UNL     1      28.673  24.663  32.934  1.00  0.00    -0.508 OA
ATOM     18  H   UNL     1      28.356  25.295  33.659  1.00  0.00     0.293 HD
ENDBRANCH   5  17
BRANCH   7  19
ATOM     19  O   UNL     1      31.664  25.124  29.183  1.00  0.00    -0.507 OA
ATOM     20  H   UNL     1      32.581  25.249  28.769  1.00  0.00     0.293 HD
ENDBRANCH   7  19
BRANCH  13  21
ATOM     21  O   UNL     1      36.085  23.940  27.950  1.00  0.00    -0.504 OA
ATOM     22  H   UNL     1      37.031  23.689  27.699  1.00  0.00     0.293 HD
ENDBRANCH  13  21
TORSDOF 4
ENDMDL
MODEL 2
REMARK VINA RESULT:    -2.522      1.680      2.698
REMARK INTER + INTRA:          -2.817
REMARK INTER:                  -2.817
REMARK INTRA:                   0.000
REMARK UNBOUND:                 0.000
REMARK SMILES Oc1cc(O)c2c(ccc3ccc(O)c(O)c32)c1
REMARK SMILES IDX 9 1 8 2 7 3 18 4 2 5 3 6 4 7 6 8 17 9 10 10 11 11 12 12
REMARK SMILES IDX 13 13 15 14 16 15 1 17 5 19 14 21
REMARK H PARENT 16 16 1 18 5 20 14 22
REMARK Flexibility Score: inf
ROOT
ATOM      1  C   UNL     1      31.960  25.032  32.979  1.00  0.00     0.009 A 
ATOM      2  C   UNL     1      30.831  24.800  32.203  1.00  0.00     0.009 A 
ATOM      3  C   UNL     1      30.947  24.613  30.821  1.00  0.00    -0.010 A 
ATOM      4  C   UNL     1      29.785  24.455  30.052  1.00  0.00     0.055 A 
ATOM      5  C   UNL     1      29.861  24.398  28.663  1.00  0.00     0.119 A 
ATOM      6  C   UNL     1      31.093  24.559  28.030  1.00  0.00     0.093 A 
ATOM      7  C   UNL     1      32.265  24.740  28.780  1.00  0.00     0.127 A 
ATOM      8  C   UNL     1      32.228  24.631  30.198  1.00  0.00     0.035 A 
ATOM      9  C   UNL     1      33.394  24.643  31.032  1.00  0.00     0.039 A 
ATOM     10  C   UNL     1      33.237  24.950  32.413  1.00  0.00    -0.014 A 
ATOM     11  C   UNL     1      34.360  25.125  33.232  1.00  0.00     0.013 A 
ATOM     12  C   UNL     1      35.638  24.947  32.717  1.00  0.00     0.051 A 
ATOM     13  C   UNL     1      35.817  24.501  31.408  1.00  0.00     0.158 A 
ATOM     14  C   UNL     1      34.691  24.258  30.586  1.00  0.00     0.166 A 
ENDROOT
BRANCH  14  15
ATOM     15  O   UNL     1      34.833  23.530  29.403  1.00  0.00    -0.504 OA
ATOM     16  H   UNL     1      34.123  22.912  29.034  1.00  0.00     0.293 HD
ENDBRANCH  14  15
BRANCH   5  17
ATOM     17  O   UNL     1      28.697  24.218  27.917  1.00  0.00    -0.508 OA
ATOM     18  H   UNL     1      28.464  24.829  27.143  1.00  0.00     0.293 HD
ENDBRANCH   5  17
BRANCH   7  19
ATOM     19  O   UNL     1      33.427  25.123  28.110  1.00  0.00    -0.507 OA
ATOM     20  H   UNL     1      34.261  25.414  28.606  1.00  0.00     0.293 HD
ENDBRANCH   7  19
BRANCH  13  21
ATOM     21  O   UNL     1      37.125  24.304  30.959  1.00  0.00    -0.504 OA
ATOM     22  H   UNL     1      37.665  25.015  30.487  1.00  0.00     0.293 HD
ENDBRANCH  13  21
TORSDOF 4
ENDMDL
MODEL 3
REMARK VINA RESULT:    -0.963      1.898      3.228
REMARK INTER + INTRA:          -1.075
REMARK INTER:                  -1.075
REMARK INTRA:                   0.000
REMARK UNBOUND:                 0.000
REMARK SMILES Oc1cc(O)c2c(ccc3ccc(O)c(O)c32)c1
REMARK SMILES IDX 9 1 8 2 7 3 18 4 2 5 3 6 4 7 6 8 17 9 10 10 11 11 12 12
REMARK SMILES IDX 13 13 15 14 16 15 1 17 5 19 14 21
REMARK H PARENT 16 16 1 18 5 20 14 22
REMARK Flexibility Score: inf
ROOT
ATOM      1  C   UNL     1      31.392  24.775  28.018  1.00  0.00     0.009 A 
ATOM      2  C   UNL     1      30.238  25.030  28.749  1.00  0.00     0.009 A 
ATOM      3  C   UNL     1      30.248  24.935  30.144  1.00  0.00    -0.010 A 
ATOM      4  C   UNL     1      29.052  25.124  30.852  1.00  0.00     0.055 A 
ATOM      5  C   UNL     1      29.003  24.907  32.227  1.00  0.00     0.119 A 
ATOM      6  C   UNL     1      30.136  24.442  32.894  1.00  0.00     0.093 A 
ATOM      7  C   UNL     1      31.337  24.225  32.202  1.00  0.00     0.127 A 
ATOM      8  C   UNL     1      31.449  24.602  30.834  1.00  0.00     0.035 A 
ATOM      9  C   UNL     1      32.676  24.566  30.093  1.00  0.00     0.039 A 
ATOM     10  C   UNL     1      32.609  24.551  28.671  1.00  0.00    -0.014 A 
ATOM     11  C   UNL     1      33.768  24.361  27.909  1.00  0.00     0.013 A 
ATOM     12  C   UNL     1      35.005  24.239  28.532  1.00  0.00     0.051 A 
ATOM     13  C   UNL     1      35.120  24.398  29.912  1.00  0.00     0.158 A 
ATOM     14  C   UNL     1      33.966  24.655  30.690  1.00  0.00     0.166 A 
ENDROOT
BRANCH  14  15
ATOM     15  O   UNL     1      34.095  25.118  32.002  1.00  0.00    -0.504 OA
ATOM     16  H   UNL     1      34.935  25.017  32.555  1.00  0.00     0.293 HD
ENDBRANCH  14  15
BRANCH   5  17
ATOM     17  O   UNL     1      27.810  25.123  32.915  1.00  0.00    -0.508 OA
ATOM     18  H   UNL     1      26.913  25.076  32.448  1.00  0.00     0.293 HD
ENDBRANCH   5  17
BRANCH   7  19
ATOM     19  O   UNL     1      32.365  23.548  32.857  1.00  0.00    -0.507 OA
ATOM     20  H   UNL     1      32.266  22.587  33.162  1.00  0.00     0.293 HD
ENDBRANCH   7  19
BRANCH  13  21
ATOM     21  O   UNL     1      36.394  24.303  30.477  1.00  0.00    -0.504 OA
ATOM     22  H   UNL     1      37.202  23.967  29.973  1.00  0.00     0.293 HD
ENDBRANCH  13  21
TORSDOF 4
ENDMDL
