MODEL 1
REMARK VINA RESULT:    -4.146      0.000      0.000
REMARK INTER + INTRA:          -9.748
REMARK INTER:                  -7.540
REMARK INTRA:                  -2.209
REMARK UNBOUND:                -2.209
REMARK SMILES CCCCCC=CCC=CCCCCCCCC(=O)[O-]
REMARK SMILES IDX 11 1 12 2 13 3 14 4 15 5 16 6 17 7 18 8 19 9 20 10 10 11
REMARK SMILES IDX 9 12 8 13 7 14 6 15 5 16 4 17 3 18 2 19 1 20
REMARK H PARENT
REMARK Flexibility Score: inf
ROOT
ATOM      1  C   UNL     1       2.957  -0.030   6.448  1.00  0.00     0.027 C 
ENDROOT
BRANCH   1   2
ATOM      2  C   UNL     1       1.891  -0.569   7.414  1.00  0.00     0.004 C 
BRANCH   2   3
ATOM      3  C   UNL     1       1.728   0.308   8.667  1.00  0.00     0.000 C 
BRANCH   3   4
ATOM      4  C   UNL     1       0.572   1.316   8.536  1.00  0.00     0.000 C 
BRANCH   4   5
ATOM      5  C   UNL     1       1.063   2.739   8.230  1.00  0.00     0.000 C 
BRANCH   5   6
ATOM      6  C   UNL     1       0.887   3.123   6.750  1.00  0.00     0.006 C 
BRANCH   6   7
ATOM      7  C   UNL     1      -0.108   2.205   6.028  1.00  0.00     0.053 C 
BRANCH   7   8
ATOM      8  C   UNL     1      -1.239   2.980   5.425  1.00  0.00     0.041 C 
ATOM      9  O   UNL     1      -1.215   3.292   4.206  1.00  0.00    -0.550 OA
ATOM     10  O   UNL     1      -2.336   3.327   6.203  1.00  0.00    -0.550 OA
ENDBRANCH   7   8
ENDBRANCH   6   7
ENDBRANCH   5   6
ENDBRANCH   4   5
ENDBRANCH   3   4
ENDBRANCH   2   3
ENDBRANCH   1   2
BRANCH   1  11
ATOM     11  C   UNL     1       4.049   0.682   7.197  1.00  0.00    -0.031 C 
ATOM     12  C   UNL     1       4.472   1.901   6.831  1.00  0.00    -0.027 C 
BRANCH  12  13
ATOM     13  C   UNL     1       5.587   2.596   7.562  1.00  0.00     0.054 C 
BRANCH  13  14
ATOM     14  C   UNL     1       6.200   1.687   8.590  1.00  0.00    -0.027 C 
ATOM     15  C   UNL     1       7.414   1.144   8.410  1.00  0.00    -0.031 C 
BRANCH  15  16
ATOM     16  C   UNL     1       8.015   0.208   9.420  1.00  0.00     0.027 C 
BRANCH  16  17
ATOM     17  C   UNL     1       8.639  -1.016   8.732  1.00  0.00     0.004 C 
BRANCH  17  18
ATOM     18  C   UNL     1       7.927  -1.384   7.420  1.00  0.00     0.000 C 
BRANCH  18  19
ATOM     19  C   UNL     1       7.142  -2.700   7.525  1.00  0.00    -0.003 C 
ATOM     20  C   UNL     1       5.764  -2.469   8.136  1.00  0.00     0.004 C 
ENDBRANCH  18  19
ENDBRANCH  17  18
ENDBRANCH  16  17
ENDBRANCH  15  16
ENDBRANCH  13  14
ENDBRANCH  12  13
ENDBRANCH   1  11
TORSDOF 14
ENDMDL
MODEL 2
REMARK VINA RESULT:    -4.112      2.719      4.836
REMARK INTER + INTRA:          -9.687
REMARK INTER:                  -7.278
REMARK INTRA:                  -2.409
REMARK UNBOUND:                -2.209
REMARK SMILES CCCCCC=CCC=CCCCCCCCC(=O)[O-]
REMARK SMILES IDX 11 1 12 2 13 3 14 4 15 5 16 6 17 7 18 8 19 9 20 10 10 11
REMARK SMILES IDX 9 12 8 13 7 14 6 15 5 16 4 17 3 18 2 19 1 20
REMARK H PARENT
REMARK Flexibility Score: inf
ROOT
ATOM      1  C   UNL     1      -0.499   3.877   5.276  1.00  0.00     0.027 C 
ENDROOT
BRANCH   1   2
ATOM      2  C   UNL     1      -1.446   2.695   5.533  1.00  0.00     0.004 C 
BRANCH   2   3
ATOM      3  C   UNL     1      -1.814   2.543   7.018  1.00  0.00     0.000 C 
BRANCH   3   4
ATOM      4  C   UNL     1      -3.327   2.357   7.236  1.00  0.00     0.000 C 
BRANCH   4   5
ATOM      5  C   UNL     1      -4.160   2.884   6.056  1.00  0.00     0.000 C 
BRANCH   5   6
ATOM      6  C   UNL     1      -4.793   4.257   6.342  1.00  0.00     0.006 C 
BRANCH   6   7
ATOM      7  C   UNL     1      -4.065   5.393   5.613  1.00  0.00     0.053 C 
BRANCH   7   8
ATOM      8  C   UNL     1      -3.394   6.327   6.573  1.00  0.00     0.041 C 
ATOM      9  O   UNL     1      -2.512   5.899   7.363  1.00  0.00    -0.550 OA
ATOM     10  O   UNL     1      -3.719   7.677   6.570  1.00  0.00    -0.550 OA
ENDBRANCH   7   8
ENDBRANCH   6   7
ENDBRANCH   5   6
ENDBRANCH   4   5
ENDBRANCH   3   4
ENDBRANCH   2   3
ENDBRANCH   1   2
BRANCH   1  11
ATOM     11  C   UNL     1       0.418   4.094   6.447  1.00  0.00    -0.031 C 
ATOM     12  C   UNL     1       1.663   4.567   6.286  1.00  0.00    -0.027 C 
BRANCH  12  13
ATOM     13  C   UNL     1       2.589   4.752   7.456  1.00  0.00     0.054 C 
BRANCH  13  14
ATOM     14  C   UNL     1       3.382   3.501   7.713  1.00  0.00    -0.027 C 
ATOM     15  C   UNL     1       4.099   2.915   6.742  1.00  0.00    -0.031 C 
BRANCH  15  16
ATOM     16  C   UNL     1       4.866   1.646   6.988  1.00  0.00     0.027 C 
BRANCH  16  17
ATOM     17  C   UNL     1       3.925   0.512   7.420  1.00  0.00     0.004 C 
BRANCH  17  18
ATOM     18  C   UNL     1       2.980   0.063   6.293  1.00  0.00     0.000 C 
BRANCH  18  19
ATOM     19  C   UNL     1       1.511   0.401   6.586  1.00  0.00    -0.003 C 
ATOM     20  C   UNL     1       1.292   0.652   8.075  1.00  0.00     0.004 C 
ENDBRANCH  18  19
ENDBRANCH  17  18
ENDBRANCH  16  17
ENDBRANCH  15  16
ENDBRANCH  13  14
ENDBRANCH  12  13
ENDBRANCH   1  11
TORSDOF 14
ENDMDL
MODEL 3
REMARK VINA RESULT:    -4.112      1.229      2.852
REMARK INTER + INTRA:          -9.686
REMARK INTER:                  -7.757
REMARK INTRA:                  -1.929
REMARK UNBOUND:                -2.209
REMARK SMILES CCCCCC=CCC=CCCCCCCCC(=O)[O-]
REMARK SMILES IDX 11 1 12 2 13 3 14 4 15 5 16 6 17 7 18 8 19 9 20 10 10 11
REMARK SMILES IDX 9 12 8 13 7 14 6 15 5 16 4 17 3 18 2 19 1 20
REMARK H PARENT
REMARK Flexibility Score: inf
ROOT
ATOM      1  C   UNL     1       4.440   2.846   6.301  1.00  0.00     0.027 C 
ENDROOT
BRANCH   1   2
ATOM      2  C   UNL     1       4.706   3.919   7.368  1.00  0.00     0.004 C 
BRANCH   2   3
ATOM      3  C   UNL     1       3.588   3.998   8.421  1.00  0.00     0.000 C 
BRANCH   3   4
ATOM      4  C   UNL     1       2.353   4.765   7.914  1.00  0.00     0.000 C 
BRANCH   4   5
ATOM      5  C   UNL     1       1.121   3.859   7.758  1.00  0.00     0.000 C 
BRANCH   5   6
ATOM      6  C   UNL     1       0.761   3.595   6.285  1.00  0.00     0.006 C 
BRANCH   6   7
ATOM      7  C   UNL     1      -0.207   2.415   6.129  1.00  0.00     0.053 C 
BRANCH   7   8
ATOM      8  C   UNL     1      -1.339   2.746   5.206  1.00  0.00     0.041 C 
ATOM      9  O   UNL     1      -1.124   3.373   4.136  1.00  0.00    -0.550 OA
ATOM     10  O   UNL     1      -2.629   2.331   5.512  1.00  0.00    -0.550 OA
ENDBRANCH   7   8
ENDBRANCH   6   7
ENDBRANCH   5   6
ENDBRANCH   4   5
ENDBRANCH   3   4
ENDBRANCH   2   3
ENDBRANCH   1   2
BRANCH   1  11
ATOM     11  C   UNL     1       4.279   1.491   6.932  1.00  0.00    -0.031 C 
ATOM     12  C   UNL     1       3.189   0.740   6.712  1.00  0.00    -0.027 C 
BRANCH  12  13
ATOM     13  C   UNL     1       3.015  -0.600   7.371  1.00  0.00     0.054 C 
BRANCH  13  14
ATOM     14  C   UNL     1       4.347  -1.256   7.608  1.00  0.00    -0.027 C 
ATOM     15  C   UNL     1       4.763  -1.570   8.845  1.00  0.00    -0.031 C 
BRANCH  15  16
ATOM     16  C   UNL     1       6.108  -2.195   9.088  1.00  0.00     0.027 C 
BRANCH  16  17
ATOM     17  C   UNL     1       6.860  -2.409   7.766  1.00  0.00     0.004 C 
BRANCH  17  18
ATOM     18  C   UNL     1       7.838  -1.266   7.449  1.00  0.00     0.000 C 
BRANCH  18  19
ATOM     19  C   UNL     1       8.174  -0.418   8.684  1.00  0.00    -0.003 C 
ATOM     20  C   UNL     1       7.749   1.033   8.485  1.00  0.00     0.004 C 
ENDBRANCH  18  19
ENDBRANCH  17  18
ENDBRANCH  16  17
ENDBRANCH  15  16
ENDBRANCH  13  14
ENDBRANCH  12  13
ENDBRANCH   1  11
TORSDOF 14
ENDMDL
MODEL 4
REMARK VINA RESULT:    -4.106      1.539      3.370
REMARK INTER + INTRA:          -9.675
REMARK INTER:                  -7.352
REMARK INTRA:                  -2.323
REMARK UNBOUND:                -2.209
REMARK SMILES CCCCCC=CCC=CCCCCCCCC(=O)[O-]
REMARK SMILES IDX 11 1 12 2 13 3 14 4 15 5 16 6 17 7 18 8 19 9 20 10 10 11
REMARK SMILES IDX 9 12 8 13 7 14 6 15 5 16 4 17 3 18 2 19 1 20
REMARK H PARENT
REMARK Flexibility Score: inf
ROOT
ATOM      1  C   UNL     1       1.928   0.181   6.658  1.00  0.00     0.027 C 
ENDROOT
BRANCH   1   2
ATOM      2  C   UNL     1       1.421   0.742   7.996  1.00  0.00     0.004 C 
BRANCH   2   3
ATOM      3  C   UNL     1       0.657   2.066   7.832  1.00  0.00     0.000 C 
BRANCH   3   4
ATOM      4  C   UNL     1       0.736   2.619   6.398  1.00  0.00     0.000 C 
BRANCH   4   5
ATOM      5  C   UNL     1       0.337   4.101   6.316  1.00  0.00     0.000 C 
BRANCH   5   6
ATOM      6  C   UNL     1      -0.753   4.366   5.261  1.00  0.00     0.006 C 
BRANCH   6   7
ATOM      7  C   UNL     1      -1.568   3.106   4.943  1.00  0.00     0.053 C 
BRANCH   7   8
ATOM      8  C   UNL     1      -2.845   3.061   5.726  1.00  0.00     0.041 C 
ATOM      9  O   UNL     1      -3.226   4.068   6.378  1.00  0.00    -0.550 OA
ATOM     10  O   UNL     1      -3.631   1.916   5.706  1.00  0.00    -0.550 OA
ENDBRANCH   7   8
ENDBRANCH   6   7
ENDBRANCH   5   6
ENDBRANCH   4   5
ENDBRANCH   3   4
ENDBRANCH   2   3
ENDBRANCH   1   2
BRANCH   1  11
ATOM     11  C   UNL     1       3.348  -0.296   6.780  1.00  0.00    -0.031 C 
ATOM     12  C   UNL     1       3.819  -0.814   7.925  1.00  0.00    -0.027 C 
BRANCH  12  13
ATOM     13  C   UNL     1       5.249  -1.260   8.053  1.00  0.00     0.054 C 
BRANCH  13  14
ATOM     14  C   UNL     1       6.190  -0.107   7.844  1.00  0.00    -0.027 C 
ATOM     15  C   UNL     1       6.325   0.863   8.762  1.00  0.00    -0.031 C 
BRANCH  15  16
ATOM     16  C   UNL     1       7.239   2.035   8.540  1.00  0.00     0.027 C 
BRANCH  16  17
ATOM     17  C   UNL     1       6.444   3.278   8.115  1.00  0.00     0.004 C 
BRANCH  17  18
ATOM     18  C   UNL     1       4.973   3.220   8.558  1.00  0.00     0.000 C 
BRANCH  18  19
ATOM     19  C   UNL     1       4.010   3.718   7.471  1.00  0.00    -0.003 C 
ATOM     20  C   UNL     1       4.438   3.224   6.092  1.00  0.00     0.004 C 
ENDBRANCH  18  19
ENDBRANCH  17  18
ENDBRANCH  16  17
ENDBRANCH  15  16
ENDBRANCH  13  14
ENDBRANCH  12  13
ENDBRANCH   1  11
TORSDOF 14
ENDMDL
MODEL 5
REMARK VINA RESULT:    -4.104      1.938      3.716
REMARK INTER + INTRA:          -9.672
REMARK INTER:                  -7.546
REMARK INTRA:                  -2.126
REMARK UNBOUND:                -2.209
REMARK SMILES CCCCCC=CCC=CCCCCCCCC(=O)[O-]
REMARK SMILES IDX 11 1 12 2 13 3 14 4 15 5 16 6 17 7 18 8 19 9 20 10 10 11
REMARK SMILES IDX 9 12 8 13 7 14 6 15 5 16 4 17 3 18 2 19 1 20
REMARK H PARENT
REMARK Flexibility Score: inf
ROOT
ATOM      1  C   UNL     1       1.350   4.044   7.900  1.00  0.00     0.027 C 
ENDROOT
BRANCH   1   2
ATOM      2  C   UNL     1       0.514   2.781   8.157  1.00  0.00     0.004 C 
BRANCH   2   3
ATOM      3  C   UNL     1      -0.651   2.630   7.165  1.00  0.00     0.000 C 
BRANCH   3   4
ATOM      4  C   UNL     1      -0.264   3.038   5.732  1.00  0.00     0.000 C 
BRANCH   4   5
ATOM      5  C   UNL     1      -0.980   4.316   5.270  1.00  0.00     0.000 C 
BRANCH   5   6
ATOM      6  C   UNL     1      -2.007   4.826   6.296  1.00  0.00     0.006 C 
BRANCH   6   7
ATOM      7  C   UNL     1      -3.383   5.072   5.663  1.00  0.00     0.053 C 
BRANCH   7   8
ATOM      8  C   UNL     1      -4.343   3.967   5.980  1.00  0.00     0.041 C 
ATOM      9  O   UNL     1      -5.427   4.217   6.569  1.00  0.00    -0.550 OA
ATOM     10  O   UNL     1      -4.055   2.665   5.592  1.00  0.00    -0.550 OA
ENDBRANCH   7   8
ENDBRANCH   6   7
ENDBRANCH   5   6
ENDBRANCH   4   5
ENDBRANCH   3   4
ENDBRANCH   2   3
ENDBRANCH   1   2
BRANCH   1  11
ATOM     11  C   UNL     1       2.800   3.697   7.709  1.00  0.00    -0.031 C 
ATOM     12  C   UNL     1       3.379   3.739   6.499  1.00  0.00    -0.027 C 
BRANCH  12  13
ATOM     13  C   UNL     1       4.821   3.359   6.306  1.00  0.00     0.054 C 
BRANCH  13  14
ATOM     14  C   UNL     1       5.257   2.368   7.349  1.00  0.00    -0.027 C 
ATOM     15  C   UNL     1       5.207   1.046   7.122  1.00  0.00    -0.031 C 
BRANCH  15  16
ATOM     16  C   UNL     1       5.610   0.052   8.175  1.00  0.00     0.027 C 
BRANCH  16  17
ATOM     17  C   UNL     1       4.445  -0.890   8.514  1.00  0.00     0.004 C 
BRANCH  17  18
ATOM     18  C   UNL     1       3.083  -0.178   8.491  1.00  0.00     0.000 C 
BRANCH  18  19
ATOM     19  C   UNL     1       2.060  -0.893   7.596  1.00  0.00    -0.003 C 
ATOM     20  C   UNL     1       1.915  -0.183   6.254  1.00  0.00     0.004 C 
ENDBRANCH  18  19
ENDBRANCH  17  18
ENDBRANCH  16  17
ENDBRANCH  15  16
ENDBRANCH  13  14
ENDBRANCH  12  13
ENDBRANCH   1  11
TORSDOF 14
ENDMDL
MODEL 6
REMARK VINA RESULT:    -4.069      2.234      7.145
REMARK INTER + INTRA:          -9.608
REMARK INTER:                  -7.737
REMARK INTRA:                  -1.871
REMARK UNBOUND:                -2.209
REMARK SMILES CCCCCC=CCC=CCCCCCCCC(=O)[O-]
REMARK SMILES IDX 11 1 12 2 13 3 14 4 15 5 16 6 17 7 18 8 19 9 20 10 10 11
REMARK SMILES IDX 9 12 8 13 7 14 6 15 5 16 4 17 3 18 2 19 1 20
REMARK H PARENT
REMARK Flexibility Score: inf
ROOT
ATOM      1  C   UNL     1       4.939   2.462   6.853  1.00  0.00     0.027 C 
ENDROOT
BRANCH   1   2
ATOM      2  C   UNL     1       5.823   2.644   8.096  1.00  0.00     0.004 C 
BRANCH   2   3
ATOM      3  C   UNL     1       6.548   1.350   8.502  1.00  0.00     0.000 C 
BRANCH   3   4
ATOM      4  C   UNL     1       5.975   0.106   7.800  1.00  0.00     0.000 C 
BRANCH   4   5
ATOM      5  C   UNL     1       5.050  -0.712   8.715  1.00  0.00     0.000 C 
BRANCH   5   6
ATOM      6  C   UNL     1       3.781  -1.201   7.994  1.00  0.00     0.006 C 
BRANCH   6   7
ATOM      7  C   UNL     1       2.692  -0.122   7.946  1.00  0.00     0.053 C 
BRANCH   7   8
ATOM      8  C   UNL     1       2.041  -0.052   6.598  1.00  0.00     0.041 C 
ATOM      9  O   UNL     1       1.194   0.845   6.347  1.00  0.00    -0.550 OA
ATOM     10  O   UNL     1       2.397  -0.958   5.608  1.00  0.00    -0.550 OA
ENDBRANCH   7   8
ENDBRANCH   6   7
ENDBRANCH   5   6
ENDBRANCH   4   5
ENDBRANCH   3   4
ENDBRANCH   2   3
ENDBRANCH   1   2
BRANCH   1  11
ATOM     11  C   UNL     1       3.740   3.366   6.910  1.00  0.00    -0.031 C 
ATOM     12  C   UNL     1       3.088   3.597   8.060  1.00  0.00    -0.027 C 
BRANCH  12  13
ATOM     13  C   UNL     1       1.869   4.476   8.108  1.00  0.00     0.054 C 
BRANCH  13  14
ATOM     14  C   UNL     1       1.249   4.603   6.744  1.00  0.00    -0.027 C 
ATOM     15  C   UNL     1      -0.065   4.408   6.552  1.00  0.00    -0.031 C 
BRANCH  15  16
ATOM     16  C   UNL     1      -0.682   4.501   5.185  1.00  0.00     0.027 C 
BRANCH  16  17
ATOM     17  C   UNL     1      -1.478   3.230   4.855  1.00  0.00     0.004 C 
BRANCH  17  18
ATOM     18  C   UNL     1      -1.923   2.466   6.112  1.00  0.00     0.000 C 
BRANCH  18  19
ATOM     19  C   UNL     1      -3.434   2.195   6.133  1.00  0.00    -0.003 C 
ATOM     20  C   UNL     1      -4.226   3.490   5.979  1.00  0.00     0.004 C 
ENDBRANCH  18  19
ENDBRANCH  17  18
ENDBRANCH  16  17
ENDBRANCH  15  16
ENDBRANCH  13  14
ENDBRANCH  12  13
ENDBRANCH   1  11
TORSDOF 14
ENDMDL
MODEL 7
REMARK VINA RESULT:    -4.044     14.245     16.320
REMARK INTER + INTRA:          -9.563
REMARK INTER:                  -7.035
REMARK INTRA:                  -2.528
REMARK UNBOUND:                -2.209
REMARK SMILES CCCCCC=CCC=CCCCCCCCC(=O)[O-]
REMARK SMILES IDX 11 1 12 2 13 3 14 4 15 5 16 6 17 7 18 8 19 9 20 10 10 11
REMARK SMILES IDX 9 12 8 13 7 14 6 15 5 16 4 17 3 18 2 19 1 20
REMARK H PARENT
REMARK Flexibility Score: inf
ROOT
ATOM      1  C   UNL     1      -6.468  -2.539  -8.084  1.00  0.00     0.027 C 
ENDROOT
BRANCH   1   2
ATOM      2  C   UNL     1      -6.339  -3.796  -7.211  1.00  0.00     0.004 C 
BRANCH   2   3
ATOM      3  C   UNL     1      -5.044  -4.579  -7.486  1.00  0.00     0.000 C 
BRANCH   3   4
ATOM      4  C   UNL     1      -4.144  -4.687  -6.242  1.00  0.00     0.000 C 
BRANCH   4   5
ATOM      5  C   UNL     1      -4.808  -4.107  -4.983  1.00  0.00     0.000 C 
BRANCH   5   6
ATOM      6  C   UNL     1      -4.549  -4.959  -3.728  1.00  0.00     0.006 C 
BRANCH   6   7
ATOM      7  C   UNL     1      -4.469  -6.456  -4.052  1.00  0.00     0.053 C 
BRANCH   7   8
ATOM      8  C   UNL     1      -5.820  -7.103  -4.017  1.00  0.00     0.041 C 
ATOM      9  O   UNL     1      -6.259  -7.598  -2.946  1.00  0.00    -0.550 OA
ATOM     10  O   UNL     1      -6.609  -7.127  -5.160  1.00  0.00    -0.550 OA
ENDBRANCH   7   8
ENDBRANCH   6   7
ENDBRANCH   5   6
ENDBRANCH   4   5
ENDBRANCH   3   4
ENDBRANCH   2   3
ENDBRANCH   1   2
BRANCH   1  11
ATOM     11  C   UNL     1      -5.270  -1.646  -7.920  1.00  0.00    -0.031 C 
ATOM     12  C   UNL     1      -5.049  -0.970  -6.783  1.00  0.00    -0.027 C 
BRANCH  12  13
ATOM     13  C   UNL     1      -3.867  -0.053  -6.634  1.00  0.00     0.054 C 
BRANCH  13  14
ATOM     14  C   UNL     1      -2.701  -0.777  -6.019  1.00  0.00    -0.027 C 
ATOM     15  C   UNL     1      -2.050  -1.744  -6.683  1.00  0.00    -0.031 C 
BRANCH  15  16
ATOM     16  C   UNL     1      -0.906  -2.493  -6.058  1.00  0.00     0.027 C 
BRANCH  16  17
ATOM     17  C   UNL     1      -1.237  -2.892  -4.612  1.00  0.00     0.004 C 
BRANCH  17  18
ATOM     18  C   UNL     1      -0.909  -4.364  -4.314  1.00  0.00     0.000 C 
BRANCH  18  19
ATOM     19  C   UNL     1      -0.315  -5.093  -5.528  1.00  0.00    -0.003 C 
ATOM     20  C   UNL     1       1.205  -5.179  -5.425  1.00  0.00     0.004 C 
ENDBRANCH  18  19
ENDBRANCH  17  18
ENDBRANCH  16  17
ENDBRANCH  15  16
ENDBRANCH  13  14
ENDBRANCH  12  13
ENDBRANCH   1  11
TORSDOF 14
ENDMDL
MODEL 8
REMARK VINA RESULT:    -4.006     14.210     15.540
REMARK INTER + INTRA:          -9.494
REMARK INTER:                  -7.495
REMARK INTRA:                  -1.999
REMARK UNBOUND:                -2.209
REMARK SMILES CCCCCC=CCC=CCCCCCCCC(=O)[O-]
REMARK SMILES IDX 11 1 12 2 13 3 14 4 15 5 16 6 17 7 18 8 19 9 20 10 10 11
REMARK SMILES IDX 9 12 8 13 7 14 6 15 5 16 4 17 3 18 2 19 1 20
REMARK H PARENT
REMARK Flexibility Score: inf
ROOT
ATOM      1  C   UNL     1      -3.151   0.215  -6.430  1.00  0.00     0.027 C 
ENDROOT
BRANCH   1   2
ATOM      2  C   UNL     1      -4.590   0.011  -6.927  1.00  0.00     0.004 C 
BRANCH   2   3
ATOM      3  C   UNL     1      -4.676  -0.974  -8.105  1.00  0.00     0.000 C 
BRANCH   3   4
ATOM      4  C   UNL     1      -5.813  -1.998  -7.937  1.00  0.00     0.000 C 
BRANCH   4   5
ATOM      5  C   UNL     1      -6.072  -2.353  -6.464  1.00  0.00     0.000 C 
BRANCH   5   6
ATOM      6  C   UNL     1      -5.410  -3.678  -6.047  1.00  0.00     0.006 C 
BRANCH   6   7
ATOM      7  C   UNL     1      -4.895  -3.638  -4.602  1.00  0.00     0.053 C 
BRANCH   7   8
ATOM      8  C   UNL     1      -4.371  -4.971  -4.164  1.00  0.00     0.041 C 
ATOM      9  O   UNL     1      -3.727  -5.696  -4.967  1.00  0.00    -0.550 OA
ATOM     10  O   UNL     1      -4.565  -5.398  -2.857  1.00  0.00    -0.550 OA
ENDBRANCH   7   8
ENDBRANCH   6   7
ENDBRANCH   5   6
ENDBRANCH   4   5
ENDBRANCH   3   4
ENDBRANCH   2   3
ENDBRANCH   1   2
BRANCH   1  11
ATOM     11  C   UNL     1      -2.738  -0.900  -5.511  1.00  0.00    -0.031 C 
ATOM     12  C   UNL     1      -1.839  -1.822  -5.886  1.00  0.00    -0.027 C 
BRANCH  12  13
ATOM     13  C   UNL     1      -1.452  -2.956  -4.976  1.00  0.00     0.054 C 
BRANCH  13  14
ATOM     14  C   UNL     1      -0.518  -3.906  -5.673  1.00  0.00    -0.027 C 
ATOM     15  C   UNL     1       0.500  -4.489  -5.022  1.00  0.00    -0.031 C 
BRANCH  15  16
ATOM     16  C   UNL     1       1.456  -5.412  -5.724  1.00  0.00     0.027 C 
BRANCH  16  17
ATOM     17  C   UNL     1       2.084  -4.726  -6.946  1.00  0.00     0.004 C 
BRANCH  17  18
ATOM     18  C   UNL     1       3.150  -3.688  -6.560  1.00  0.00     0.000 C 
BRANCH  18  19
ATOM     19  C   UNL     1       3.096  -2.431  -7.442  1.00  0.00    -0.003 C 
ATOM     20  C   UNL     1       1.920  -1.540  -7.054  1.00  0.00     0.004 C 
ENDBRANCH  18  19
ENDBRANCH  17  18
ENDBRANCH  16  17
ENDBRANCH  15  16
ENDBRANCH  13  14
ENDBRANCH  12  13
ENDBRANCH   1  11
TORSDOF 14
ENDMDL
MODEL 9
REMARK VINA RESULT:    -3.998     14.146     15.823
REMARK INTER + INTRA:          -9.480
REMARK INTER:                  -7.167
REMARK INTRA:                  -2.313
REMARK UNBOUND:                -2.209
REMARK SMILES CCCCCC=CCC=CCCCCCCCC(=O)[O-]
REMARK SMILES IDX 11 1 12 2 13 3 14 4 15 5 16 6 17 7 18 8 19 9 20 10 10 11
REMARK SMILES IDX 9 12 8 13 7 14 6 15 5 16 4 17 3 18 2 19 1 20
REMARK H PARENT
REMARK Flexibility Score: inf
ROOT
ATOM      1  C   UNL     1      -5.498  -1.050  -7.131  1.00  0.00     0.027 C 
ENDROOT
BRANCH   1   2
ATOM      2  C   UNL     1      -6.323  -2.310  -6.827  1.00  0.00     0.004 C 
BRANCH   2   3
ATOM      3  C   UNL     1      -5.790  -3.557  -7.552  1.00  0.00     0.000 C 
BRANCH   3   4
ATOM      4  C   UNL     1      -5.717  -4.789  -6.633  1.00  0.00     0.000 C 
BRANCH   4   5
ATOM      5  C   UNL     1      -4.431  -4.820  -5.791  1.00  0.00     0.000 C 
BRANCH   5   6
ATOM      6  C   UNL     1      -4.673  -4.425  -4.323  1.00  0.00     0.006 C 
BRANCH   6   7
ATOM      7  C   UNL     1      -4.059  -5.434  -3.344  1.00  0.00     0.053 C 
BRANCH   7   8
ATOM      8  C   UNL     1      -4.707  -6.780  -3.457  1.00  0.00     0.041 C 
ATOM      9  O   UNL     1      -5.960  -6.888  -3.393  1.00  0.00    -0.550 OA
ATOM     10  O   UNL     1      -3.928  -7.910  -3.669  1.00  0.00    -0.550 OA
ENDBRANCH   7   8
ENDBRANCH   6   7
ENDBRANCH   5   6
ENDBRANCH   4   5
ENDBRANCH   3   4
ENDBRANCH   2   3
ENDBRANCH   1   2
BRANCH   1  11
ATOM     11  C   UNL     1      -4.254  -1.007  -6.289  1.00  0.00    -0.031 C 
ATOM     12  C   UNL     1      -3.074  -1.442  -6.757  1.00  0.00    -0.027 C 
BRANCH  12  13
ATOM     13  C   UNL     1      -1.838  -1.429  -5.900  1.00  0.00     0.054 C 
BRANCH  13  14
ATOM     14  C   UNL     1      -1.317  -2.823  -5.692  1.00  0.00    -0.027 C 
ATOM     15  C   UNL     1      -1.119  -3.320  -4.461  1.00  0.00    -0.031 C 
BRANCH  15  16
ATOM     16  C   UNL     1      -0.566  -4.701  -4.250  1.00  0.00     0.027 C 
BRANCH  16  17
ATOM     17  C   UNL     1      -0.604  -5.513  -5.554  1.00  0.00     0.004 C 
BRANCH  17  18
ATOM     18  C   UNL     1       0.798  -5.808  -6.109  1.00  0.00     0.000 C 
BRANCH  18  19
ATOM     19  C   UNL     1       1.857  -4.823  -5.591  1.00  0.00    -0.003 C 
ATOM     20  C   UNL     1       2.832  -4.434  -6.697  1.00  0.00     0.004 C 
ENDBRANCH  18  19
ENDBRANCH  17  18
ENDBRANCH  16  17
ENDBRANCH  15  16
ENDBRANCH  13  14
ENDBRANCH  12  13
ENDBRANCH   1  11
TORSDOF 14
ENDMDL
