MODEL 1
REMARK VINA RESULT:    -4.176      0.000      0.000
REMARK INTER + INTRA:          -6.312
REMARK INTER:                  -5.885
REMARK INTRA:                  -0.426
REMARK UNBOUND:                -0.426
REMARK SMILES CCCCCCCCC(=O)[O-]
REMARK SMILES IDX 6 1 7 2 8 3 9 4 10 5 11 6 5 7 4 8 3 9 2 10 1 11
REMARK H PARENT
REMARK Flexibility Score: inf
ROOT
ATOM      1  C   UNL     1     -19.984  44.815  85.633  1.00  0.00     0.000 C 
ENDROOT
BRANCH   1   2
ATOM      2  C   UNL     1     -20.649  43.654  86.388  1.00  0.00     0.006 C 
BRANCH   2   3
ATOM      3  C   UNL     1     -19.878  42.348  86.172  1.00  0.00     0.053 C 
BRANCH   3   4
ATOM      4  C   UNL     1     -20.394  41.279  87.082  1.00  0.00     0.041 C 
ATOM      5  O   UNL     1     -21.557  40.819  86.926  1.00  0.00    -0.550 OA
ATOM      6  O   UNL     1     -19.610  40.822  88.135  1.00  0.00    -0.550 OA
ENDBRANCH   3   4
ENDBRANCH   2   3
ENDBRANCH   1   2
BRANCH   1   7
ATOM      7  C   UNL     1     -18.609  44.437  85.059  1.00  0.00     0.000 C 
BRANCH   7   8
ATOM      8  C   UNL     1     -18.013  45.541  84.167  1.00  0.00    -0.000 C 
BRANCH   8   9
ATOM      9  C   UNL     1     -19.012  46.691  83.919  1.00  0.00    -0.000 C 
BRANCH   9  10
ATOM     10  C   UNL     1     -19.577  46.718  82.489  1.00  0.00    -0.003 C 
ATOM     11  C   UNL     1     -21.076  46.431  82.431  1.00  0.00     0.004 C 
ENDBRANCH   9  10
ENDBRANCH   8   9
ENDBRANCH   7   8
ENDBRANCH   1   7
TORSDOF 7
ENDMDL
MODEL 2
REMARK VINA RESULT:    -4.173      2.194      2.761
REMARK INTER + INTRA:          -6.308
REMARK INTER:                  -5.619
REMARK INTRA:                  -0.689
REMARK UNBOUND:                -0.426
REMARK SMILES CCCCCCCCC(=O)[O-]
REMARK SMILES IDX 6 1 7 2 8 3 9 4 10 5 11 6 5 7 4 8 3 9 2 10 1 11
REMARK H PARENT
REMARK Flexibility Score: inf
ROOT
ATOM      1  C   UNL     1     -19.240  43.748  84.989  1.00  0.00     0.000 C 
ENDROOT
BRANCH   1   2
ATOM      2  C   UNL     1     -20.259  43.550  86.120  1.00  0.00     0.006 C 
BRANCH   2   3
ATOM      3  C   UNL     1     -20.647  44.893  86.747  1.00  0.00     0.053 C 
BRANCH   3   4
ATOM      4  C   UNL     1     -22.109  45.154  86.563  1.00  0.00     0.041 C 
ATOM      5  O   UNL     1     -22.497  46.057  85.774  1.00  0.00    -0.550 OA
ATOM      6  O   UNL     1     -23.043  44.436  87.299  1.00  0.00    -0.550 OA
ENDBRANCH   3   4
ENDBRANCH   2   3
ENDBRANCH   1   2
BRANCH   1   7
ATOM      7  C   UNL     1     -18.144  44.763  85.349  1.00  0.00     0.000 C 
BRANCH   7   8
ATOM      8  C   UNL     1     -17.824  45.728  84.193  1.00  0.00    -0.000 C 
BRANCH   8   9
ATOM      9  C   UNL     1     -18.950  46.759  83.967  1.00  0.00    -0.000 C 
BRANCH   9  10
ATOM     10  C   UNL     1     -19.600  46.663  82.577  1.00  0.00    -0.003 C 
ATOM     11  C   UNL     1     -20.988  46.027  82.607  1.00  0.00     0.004 C 
ENDBRANCH   9  10
ENDBRANCH   8   9
ENDBRANCH   7   8
ENDBRANCH   1   7
TORSDOF 7
ENDMDL
MODEL 3
REMARK VINA RESULT:    -4.137      1.197      1.340
REMARK INTER + INTRA:          -6.256
REMARK INTER:                  -5.719
REMARK INTRA:                  -0.537
REMARK UNBOUND:                -0.426
REMARK SMILES CCCCCCCCC(=O)[O-]
REMARK SMILES IDX 6 1 7 2 8 3 9 4 10 5 11 6 5 7 4 8 3 9 2 10 1 11
REMARK H PARENT
REMARK Flexibility Score: inf
ROOT
ATOM      1  C   UNL     1     -19.197  43.592  85.345  1.00  0.00     0.000 C 
ENDROOT
BRANCH   1   2
ATOM      2  C   UNL     1     -20.608  44.068  85.719  1.00  0.00     0.006 C 
BRANCH   2   3
ATOM      3  C   UNL     1     -20.772  44.153  87.240  1.00  0.00     0.053 C 
BRANCH   3   4
ATOM      4  C   UNL     1     -21.332  42.875  87.779  1.00  0.00     0.041 C 
ATOM      5  O   UNL     1     -22.567  42.638  87.692  1.00  0.00    -0.550 OA
ATOM      6  O   UNL     1     -20.501  41.966  88.422  1.00  0.00    -0.550 OA
ENDBRANCH   3   4
ENDBRANCH   2   3
ENDBRANCH   1   2
BRANCH   1   7
ATOM      7  C   UNL     1     -18.177  44.740  85.299  1.00  0.00     0.000 C 
BRANCH   7   8
ATOM      8  C   UNL     1     -18.038  45.356  83.895  1.00  0.00    -0.000 C 
BRANCH   8   9
ATOM      9  C   UNL     1     -18.782  46.703  83.775  1.00  0.00    -0.000 C 
BRANCH   9  10
ATOM     10  C   UNL     1     -19.649  46.815  82.509  1.00  0.00    -0.003 C 
ATOM     11  C   UNL     1     -20.966  46.050  82.616  1.00  0.00     0.004 C 
ENDBRANCH   9  10
ENDBRANCH   8   9
ENDBRANCH   7   8
ENDBRANCH   1   7
TORSDOF 7
ENDMDL
MODEL 4
REMARK VINA RESULT:    -4.129      6.780      8.285
REMARK INTER + INTRA:          -6.245
REMARK INTER:                  -5.964
REMARK INTRA:                  -0.281
REMARK UNBOUND:                -0.426
REMARK SMILES CCCCCCCCC(=O)[O-]
REMARK SMILES IDX 6 1 7 2 8 3 9 4 10 5 11 6 5 7 4 8 3 9 2 10 1 11
REMARK H PARENT
REMARK Flexibility Score: inf
ROOT
ATOM      1  C   UNL     1     -19.907  37.718  84.081  1.00  0.00     0.000 C 
ENDROOT
BRANCH   1   2
ATOM      2  C   UNL     1     -18.831  36.945  83.305  1.00  0.00     0.006 C 
BRANCH   2   3
ATOM      3  C   UNL     1     -17.493  36.970  84.050  1.00  0.00     0.053 C 
BRANCH   3   4
ATOM      4  C   UNL     1     -16.940  35.587  84.181  1.00  0.00     0.041 C 
ATOM      5  O   UNL     1     -16.505  35.180  85.291  1.00  0.00    -0.550 OA
ATOM      6  O   UNL     1     -16.858  34.761  83.066  1.00  0.00    -0.550 OA
ENDBRANCH   3   4
ENDBRANCH   2   3
ENDBRANCH   1   2
BRANCH   1   7
ATOM      7  C   UNL     1     -19.504  37.992  85.539  1.00  0.00     0.000 C 
BRANCH   7   8
ATOM      8  C   UNL     1     -20.563  38.801  86.307  1.00  0.00    -0.000 C 
BRANCH   8   9
ATOM      9  C   UNL     1     -20.969  38.120  87.631  1.00  0.00    -0.000 C 
BRANCH   9  10
ATOM     10  C   UNL     1     -20.395  38.810  88.880  1.00  0.00    -0.003 C 
ATOM     11  C   UNL     1     -19.503  37.893  89.715  1.00  0.00     0.004 C 
ENDBRANCH   9  10
ENDBRANCH   8   9
ENDBRANCH   7   8
ENDBRANCH   1   7
TORSDOF 7
ENDMDL
MODEL 5
REMARK VINA RESULT:    -4.123      6.910      8.101
REMARK INTER + INTRA:          -6.237
REMARK INTER:                  -5.685
REMARK INTRA:                  -0.551
REMARK UNBOUND:                -0.426
REMARK SMILES CCCCCCCCC(=O)[O-]
REMARK SMILES IDX 6 1 7 2 8 3 9 4 10 5 11 6 5 7 4 8 3 9 2 10 1 11
REMARK H PARENT
REMARK Flexibility Score: inf
ROOT
ATOM      1  C   UNL     1     -26.982  45.867  90.273  1.00  0.00     0.000 C 
ENDROOT
BRANCH   1   2
ATOM      2  C   UNL     1     -26.239  44.528  90.384  1.00  0.00     0.006 C 
BRANCH   2   3
ATOM      3  C   UNL     1     -26.969  43.574  91.334  1.00  0.00     0.053 C 
BRANCH   3   4
ATOM      4  C   UNL     1     -28.148  42.955  90.653  1.00  0.00     0.041 C 
ATOM      5  O   UNL     1     -29.177  42.654  91.314  1.00  0.00    -0.550 OA
ATOM      6  O   UNL     1     -28.094  42.665  89.294  1.00  0.00    -0.550 OA
ENDBRANCH   3   4
ENDBRANCH   2   3
ENDBRANCH   1   2
BRANCH   1   7
ATOM      7  C   UNL     1     -26.634  46.633  88.987  1.00  0.00     0.000 C 
BRANCH   7   8
ATOM      8  C   UNL     1     -26.255  45.700  87.823  1.00  0.00    -0.000 C 
BRANCH   8   9
ATOM      9  C   UNL     1     -25.267  46.365  86.842  1.00  0.00    -0.000 C 
BRANCH   9  10
ATOM     10  C   UNL     1     -23.796  46.006  87.113  1.00  0.00    -0.003 C 
ATOM     11  C   UNL     1     -23.618  44.601  87.684  1.00  0.00     0.004 C 
ENDBRANCH   9  10
ENDBRANCH   8   9
ENDBRANCH   7   8
ENDBRANCH   1   7
TORSDOF 7
ENDMDL
MODEL 6
REMARK VINA RESULT:    -4.108      1.194      2.154
REMARK INTER + INTRA:          -6.215
REMARK INTER:                  -5.541
REMARK INTRA:                  -0.674
REMARK UNBOUND:                -0.426
REMARK SMILES CCCCCCCCC(=O)[O-]
REMARK SMILES IDX 6 1 7 2 8 3 9 4 10 5 11 6 5 7 4 8 3 9 2 10 1 11
REMARK H PARENT
REMARK Flexibility Score: inf
ROOT
ATOM      1  C   UNL     1     -21.652  45.381  85.663  1.00  0.00     0.000 C 
ENDROOT
BRANCH   1   2
ATOM      2  C   UNL     1     -20.491  44.664  86.368  1.00  0.00     0.006 C 
BRANCH   2   3
ATOM      3  C   UNL     1     -20.168  43.335  85.677  1.00  0.00     0.053 C 
BRANCH   3   4
ATOM      4  C   UNL     1     -20.455  42.186  86.591  1.00  0.00     0.041 C 
ATOM      5  O   UNL     1     -21.554  42.121  87.202  1.00  0.00    -0.550 OA
ATOM      6  O   UNL     1     -19.489  41.210  86.806  1.00  0.00    -0.550 OA
ENDBRANCH   3   4
ENDBRANCH   2   3
ENDBRANCH   1   2
BRANCH   1   7
ATOM      7  C   UNL     1     -21.175  46.503  84.728  1.00  0.00     0.000 C 
BRANCH   7   8
ATOM      8  C   UNL     1     -20.866  46.002  83.306  1.00  0.00    -0.000 C 
BRANCH   8   9
ATOM      9  C   UNL     1     -19.503  46.513  82.792  1.00  0.00    -0.000 C 
BRANCH   9  10
ATOM     10  C   UNL     1     -18.492  46.804  83.915  1.00  0.00    -0.003 C 
ATOM     11  C   UNL     1     -17.615  45.602  84.258  1.00  0.00     0.004 C 
ENDBRANCH   9  10
ENDBRANCH   8   9
ENDBRANCH   7   8
ENDBRANCH   1   7
TORSDOF 7
ENDMDL
MODEL 7
REMARK VINA RESULT:    -4.061      1.767      2.871
REMARK INTER + INTRA:          -6.149
REMARK INTER:                  -5.890
REMARK INTRA:                  -0.259
REMARK UNBOUND:                -0.426
REMARK SMILES CCCCCCCCC(=O)[O-]
REMARK SMILES IDX 6 1 7 2 8 3 9 4 10 5 11 6 5 7 4 8 3 9 2 10 1 11
REMARK H PARENT
REMARK Flexibility Score: inf
ROOT
ATOM      1  C   UNL     1     -19.865  41.872  86.470  1.00  0.00     0.000 C 
ENDROOT
BRANCH   1   2
ATOM      2  C   UNL     1     -20.459  40.928  87.525  1.00  0.00     0.006 C 
BRANCH   2   3
ATOM      3  C   UNL     1     -21.337  39.858  86.869  1.00  0.00     0.053 C 
BRANCH   3   4
ATOM      4  C   UNL     1     -20.620  38.546  86.824  1.00  0.00     0.041 C 
ATOM      5  O   UNL     1     -20.148  38.118  85.737  1.00  0.00    -0.550 OA
ATOM      6  O   UNL     1     -20.513  37.770  87.972  1.00  0.00    -0.550 OA
ENDBRANCH   3   4
ENDBRANCH   2   3
ENDBRANCH   1   2
BRANCH   1   7
ATOM      7  C   UNL     1     -20.604  43.217  86.396  1.00  0.00     0.000 C 
BRANCH   7   8
ATOM      8  C   UNL     1     -20.087  44.119  85.261  1.00  0.00    -0.000 C 
BRANCH   8   9
ATOM      9  C   UNL     1     -18.572  44.392  85.379  1.00  0.00    -0.000 C 
BRANCH   9  10
ATOM     10  C   UNL     1     -18.001  45.207  84.206  1.00  0.00    -0.003 C 
ATOM     11  C   UNL     1     -19.082  45.763  83.281  1.00  0.00     0.004 C 
ENDBRANCH   9  10
ENDBRANCH   8   9
ENDBRANCH   7   8
ENDBRANCH   1   7
TORSDOF 7
ENDMDL
MODEL 8
REMARK VINA RESULT:    -4.038      4.993      7.274
REMARK INTER + INTRA:          -6.116
REMARK INTER:                  -5.799
REMARK INTRA:                  -0.317
REMARK UNBOUND:                -0.426
REMARK SMILES CCCCCCCCC(=O)[O-]
REMARK SMILES IDX 6 1 7 2 8 3 9 4 10 5 11 6 5 7 4 8 3 9 2 10 1 11
REMARK H PARENT
REMARK Flexibility Score: inf
ROOT
ATOM      1  C   UNL     1     -20.215  37.784  84.628  1.00  0.00     0.000 C 
ENDROOT
BRANCH   1   2
ATOM      2  C   UNL     1     -19.030  37.405  83.728  1.00  0.00     0.006 C 
BRANCH   2   3
ATOM      3  C   UNL     1     -18.020  36.540  84.486  1.00  0.00     0.053 C 
BRANCH   3   4
ATOM      4  C   UNL     1     -16.869  36.179  83.602  1.00  0.00     0.041 C 
ATOM      5  O   UNL     1     -16.001  37.043  83.306  1.00  0.00    -0.550 OA
ATOM      6  O   UNL     1     -16.779  34.901  83.063  1.00  0.00    -0.550 OA
ENDBRANCH   3   4
ENDBRANCH   2   3
ENDBRANCH   1   2
BRANCH   1   7
ATOM      7  C   UNL     1     -19.778  38.172  86.049  1.00  0.00     0.000 C 
BRANCH   7   8
ATOM      8  C   UNL     1     -20.969  38.477  86.976  1.00  0.00    -0.000 C 
BRANCH   8   9
ATOM      9  C   UNL     1     -20.800  39.819  87.718  1.00  0.00    -0.000 C 
BRANCH   9  10
ATOM     10  C   UNL     1     -21.192  41.043  86.874  1.00  0.00    -0.003 C 
ATOM     11  C   UNL     1     -20.000  41.925  86.507  1.00  0.00     0.004 C 
ENDBRANCH   9  10
ENDBRANCH   8   9
ENDBRANCH   7   8
ENDBRANCH   1   7
TORSDOF 7
ENDMDL
MODEL 9
REMARK VINA RESULT:    -4.035      1.181      1.811
REMARK INTER + INTRA:          -6.113
REMARK INTER:                  -5.903
REMARK INTRA:                  -0.210
REMARK UNBOUND:                -0.426
REMARK SMILES CCCCCCCCC(=O)[O-]
REMARK SMILES IDX 6 1 7 2 8 3 9 4 10 5 11 6 5 7 4 8 3 9 2 10 1 11
REMARK H PARENT
REMARK Flexibility Score: inf
ROOT
ATOM      1  C   UNL     1     -20.213  43.259  86.234  1.00  0.00     0.000 C 
ENDROOT
BRANCH   1   2
ATOM      2  C   UNL     1     -19.880  41.793  86.545  1.00  0.00     0.006 C 
BRANCH   2   3
ATOM      3  C   UNL     1     -21.144  41.011  86.916  1.00  0.00     0.053 C 
BRANCH   3   4
ATOM      4  C   UNL     1     -20.788  39.756  87.648  1.00  0.00     0.041 C 
ATOM      5  O   UNL     1     -21.284  38.654  87.296  1.00  0.00    -0.550 OA
ATOM      6  O   UNL     1     -19.945  39.809  88.752  1.00  0.00    -0.550 OA
ENDBRANCH   3   4
ENDBRANCH   2   3
ENDBRANCH   1   2
BRANCH   1   7
ATOM      7  C   UNL     1     -19.416  43.808  85.040  1.00  0.00     0.000 C 
BRANCH   7   8
ATOM      8  C   UNL     1     -18.183  44.622  85.472  1.00  0.00    -0.000 C 
BRANCH   8   9
ATOM      9  C   UNL     1     -17.593  45.446  84.308  1.00  0.00    -0.000 C 
BRANCH   9  10
ATOM     10  C   UNL     1     -18.219  46.843  84.164  1.00  0.00    -0.003 C 
ATOM     11  C   UNL     1     -19.229  46.933  83.022  1.00  0.00     0.004 C 
ENDBRANCH   9  10
ENDBRANCH   8   9
ENDBRANCH   7   8
ENDBRANCH   1   7
TORSDOF 7
ENDMDL
