MODEL 1
REMARK VINA RESULT:    -3.654      0.000      0.000
REMARK INTER + INTRA:          -3.760
REMARK INTER:                  -3.760
REMARK INTRA:                   0.000
REMARK UNBOUND:                 0.000
REMARK SMILES CC1(C)[C@@H]2CC[C@@](C)(C2)[C@@H]1O
REMARK SMILES IDX 1 1 2 2 4 3 5 4 6 5 7 6 9 7 10 8 8 9 3 10 11 11
REMARK H PARENT 11 12
REMARK Flexibility Score: inf
ROOT
ATOM      1  C   UNL     1     134.029 150.801 139.130  1.00  0.00     0.014 C 
ATOM      2  C   UNL     1     135.155 150.116 138.318  1.00  0.00    -0.006 C 
ATOM      3  C   UNL     1     136.500 150.153 139.126  1.00  0.00    -0.002 C 
ATOM      4  C   UNL     1     137.691 149.724 138.244  1.00  0.00     0.005 C 
ATOM      5  C   UNL     1     137.415 148.232 138.001  1.00  0.00     0.010 C 
ATOM      6  C   UNL     1     136.162 147.971 138.870  1.00  0.00    -0.006 C 
ATOM      7  C   UNL     1     136.384 148.930 140.020  1.00  0.00     0.013 C 
ATOM      8  C   UNL     1     134.901 148.576 138.200  1.00  0.00     0.126 C 
ATOM      9  C   UNL     1     135.998 146.509 139.299  1.00  0.00     0.014 C 
ATOM     10  C   UNL     1     135.243 150.840 136.949  1.00  0.00     0.014 C 
ENDROOT
BRANCH   8  11
ATOM     11  O   UNL     1     134.762 148.126 136.875  1.00  0.00    -0.392 OA
ATOM     12  H   UNL     1     135.055 148.875 136.292  1.00  0.00     0.211 HD
ENDBRANCH   8  11
TORSDOF 1
ENDMDL
MODEL 2
REMARK VINA RESULT:    -3.613     12.149     13.723
REMARK INTER + INTRA:          -3.719
REMARK INTER:                  -3.719
REMARK INTRA:                   0.000
REMARK UNBOUND:                 0.000
REMARK SMILES CC1(C)[C@@H]2CC[C@@](C)(C2)[C@@H]1O
REMARK SMILES IDX 1 1 2 2 4 3 5 4 6 5 7 6 9 7 10 8 8 9 3 10 11 11
REMARK H PARENT 11 12
REMARK Flexibility Score: inf
ROOT
ATOM      1  C   UNL     1     150.617 147.158 139.383  1.00  0.00     0.014 C 
ATOM      2  C   UNL     1     149.930 146.085 138.506  1.00  0.00    -0.006 C 
ATOM      3  C   UNL     1     149.781 144.746 139.309  1.00  0.00    -0.002 C 
ATOM      4  C   UNL     1     149.349 143.587 138.386  1.00  0.00     0.005 C 
ATOM      5  C   UNL     1     147.915 143.977 137.998  1.00  0.00     0.010 C 
ATOM      6  C   UNL     1     147.668 145.251 138.841  1.00  0.00    -0.006 C 
ATOM      7  C   UNL     1     148.489 144.961 140.080  1.00  0.00     0.013 C 
ATOM      8  C   UNL     1     148.433 146.457 138.237  1.00  0.00     0.126 C 
ATOM      9  C   UNL     1     146.189 145.531 139.126  1.00  0.00     0.014 C 
ATOM     10  C   UNL     1     150.775 145.934 137.214  1.00  0.00     0.014 C 
ENDROOT
BRANCH   8  11
ATOM     11  O   UNL     1     148.127 146.625 136.875  1.00  0.00    -0.392 OA
ATOM     12  H   UNL     1     148.314 145.753 136.437  1.00  0.00     0.211 HD
ENDBRANCH   8  11
TORSDOF 1
ENDMDL
MODEL 3
REMARK VINA RESULT:    -3.569     11.941     13.472
REMARK INTER + INTRA:          -3.673
REMARK INTER:                  -3.673
REMARK INTRA:                   0.000
REMARK UNBOUND:                 0.000
REMARK SMILES CC1(C)[C@@H]2CC[C@@](C)(C2)[C@@H]1O
REMARK SMILES IDX 1 1 2 2 4 3 5 4 6 5 7 6 9 7 10 8 8 9 3 10 11 11
REMARK H PARENT 11 12
REMARK Flexibility Score: inf
ROOT
ATOM      1  C   UNL     1     130.986 134.597 139.463  1.00  0.00     0.014 C 
ATOM      2  C   UNL     1     131.726 135.607 138.553  1.00  0.00    -0.006 C 
ATOM      3  C   UNL     1     131.964 136.953 139.324  1.00  0.00    -0.002 C 
ATOM      4  C   UNL     1     132.453 138.062 138.369  1.00  0.00     0.005 C 
ATOM      5  C   UNL     1     133.856 137.577 137.975  1.00  0.00     0.010 C 
ATOM      6  C   UNL     1     134.037 136.310 138.844  1.00  0.00    -0.006 C 
ATOM      7  C   UNL     1     133.250 136.678 140.085  1.00  0.00     0.013 C 
ATOM      8  C   UNL     1     133.194 135.139 138.277  1.00  0.00     0.126 C 
ATOM      9  C   UNL     1     135.501 135.949 139.119  1.00  0.00     0.014 C 
ATOM     10  C   UNL     1     130.875 135.779 137.268  1.00  0.00     0.014 C 
ENDROOT
BRANCH   8  11
ATOM     11  O   UNL     1     133.473 134.923 136.916  1.00  0.00    -0.392 OA
ATOM     12  H   UNL     1     132.647 135.163 136.420  1.00  0.00     0.211 HD
ENDBRANCH   8  11
TORSDOF 1
ENDMDL
MODEL 4
REMARK VINA RESULT:    -3.418     16.972     19.139
REMARK INTER + INTRA:          -3.518
REMARK INTER:                  -3.518
REMARK INTRA:                   0.000
REMARK UNBOUND:                 0.000
REMARK SMILES CC1(C)[C@@H]2CC[C@@](C)(C2)[C@@H]1O
REMARK SMILES IDX 1 1 2 2 4 3 5 4 6 5 7 6 9 7 10 8 8 9 3 10 11 11
REMARK H PARENT 11 12
REMARK Flexibility Score: inf
ROOT
ATOM      1  C   UNL     1     147.043 131.120 139.668  1.00  0.00     0.014 C 
ATOM      2  C   UNL     1     146.017 131.784 138.719  1.00  0.00    -0.006 C 
ATOM      3  C   UNL     1     144.656 132.006 139.468  1.00  0.00    -0.002 C 
ATOM      4  C   UNL     1     143.539 132.415 138.484  1.00  0.00     0.005 C 
ATOM      5  C   UNL     1     143.978 133.817 138.035  1.00  0.00     0.010 C 
ATOM      6  C   UNL     1     145.229 134.079 138.907  1.00  0.00    -0.006 C 
ATOM      7  C   UNL     1     144.877 133.332 140.176  1.00  0.00     0.013 C 
ATOM      8  C   UNL     1     146.435 133.256 138.385  1.00  0.00     0.126 C 
ATOM      9  C   UNL     1     145.535 135.564 139.123  1.00  0.00     0.014 C 
ATOM     10  C   UNL     1     145.887 130.875 137.469  1.00  0.00     0.014 C 
ENDROOT
BRANCH   8  11
ATOM     11  O   UNL     1     146.654 133.485 137.016  1.00  0.00    -0.392 OA
ATOM     12  H   UNL     1     145.899 133.056 136.535  1.00  0.00     0.211 HD
ENDBRANCH   8  11
TORSDOF 1
ENDMDL
MODEL 5
REMARK VINA RESULT:    -3.343     11.926     13.620
REMARK INTER + INTRA:          -3.440
REMARK INTER:                  -3.440
REMARK INTRA:                   0.000
REMARK UNBOUND:                 0.000
REMARK SMILES CC1(C)[C@@H]2CC[C@@](C)(C2)[C@@H]1O
REMARK SMILES IDX 1 1 2 2 4 3 5 4 6 5 7 6 9 7 10 8 8 9 3 10 11 11
REMARK H PARENT 11 12
REMARK Flexibility Score: inf
ROOT
ATOM      1  C   UNL     1     135.449 135.706 139.426  1.00  0.00     0.014 C 
ATOM      2  C   UNL     1     133.922 135.487 139.300  1.00  0.00    -0.006 C 
ATOM      3  C   UNL     1     133.169 136.289 140.419  1.00  0.00    -0.002 C 
ATOM      4  C   UNL     1     131.681 135.884 140.489  1.00  0.00     0.005 C 
ATOM      5  C   UNL     1     131.118 136.425 139.166  1.00  0.00     0.010 C 
ATOM      6  C   UNL     1     132.331 137.172 138.559  1.00  0.00    -0.006 C 
ATOM      7  C   UNL     1     133.034 137.672 139.803  1.00  0.00     0.013 C 
ATOM      8  C   UNL     1     133.366 136.162 138.001  1.00  0.00     0.126 C 
ATOM      9  C   UNL     1     131.947 138.280 137.573  1.00  0.00     0.014 C 
ATOM     10  C   UNL     1     133.667 133.959 139.366  1.00  0.00     0.014 C 
ENDROOT
BRANCH   8  11
ATOM     11  O   UNL     1     132.766 135.258 137.107  1.00  0.00    -0.392 OA
ATOM     12  H   UNL     1     133.165 134.369 137.297  1.00  0.00     0.211 HD
ENDBRANCH   8  11
TORSDOF 1
ENDMDL
MODEL 6
REMARK VINA RESULT:    -3.339     12.041     13.446
REMARK INTER + INTRA:          -3.437
REMARK INTER:                  -3.437
REMARK INTRA:                   0.000
REMARK UNBOUND:                 0.000
REMARK SMILES CC1(C)[C@@H]2CC[C@@](C)(C2)[C@@H]1O
REMARK SMILES IDX 1 1 2 2 4 3 5 4 6 5 7 6 9 7 10 8 8 9 3 10 11 11
REMARK H PARENT 11 12
REMARK Flexibility Score: inf
ROOT
ATOM      1  C   UNL     1     146.166 145.867 139.483  1.00  0.00     0.014 C 
ATOM      2  C   UNL     1     147.686 146.089 139.295  1.00  0.00    -0.006 C 
ATOM      3  C   UNL     1     148.484 145.325 140.409  1.00  0.00    -0.002 C 
ATOM      4  C   UNL     1     149.971 145.739 140.412  1.00  0.00     0.005 C 
ATOM      5  C   UNL     1     150.489 145.161 139.087  1.00  0.00     0.010 C 
ATOM      6  C   UNL     1     149.260 144.391 138.547  1.00  0.00    -0.006 C 
ATOM      7  C   UNL     1     148.606 143.925 139.831  1.00  0.00     0.013 C 
ATOM      8  C   UNL     1     148.199 145.379 137.997  1.00  0.00     0.126 C 
ATOM      9  C   UNL     1     149.615 143.256 137.581  1.00  0.00     0.014 C 
ATOM     10  C   UNL     1     147.934 147.620 139.305  1.00  0.00     0.014 C 
ENDROOT
BRANCH   8  11
ATOM     11  O   UNL     1     148.761 146.258 137.055  1.00  0.00    -0.392 OA
ATOM     12  H   UNL     1     148.976 145.711 136.255  1.00  0.00     0.211 HD
ENDBRANCH   8  11
TORSDOF 1
ENDMDL
MODEL 7
REMARK VINA RESULT:    -3.323     17.308     18.912
REMARK INTER + INTRA:          -3.420
REMARK INTER:                  -3.420
REMARK INTRA:                   0.000
REMARK UNBOUND:                 0.000
REMARK SMILES CC1(C)[C@@H]2CC[C@@](C)(C2)[C@@H]1O
REMARK SMILES IDX 1 1 2 2 4 3 5 4 6 5 7 6 9 7 10 8 8 9 3 10 11 11
REMARK H PARENT 11 12
REMARK Flexibility Score: inf
ROOT
ATOM      1  C   UNL     1     145.872 135.412 139.483  1.00  0.00     0.014 C 
ATOM      2  C   UNL     1     146.067 133.882 139.357  1.00  0.00    -0.006 C 
ATOM      3  C   UNL     1     145.243 133.140 140.467  1.00  0.00    -0.002 C 
ATOM      4  C   UNL     1     145.623 131.646 140.538  1.00  0.00     0.005 C 
ATOM      5  C   UNL     1     145.084 131.094 139.210  1.00  0.00     0.010 C 
ATOM      6  C   UNL     1     144.362 132.319 138.599  1.00  0.00    -0.006 C 
ATOM      7  C   UNL     1     143.863 133.028 139.840  1.00  0.00     0.013 C 
ATOM      8  C   UNL     1     145.394 133.339 138.051  1.00  0.00     0.126 C 
ATOM      9  C   UNL     1     143.257 131.955 137.602  1.00  0.00     0.014 C 
ATOM     10  C   UNL     1     147.590 133.602 139.435  1.00  0.00     0.014 C 
ENDROOT
BRANCH   8  11
ATOM     11  O   UNL     1     146.295 132.725 137.163  1.00  0.00    -0.392 OA
ATOM     12  H   UNL     1     147.003 133.396 136.975  1.00  0.00     0.211 HD
ENDBRANCH   8  11
TORSDOF 1
ENDMDL
