MODEL 1
REMARK VINA RESULT:    -5.453      0.000      0.000
REMARK INTER + INTRA:          -5.931
REMARK INTER:                  -5.931
REMARK INTRA:                   0.000
REMARK UNBOUND:                 0.000
REMARK SMILES Cc1cc(O)c2c(c1)C(=O)c1cc(O)cc(O)c1C2=O
REMARK SMILES IDX 1 1 2 2 8 3 7 4 6 5 4 6 3 7 19 8 20 9 18 10 11 11 9 12 10 13
REMARK SMILES IDX 12 14 13 15 15 16 16 17 5 18 17 20 14 22
REMARK H PARENT 5 19 17 21 14 23
REMARK Flexibility Score: inf
ROOT
ATOM      1  C   UNL     1      41.663  16.505  -1.711  1.00  0.00     0.044 C 
ATOM      2  C   UNL     1      42.892  16.676  -2.556  1.00  0.00    -0.047 A 
ATOM      3  C   UNL     1      43.944  15.759  -2.460  1.00  0.00     0.016 A 
ATOM      4  C   UNL     1      45.111  15.925  -3.226  1.00  0.00     0.038 A 
ATOM      5  C   UNL     1      45.225  17.028  -4.101  1.00  0.00     0.076 A 
ATOM      6  C   UNL     1      44.191  17.999  -4.129  1.00  0.00     0.127 A 
ATOM      7  C   UNL     1      43.031  17.801  -3.374  1.00  0.00     0.050 A 
ATOM      8  C   UNL     1      46.406  17.091  -5.001  1.00  0.00     0.201 C 
ATOM      9  O   UNL     1      46.307  17.653  -6.125  1.00  0.00    -0.288 OA
ATOM     10  C   UNL     1      47.636  16.331  -4.659  1.00  0.00     0.076 A 
ATOM     11  C   UNL     1      47.518  15.230  -3.781  1.00  0.00     0.041 A 
ATOM     12  C   UNL     1      46.224  14.953  -3.114  1.00  0.00     0.194 C 
ATOM     13  O   UNL     1      46.079  13.903  -2.430  1.00  0.00    -0.289 OA
ATOM     14  C   UNL     1      48.629  14.405  -3.541  1.00  0.00     0.059 A 
ATOM     15  C   UNL     1      49.855  14.671  -4.151  1.00  0.00     0.120 A 
ATOM     16  C   UNL     1      49.987  15.782  -4.988  1.00  0.00     0.093 A 
ATOM     17  C   UNL     1      48.902  16.631  -5.227  1.00  0.00     0.131 A 
ENDROOT
BRANCH   6  18
ATOM     18  O   UNL     1      44.289  19.185  -4.862  1.00  0.00    -0.507 OA
ATOM     19  H   UNL     1      45.078  19.815  -4.802  1.00  0.00     0.293 HD
ENDBRANCH   6  18
BRANCH  17  20
ATOM     20  O   UNL     1      49.133  17.771  -6.000  1.00  0.00    -0.507 OA
ATOM     21  H   UNL     1      50.008  17.962  -6.467  1.00  0.00     0.293 HD
ENDBRANCH  17  20
BRANCH  15  22
ATOM     22  O   UNL     1      50.940  13.832  -3.908  1.00  0.00    -0.508 OA
ATOM     23  H   UNL     1      51.877  14.198  -3.785  1.00  0.00     0.293 HD
ENDBRANCH  15  22
TORSDOF 3
ENDMDL
MODEL 2
REMARK VINA RESULT:    -5.320      1.804      3.672
REMARK INTER + INTRA:          -5.787
REMARK INTER:                  -5.787
REMARK INTRA:                   0.000
REMARK UNBOUND:                 0.000
REMARK SMILES Cc1cc(O)c2c(c1)C(=O)c1cc(O)cc(O)c1C2=O
REMARK SMILES IDX 1 1 2 2 8 3 7 4 6 5 4 6 3 7 19 8 20 9 18 10 11 11 9 12 10 13
REMARK SMILES IDX 12 14 13 15 15 16 16 17 5 18 17 20 14 22
REMARK H PARENT 5 19 17 21 14 23
REMARK Flexibility Score: inf
ROOT
ATOM      1  C   UNL     1      43.615  18.465  -5.300  1.00  0.00     0.044 C 
ATOM      2  C   UNL     1      44.693  17.526  -4.844  1.00  0.00    -0.047 A 
ATOM      3  C   UNL     1      46.003  17.681  -5.310  1.00  0.00     0.016 A 
ATOM      4  C   UNL     1      47.015  16.790  -4.912  1.00  0.00     0.038 A 
ATOM      5  C   UNL     1      46.709  15.728  -4.032  1.00  0.00     0.076 A 
ATOM      6  C   UNL     1      45.363  15.527  -3.631  1.00  0.00     0.127 A 
ATOM      7  C   UNL     1      44.377  16.438  -4.024  1.00  0.00     0.050 A 
ATOM      8  C   UNL     1      47.829  14.898  -3.517  1.00  0.00     0.201 C 
ATOM      9  O   UNL     1      47.742  14.369  -2.376  1.00  0.00    -0.288 OA
ATOM     10  C   UNL     1      49.115  14.852  -4.259  1.00  0.00     0.076 A 
ATOM     11  C   UNL     1      49.417  15.915  -5.140  1.00  0.00     0.041 A 
ATOM     12  C   UNL     1      48.399  16.957  -5.415  1.00  0.00     0.194 C 
ATOM     13  O   UNL     1      48.704  17.972  -6.100  1.00  0.00    -0.289 OA
ATOM     14  C   UNL     1      50.678  15.977  -5.754  1.00  0.00     0.059 A 
ATOM     15  C   UNL     1      51.633  14.990  -5.515  1.00  0.00     0.120 A 
ATOM     16  C   UNL     1      51.326  13.915  -4.676  1.00  0.00     0.093 A 
ATOM     17  C   UNL     1      50.070  13.819  -4.068  1.00  0.00     0.131 A 
ENDROOT
BRANCH   6  18
ATOM     18  O   UNL     1      44.956  14.423  -2.877  1.00  0.00    -0.507 OA
ATOM     19  H   UNL     1      44.701  13.533  -3.283  1.00  0.00     0.293 HD
ENDBRANCH   6  18
BRANCH  17  20
ATOM     20  O   UNL     1      49.803  12.672  -3.317  1.00  0.00    -0.507 OA
ATOM     21  H   UNL     1      49.154  11.954  -3.606  1.00  0.00     0.293 HD
ENDBRANCH  17  20
BRANCH  15  22
ATOM     22  O   UNL     1      52.882  15.080  -6.125  1.00  0.00    -0.508 OA
ATOM     23  H   UNL     1      53.729  14.800  -5.643  1.00  0.00     0.293 HD
ENDBRANCH  15  22
TORSDOF 3
ENDMDL
MODEL 3
REMARK VINA RESULT:    -5.200      1.756      6.552
REMARK INTER + INTRA:          -5.656
REMARK INTER:                  -5.656
REMARK INTRA:                   0.000
REMARK UNBOUND:                 0.000
REMARK SMILES Cc1cc(O)c2c(c1)C(=O)c1cc(O)cc(O)c1C2=O
REMARK SMILES IDX 1 1 2 2 8 3 7 4 6 5 4 6 3 7 19 8 20 9 18 10 11 11 9 12 10 13
REMARK SMILES IDX 12 14 13 15 15 16 16 17 5 18 17 20 14 22
REMARK H PARENT 5 19 17 21 14 23
REMARK Flexibility Score: inf
ROOT
ATOM      1  C   UNL     1      49.520  15.951  -5.295  1.00  0.00     0.044 C 
ATOM      2  C   UNL     1      48.156  15.886  -4.673  1.00  0.00    -0.047 A 
ATOM      3  C   UNL     1      47.209  16.877  -4.950  1.00  0.00     0.016 A 
ATOM      4  C   UNL     1      45.938  16.841  -4.351  1.00  0.00     0.038 A 
ATOM      5  C   UNL     1      45.611  15.794  -3.460  1.00  0.00     0.076 A 
ATOM      6  C   UNL     1      46.604  14.841  -3.118  1.00  0.00     0.127 A 
ATOM      7  C   UNL     1      47.855  14.886  -3.743  1.00  0.00     0.050 A 
ATOM      8  C   UNL     1      44.213  15.707  -2.963  1.00  0.00     0.201 C 
ATOM      9  O   UNL     1      43.721  14.583  -2.676  1.00  0.00    -0.288 OA
ATOM     10  C   UNL     1      43.345  16.912  -2.984  1.00  0.00     0.076 A 
ATOM     11  C   UNL     1      43.677  17.958  -3.874  1.00  0.00     0.041 A 
ATOM     12  C   UNL     1      44.942  17.899  -4.644  1.00  0.00     0.194 C 
ATOM     13  O   UNL     1      45.183  18.764  -5.530  1.00  0.00    -0.289 OA
ATOM     14  C   UNL     1      42.808  19.051  -4.023  1.00  0.00     0.059 A 
ATOM     15  C   UNL     1      41.625  19.122  -3.288  1.00  0.00     0.120 A 
ATOM     16  C   UNL     1      41.312  18.110  -2.376  1.00  0.00     0.093 A 
ATOM     17  C   UNL     1      42.171  17.022  -2.195  1.00  0.00     0.131 A 
ENDROOT
BRANCH   6  18
ATOM     18  O   UNL     1      46.406  13.859  -2.144  1.00  0.00    -0.507 OA
ATOM     19  H   UNL     1      47.161  13.397  -1.656  1.00  0.00     0.293 HD
ENDBRANCH   6  18
BRANCH  17  20
ATOM     20  O   UNL     1      41.838  16.097  -1.202  1.00  0.00    -0.507 OA
ATOM     21  H   UNL     1      40.894  15.938  -0.880  1.00  0.00     0.293 HD
ENDBRANCH  17  20
BRANCH  15  22
ATOM     22  O   UNL     1      40.772  20.210  -3.462  1.00  0.00    -0.508 OA
ATOM     23  H   UNL     1      41.061  21.033  -3.977  1.00  0.00     0.293 HD
ENDBRANCH  15  22
TORSDOF 3
ENDMDL
MODEL 4
REMARK VINA RESULT:    -5.066      1.611      6.245
REMARK INTER + INTRA:          -5.510
REMARK INTER:                  -5.510
REMARK INTRA:                   0.000
REMARK UNBOUND:                 0.000
REMARK SMILES Cc1cc(O)c2c(c1)C(=O)c1cc(O)cc(O)c1C2=O
REMARK SMILES IDX 1 1 2 2 8 3 7 4 6 5 4 6 3 7 19 8 20 9 18 10 11 11 9 12 10 13
REMARK SMILES IDX 12 14 13 15 15 16 16 17 5 18 17 20 14 22
REMARK H PARENT 5 19 17 21 14 23
REMARK Flexibility Score: inf
ROOT
ATOM      1  C   UNL     1      50.550  14.103  -4.216  1.00  0.00     0.044 C 
ATOM      2  C   UNL     1      49.096  14.283  -3.892  1.00  0.00    -0.047 A 
ATOM      3  C   UNL     1      48.403  15.400  -4.371  1.00  0.00     0.016 A 
ATOM      4  C   UNL     1      47.049  15.593  -4.050  1.00  0.00     0.038 A 
ATOM      5  C   UNL     1      46.378  14.652  -3.237  1.00  0.00     0.076 A 
ATOM      6  C   UNL     1      47.109  13.569  -2.686  1.00  0.00     0.127 A 
ATOM      7  C   UNL     1      48.451  13.386  -3.036  1.00  0.00     0.050 A 
ATOM      8  C   UNL     1      44.913  14.811  -3.042  1.00  0.00     0.201 C 
ATOM      9  O   UNL     1      44.193  13.794  -2.854  1.00  0.00    -0.288 OA
ATOM     10  C   UNL     1      44.279  16.137  -3.256  1.00  0.00     0.076 A 
ATOM     11  C   UNL     1      44.954  17.077  -4.067  1.00  0.00     0.041 A 
ATOM     12  C   UNL     1      46.322  16.783  -4.555  1.00  0.00     0.194 C 
ATOM     13  O   UNL     1      46.879  17.559  -5.380  1.00  0.00    -0.289 OA
ATOM     14  C   UNL     1      44.326  18.287  -4.405  1.00  0.00     0.059 A 
ATOM     15  C   UNL     1      43.047  18.579  -3.934  1.00  0.00     0.120 A 
ATOM     16  C   UNL     1      42.391  17.670  -3.098  1.00  0.00     0.093 A 
ATOM     17  C   UNL     1      43.002  16.468  -2.730  1.00  0.00     0.131 A 
ENDROOT
BRANCH   6  18
ATOM     18  O   UNL     1      46.556  12.675  -1.765  1.00  0.00    -0.507 OA
ATOM     19  H   UNL     1      45.780  12.907  -1.159  1.00  0.00     0.293 HD
ENDBRANCH   6  18
BRANCH  17  20
ATOM     20  O   UNL     1      42.326  15.653  -1.820  1.00  0.00    -0.507 OA
ATOM     21  H   UNL     1      41.322  15.651  -1.710  1.00  0.00     0.293 HD
ENDBRANCH  17  20
BRANCH  15  22
ATOM     22  O   UNL     1      42.439  19.779  -4.293  1.00  0.00    -0.508 OA
ATOM     23  H   UNL     1      42.561  20.621  -3.742  1.00  0.00     0.293 HD
ENDBRANCH  15  22
TORSDOF 3
ENDMDL
MODEL 5
REMARK VINA RESULT:    -4.959      2.472      4.099
REMARK INTER + INTRA:          -5.393
REMARK INTER:                  -5.393
REMARK INTRA:                   0.000
REMARK UNBOUND:                 0.000
REMARK SMILES Cc1cc(O)c2c(c1)C(=O)c1cc(O)cc(O)c1C2=O
REMARK SMILES IDX 1 1 2 2 8 3 7 4 6 5 4 6 3 7 19 8 20 9 18 10 11 11 9 12 10 13
REMARK SMILES IDX 12 14 13 15 15 16 16 17 5 18 17 20 14 22
REMARK H PARENT 5 19 17 21 14 23
REMARK Flexibility Score: inf
ROOT
ATOM      1  C   UNL     1      39.977  20.705  -0.159  1.00  0.00     0.044 C 
ATOM      2  C   UNL     1      41.016  20.135  -1.079  1.00  0.00    -0.047 A 
ATOM      3  C   UNL     1      41.179  18.750  -1.184  1.00  0.00     0.016 A 
ATOM      4  C   UNL     1      42.169  18.207  -2.021  1.00  0.00     0.038 A 
ATOM      5  C   UNL     1      43.008  19.066  -2.766  1.00  0.00     0.076 A 
ATOM      6  C   UNL     1      42.893  20.468  -2.589  1.00  0.00     0.127 A 
ATOM      7  C   UNL     1      41.888  20.986  -1.766  1.00  0.00     0.050 A 
ATOM      8  C   UNL     1      43.940  18.456  -3.750  1.00  0.00     0.201 C 
ATOM      9  O   UNL     1      44.263  19.097  -4.785  1.00  0.00    -0.288 OA
ATOM     10  C   UNL     1      44.337  17.032  -3.607  1.00  0.00     0.076 A 
ATOM     11  C   UNL     1      43.496  16.176  -2.859  1.00  0.00     0.041 A 
ATOM     12  C   UNL     1      42.340  16.738  -2.122  1.00  0.00     0.194 C 
ATOM     13  O   UNL     1      41.516  15.966  -1.557  1.00  0.00    -0.289 OA
ATOM     14  C   UNL     1      43.763  14.798  -2.816  1.00  0.00     0.059 A 
ATOM     15  C   UNL     1      44.860  14.265  -3.492  1.00  0.00     0.120 A 
ATOM     16  C   UNL     1      45.717  15.113  -4.199  1.00  0.00     0.093 A 
ATOM     17  C   UNL     1      45.486  16.491  -4.241  1.00  0.00     0.131 A 
ENDROOT
BRANCH   6  18
ATOM     18  O   UNL     1      43.774  21.378  -3.181  1.00  0.00    -0.507 OA
ATOM     19  H   UNL     1      44.327  21.168  -4.001  1.00  0.00     0.293 HD
ENDBRANCH   6  18
BRANCH  17  20
ATOM     20  O   UNL     1      46.435  17.285  -4.890  1.00  0.00    -0.507 OA
ATOM     21  H   UNL     1      46.933  16.994  -5.719  1.00  0.00     0.293 HD
ENDBRANCH  17  20
BRANCH  15  22
ATOM     22  O   UNL     1      45.097  12.894  -3.445  1.00  0.00    -0.508 OA
ATOM     23  H   UNL     1      44.831  12.337  -2.640  1.00  0.00     0.293 HD
ENDBRANCH  15  22
TORSDOF 3
ENDMDL
MODEL 6
REMARK VINA RESULT:    -4.893      1.292      6.408
REMARK INTER + INTRA:          -5.322
REMARK INTER:                  -5.322
REMARK INTRA:                   0.000
REMARK UNBOUND:                 0.000
REMARK SMILES Cc1cc(O)c2c(c1)C(=O)c1cc(O)cc(O)c1C2=O
REMARK SMILES IDX 1 1 2 2 8 3 7 4 6 5 4 6 3 7 19 8 20 9 18 10 11 11 9 12 10 13
REMARK SMILES IDX 12 14 13 15 15 16 16 17 5 18 17 20 14 22
REMARK H PARENT 5 19 17 21 14 23
REMARK Flexibility Score: inf
ROOT
ATOM      1  C   UNL     1      52.476  15.722  -5.684  1.00  0.00     0.044 C 
ATOM      2  C   UNL     1      51.086  15.381  -5.234  1.00  0.00    -0.047 A 
ATOM      3  C   UNL     1      50.024  16.249  -5.514  1.00  0.00     0.016 A 
ATOM      4  C   UNL     1      48.723  15.953  -5.073  1.00  0.00     0.038 A 
ATOM      5  C   UNL     1      48.481  14.770  -4.340  1.00  0.00     0.076 A 
ATOM      6  C   UNL     1      49.575  13.939  -3.987  1.00  0.00     0.127 A 
ATOM      7  C   UNL     1      50.858  14.243  -4.455  1.00  0.00     0.050 A 
ATOM      8  C   UNL     1      47.073  14.418  -4.020  1.00  0.00     0.201 C 
ATOM      9  O   UNL     1      46.741  13.207  -3.911  1.00  0.00    -0.288 OA
ATOM     10  C   UNL     1      46.031  15.475  -4.016  1.00  0.00     0.076 A 
ATOM     11  C   UNL     1      46.277  16.659  -4.748  1.00  0.00     0.041 A 
ATOM     12  C   UNL     1      47.604  16.881  -5.368  1.00  0.00     0.194 C 
ATOM     13  O   UNL     1      47.790  17.873  -6.125  1.00  0.00    -0.289 OA
ATOM     14  C   UNL     1      45.263  17.622  -4.881  1.00  0.00     0.059 A 
ATOM     15  C   UNL     1      44.018  17.429  -4.284  1.00  0.00     0.120 A 
ATOM     16  C   UNL     1      43.782  16.279  -3.526  1.00  0.00     0.093 A 
ATOM     17  C   UNL     1      44.781  15.315  -3.360  1.00  0.00     0.131 A 
ENDROOT
BRANCH   6  18
ATOM     18  O   UNL     1      49.441  12.829  -3.150  1.00  0.00    -0.507 OA
ATOM     19  H   UNL     1      48.965  11.979  -3.421  1.00  0.00     0.293 HD
ENDBRANCH   6  18
BRANCH  17  20
ATOM     20  O   UNL     1      44.505  14.238  -2.514  1.00  0.00    -0.507 OA
ATOM     21  H   UNL     1      43.660  14.161  -1.965  1.00  0.00     0.293 HD
ENDBRANCH  17  20
BRANCH  15  22
ATOM     22  O   UNL     1      43.023  18.391  -4.442  1.00  0.00    -0.508 OA
ATOM     23  H   UNL     1      42.727  18.978  -3.670  1.00  0.00     0.293 HD
ENDBRANCH  15  22
TORSDOF 3
ENDMDL
MODEL 7
REMARK VINA RESULT:    -4.887      3.827      5.917
REMARK INTER + INTRA:          -5.316
REMARK INTER:                  -5.316
REMARK INTRA:                   0.000
REMARK UNBOUND:                 0.000
REMARK SMILES Cc1cc(O)c2c(c1)C(=O)c1cc(O)cc(O)c1C2=O
REMARK SMILES IDX 1 1 2 2 8 3 7 4 6 5 4 6 3 7 19 8 20 9 18 10 11 11 9 12 10 13
REMARK SMILES IDX 12 14 13 15 15 16 16 17 5 18 17 20 14 22
REMARK H PARENT 5 19 17 21 14 23
REMARK Flexibility Score: inf
ROOT
ATOM      1  C   UNL     1      38.875  21.382  -0.042  1.00  0.00     0.044 C 
ATOM      2  C   UNL     1      39.978  20.541  -0.615  1.00  0.00    -0.047 A 
ATOM      3  C   UNL     1      39.687  19.304  -1.199  1.00  0.00     0.016 A 
ATOM      4  C   UNL     1      40.715  18.496  -1.713  1.00  0.00     0.038 A 
ATOM      5  C   UNL     1      42.056  18.934  -1.641  1.00  0.00     0.076 A 
ATOM      6  C   UNL     1      42.352  20.150  -0.972  1.00  0.00     0.127 A 
ATOM      7  C   UNL     1      41.310  20.946  -0.486  1.00  0.00     0.050 A 
ATOM      8  C   UNL     1      43.098  18.124  -2.325  1.00  0.00     0.201 C 
ATOM      9  O   UNL     1      44.126  18.689  -2.787  1.00  0.00    -0.288 OA
ATOM     10  C   UNL     1      42.839  16.694  -2.629  1.00  0.00     0.076 A 
ATOM     11  C   UNL     1      41.496  16.257  -2.698  1.00  0.00     0.041 A 
ATOM     12  C   UNL     1      40.400  17.182  -2.325  1.00  0.00     0.194 C 
ATOM     13  O   UNL     1      39.198  16.842  -2.503  1.00  0.00    -0.289 OA
ATOM     14  C   UNL     1      41.207  14.948  -3.115  1.00  0.00     0.059 A 
ATOM     15  C   UNL     1      42.235  14.067  -3.450  1.00  0.00     0.120 A 
ATOM     16  C   UNL     1      43.566  14.480  -3.345  1.00  0.00     0.093 A 
ATOM     17  C   UNL     1      43.881  15.772  -2.912  1.00  0.00     0.131 A 
ENDROOT
BRANCH   6  18
ATOM     18  O   UNL     1      43.659  20.584  -0.737  1.00  0.00    -0.507 OA
ATOM     19  H   UNL     1      44.359  20.665  -1.461  1.00  0.00     0.293 HD
ENDBRANCH   6  18
BRANCH  17  20
ATOM     20  O   UNL     1      45.232  16.084  -2.744  1.00  0.00    -0.507 OA
ATOM     21  H   UNL     1      45.723  16.764  -3.307  1.00  0.00     0.293 HD
ENDBRANCH  17  20
BRANCH  15  22
ATOM     22  O   UNL     1      41.923  12.777  -3.874  1.00  0.00    -0.508 OA
ATOM     23  H   UNL     1      41.223  12.609  -4.587  1.00  0.00     0.293 HD
ENDBRANCH  15  22
TORSDOF 3
ENDMDL
MODEL 8
REMARK VINA RESULT:    -4.882      2.006      3.627
REMARK INTER + INTRA:          -5.310
REMARK INTER:                  -5.310
REMARK INTRA:                   0.000
REMARK UNBOUND:                 0.000
REMARK SMILES Cc1cc(O)c2c(c1)C(=O)c1cc(O)cc(O)c1C2=O
REMARK SMILES IDX 1 1 2 2 8 3 7 4 6 5 4 6 3 7 19 8 20 9 18 10 11 11 9 12 10 13
REMARK SMILES IDX 12 14 13 15 15 16 16 17 5 18 17 20 14 22
REMARK H PARENT 5 19 17 21 14 23
REMARK Flexibility Score: inf
ROOT
ATOM      1  C   UNL     1      43.829  19.027  -5.252  1.00  0.00     0.044 C 
ATOM      2  C   UNL     1      44.890  17.981  -5.077  1.00  0.00    -0.047 A 
ATOM      3  C   UNL     1      44.656  16.874  -4.253  1.00  0.00     0.016 A 
ATOM      4  C   UNL     1      45.653  15.903  -4.060  1.00  0.00     0.038 A 
ATOM      5  C   UNL     1      46.904  16.042  -4.701  1.00  0.00     0.076 A 
ATOM      6  C   UNL     1      47.163  17.209  -5.466  1.00  0.00     0.127 A 
ATOM      7  C   UNL     1      46.149  18.152  -5.661  1.00  0.00     0.050 A 
ATOM      8  C   UNL     1      47.878  14.925  -4.592  1.00  0.00     0.201 C 
ATOM      9  O   UNL     1      48.694  14.713  -5.529  1.00  0.00    -0.288 OA
ATOM     10  C   UNL     1      47.762  13.951  -3.476  1.00  0.00     0.076 A 
ATOM     11  C   UNL     1      46.510  13.816  -2.834  1.00  0.00     0.041 A 
ATOM     12  C   UNL     1      45.401  14.737  -3.180  1.00  0.00     0.194 C 
ATOM     13  O   UNL     1      44.248  14.543  -2.705  1.00  0.00    -0.289 OA
ATOM     14  C   UNL     1      46.323  12.813  -1.870  1.00  0.00     0.059 A 
ATOM     15  C   UNL     1      47.368  11.956  -1.526  1.00  0.00     0.120 A 
ATOM     16  C   UNL     1      48.620  12.111  -2.128  1.00  0.00     0.093 A 
ATOM     17  C   UNL     1      48.837  13.115  -3.077  1.00  0.00     0.131 A 
ENDROOT
BRANCH   6  18
ATOM     18  O   UNL     1      48.417  17.488  -6.017  1.00  0.00    -0.507 OA
ATOM     19  H   UNL     1      49.290  17.268  -5.557  1.00  0.00     0.293 HD
ENDBRANCH   6  18
BRANCH  17  20
ATOM     20  O   UNL     1      50.136  13.268  -3.567  1.00  0.00    -0.507 OA
ATOM     21  H   UNL     1      50.963  12.991  -3.057  1.00  0.00     0.293 HD
ENDBRANCH  17  20
BRANCH  15  22
ATOM     22  O   UNL     1      47.156  10.960  -0.576  1.00  0.00    -0.508 OA
ATOM     23  H   UNL     1      47.482  11.059   0.378  1.00  0.00     0.293 HD
ENDBRANCH  15  22
TORSDOF 3
ENDMDL
MODEL 9
REMARK VINA RESULT:    -4.861      2.412      5.716
REMARK INTER + INTRA:          -5.287
REMARK INTER:                  -5.287
REMARK INTRA:                   0.000
REMARK UNBOUND:                 0.000
REMARK SMILES Cc1cc(O)c2c(c1)C(=O)c1cc(O)cc(O)c1C2=O
REMARK SMILES IDX 1 1 2 2 8 3 7 4 6 5 4 6 3 7 19 8 20 9 18 10 11 11 9 12 10 13
REMARK SMILES IDX 12 14 13 15 15 16 16 17 5 18 17 20 14 22
REMARK H PARENT 5 19 17 21 14 23
REMARK Flexibility Score: inf
ROOT
ATOM      1  C   UNL     1      52.721  15.354  -5.744  1.00  0.00     0.044 C 
ATOM      2  C   UNL     1      51.275  15.410  -5.349  1.00  0.00    -0.047 A 
ATOM      3  C   UNL     1      50.701  14.357  -4.629  1.00  0.00     0.016 A 
ATOM      4  C   UNL     1      49.340  14.386  -4.279  1.00  0.00     0.038 A 
ATOM      5  C   UNL     1      48.541  15.489  -4.657  1.00  0.00     0.076 A 
ATOM      6  C   UNL     1      49.109  16.511  -5.460  1.00  0.00     0.127 A 
ATOM      7  C   UNL     1      50.470  16.470  -5.778  1.00  0.00     0.050 A 
ATOM      8  C   UNL     1      47.148  15.555  -4.144  1.00  0.00     0.201 C 
ATOM      9  O   UNL     1      46.607  16.676  -3.946  1.00  0.00    -0.288 OA
ATOM     10  C   UNL     1      46.469  14.314  -3.690  1.00  0.00     0.076 A 
ATOM     11  C   UNL     1      47.271  13.212  -3.316  1.00  0.00     0.041 A 
ATOM     12  C   UNL     1      48.738  13.263  -3.522  1.00  0.00     0.194 C 
ATOM     13  O   UNL     1      49.470  12.338  -3.076  1.00  0.00    -0.289 OA
ATOM     14  C   UNL     1      46.674  12.073  -2.753  1.00  0.00     0.059 A 
ATOM     15  C   UNL     1      45.292  12.010  -2.573  1.00  0.00     0.120 A 
ATOM     16  C   UNL     1      44.491  13.081  -2.979  1.00  0.00     0.093 A 
ATOM     17  C   UNL     1      45.058  14.219  -3.561  1.00  0.00     0.131 A 
ENDROOT
BRANCH   6  18
ATOM     18  O   UNL     1      48.355  17.562  -5.990  1.00  0.00    -0.507 OA
ATOM     19  H   UNL     1      47.361  17.668  -5.837  1.00  0.00     0.293 HD
ENDBRANCH   6  18
BRANCH  17  20
ATOM     20  O   UNL     1      44.188  15.208  -4.025  1.00  0.00    -0.507 OA
ATOM     21  H   UNL     1      44.333  16.196  -3.872  1.00  0.00     0.293 HD
ENDBRANCH  17  20
BRANCH  15  22
ATOM     22  O   UNL     1      44.724  10.875  -2.001  1.00  0.00    -0.508 OA
ATOM     23  H   UNL     1      45.291  10.084  -1.718  1.00  0.00     0.293 HD
ENDBRANCH  15  22
TORSDOF 3
ENDMDL
