MODEL 1
REMARK VINA RESULT:    -4.780      0.000      0.000
REMARK INTER + INTRA:          -7.652
REMARK INTER:                  -7.016
REMARK INTRA:                  -0.636
REMARK UNBOUND:                -0.636
REMARK SMILES O=C([O-])CCCCCCCC(=O)[O-]
REMARK SMILES IDX 7 1 6 2 5 3 4 4 2 5 1 6 3 7 8 8 9 9 10 10 11 11 12 12 13 13
REMARK H PARENT
REMARK Flexibility Score: inf
ROOT
ATOM      1  C   UNL     1       8.648  54.244  22.690  1.00  0.00     0.000 C 
ENDROOT
BRANCH   1   2
ATOM      2  C   UNL     1       7.960  53.363  23.743  1.00  0.00     0.000 C 
BRANCH   2   3
ATOM      3  C   UNL     1       7.982  54.038  25.123  1.00  0.00     0.006 C 
BRANCH   3   4
ATOM      4  C   UNL     1       9.083  55.101  25.233  1.00  0.00     0.053 C 
BRANCH   4   5
ATOM      5  C   UNL     1      10.101  54.739  26.271  1.00  0.00     0.041 C 
ATOM      6  O   UNL     1       9.778  54.692  27.487  1.00  0.00    -0.550 OA
ATOM      7  O   UNL     1      11.400  54.425  25.891  1.00  0.00    -0.550 OA
ENDBRANCH   4   5
ENDBRANCH   3   4
ENDBRANCH   2   3
ENDBRANCH   1   2
BRANCH   1   8
ATOM      8  C   UNL     1       7.956  54.177  21.320  1.00  0.00     0.000 C 
BRANCH   8   9
ATOM      9  C   UNL     1       7.469  55.553  20.833  1.00  0.00     0.006 C 
BRANCH   9  10
ATOM     10  C   UNL     1       7.221  56.524  21.996  1.00  0.00     0.053 C 
BRANCH  10  11
ATOM     11  C   UNL     1       5.776  56.553  22.393  1.00  0.00     0.041 C 
ATOM     12  O   UNL     1       5.112  57.618  22.287  1.00  0.00    -0.550 OA
ATOM     13  O   UNL     1       5.175  55.415  22.912  1.00  0.00    -0.550 OA
ENDBRANCH  10  11
ENDBRANCH   9  10
ENDBRANCH   8   9
ENDBRANCH   1   8
TORSDOF 8
ENDMDL
MODEL 2
REMARK VINA RESULT:    -4.766      1.789      5.132
REMARK INTER + INTRA:          -7.631
REMARK INTER:                  -6.931
REMARK INTRA:                  -0.701
REMARK UNBOUND:                -0.636
REMARK SMILES O=C([O-])CCCCCCCC(=O)[O-]
REMARK SMILES IDX 7 1 6 2 5 3 4 4 2 5 1 6 3 7 8 8 9 9 10 10 11 11 12 12 13 13
REMARK H PARENT
REMARK Flexibility Score: inf
ROOT
ATOM      1  C   UNL     1       7.811  52.846  23.844  1.00  0.00     0.000 C 
ENDROOT
BRANCH   1   2
ATOM      2  C   UNL     1       6.758  53.951  24.014  1.00  0.00     0.000 C 
BRANCH   2   3
ATOM      3  C   UNL     1       6.088  54.283  22.672  1.00  0.00     0.006 C 
BRANCH   3   4
ATOM      4  C   UNL     1       6.263  55.757  22.283  1.00  0.00     0.053 C 
BRANCH   4   5
ATOM      5  C   UNL     1       7.277  55.926  21.194  1.00  0.00     0.041 C 
ATOM      6  O   UNL     1       8.040  56.928  21.188  1.00  0.00    -0.550 OA
ATOM      7  O   UNL     1       7.400  54.962  20.202  1.00  0.00    -0.550 OA
ENDBRANCH   4   5
ENDBRANCH   3   4
ENDBRANCH   2   3
ENDBRANCH   1   2
BRANCH   1   8
ATOM      8  C   UNL     1       9.053  53.327  23.077  1.00  0.00     0.000 C 
BRANCH   8   9
ATOM      9  C   UNL     1       9.722  54.546  23.736  1.00  0.00     0.006 C 
BRANCH   9  10
ATOM     10  C   UNL     1      10.705  54.140  24.841  1.00  0.00     0.053 C 
BRANCH  10  11
ATOM     11  C   UNL     1      10.268  54.644  26.183  1.00  0.00     0.041 C 
ATOM     12  O   UNL     1      11.061  54.614  27.161  1.00  0.00    -0.550 OA
ATOM     13  O   UNL     1       8.975  55.115  26.361  1.00  0.00    -0.550 OA
ENDBRANCH  10  11
ENDBRANCH   9  10
ENDBRANCH   8   9
ENDBRANCH   1   8
TORSDOF 8
ENDMDL
MODEL 3
REMARK VINA RESULT:    -4.742      1.105      5.129
REMARK INTER + INTRA:          -7.596
REMARK INTER:                  -7.150
REMARK INTRA:                  -0.446
REMARK UNBOUND:                -0.636
REMARK SMILES O=C([O-])CCCCCCCC(=O)[O-]
REMARK SMILES IDX 7 1 6 2 5 3 4 4 2 5 1 6 3 7 8 8 9 9 10 10 11 11 12 12 13 13
REMARK H PARENT
REMARK Flexibility Score: inf
ROOT
ATOM      1  C   UNL     1       8.918  54.608  22.364  1.00  0.00     0.000 C 
ENDROOT
BRANCH   1   2
ATOM      2  C   UNL     1       7.983  54.449  21.155  1.00  0.00     0.000 C 
BRANCH   2   3
ATOM      3  C   UNL     1       7.353  55.795  20.767  1.00  0.00     0.006 C 
BRANCH   3   4
ATOM      4  C   UNL     1       7.110  56.696  21.986  1.00  0.00     0.053 C 
BRANCH   4   5
ATOM      5  C   UNL     1       5.692  56.613  22.462  1.00  0.00     0.041 C 
ATOM      6  O   UNL     1       4.952  57.632  22.433  1.00  0.00    -0.550 OA
ATOM      7  O   UNL     1       5.178  55.403  22.909  1.00  0.00    -0.550 OA
ENDBRANCH   4   5
ENDBRANCH   3   4
ENDBRANCH   2   3
ENDBRANCH   1   2
BRANCH   1   8
ATOM      8  C   UNL     1       9.685  53.317  22.691  1.00  0.00     0.000 C 
BRANCH   8   9
ATOM      9  C   UNL     1      10.201  53.286  24.141  1.00  0.00     0.006 C 
BRANCH   9  10
ATOM     10  C   UNL     1      10.047  54.643  24.839  1.00  0.00     0.053 C 
BRANCH  10  11
ATOM     11  C   UNL     1       9.180  54.543  26.057  1.00  0.00     0.041 C 
ATOM     12  O   UNL     1       7.951  54.293  25.941  1.00  0.00    -0.550 OA
ATOM     13  O   UNL     1       9.722  54.760  27.316  1.00  0.00    -0.550 OA
ENDBRANCH  10  11
ENDBRANCH   9  10
ENDBRANCH   8   9
ENDBRANCH   1   8
TORSDOF 8
ENDMDL
MODEL 4
REMARK VINA RESULT:    -4.627      2.220      2.928
REMARK INTER + INTRA:          -7.428
REMARK INTER:                  -6.781
REMARK INTRA:                  -0.646
REMARK UNBOUND:                -0.636
REMARK SMILES O=C([O-])CCCCCCCC(=O)[O-]
REMARK SMILES IDX 7 1 6 2 5 3 4 4 2 5 1 6 3 7 8 8 9 9 10 10 11 11 12 12 13 13
REMARK H PARENT
REMARK Flexibility Score: inf
ROOT
ATOM      1  C   UNL     1       5.970  55.286  22.993  1.00  0.00     0.000 C 
ENDROOT
BRANCH   1   2
ATOM      2  C   UNL     1       6.305  53.973  23.717  1.00  0.00     0.000 C 
BRANCH   2   3
ATOM      3  C   UNL     1       7.532  54.145  24.626  1.00  0.00     0.006 C 
BRANCH   3   4
ATOM      4  C   UNL     1       8.646  53.144  24.294  1.00  0.00     0.053 C 
BRANCH   4   5
ATOM      5  C   UNL     1       9.987  53.809  24.230  1.00  0.00     0.041 C 
ATOM      6  O   UNL     1      10.532  54.241  25.281  1.00  0.00    -0.550 OA
ATOM      7  O   UNL     1      10.649  53.924  23.015  1.00  0.00    -0.550 OA
ENDBRANCH   4   5
ENDBRANCH   3   4
ENDBRANCH   2   3
ENDBRANCH   1   2
BRANCH   1   8
ATOM      8  C   UNL     1       7.214  56.151  22.732  1.00  0.00     0.000 C 
BRANCH   8   9
ATOM      9  C   UNL     1       7.582  56.227  21.240  1.00  0.00     0.006 C 
BRANCH   9  10
ATOM     10  C   UNL     1       8.031  54.869  20.685  1.00  0.00     0.053 C 
BRANCH  10  11
ATOM     11  C   UNL     1       7.054  54.329  19.686  1.00  0.00     0.041 C 
ATOM     12  O   UNL     1       6.334  53.337  19.976  1.00  0.00    -0.550 OA
ATOM     13  O   UNL     1       6.963  54.899  18.424  1.00  0.00    -0.550 OA
ENDBRANCH  10  11
ENDBRANCH   9  10
ENDBRANCH   8   9
ENDBRANCH   1   8
TORSDOF 8
ENDMDL
MODEL 5
REMARK VINA RESULT:    -4.620      2.234      5.680
REMARK INTER + INTRA:          -7.416
REMARK INTER:                  -6.912
REMARK INTRA:                  -0.504
REMARK UNBOUND:                -0.636
REMARK SMILES O=C([O-])CCCCCCCC(=O)[O-]
REMARK SMILES IDX 7 1 6 2 5 3 4 4 2 5 1 6 3 7 8 8 9 9 10 10 11 11 12 12 13 13
REMARK H PARENT
REMARK Flexibility Score: inf
ROOT
ATOM      1  C   UNL     1       7.066  53.542  22.977  1.00  0.00     0.000 C 
ENDROOT
BRANCH   1   2
ATOM      2  C   UNL     1       6.601  55.003  23.061  1.00  0.00     0.000 C 
BRANCH   2   3
ATOM      3  C   UNL     1       6.714  55.695  21.694  1.00  0.00     0.006 C 
BRANCH   3   4
ATOM      4  C   UNL     1       7.712  54.991  20.767  1.00  0.00     0.053 C 
BRANCH   4   5
ATOM      5  C   UNL     1       7.045  54.468  19.531  1.00  0.00     0.041 C 
ATOM      6  O   UNL     1       7.038  55.154  18.475  1.00  0.00    -0.550 OA
ATOM      7  O   UNL     1       6.459  53.209  19.537  1.00  0.00    -0.550 OA
ENDBRANCH   4   5
ENDBRANCH   3   4
ENDBRANCH   2   3
ENDBRANCH   1   2
BRANCH   1   8
ATOM      8  C   UNL     1       7.842  53.096  24.227  1.00  0.00     0.000 C 
BRANCH   8   9
ATOM      9  C   UNL     1       9.285  52.665  23.907  1.00  0.00     0.006 C 
BRANCH   9  10
ATOM     10  C   UNL     1      10.231  53.866  23.775  1.00  0.00     0.053 C 
BRANCH  10  11
ATOM     11  C   UNL     1      10.271  54.680  25.033  1.00  0.00     0.041 C 
ATOM     12  O   UNL     1      11.067  54.375  25.960  1.00  0.00    -0.550 OA
ATOM     13  O   UNL     1       9.404  55.752  25.195  1.00  0.00    -0.550 OA
ENDBRANCH  10  11
ENDBRANCH   9  10
ENDBRANCH   8   9
ENDBRANCH   1   8
TORSDOF 8
ENDMDL
MODEL 6
REMARK VINA RESULT:    -4.616      2.112      5.807
REMARK INTER + INTRA:          -7.411
REMARK INTER:                  -6.900
REMARK INTRA:                  -0.511
REMARK UNBOUND:                -0.636
REMARK SMILES O=C([O-])CCCCCCCC(=O)[O-]
REMARK SMILES IDX 7 1 6 2 5 3 4 4 2 5 1 6 3 7 8 8 9 9 10 10 11 11 12 12 13 13
REMARK H PARENT
REMARK Flexibility Score: inf
ROOT
ATOM      1  C   UNL     1       6.235  54.473  23.492  1.00  0.00     0.000 C 
ENDROOT
BRANCH   1   2
ATOM      2  C   UNL     1       6.608  55.700  22.647  1.00  0.00     0.000 C 
BRANCH   2   3
ATOM      3  C   UNL     1       7.767  55.377  21.691  1.00  0.00     0.006 C 
BRANCH   3   4
ATOM      4  C   UNL     1       7.462  55.795  20.247  1.00  0.00     0.053 C 
BRANCH   4   5
ATOM      5  C   UNL     1       6.971  54.639  19.428  1.00  0.00     0.041 C 
ATOM      6  O   UNL     1       6.855  53.498  19.947  1.00  0.00    -0.550 OA
ATOM      7  O   UNL     1       6.614  54.830  18.100  1.00  0.00    -0.550 OA
ENDBRANCH   4   5
ENDBRANCH   3   4
ENDBRANCH   2   3
ENDBRANCH   1   2
BRANCH   1   8
ATOM      8  C   UNL     1       7.389  53.464  23.611  1.00  0.00     0.000 C 
BRANCH   8   9
ATOM      9  C   UNL     1       7.953  53.375  25.039  1.00  0.00     0.006 C 
BRANCH   9  10
ATOM     10  C   UNL     1       8.824  54.588  25.395  1.00  0.00     0.053 C 
BRANCH  10  11
ATOM     11  C   UNL     1      10.277  54.319  25.145  1.00  0.00     0.041 C 
ATOM     12  O   UNL     1      10.664  53.940  24.008  1.00  0.00    -0.550 OA
ATOM     13  O   UNL     1      11.196  54.453  26.176  1.00  0.00    -0.550 OA
ENDBRANCH  10  11
ENDBRANCH   9  10
ENDBRANCH   8   9
ENDBRANCH   1   8
TORSDOF 8
ENDMDL
MODEL 7
REMARK VINA RESULT:    -4.612      1.207      1.656
REMARK INTER + INTRA:          -7.406
REMARK INTER:                  -6.863
REMARK INTRA:                  -0.543
REMARK UNBOUND:                -0.636
REMARK SMILES O=C([O-])CCCCCCCC(=O)[O-]
REMARK SMILES IDX 7 1 6 2 5 3 4 4 2 5 1 6 3 7 8 8 9 9 10 10 11 11 12 12 13 13
REMARK H PARENT
REMARK Flexibility Score: inf
ROOT
ATOM      1  C   UNL     1       7.401  53.145  23.311  1.00  0.00     0.000 C 
ENDROOT
BRANCH   1   2
ATOM      2  C   UNL     1       6.992  54.046  24.485  1.00  0.00     0.000 C 
BRANCH   2   3
ATOM      3  C   UNL     1       7.968  53.891  25.662  1.00  0.00     0.006 C 
BRANCH   3   4
ATOM      4  C   UNL     1       9.043  54.985  25.674  1.00  0.00     0.053 C 
BRANCH   4   5
ATOM      5  C   UNL     1      10.397  54.436  25.339  1.00  0.00     0.041 C 
ATOM      6  O   UNL     1      10.636  54.001  24.182  1.00  0.00    -0.550 OA
ATOM      7  O   UNL     1      11.402  54.434  26.297  1.00  0.00    -0.550 OA
ENDBRANCH   4   5
ENDBRANCH   3   4
ENDBRANCH   2   3
ENDBRANCH   1   2
BRANCH   1   8
ATOM      8  C   UNL     1       6.860  53.650  21.963  1.00  0.00     0.000 C 
BRANCH   8   9
ATOM      9  C   UNL     1       7.865  54.549  21.221  1.00  0.00     0.006 C 
BRANCH   9  10
ATOM     10  C   UNL     1       7.249  55.897  20.821  1.00  0.00     0.053 C 
BRANCH  10  11
ATOM     11  C   UNL     1       6.924  56.734  22.021  1.00  0.00     0.041 C 
ATOM     12  O   UNL     1       5.795  57.284  22.123  1.00  0.00    -0.550 OA
ATOM     13  O   UNL     1       7.878  56.934  23.009  1.00  0.00    -0.550 OA
ENDBRANCH  10  11
ENDBRANCH   9  10
ENDBRANCH   8   9
ENDBRANCH   1   8
TORSDOF 8
ENDMDL
MODEL 8
REMARK VINA RESULT:    -4.606      1.927      2.328
REMARK INTER + INTRA:          -7.396
REMARK INTER:                  -6.626
REMARK INTRA:                  -0.770
REMARK UNBOUND:                -0.636
REMARK SMILES O=C([O-])CCCCCCCC(=O)[O-]
REMARK SMILES IDX 7 1 6 2 5 3 4 4 2 5 1 6 3 7 8 8 9 9 10 10 11 11 12 12 13 13
REMARK H PARENT
REMARK Flexibility Score: inf
ROOT
ATOM      1  C   UNL     1       6.916  54.155  23.908  1.00  0.00     0.000 C 
ENDROOT
BRANCH   1   2
ATOM      2  C   UNL     1       8.029  53.125  23.663  1.00  0.00     0.000 C 
BRANCH   2   3
ATOM      3  C   UNL     1       9.401  53.810  23.579  1.00  0.00     0.006 C 
BRANCH   3   4
ATOM      4  C   UNL     1       9.476  55.072  24.450  1.00  0.00     0.053 C 
BRANCH   4   5
ATOM      5  C   UNL     1       9.978  54.765  25.828  1.00  0.00     0.041 C 
ATOM      6  O   UNL     1       9.191  54.792  26.811  1.00  0.00    -0.550 OA
ATOM      7  O   UNL     1      11.309  54.420  26.022  1.00  0.00    -0.550 OA
ENDBRANCH   4   5
ENDBRANCH   3   4
ENDBRANCH   2   3
ENDBRANCH   1   2
BRANCH   1   8
ATOM      8  C   UNL     1       6.125  54.486  22.631  1.00  0.00     0.000 C 
BRANCH   8   9
ATOM      9  C   UNL     1       6.431  55.894  22.093  1.00  0.00     0.006 C 
BRANCH   9  10
ATOM     10  C   UNL     1       7.596  55.893  21.095  1.00  0.00     0.053 C 
BRANCH  10  11
ATOM     11  C   UNL     1       7.444  54.813  20.068  1.00  0.00     0.041 C 
ATOM     12  O   UNL     1       6.615  54.944  19.128  1.00  0.00    -0.550 OA
ATOM     13  O   UNL     1       8.191  53.647  20.168  1.00  0.00    -0.550 OA
ENDBRANCH  10  11
ENDBRANCH   9  10
ENDBRANCH   8   9
ENDBRANCH   1   8
TORSDOF 8
ENDMDL
MODEL 9
REMARK VINA RESULT:    -4.548      2.563      3.336
REMARK INTER + INTRA:          -7.312
REMARK INTER:                  -6.864
REMARK INTRA:                  -0.448
REMARK UNBOUND:                -0.636
REMARK SMILES O=C([O-])CCCCCCCC(=O)[O-]
REMARK SMILES IDX 7 1 6 2 5 3 4 4 2 5 1 6 3 7 8 8 9 9 10 10 11 11 12 12 13 13
REMARK H PARENT
REMARK Flexibility Score: inf
ROOT
ATOM      1  C   UNL     1       8.070  55.359  23.564  1.00  0.00     0.000 C 
ENDROOT
BRANCH   1   2
ATOM      2  C   UNL     1       9.179  55.710  24.566  1.00  0.00     0.000 C 
BRANCH   2   3
ATOM      3  C   UNL     1      10.016  54.469  24.914  1.00  0.00     0.006 C 
BRANCH   3   4
ATOM      4  C   UNL     1      10.325  53.611  23.681  1.00  0.00     0.053 C 
BRANCH   4   5
ATOM      5  C   UNL     1       9.688  52.258  23.773  1.00  0.00     0.041 C 
ATOM      6  O   UNL     1      10.336  51.228  23.446  1.00  0.00    -0.550 OA
ATOM      7  O   UNL     1       8.389  52.132  24.248  1.00  0.00    -0.550 OA
ENDBRANCH   4   5
ENDBRANCH   3   4
ENDBRANCH   2   3
ENDBRANCH   1   2
BRANCH   1   8
ATOM      8  C   UNL     1       7.669  56.554  22.684  1.00  0.00     0.000 C 
BRANCH   8   9
ATOM      9  C   UNL     1       7.689  56.218  21.182  1.00  0.00     0.006 C 
BRANCH   9  10
ATOM     10  C   UNL     1       7.973  54.732  20.925  1.00  0.00     0.053 C 
BRANCH  10  11
ATOM     11  C   UNL     1       6.814  54.055  20.258  1.00  0.00     0.041 C 
ATOM     12  O   UNL     1       6.057  53.296  20.920  1.00  0.00    -0.550 OA
ATOM     13  O   UNL     1       6.592  54.235  18.900  1.00  0.00    -0.550 OA
ENDBRANCH  10  11
ENDBRANCH   9  10
ENDBRANCH   8   9
ENDBRANCH   1   8
TORSDOF 8
ENDMDL
