MODEL 1
REMARK VINA RESULT:    -3.652      0.000      0.000
REMARK INTER + INTRA:          -9.393
REMARK INTER:                  -6.640
REMARK INTRA:                  -2.753
REMARK UNBOUND:                -2.753
REMARK SMILES CCCCCCCCCCCCCC[C@@H](C)C(=O)[O-]
REMARK SMILES IDX 9 1 10 2 11 3 12 4 13 5 14 6 15 7 16 8 17 9 18 10 19 11 8 12
REMARK SMILES IDX 7 13 6 14 5 15 4 16 3 17 2 18 1 19
REMARK H PARENT
REMARK Flexibility Score: inf
ROOT
ATOM      1  C   UNL     1       1.649   6.530  39.130  1.00  0.00     0.000 C 
ENDROOT
BRANCH   1   2
ATOM      2  C   UNL     1       1.072   7.709  39.935  1.00  0.00     0.000 C 
BRANCH   2   3
ATOM      3  C   UNL     1       0.792   8.948  39.068  1.00  0.00     0.000 C 
BRANCH   3   4
ATOM      4  C   UNL     1      -0.458   9.715  39.528  1.00  0.00     0.000 C 
BRANCH   4   5
ATOM      5  C   UNL     1      -1.474   9.922  38.392  1.00  0.00     0.001 C 
BRANCH   5   6
ATOM      6  C   UNL     1      -1.701   8.666  37.524  1.00  0.00     0.009 C 
BRANCH   6   7
ATOM      7  C   UNL     1      -1.430   8.799  36.002  1.00  0.00     0.032 C 
ATOM      8  C   UNL     1      -0.421   9.907  35.661  1.00  0.00     0.014 C 
BRANCH   7   9
ATOM      9  C   UNL     1      -1.076   7.487  35.353  1.00  0.00     0.044 C 
ATOM     10  O   UNL     1      -1.808   6.472  35.503  1.00  0.00    -0.550 OA
ATOM     11  O   UNL     1       0.042   7.405  34.532  1.00  0.00    -0.550 OA
ENDBRANCH   7   9
ENDBRANCH   6   7
ENDBRANCH   5   6
ENDBRANCH   4   5
ENDBRANCH   3   4
ENDBRANCH   2   3
ENDBRANCH   1   2
BRANCH   1  12
ATOM     12  C   UNL     1       0.691   5.912  38.096  1.00  0.00     0.000 C 
BRANCH  12  13
ATOM     13  C   UNL     1      -0.203   4.810  38.688  1.00  0.00    -0.000 C 
BRANCH  13  14
ATOM     14  C   UNL     1      -1.675   5.240  38.829  1.00  0.00    -0.000 C 
BRANCH  14  15
ATOM     15  C   UNL     1      -2.080   5.750  40.224  1.00  0.00    -0.000 C 
BRANCH  15  16
ATOM     16  C   UNL     1      -3.053   6.937  40.172  1.00  0.00    -0.000 C 
BRANCH  16  17
ATOM     17  C   UNL     1      -3.003   7.745  41.477  1.00  0.00    -0.000 C 
BRANCH  17  18
ATOM     18  C   UNL     1      -1.825   7.343  42.378  1.00  0.00    -0.003 C 
ATOM     19  C   UNL     1      -1.069   8.548  42.935  1.00  0.00     0.004 C 
ENDBRANCH  17  18
ENDBRANCH  16  17
ENDBRANCH  15  16
ENDBRANCH  14  15
ENDBRANCH  13  14
ENDBRANCH  12  13
ENDBRANCH   1  12
TORSDOF 14
ENDMDL
MODEL 2
REMARK VINA RESULT:    -3.625      2.724      5.707
REMARK INTER + INTRA:          -9.344
REMARK INTER:                  -6.659
REMARK INTRA:                  -2.684
REMARK UNBOUND:                -2.753
REMARK SMILES CCCCCCCCCCCCCC[C@@H](C)C(=O)[O-]
REMARK SMILES IDX 9 1 10 2 11 3 12 4 13 5 14 6 15 7 16 8 17 9 18 10 19 11 8 12
REMARK SMILES IDX 7 13 6 14 5 15 4 16 3 17 2 18 1 19
REMARK H PARENT
REMARK Flexibility Score: inf
ROOT
ATOM      1  C   UNL     1      -2.209   8.239  38.626  1.00  0.00     0.000 C 
ENDROOT
BRANCH   1   2
ATOM      2  C   UNL     1      -2.970   8.173  39.962  1.00  0.00     0.000 C 
BRANCH   2   3
ATOM      3  C   UNL     1      -2.763   6.842  40.706  1.00  0.00     0.000 C 
BRANCH   3   4
ATOM      4  C   UNL     1      -2.033   5.798  39.848  1.00  0.00     0.000 C 
BRANCH   4   5
ATOM      5  C   UNL     1      -0.585   5.563  40.310  1.00  0.00     0.001 C 
BRANCH   5   6
ATOM      6  C   UNL     1      -0.148   6.477  41.474  1.00  0.00     0.009 C 
BRANCH   6   7
ATOM      7  C   UNL     1       0.826   7.637  41.136  1.00  0.00     0.032 C 
ATOM      8  C   UNL     1       1.335   7.596  39.686  1.00  0.00     0.014 C 
BRANCH   7   9
ATOM      9  C   UNL     1       0.279   8.989  41.509  1.00  0.00     0.044 C 
ATOM     10  O   UNL     1       0.474   9.992  40.772  1.00  0.00    -0.550 OA
ATOM     11  O   UNL     1      -0.497   9.125  42.653  1.00  0.00    -0.550 OA
ENDBRANCH   7   9
ENDBRANCH   6   7
ENDBRANCH   5   6
ENDBRANCH   4   5
ENDBRANCH   3   4
ENDBRANCH   2   3
ENDBRANCH   1   2
BRANCH   1  12
ATOM     12  C   UNL     1      -1.864   9.658  38.139  1.00  0.00     0.000 C 
BRANCH  12  13
ATOM     13  C   UNL     1      -1.808   9.770  36.606  1.00  0.00    -0.000 C 
BRANCH  13  14
ATOM     14  C   UNL     1      -0.381   9.627  36.045  1.00  0.00    -0.000 C 
BRANCH  14  15
ATOM     15  C   UNL     1      -0.099   8.313  35.293  1.00  0.00    -0.000 C 
BRANCH  15  16
ATOM     16  C   UNL     1       0.783   7.341  36.091  1.00  0.00    -0.000 C 
BRANCH  16  17
ATOM     17  C   UNL     1       0.003   6.071  36.464  1.00  0.00    -0.000 C 
BRANCH  17  18
ATOM     18  C   UNL     1      -1.390   6.021  35.817  1.00  0.00    -0.003 C 
ATOM     19  C   UNL     1      -2.273   4.919  36.400  1.00  0.00     0.004 C 
ENDBRANCH  17  18
ENDBRANCH  16  17
ENDBRANCH  15  16
ENDBRANCH  14  15
ENDBRANCH  13  14
ENDBRANCH  12  13
ENDBRANCH   1  12
TORSDOF 14
ENDMDL
MODEL 3
REMARK VINA RESULT:    -3.614      2.663      4.620
REMARK INTER + INTRA:          -9.325
REMARK INTER:                  -6.747
REMARK INTRA:                  -2.578
REMARK UNBOUND:                -2.753
REMARK SMILES CCCCCCCCCCCCCC[C@@H](C)C(=O)[O-]
REMARK SMILES IDX 9 1 10 2 11 3 12 4 13 5 14 6 15 7 16 8 17 9 18 10 19 11 8 12
REMARK SMILES IDX 7 13 6 14 5 15 4 16 3 17 2 18 1 19
REMARK H PARENT
REMARK Flexibility Score: inf
ROOT
ATOM      1  C   UNL     1      -1.557   7.967  35.883  1.00  0.00     0.000 C 
ENDROOT
BRANCH   1   2
ATOM      2  C   UNL     1      -1.035   9.409  36.015  1.00  0.00     0.000 C 
BRANCH   2   3
ATOM      3  C   UNL     1      -1.076   9.932  37.461  1.00  0.00     0.000 C 
BRANCH   3   4
ATOM      4  C   UNL     1      -2.286   9.400  38.244  1.00  0.00     0.000 C 
BRANCH   4   5
ATOM      5  C   UNL     1      -1.881   8.421  39.359  1.00  0.00     0.001 C 
BRANCH   5   6
ATOM      6  C   UNL     1      -3.073   7.670  39.990  1.00  0.00     0.009 C 
BRANCH   6   7
ATOM      7  C   UNL     1      -3.121   6.131  39.799  1.00  0.00     0.032 C 
ATOM      8  C   UNL     1      -2.215   5.633  38.661  1.00  0.00     0.014 C 
BRANCH   7   9
ATOM      9  C   UNL     1      -2.894   5.373  41.080  1.00  0.00     0.044 C 
ATOM     10  O   UNL     1      -2.750   4.121  41.075  1.00  0.00    -0.550 OA
ATOM     11  O   UNL     1      -2.787   6.067  42.279  1.00  0.00    -0.550 OA
ENDBRANCH   7   9
ENDBRANCH   6   7
ENDBRANCH   5   6
ENDBRANCH   4   5
ENDBRANCH   3   4
ENDBRANCH   2   3
ENDBRANCH   1   2
BRANCH   1  12
ATOM     12  C   UNL     1      -0.710   7.044  34.988  1.00  0.00     0.000 C 
BRANCH  12  13
ATOM     13  C   UNL     1       0.767   6.985  35.414  1.00  0.00    -0.000 C 
BRANCH  13  14
ATOM     14  C   UNL     1       0.950   6.664  36.908  1.00  0.00    -0.000 C 
BRANCH  14  15
ATOM     15  C   UNL     1       1.838   7.651  37.688  1.00  0.00    -0.000 C 
BRANCH  15  16
ATOM     16  C   UNL     1       1.616   7.590  39.207  1.00  0.00    -0.000 C 
BRANCH  16  17
ATOM     17  C   UNL     1       1.512   6.136  39.689  1.00  0.00    -0.000 C 
BRANCH  17  18
ATOM     18  C   UNL     1       0.694   5.999  40.982  1.00  0.00    -0.003 C 
ATOM     19  C   UNL     1       0.711   7.268  41.831  1.00  0.00     0.004 C 
ENDBRANCH  17  18
ENDBRANCH  16  17
ENDBRANCH  15  16
ENDBRANCH  14  15
ENDBRANCH  13  14
ENDBRANCH  12  13
ENDBRANCH   1  12
TORSDOF 14
ENDMDL
MODEL 4
REMARK VINA RESULT:    -3.597      1.357      3.887
REMARK INTER + INTRA:          -9.294
REMARK INTER:                  -6.734
REMARK INTRA:                  -2.560
REMARK UNBOUND:                -2.753
REMARK SMILES CCCCCCCCCCCCCC[C@@H](C)C(=O)[O-]
REMARK SMILES IDX 9 1 10 2 11 3 12 4 13 5 14 6 15 7 16 8 17 9 18 10 19 11 8 12
REMARK SMILES IDX 7 13 6 14 5 15 4 16 3 17 2 18 1 19
REMARK H PARENT
REMARK Flexibility Score: inf
ROOT
ATOM      1  C   UNL     1      -2.956   6.635  41.106  1.00  0.00     0.000 C 
ENDROOT
BRANCH   1   2
ATOM      2  C   UNL     1      -2.868   7.062  39.630  1.00  0.00     0.000 C 
BRANCH   2   3
ATOM      3  C   UNL     1      -2.914   8.588  39.442  1.00  0.00     0.000 C 
BRANCH   3   4
ATOM      4  C   UNL     1      -1.625   9.141  38.815  1.00  0.00     0.000 C 
BRANCH   4   5
ATOM      5  C   UNL     1      -1.897   9.986  37.559  1.00  0.00     0.001 C 
BRANCH   5   6
ATOM      6  C   UNL     1      -1.471   9.301  36.243  1.00  0.00     0.009 C 
BRANCH   6   7
ATOM      7  C   UNL     1      -0.762   7.926  36.359  1.00  0.00     0.032 C 
ATOM      8  C   UNL     1      -1.484   6.807  35.591  1.00  0.00     0.014 C 
BRANCH   7   9
ATOM      9  C   UNL     1       0.704   7.992  36.024  1.00  0.00     0.044 C 
ATOM     10  O   UNL     1       1.281   9.100  35.858  1.00  0.00    -0.550 OA
ATOM     11  O   UNL     1       1.447   6.820  35.953  1.00  0.00    -0.550 OA
ENDBRANCH   7   9
ENDBRANCH   6   7
ENDBRANCH   5   6
ENDBRANCH   4   5
ENDBRANCH   3   4
ENDBRANCH   2   3
ENDBRANCH   1   2
BRANCH   1  12
ATOM     12  C   UNL     1      -2.900   7.787  42.125  1.00  0.00     0.000 C 
BRANCH  12  13
ATOM     13  C   UNL     1      -1.641   7.745  43.009  1.00  0.00    -0.000 C 
BRANCH  13  14
ATOM     14  C   UNL     1      -0.478   8.577  42.438  1.00  0.00    -0.000 C 
BRANCH  14  15
ATOM     15  C   UNL     1       0.696   7.759  41.870  1.00  0.00    -0.000 C 
BRANCH  15  16
ATOM     16  C   UNL     1       1.078   8.169  40.440  1.00  0.00    -0.000 C 
BRANCH  16  17
ATOM     17  C   UNL     1       1.531   6.950  39.622  1.00  0.00    -0.000 C 
BRANCH  17  18
ATOM     18  C   UNL     1       0.754   5.674  39.982  1.00  0.00    -0.003 C 
ATOM     19  C   UNL     1      -0.095   5.153  38.824  1.00  0.00     0.004 C 
ENDBRANCH  17  18
ENDBRANCH  16  17
ENDBRANCH  15  16
ENDBRANCH  14  15
ENDBRANCH  13  14
ENDBRANCH  12  13
ENDBRANCH   1  12
TORSDOF 14
ENDMDL
MODEL 5
REMARK VINA RESULT:    -3.587      1.709      4.218
REMARK INTER + INTRA:          -9.276
REMARK INTER:                  -6.645
REMARK INTRA:                  -2.631
REMARK UNBOUND:                -2.753
REMARK SMILES CCCCCCCCCCCCCC[C@@H](C)C(=O)[O-]
REMARK SMILES IDX 9 1 10 2 11 3 12 4 13 5 14 6 15 7 16 8 17 9 18 10 19 11 8 12
REMARK SMILES IDX 7 13 6 14 5 15 4 16 3 17 2 18 1 19
REMARK H PARENT
REMARK Flexibility Score: inf
ROOT
ATOM      1  C   UNL     1      -3.360   6.429  39.758  1.00  0.00     0.000 C 
ENDROOT
BRANCH   1   2
ATOM      2  C   UNL     1      -2.330   5.368  40.185  1.00  0.00     0.000 C 
BRANCH   2   3
ATOM      3  C   UNL     1      -1.513   4.814  39.005  1.00  0.00     0.000 C 
BRANCH   3   4
ATOM      4  C   UNL     1      -2.021   5.325  37.649  1.00  0.00     0.000 C 
BRANCH   4   5
ATOM      5  C   UNL     1      -0.876   5.670  36.682  1.00  0.00     0.001 C 
BRANCH   5   6
ATOM      6  C   UNL     1      -1.330   6.457  35.435  1.00  0.00     0.009 C 
BRANCH   6   7
ATOM      7  C   UNL     1      -0.259   7.316  34.712  1.00  0.00     0.032 C 
ATOM      8  C   UNL     1       0.590   8.162  35.674  1.00  0.00     0.014 C 
BRANCH   7   9
ATOM      9  C   UNL     1       0.588   6.515  33.758  1.00  0.00     0.044 C 
ATOM     10  O   UNL     1       1.833   6.701  33.687  1.00  0.00    -0.550 OA
ATOM     11  O   UNL     1       0.002   5.521  32.986  1.00  0.00    -0.550 OA
ENDBRANCH   7   9
ENDBRANCH   6   7
ENDBRANCH   5   6
ENDBRANCH   4   5
ENDBRANCH   3   4
ENDBRANCH   2   3
ENDBRANCH   1   2
BRANCH   1  12
ATOM     12  C   UNL     1      -3.024   7.872  40.173  1.00  0.00     0.000 C 
BRANCH  12  13
ATOM     13  C   UNL     1      -2.525   8.734  39.000  1.00  0.00    -0.000 C 
BRANCH  13  14
ATOM     14  C   UNL     1      -0.993   8.891  38.979  1.00  0.00    -0.000 C 
BRANCH  14  15
ATOM     15  C   UNL     1      -0.328   9.031  40.361  1.00  0.00    -0.000 C 
BRANCH  15  16
ATOM     16  C   UNL     1       0.814   8.029  40.584  1.00  0.00    -0.000 C 
BRANCH  16  17
ATOM     17  C   UNL     1       1.254   7.394  39.256  1.00  0.00    -0.000 C 
BRANCH  17  18
ATOM     18  C   UNL     1       1.840   5.985  39.440  1.00  0.00    -0.003 C 
ATOM     19  C   UNL     1       2.844   5.616  38.350  1.00  0.00     0.004 C 
ENDBRANCH  17  18
ENDBRANCH  16  17
ENDBRANCH  15  16
ENDBRANCH  14  15
ENDBRANCH  13  14
ENDBRANCH  12  13
ENDBRANCH   1  12
TORSDOF 14
ENDMDL
MODEL 6
REMARK VINA RESULT:    -3.568      2.044      3.735
REMARK INTER + INTRA:          -9.241
REMARK INTER:                  -6.563
REMARK INTRA:                  -2.678
REMARK UNBOUND:                -2.753
REMARK SMILES CCCCCCCCCCCCCC[C@@H](C)C(=O)[O-]
REMARK SMILES IDX 9 1 10 2 11 3 12 4 13 5 14 6 15 7 16 8 17 9 18 10 19 11 8 12
REMARK SMILES IDX 7 13 6 14 5 15 4 16 3 17 2 18 1 19
REMARK H PARENT
REMARK Flexibility Score: inf
ROOT
ATOM      1  C   UNL     1      -1.810   8.432  38.826  1.00  0.00     0.000 C 
ENDROOT
BRANCH   1   2
ATOM      2  C   UNL     1      -2.097   9.607  37.875  1.00  0.00     0.000 C 
BRANCH   2   3
ATOM      3  C   UNL     1      -1.512   9.398  36.467  1.00  0.00     0.000 C 
BRANCH   3   4
ATOM      4  C   UNL     1      -1.506   7.920  36.049  1.00  0.00     0.000 C 
BRANCH   4   5
ATOM      5  C   UNL     1      -0.343   7.581  35.102  1.00  0.00     0.001 C 
BRANCH   5   6
ATOM      6  C   UNL     1       0.981   7.269  35.830  1.00  0.00     0.009 C 
BRANCH   6   7
ATOM      7  C   UNL     1       0.880   6.644  37.246  1.00  0.00     0.032 C 
ATOM      8  C   UNL     1       1.017   5.113  37.245  1.00  0.00     0.014 C 
BRANCH   7   9
ATOM      9  C   UNL     1       1.802   7.297  38.242  1.00  0.00     0.044 C 
ATOM     10  O   UNL     1       2.645   6.617  38.886  1.00  0.00    -0.550 OA
ATOM     11  O   UNL     1       1.763   8.675  38.414  1.00  0.00    -0.550 OA
ENDBRANCH   7   9
ENDBRANCH   6   7
ENDBRANCH   5   6
ENDBRANCH   4   5
ENDBRANCH   3   4
ENDBRANCH   2   3
ENDBRANCH   1   2
BRANCH   1  12
ATOM     12  C   UNL     1      -2.958   8.072  39.787  1.00  0.00     0.000 C 
BRANCH  12  13
ATOM     13  C   UNL     1      -3.300   6.572  39.778  1.00  0.00    -0.000 C 
BRANCH  13  14
ATOM     14  C   UNL     1      -2.130   5.690  39.305  1.00  0.00    -0.000 C 
BRANCH  14  15
ATOM     15  C   UNL     1      -1.448   4.859  40.407  1.00  0.00    -0.000 C 
BRANCH  15  16
ATOM     16  C   UNL     1      -0.088   5.429  40.837  1.00  0.00    -0.000 C 
BRANCH  16  17
ATOM     17  C   UNL     1      -0.262   6.519  41.905  1.00  0.00    -0.000 C 
BRANCH  17  18
ATOM     18  C   UNL     1       0.686   7.710  41.694  1.00  0.00    -0.003 C 
ATOM     19  C   UNL     1       0.026   9.053  42.001  1.00  0.00     0.004 C 
ENDBRANCH  17  18
ENDBRANCH  16  17
ENDBRANCH  15  16
ENDBRANCH  14  15
ENDBRANCH  13  14
ENDBRANCH  12  13
ENDBRANCH   1  12
TORSDOF 14
ENDMDL
MODEL 7
REMARK VINA RESULT:    -3.552      2.501      5.175
REMARK INTER + INTRA:          -9.211
REMARK INTER:                  -6.634
REMARK INTRA:                  -2.578
REMARK UNBOUND:                -2.753
REMARK SMILES CCCCCCCCCCCCCC[C@@H](C)C(=O)[O-]
REMARK SMILES IDX 9 1 10 2 11 3 12 4 13 5 14 6 15 7 16 8 17 9 18 10 19 11 8 12
REMARK SMILES IDX 7 13 6 14 5 15 4 16 3 17 2 18 1 19
REMARK H PARENT
REMARK Flexibility Score: inf
ROOT
ATOM      1  C   UNL     1      -2.254   9.539  38.569  1.00  0.00     0.000 C 
ENDROOT
BRANCH   1   2
ATOM      2  C   UNL     1      -2.519   8.072  38.955  1.00  0.00     0.000 C 
BRANCH   2   3
ATOM      3  C   UNL     1      -3.061   7.916  40.386  1.00  0.00     0.000 C 
BRANCH   3   4
ATOM      4  C   UNL     1      -2.570   6.626  41.061  1.00  0.00     0.000 C 
BRANCH   4   5
ATOM      5  C   UNL     1      -2.586   5.419  40.108  1.00  0.00     0.001 C 
BRANCH   5   6
ATOM      6  C   UNL     1      -1.516   4.355  40.434  1.00  0.00     0.009 C 
BRANCH   6   7
ATOM      7  C   UNL     1      -0.197   4.406  39.618  1.00  0.00     0.032 C 
ATOM      8  C   UNL     1      -0.299   5.275  38.354  1.00  0.00     0.014 C 
BRANCH   7   9
ATOM      9  C   UNL     1       0.999   4.764  40.460  1.00  0.00     0.044 C 
ATOM     10  O   UNL     1       2.157   4.393  40.130  1.00  0.00    -0.550 OA
ATOM     11  O   UNL     1       0.834   5.560  41.586  1.00  0.00    -0.550 OA
ENDBRANCH   7   9
ENDBRANCH   6   7
ENDBRANCH   5   6
ENDBRANCH   4   5
ENDBRANCH   3   4
ENDBRANCH   2   3
ENDBRANCH   1   2
BRANCH   1  12
ATOM     12  C   UNL     1      -1.857   9.768  37.100  1.00  0.00     0.000 C 
BRANCH  12  13
ATOM     13  C   UNL     1      -1.410   8.478  36.390  1.00  0.00    -0.000 C 
BRANCH  13  14
ATOM     14  C   UNL     1       0.121   8.354  36.276  1.00  0.00    -0.000 C 
BRANCH  14  15
ATOM     15  C   UNL     1       0.908   9.643  36.578  1.00  0.00    -0.000 C 
BRANCH  15  16
ATOM     16  C   UNL     1       1.979   9.453  37.662  1.00  0.00    -0.000 C 
BRANCH  16  17
ATOM     17  C   UNL     1       1.445   9.869  39.041  1.00  0.00    -0.000 C 
BRANCH  17  18
ATOM     18  C   UNL     1       1.041   8.665  39.906  1.00  0.00    -0.003 C 
ATOM     19  C   UNL     1       0.384   9.077  41.223  1.00  0.00     0.004 C 
ENDBRANCH  17  18
ENDBRANCH  16  17
ENDBRANCH  15  16
ENDBRANCH  14  15
ENDBRANCH  13  14
ENDBRANCH  12  13
ENDBRANCH   1  12
TORSDOF 14
ENDMDL
MODEL 8
REMARK VINA RESULT:    -3.542      2.456      4.821
REMARK INTER + INTRA:          -9.194
REMARK INTER:                  -6.378
REMARK INTRA:                  -2.816
REMARK UNBOUND:                -2.753
REMARK SMILES CCCCCCCCCCCCCC[C@@H](C)C(=O)[O-]
REMARK SMILES IDX 9 1 10 2 11 3 12 4 13 5 14 6 15 7 16 8 17 9 18 10 19 11 8 12
REMARK SMILES IDX 7 13 6 14 5 15 4 16 3 17 2 18 1 19
REMARK H PARENT
REMARK Flexibility Score: inf
ROOT
ATOM      1  C   UNL     1       1.231   8.097  39.632  1.00  0.00     0.000 C 
ENDROOT
BRANCH   1   2
ATOM      2  C   UNL     1       1.041   9.547  39.151  1.00  0.00     0.000 C 
BRANCH   2   3
ATOM      3  C   UNL     1      -0.388  10.071  39.374  1.00  0.00     0.000 C 
BRANCH   3   4
ATOM      4  C   UNL     1      -1.302   9.811  38.167  1.00  0.00     0.000 C 
BRANCH   4   5
ATOM      5  C   UNL     1      -2.219   8.594  38.375  1.00  0.00     0.001 C 
BRANCH   5   6
ATOM      6  C   UNL     1      -2.959   8.596  39.729  1.00  0.00     0.009 C 
BRANCH   6   7
ATOM      7  C   UNL     1      -3.018   7.254  40.505  1.00  0.00     0.032 C 
ATOM      8  C   UNL     1      -3.168   6.030  39.587  1.00  0.00     0.014 C 
BRANCH   7   9
ATOM      9  C   UNL     1      -1.887   7.094  41.487  1.00  0.00     0.044 C 
ATOM     10  O   UNL     1      -1.294   5.990  41.616  1.00  0.00    -0.550 OA
ATOM     11  O   UNL     1      -1.454   8.191  42.220  1.00  0.00    -0.550 OA
ENDBRANCH   7   9
ENDBRANCH   6   7
ENDBRANCH   5   6
ENDBRANCH   4   5
ENDBRANCH   3   4
ENDBRANCH   2   3
ENDBRANCH   1   2
BRANCH   1  12
ATOM     12  C   UNL     1       1.421   7.056  38.514  1.00  0.00     0.000 C 
BRANCH  12  13
ATOM     13  C   UNL     1       0.365   5.937  38.548  1.00  0.00    -0.000 C 
BRANCH  13  14
ATOM     14  C   UNL     1       0.619   4.838  37.500  1.00  0.00    -0.000 C 
BRANCH  14  15
ATOM     15  C   UNL     1       0.088   5.143  36.088  1.00  0.00    -0.000 C 
BRANCH  15  16
ATOM     16  C   UNL     1      -1.275   5.849  36.097  1.00  0.00    -0.000 C 
BRANCH  16  17
ATOM     17  C   UNL     1      -1.223   7.155  35.290  1.00  0.00    -0.000 C 
BRANCH  17  18
ATOM     18  C   UNL     1       0.191   7.483  34.787  1.00  0.00    -0.003 C 
ATOM     19  C   UNL     1       0.697   8.836  35.283  1.00  0.00     0.004 C 
ENDBRANCH  17  18
ENDBRANCH  16  17
ENDBRANCH  15  16
ENDBRANCH  14  15
ENDBRANCH  13  14
ENDBRANCH  12  13
ENDBRANCH   1  12
TORSDOF 14
ENDMDL
MODEL 9
REMARK VINA RESULT:    -3.495      1.763      3.427
REMARK INTER + INTRA:          -9.107
REMARK INTER:                  -6.229
REMARK INTRA:                  -2.878
REMARK UNBOUND:                -2.753
REMARK SMILES CCCCCCCCCCCCCC[C@@H](C)C(=O)[O-]
REMARK SMILES IDX 9 1 10 2 11 3 12 4 13 5 14 6 15 7 16 8 17 9 18 10 19 11 8 12
REMARK SMILES IDX 7 13 6 14 5 15 4 16 3 17 2 18 1 19
REMARK H PARENT
REMARK Flexibility Score: inf
ROOT
ATOM      1  C   UNL     1      -2.505   6.985  39.324  1.00  0.00     0.000 C 
ENDROOT
BRANCH   1   2
ATOM      2  C   UNL     1      -2.635   8.515  39.433  1.00  0.00     0.000 C 
BRANCH   2   3
ATOM      3  C   UNL     1      -2.127   9.252  38.183  1.00  0.00     0.000 C 
BRANCH   3   4
ATOM      4  C   UNL     1      -1.132   8.410  37.369  1.00  0.00     0.000 C 
BRANCH   4   5
ATOM      5  C   UNL     1      -1.631   8.122  35.943  1.00  0.00     0.001 C 
BRANCH   5   6
ATOM      6  C   UNL     1      -1.072   6.817  35.340  1.00  0.00     0.009 C 
BRANCH   6   7
ATOM      7  C   UNL     1      -0.922   5.603  36.294  1.00  0.00     0.032 C 
ATOM      8  C   UNL     1      -2.219   4.793  36.452  1.00  0.00     0.014 C 
BRANCH   7   9
ATOM      9  C   UNL     1       0.256   4.730  35.952  1.00  0.00     0.044 C 
ATOM     10  O   UNL     1       0.821   4.030  36.835  1.00  0.00    -0.550 OA
ATOM     11  O   UNL     1       0.694   4.650  34.636  1.00  0.00    -0.550 OA
ENDBRANCH   7   9
ENDBRANCH   6   7
ENDBRANCH   5   6
ENDBRANCH   4   5
ENDBRANCH   3   4
ENDBRANCH   2   3
ENDBRANCH   1   2
BRANCH   1  12
ATOM     12  C   UNL     1      -2.966   6.198  40.564  1.00  0.00     0.000 C 
BRANCH  12  13
ATOM     13  C   UNL     1      -2.014   5.048  40.935  1.00  0.00    -0.000 C 
BRANCH  13  14
ATOM     14  C   UNL     1      -0.866   4.868  39.924  1.00  0.00    -0.000 C 
BRANCH  14  15
ATOM     15  C   UNL     1       0.518   5.333  40.413  1.00  0.00    -0.000 C 
BRANCH  15  16
ATOM     16  C   UNL     1       1.170   6.364  39.480  1.00  0.00    -0.000 C 
BRANCH  16  17
ATOM     17  C   UNL     1       1.143   7.766  40.105  1.00  0.00    -0.000 C 
BRANCH  17  18
ATOM     18  C   UNL     1       0.650   7.755  41.561  1.00  0.00    -0.003 C 
ATOM     19  C   UNL     1       0.015   9.080  41.979  1.00  0.00     0.004 C 
ENDBRANCH  17  18
ENDBRANCH  16  17
ENDBRANCH  15  16
ENDBRANCH  14  15
ENDBRANCH  13  14
ENDBRANCH  12  13
ENDBRANCH   1  12
TORSDOF 14
ENDMDL
