MODEL 1
REMARK VINA RESULT:    -2.797      0.000      0.000
REMARK INTER + INTRA:          -3.265
REMARK INTER:                  -3.206
REMARK INTRA:                  -0.059
REMARK UNBOUND:                -0.059
REMARK SMILES CC(C)[C@@H]([NH3+])C(=O)[O-]
REMARK SMILES IDX 4 1 5 2 6 6 7 7 8 8 2 9 1 10 3 11
REMARK H PARENT 5 3 5 4 5 5
REMARK Flexibility Score: inf
ROOT
ATOM      1  C   UNL     1      32.240   6.496   1.818  1.00  0.00     0.230 C 
ENDROOT
BRANCH   1   2
ATOM      2  N   UNL     1      31.319   5.456   1.333  1.00  0.00    -0.350 N 
ATOM      3  H   UNL     1      31.605   4.514   1.686  1.00  0.00     0.345 HD
ATOM      4  H   UNL     1      30.345   5.659   1.657  1.00  0.00     0.345 HD
ATOM      5  H   UNL     1      31.302   5.448   0.288  1.00  0.00     0.345 HD
ENDBRANCH   1   2
BRANCH   1   6
ATOM      6  C   UNL     1      32.166   7.696   0.908  1.00  0.00     0.099 C 
ATOM      7  O   UNL     1      31.465   8.694   1.223  1.00  0.00    -0.544 OA
ATOM      8  O   UNL     1      32.881   7.709  -0.283  1.00  0.00    -0.544 OA
ENDBRANCH   1   6
BRANCH   1   9
ATOM      9  C   UNL     1      31.937   6.898   3.294  1.00  0.00     0.047 C 
ATOM     10  C   UNL     1      33.161   6.667   4.198  1.00  0.00     0.014 C 
ATOM     11  C   UNL     1      30.737   6.122   3.865  1.00  0.00     0.014 C 
ENDBRANCH   1   9
TORSDOF 3
ENDMDL
MODEL 2
REMARK VINA RESULT:    -2.793      1.953      3.186
REMARK INTER + INTRA:          -3.260
REMARK INTER:                  -3.201
REMARK INTRA:                  -0.059
REMARK UNBOUND:                -0.059
REMARK SMILES CC(C)[C@@H]([NH3+])C(=O)[O-]
REMARK SMILES IDX 4 1 5 2 6 6 7 7 8 8 2 9 1 10 3 11
REMARK H PARENT 5 3 5 4 5 5
REMARK Flexibility Score: inf
ROOT
ATOM      1  C   UNL     1      32.382   6.176   1.203  1.00  0.00     0.230 C 
ENDROOT
BRANCH   1   2
ATOM      2  N   UNL     1      33.053   6.255   2.511  1.00  0.00    -0.350 N 
ATOM      3  H   UNL     1      32.351   6.280   3.286  1.00  0.00     0.345 HD
ATOM      4  H   UNL     1      33.679   5.428   2.645  1.00  0.00     0.345 HD
ATOM      5  H   UNL     1      33.655   7.108   2.556  1.00  0.00     0.345 HD
ENDBRANCH   1   2
BRANCH   1   6
ATOM      6  C   UNL     1      32.355   7.544   0.570  1.00  0.00     0.099 C 
ATOM      7  O   UNL     1      33.018   7.777  -0.476  1.00  0.00    -0.544 OA
ATOM      8  O   UNL     1      31.588   8.555   1.134  1.00  0.00    -0.544 OA
ENDBRANCH   1   6
BRANCH   1   9
ATOM      9  C   UNL     1      33.069   5.140   0.261  1.00  0.00     0.047 C 
ATOM     10  C   UNL     1      32.026   4.338  -0.539  1.00  0.00     0.014 C 
ATOM     11  C   UNL     1      33.966   4.163   1.039  1.00  0.00     0.014 C 
ENDBRANCH   1   9
TORSDOF 3
ENDMDL
MODEL 3
REMARK VINA RESULT:    -2.787     13.065     13.593
REMARK INTER + INTRA:          -3.254
REMARK INTER:                  -3.207
REMARK INTRA:                  -0.046
REMARK UNBOUND:                -0.059
REMARK SMILES CC(C)[C@@H]([NH3+])C(=O)[O-]
REMARK SMILES IDX 4 1 5 2 6 6 7 7 8 8 2 9 1 10 3 11
REMARK H PARENT 5 3 5 4 5 5
REMARK Flexibility Score: inf
ROOT
ATOM      1  C   UNL     1      42.855   7.738   8.512  1.00  0.00     0.230 C 
ENDROOT
BRANCH   1   2
ATOM      2  N   UNL     1      42.888   7.895   7.049  1.00  0.00    -0.350 N 
ATOM      3  H   UNL     1      42.632   6.998   6.575  1.00  0.00     0.345 HD
ATOM      4  H   UNL     1      42.218   8.641   6.752  1.00  0.00     0.345 HD
ATOM      5  H   UNL     1      43.840   8.195   6.740  1.00  0.00     0.345 HD
ENDBRANCH   1   2
BRANCH   1   6
ATOM      6  C   UNL     1      43.931   6.771   8.937  1.00  0.00     0.099 C 
ATOM      7  O   UNL     1      44.591   6.131   8.076  1.00  0.00    -0.544 OA
ATOM      8  O   UNL     1      44.206   6.587  10.287  1.00  0.00    -0.544 OA
ENDBRANCH   1   6
BRANCH   1   9
ATOM      9  C   UNL     1      43.012   9.104   9.246  1.00  0.00     0.047 C 
ATOM     10  C   UNL     1      41.684   9.550   9.885  1.00  0.00     0.014 C 
ATOM     11  C   UNL     1      43.512  10.209   8.301  1.00  0.00     0.014 C 
ENDBRANCH   1   9
TORSDOF 3
ENDMDL
MODEL 4
REMARK VINA RESULT:    -2.769      1.890      2.667
REMARK INTER + INTRA:          -3.233
REMARK INTER:                  -3.192
REMARK INTRA:                  -0.040
REMARK UNBOUND:                -0.059
REMARK SMILES CC(C)[C@@H]([NH3+])C(=O)[O-]
REMARK SMILES IDX 4 1 5 2 6 6 7 7 8 8 2 9 1 10 3 11
REMARK H PARENT 5 3 5 4 5 5
REMARK Flexibility Score: inf
ROOT
ATOM      1  C   UNL     1      32.092   6.200   1.244  1.00  0.00     0.230 C 
ENDROOT
BRANCH   1   2
ATOM      2  N   UNL     1      33.420   5.569   1.305  1.00  0.00    -0.350 N 
ATOM      3  H   UNL     1      33.333   4.526   1.328  1.00  0.00     0.345 HD
ATOM      4  H   UNL     1      33.987   5.844   0.470  1.00  0.00     0.345 HD
ATOM      5  H   UNL     1      33.937   5.897   2.151  1.00  0.00     0.345 HD
ENDBRANCH   1   2
BRANCH   1   6
ATOM      6  C   UNL     1      32.218   7.576   0.639  1.00  0.00     0.099 C 
ATOM      7  O   UNL     1      31.620   8.558   1.155  1.00  0.00    -0.544 OA
ATOM      8  O   UNL     1      33.005   7.769  -0.490  1.00  0.00    -0.544 OA
ENDBRANCH   1   6
BRANCH   1   9
ATOM      9  C   UNL     1      31.072   5.333   0.445  1.00  0.00     0.047 C 
ATOM     10  C   UNL     1      29.622   5.727   0.779  1.00  0.00     0.014 C 
ATOM     11  C   UNL     1      31.260   3.831   0.717  1.00  0.00     0.014 C 
ENDBRANCH   1   9
TORSDOF 3
ENDMDL
MODEL 5
REMARK VINA RESULT:    -2.582     13.171     13.857
REMARK INTER + INTRA:          -3.019
REMARK INTER:                  -2.947
REMARK INTRA:                  -0.071
REMARK UNBOUND:                -0.059
REMARK SMILES CC(C)[C@@H]([NH3+])C(=O)[O-]
REMARK SMILES IDX 4 1 5 2 6 6 7 7 8 8 2 9 1 10 3 11
REMARK H PARENT 5 3 5 4 5 5
REMARK Flexibility Score: inf
ROOT
ATOM      1  C   UNL     1      42.692   6.700   9.509  1.00  0.00     0.230 C 
ENDROOT
BRANCH   1   2
ATOM      2  N   UNL     1      41.677   5.836   8.885  1.00  0.00    -0.350 N 
ATOM      3  H   UNL     1      40.716   6.219   9.046  1.00  0.00     0.345 HD
ATOM      4  H   UNL     1      41.848   5.766   7.855  1.00  0.00     0.345 HD
ATOM      5  H   UNL     1      41.738   4.868   9.274  1.00  0.00     0.345 HD
ENDBRANCH   1   2
BRANCH   1   6
ATOM      6  C   UNL     1      43.428   5.922  10.571  1.00  0.00     0.099 C 
ATOM      7  O   UNL     1      44.220   6.507  11.357  1.00  0.00    -0.544 OA
ATOM      8  O   UNL     1      43.229   4.553  10.693  1.00  0.00    -0.544 OA
ENDBRANCH   1   6
BRANCH   1   9
ATOM      9  C   UNL     1      43.685   7.281   8.457  1.00  0.00     0.047 C 
ATOM     10  C   UNL     1      43.014   8.371   7.600  1.00  0.00     0.014 C 
ATOM     11  C   UNL     1      44.246   6.188   7.531  1.00  0.00     0.014 C 
ENDBRANCH   1   9
TORSDOF 3
ENDMDL
MODEL 6
REMARK VINA RESULT:    -2.581     12.509     13.262
REMARK INTER + INTRA:          -3.018
REMARK INTER:                  -2.948
REMARK INTRA:                  -0.069
REMARK UNBOUND:                -0.059
REMARK SMILES CC(C)[C@@H]([NH3+])C(=O)[O-]
REMARK SMILES IDX 4 1 5 2 6 6 7 7 8 8 2 9 1 10 3 11
REMARK H PARENT 5 3 5 4 5 5
REMARK Flexibility Score: inf
ROOT
ATOM      1  C   UNL     1      43.624   7.517   8.221  1.00  0.00     0.230 C 
ENDROOT
BRANCH   1   2
ATOM      2  N   UNL     1      42.812   8.013   7.098  1.00  0.00    -0.350 N 
ATOM      3  H   UNL     1      43.148   8.954   6.787  1.00  0.00     0.345 HD
ATOM      4  H   UNL     1      42.869   7.348   6.293  1.00  0.00     0.345 HD
ATOM      5  H   UNL     1      41.808   8.074   7.378  1.00  0.00     0.345 HD
ENDBRANCH   1   2
BRANCH   1   6
ATOM      6  C   UNL     1      42.941   7.856   9.522  1.00  0.00     0.099 C 
ATOM      7  O   UNL     1      43.518   7.640  10.621  1.00  0.00    -0.544 OA
ATOM      8  O   UNL     1      41.670   8.417   9.514  1.00  0.00    -0.544 OA
ENDBRANCH   1   6
BRANCH   1   9
ATOM      9  C   UNL     1      43.887   5.984   8.114  1.00  0.00     0.047 C 
ATOM     10  C   UNL     1      44.508   5.619   6.753  1.00  0.00     0.014 C 
ATOM     11  C   UNL     1      42.601   5.165   8.315  1.00  0.00     0.014 C 
ENDBRANCH   1   9
TORSDOF 3
ENDMDL
MODEL 7
REMARK VINA RESULT:    -2.569     12.098     13.096
REMARK INTER + INTRA:          -3.003
REMARK INTER:                  -2.932
REMARK INTRA:                  -0.071
REMARK UNBOUND:                -0.059
REMARK SMILES CC(C)[C@@H]([NH3+])C(=O)[O-]
REMARK SMILES IDX 4 1 5 2 6 6 7 7 8 8 2 9 1 10 3 11
REMARK H PARENT 5 3 5 4 5 5
REMARK Flexibility Score: inf
ROOT
ATOM      1  C   UNL     1      42.454   7.259   8.802  1.00  0.00     0.230 C 
ENDROOT
BRANCH   1   2
ATOM      2  N   UNL     1      41.590   6.201   8.255  1.00  0.00    -0.350 N 
ATOM      3  H   UNL     1      42.053   5.727   7.445  1.00  0.00     0.345 HD
ATOM      4  H   UNL     1      41.383   5.489   8.993  1.00  0.00     0.345 HD
ATOM      5  H   UNL     1      40.675   6.603   7.950  1.00  0.00     0.345 HD
ENDBRANCH   1   2
BRANCH   1   6
ATOM      6  C   UNL     1      43.816   6.687   9.107  1.00  0.00     0.099 C 
ATOM      7  O   UNL     1      44.228   6.616  10.295  1.00  0.00    -0.544 OA
ATOM      8  O   UNL     1      44.623   6.226   8.074  1.00  0.00    -0.544 OA
ENDBRANCH   1   6
BRANCH   1   9
ATOM      9  C   UNL     1      42.566   8.475   7.833  1.00  0.00     0.047 C 
ATOM     10  C   UNL     1      43.509   9.553   8.398  1.00  0.00     0.014 C 
ATOM     11  C   UNL     1      41.194   9.108   7.546  1.00  0.00     0.014 C 
ENDBRANCH   1   9
TORSDOF 3
ENDMDL
MODEL 8
REMARK VINA RESULT:    -2.557      1.791      2.301
REMARK INTER + INTRA:          -2.989
REMARK INTER:                  -2.929
REMARK INTRA:                  -0.060
REMARK UNBOUND:                -0.059
REMARK SMILES CC(C)[C@@H]([NH3+])C(=O)[O-]
REMARK SMILES IDX 4 1 5 2 6 6 7 7 8 8 2 9 1 10 3 11
REMARK H PARENT 5 3 5 4 5 5
REMARK Flexibility Score: inf
ROOT
ATOM      1  C   UNL     1      30.998   6.944   3.001  1.00  0.00     0.230 C 
ENDROOT
BRANCH   1   2
ATOM      2  N   UNL     1      30.593   7.478   4.311  1.00  0.00    -0.350 N 
ATOM      3  H   UNL     1      31.430   7.641   4.918  1.00  0.00     0.345 HD
ATOM      4  H   UNL     1      30.082   8.382   4.188  1.00  0.00     0.345 HD
ATOM      5  H   UNL     1      29.939   6.816   4.785  1.00  0.00     0.345 HD
ENDBRANCH   1   2
BRANCH   1   6
ATOM      6  C   UNL     1      30.587   7.909   1.917  1.00  0.00     0.099 C 
ATOM      7  O   UNL     1      29.368   8.137   1.694  1.00  0.00    -0.544 OA
ATOM      8  O   UNL     1      31.555   8.559   1.162  1.00  0.00    -0.544 OA
ENDBRANCH   1   6
BRANCH   1   9
ATOM      9  C   UNL     1      32.529   6.656   2.939  1.00  0.00     0.047 C 
ATOM     10  C   UNL     1      32.811   5.264   2.343  1.00  0.00     0.014 C 
ATOM     11  C   UNL     1      33.188   6.752   4.325  1.00  0.00     0.014 C 
ENDBRANCH   1   9
TORSDOF 3
ENDMDL
MODEL 9
REMARK VINA RESULT:    -2.510      2.410      3.053
REMARK INTER + INTRA:          -2.936
REMARK INTER:                  -2.890
REMARK INTRA:                  -0.046
REMARK UNBOUND:                -0.059
REMARK SMILES CC(C)[C@@H]([NH3+])C(=O)[O-]
REMARK SMILES IDX 4 1 5 2 6 6 7 7 8 8 2 9 1 10 3 11
REMARK H PARENT 5 3 5 4 5 5
REMARK Flexibility Score: inf
ROOT
ATOM      1  C   UNL     1      30.189   6.867   1.695  1.00  0.00     0.230 C 
ENDROOT
BRANCH   1   2
ATOM      2  N   UNL     1      30.043   5.601   2.433  1.00  0.00    -0.350 N 
ATOM      3  H   UNL     1      30.936   5.350   2.916  1.00  0.00     0.345 HD
ATOM      4  H   UNL     1      29.282   5.687   3.145  1.00  0.00     0.345 HD
ATOM      5  H   UNL     1      29.770   4.833   1.780  1.00  0.00     0.345 HD
ENDBRANCH   1   2
BRANCH   1   6
ATOM      6  C   UNL     1      29.155   7.852   2.179  1.00  0.00     0.099 C 
ATOM      7  O   UNL     1      29.279   8.405   3.305  1.00  0.00    -0.544 OA
ATOM      8  O   UNL     1      28.062   8.162   1.380  1.00  0.00    -0.544 OA
ENDBRANCH   1   6
BRANCH   1   9
ATOM      9  C   UNL     1      31.626   7.456   1.831  1.00  0.00     0.047 C 
ATOM     10  C   UNL     1      32.408   7.328   0.511  1.00  0.00     0.014 C 
ATOM     11  C   UNL     1      32.422   6.772   2.955  1.00  0.00     0.014 C 
ENDBRANCH   1   9
TORSDOF 3
ENDMDL
