MODEL 1
REMARK VINA RESULT:    -4.187      0.000      0.000
REMARK INTER + INTRA:         -10.177
REMARK INTER:                  -7.614
REMARK INTRA:                  -2.562
REMARK UNBOUND:                -2.562
REMARK SMILES CCCCCC=CCC=CCCCCCCCC(=O)[O-]
REMARK SMILES IDX 11 1 12 2 13 3 14 4 15 5 16 6 17 7 18 8 19 9 20 10 10 11
REMARK SMILES IDX 9 12 8 13 7 14 6 15 5 16 4 17 3 18 2 19 1 20
REMARK H PARENT
REMARK Flexibility Score: inf
ROOT
ATOM      1  C   UNL     1      36.174  34.266  36.111  1.00  0.00     0.027 C 
ENDROOT
BRANCH   1   2
ATOM      2  C   UNL     1      37.090  33.200  35.493  1.00  0.00     0.004 C 
BRANCH   2   3
ATOM      3  C   UNL     1      38.405  33.789  34.958  1.00  0.00     0.000 C 
BRANCH   3   4
ATOM      4  C   UNL     1      38.860  33.132  33.645  1.00  0.00     0.000 C 
BRANCH   4   5
ATOM      5  C   UNL     1      37.835  32.091  33.171  1.00  0.00     0.000 C 
BRANCH   5   6
ATOM      6  C   UNL     1      37.382  32.319  31.717  1.00  0.00     0.006 C 
BRANCH   6   7
ATOM      7  C   UNL     1      36.276  33.374  31.557  1.00  0.00     0.053 C 
BRANCH   7   8
ATOM      8  C   UNL     1      34.915  32.754  31.482  1.00  0.00     0.041 C 
ATOM      9  O   UNL     1      33.907  33.384  31.899  1.00  0.00    -0.550 OA
ATOM     10  O   UNL     1      34.763  31.466  30.984  1.00  0.00    -0.550 OA
ENDBRANCH   7   8
ENDBRANCH   6   7
ENDBRANCH   5   6
ENDBRANCH   4   5
ENDBRANCH   3   4
ENDBRANCH   2   3
ENDBRANCH   1   2
BRANCH   1  11
ATOM     11  C   UNL     1      36.089  35.484  35.231  1.00  0.00    -0.031 C 
ATOM     12  C   UNL     1      35.117  35.623  34.316  1.00  0.00    -0.027 C 
BRANCH  12  13
ATOM     13  C   UNL     1      35.039  36.835  33.430  1.00  0.00     0.054 C 
BRANCH  13  14
ATOM     14  C   UNL     1      35.905  37.952  33.955  1.00  0.00    -0.027 C 
ATOM     15  C   UNL     1      37.051  38.363  33.380  1.00  0.00    -0.031 C 
BRANCH  15  16
ATOM     16  C   UNL     1      37.603  37.821  32.084  1.00  0.00     0.027 C 
BRANCH  16  17
ATOM     17  C   UNL     1      38.263  36.447  32.272  1.00  0.00     0.004 C 
BRANCH  17  18
ATOM     18  C   UNL     1      39.797  36.526  32.197  1.00  0.00     0.000 C 
BRANCH  18  19
ATOM     19  C   UNL     1      40.445  36.734  33.574  1.00  0.00    -0.003 C 
ATOM     20  C   UNL     1      40.915  38.172  33.794  1.00  0.00     0.004 C 
ENDBRANCH  18  19
ENDBRANCH  17  18
ENDBRANCH  16  17
ENDBRANCH  15  16
ENDBRANCH  13  14
ENDBRANCH  12  13
ENDBRANCH   1  11
TORSDOF 14
ENDMDL
MODEL 2
REMARK VINA RESULT:    -4.048      3.053      5.756
REMARK INTER + INTRA:          -9.923
REMARK INTER:                  -6.977
REMARK INTRA:                  -2.946
REMARK UNBOUND:                -2.562
REMARK SMILES CCCCCC=CCC=CCCCCCCCC(=O)[O-]
REMARK SMILES IDX 11 1 12 2 13 3 14 4 15 5 16 6 17 7 18 8 19 9 20 10 10 11
REMARK SMILES IDX 9 12 8 13 7 14 6 15 5 16 4 17 3 18 2 19 1 20
REMARK H PARENT
REMARK Flexibility Score: inf
ROOT
ATOM      1  C   UNL     1      35.528  37.289  34.452  1.00  0.00     0.027 C 
ENDROOT
BRANCH   1   2
ATOM      2  C   UNL     1      35.209  37.592  32.981  1.00  0.00     0.004 C 
BRANCH   2   3
ATOM      3  C   UNL     1      35.834  36.568  32.019  1.00  0.00     0.000 C 
BRANCH   3   4
ATOM      4  C   UNL     1      36.833  37.206  31.040  1.00  0.00     0.000 C 
BRANCH   4   5
ATOM      5  C   UNL     1      38.109  37.646  31.771  1.00  0.00     0.000 C 
BRANCH   5   6
ATOM      6  C   UNL     1      38.979  36.457  32.222  1.00  0.00     0.006 C 
BRANCH   6   7
ATOM      7  C   UNL     1      39.814  36.727  33.484  1.00  0.00     0.053 C 
BRANCH   7   8
ATOM      8  C   UNL     1      40.691  37.932  33.330  1.00  0.00     0.041 C 
ATOM      9  O   UNL     1      41.666  37.909  32.533  1.00  0.00    -0.550 OA
ATOM     10  O   UNL     1      40.452  39.068  34.093  1.00  0.00    -0.550 OA
ENDBRANCH   7   8
ENDBRANCH   6   7
ENDBRANCH   5   6
ENDBRANCH   4   5
ENDBRANCH   3   4
ENDBRANCH   2   3
ENDBRANCH   1   2
BRANCH   1  11
ATOM     11  C   UNL     1      36.270  35.987  34.590  1.00  0.00    -0.031 C 
ATOM     12  C   UNL     1      35.818  35.000  35.379  1.00  0.00    -0.027 C 
BRANCH  12  13
ATOM     13  C   UNL     1      36.565  33.705  35.524  1.00  0.00     0.054 C 
BRANCH  13  14
ATOM     14  C   UNL     1      38.039  33.892  35.264  1.00  0.00    -0.027 C 
ATOM     15  C   UNL     1      38.729  33.265  34.293  1.00  0.00    -0.031 C 
BRANCH  15  16
ATOM     16  C   UNL     1      38.117  32.339  33.269  1.00  0.00     0.027 C 
BRANCH  16  17
ATOM     17  C   UNL     1      38.469  32.759  31.834  1.00  0.00     0.004 C 
BRANCH  17  18
ATOM     18  C   UNL     1      37.254  33.332  31.084  1.00  0.00     0.000 C 
BRANCH  18  19
ATOM     19  C   UNL     1      36.020  32.422  31.177  1.00  0.00    -0.003 C 
ATOM     20  C   UNL     1      34.799  33.141  31.751  1.00  0.00     0.004 C 
ENDBRANCH  18  19
ENDBRANCH  17  18
ENDBRANCH  16  17
ENDBRANCH  15  16
ENDBRANCH  13  14
ENDBRANCH  12  13
ENDBRANCH   1  11
TORSDOF 14
ENDMDL
MODEL 3
REMARK VINA RESULT:    -3.945      1.322      2.130
REMARK INTER + INTRA:          -9.735
REMARK INTER:                  -7.088
REMARK INTRA:                  -2.647
REMARK UNBOUND:                -2.562
REMARK SMILES CCCCCC=CCC=CCCCCCCCC(=O)[O-]
REMARK SMILES IDX 11 1 12 2 13 3 14 4 15 5 16 6 17 7 18 8 19 9 20 10 10 11
REMARK SMILES IDX 9 12 8 13 7 14 6 15 5 16 4 17 3 18 2 19 1 20
REMARK H PARENT
REMARK Flexibility Score: inf
ROOT
ATOM      1  C   UNL     1      34.974  34.968  35.349  1.00  0.00     0.027 C 
ENDROOT
BRANCH   1   2
ATOM      2  C   UNL     1      36.310  34.732  36.069  1.00  0.00     0.004 C 
BRANCH   2   3
ATOM      3  C   UNL     1      36.936  33.372  35.720  1.00  0.00     0.000 C 
BRANCH   3   4
ATOM      4  C   UNL     1      38.384  33.496  35.220  1.00  0.00     0.000 C 
BRANCH   4   5
ATOM      5  C   UNL     1      38.486  34.528  34.088  1.00  0.00     0.000 C 
BRANCH   5   6
ATOM      6  C   UNL     1      38.650  33.879  32.701  1.00  0.00     0.006 C 
BRANCH   6   7
ATOM      7  C   UNL     1      37.325  33.507  32.016  1.00  0.00     0.053 C 
BRANCH   7   8
ATOM      8  C   UNL     1      37.128  32.024  31.941  1.00  0.00     0.041 C 
ATOM      9  O   UNL     1      36.178  31.544  31.268  1.00  0.00    -0.550 OA
ATOM     10  O   UNL     1      37.974  31.174  32.642  1.00  0.00    -0.550 OA
ENDBRANCH   7   8
ENDBRANCH   6   7
ENDBRANCH   5   6
ENDBRANCH   4   5
ENDBRANCH   3   4
ENDBRANCH   2   3
ENDBRANCH   1   2
BRANCH   1  11
ATOM     11  C   UNL     1      35.149  35.880  34.165  1.00  0.00    -0.031 C 
ATOM     12  C   UNL     1      35.848  37.023  34.255  1.00  0.00    -0.027 C 
BRANCH  12  13
ATOM     13  C   UNL     1      36.013  37.938  33.075  1.00  0.00     0.054 C 
BRANCH  13  14
ATOM     14  C   UNL     1      36.417  37.171  31.841  1.00  0.00    -0.027 C 
ATOM     15  C   UNL     1      37.589  37.325  31.196  1.00  0.00    -0.031 C 
BRANCH  15  16
ATOM     16  C   UNL     1      38.706  38.232  31.653  1.00  0.00     0.027 C 
BRANCH  16  17
ATOM     17  C   UNL     1      39.920  37.437  32.157  1.00  0.00     0.004 C 
BRANCH  17  18
ATOM     18  C   UNL     1      40.243  37.745  33.629  1.00  0.00     0.000 C 
BRANCH  18  19
ATOM     19  C   UNL     1      41.090  39.016  33.793  1.00  0.00    -0.003 C 
ATOM     20  C   UNL     1      40.293  40.186  34.370  1.00  0.00     0.004 C 
ENDBRANCH  18  19
ENDBRANCH  17  18
ENDBRANCH  16  17
ENDBRANCH  15  16
ENDBRANCH  13  14
ENDBRANCH  12  13
ENDBRANCH   1  11
TORSDOF 14
ENDMDL
MODEL 4
REMARK VINA RESULT:    -3.791      1.924      4.269
REMARK INTER + INTRA:          -9.455
REMARK INTER:                  -6.949
REMARK INTRA:                  -2.506
REMARK UNBOUND:                -2.562
REMARK SMILES CCCCCC=CCC=CCCCCCCCC(=O)[O-]
REMARK SMILES IDX 11 1 12 2 13 3 14 4 15 5 16 6 17 7 18 8 19 9 20 10 10 11
REMARK SMILES IDX 9 12 8 13 7 14 6 15 5 16 4 17 3 18 2 19 1 20
REMARK H PARENT
REMARK Flexibility Score: inf
ROOT
ATOM      1  C   UNL     1      36.125  38.063  33.471  1.00  0.00     0.027 C 
ENDROOT
BRANCH   1   2
ATOM      2  C   UNL     1      34.973  37.047  33.448  1.00  0.00     0.004 C 
BRANCH   2   3
ATOM      3  C   UNL     1      35.453  35.604  33.671  1.00  0.00     0.000 C 
BRANCH   3   4
ATOM      4  C   UNL     1      35.098  35.069  35.067  1.00  0.00     0.000 C 
BRANCH   4   5
ATOM      5  C   UNL     1      36.366  34.824  35.898  1.00  0.00     0.000 C 
BRANCH   5   6
ATOM      6  C   UNL     1      37.040  33.476  35.575  1.00  0.00     0.006 C 
BRANCH   6   7
ATOM      7  C   UNL     1      38.357  33.599  34.794  1.00  0.00     0.053 C 
BRANCH   7   8
ATOM      8  C   UNL     1      38.245  33.038  33.411  1.00  0.00     0.041 C 
ATOM      9  O   UNL     1      38.281  33.802  32.410  1.00  0.00    -0.550 OA
ATOM     10  O   UNL     1      38.064  31.672  33.227  1.00  0.00    -0.550 OA
ENDBRANCH   7   8
ENDBRANCH   6   7
ENDBRANCH   5   6
ENDBRANCH   4   5
ENDBRANCH   3   4
ENDBRANCH   2   3
ENDBRANCH   1   2
BRANCH   1  11
ATOM     11  C   UNL     1      37.453  37.381  33.282  1.00  0.00    -0.031 C 
ATOM     12  C   UNL     1      38.249  37.668  32.240  1.00  0.00    -0.027 C 
BRANCH  12  13
ATOM     13  C   UNL     1      39.570  36.978  32.047  1.00  0.00     0.054 C 
BRANCH  13  14
ATOM     14  C   UNL     1      40.198  36.618  33.370  1.00  0.00    -0.027 C 
ATOM     15  C   UNL     1      41.189  37.314  33.959  1.00  0.00    -0.031 C 
BRANCH  15  16
ATOM     16  C   UNL     1      41.770  38.600  33.422  1.00  0.00     0.027 C 
BRANCH  16  17
ATOM     17  C   UNL     1      41.221  39.829  34.161  1.00  0.00     0.004 C 
BRANCH  17  18
ATOM     18  C   UNL     1      40.798  40.946  33.191  1.00  0.00     0.000 C 
BRANCH  18  19
ATOM     19  C   UNL     1      39.272  41.104  33.104  1.00  0.00    -0.003 C 
ATOM     20  C   UNL     1      38.568  40.755  34.415  1.00  0.00     0.004 C 
ENDBRANCH  18  19
ENDBRANCH  17  18
ENDBRANCH  16  17
ENDBRANCH  15  16
ENDBRANCH  13  14
ENDBRANCH  12  13
ENDBRANCH   1  11
TORSDOF 14
ENDMDL
MODEL 5
REMARK VINA RESULT:    -3.762      9.590     12.714
REMARK INTER + INTRA:          -9.403
REMARK INTER:                  -6.276
REMARK INTRA:                  -3.126
REMARK UNBOUND:                -2.562
REMARK SMILES CCCCCC=CCC=CCCCCCCCC(=O)[O-]
REMARK SMILES IDX 11 1 12 2 13 3 14 4 15 5 16 6 17 7 18 8 19 9 20 10 10 11
REMARK SMILES IDX 9 12 8 13 7 14 6 15 5 16 4 17 3 18 2 19 1 20
REMARK H PARENT
REMARK Flexibility Score: inf
ROOT
ATOM      1  C   UNL     1      30.439  25.473  36.337  1.00  0.00     0.027 C 
ENDROOT
BRANCH   1   2
ATOM      2  C   UNL     1      29.422  25.453  37.488  1.00  0.00     0.004 C 
BRANCH   2   3
ATOM      3  C   UNL     1      29.378  26.782  38.260  1.00  0.00     0.000 C 
BRANCH   3   4
ATOM      4  C   UNL     1      30.093  27.923  37.520  1.00  0.00     0.000 C 
BRANCH   4   5
ATOM      5  C   UNL     1      29.111  29.054  37.181  1.00  0.00     0.000 C 
BRANCH   5   6
ATOM      6  C   UNL     1      29.358  29.662  35.787  1.00  0.00     0.006 C 
BRANCH   6   7
ATOM      7  C   UNL     1      28.266  30.636  35.319  1.00  0.00     0.053 C 
BRANCH   7   8
ATOM      8  C   UNL     1      28.750  31.540  34.227  1.00  0.00     0.041 C 
ATOM      9  O   UNL     1      28.523  32.778  34.281  1.00  0.00    -0.550 OA
ATOM     10  O   UNL     1      29.421  31.011  33.132  1.00  0.00    -0.550 OA
ENDBRANCH   7   8
ENDBRANCH   6   7
ENDBRANCH   5   6
ENDBRANCH   4   5
ENDBRANCH   3   4
ENDBRANCH   2   3
ENDBRANCH   1   2
BRANCH   1  11
ATOM     11  C   UNL     1      29.751  25.365  35.004  1.00  0.00    -0.031 C 
ATOM     12  C   UNL     1      29.146  26.420  34.437  1.00  0.00    -0.027 C 
BRANCH  12  13
ATOM     13  C   UNL     1      28.450  26.308  33.110  1.00  0.00     0.054 C 
BRANCH  13  14
ATOM     14  C   UNL     1      27.947  27.650  32.641  1.00  0.00    -0.027 C 
ATOM     15  C   UNL     1      26.731  28.152  32.930  1.00  0.00    -0.031 C 
BRANCH  15  16
ATOM     16  C   UNL     1      25.719  27.484  33.828  1.00  0.00     0.027 C 
BRANCH  16  17
ATOM     17  C   UNL     1      25.808  27.995  35.273  1.00  0.00     0.004 C 
BRANCH  17  18
ATOM     18  C   UNL     1      26.170  26.875  36.263  1.00  0.00     0.000 C 
BRANCH  18  19
ATOM     19  C   UNL     1      25.375  25.585  36.012  1.00  0.00    -0.003 C 
ATOM     20  C   UNL     1      26.272  24.355  35.880  1.00  0.00     0.004 C 
ENDBRANCH  18  19
ENDBRANCH  17  18
ENDBRANCH  16  17
ENDBRANCH  15  16
ENDBRANCH  13  14
ENDBRANCH  12  13
ENDBRANCH   1  11
TORSDOF 14
ENDMDL
MODEL 6
REMARK VINA RESULT:    -3.729      3.340      6.166
REMARK INTER + INTRA:          -9.343
REMARK INTER:                  -6.813
REMARK INTRA:                  -2.529
REMARK UNBOUND:                -2.562
REMARK SMILES CCCCCC=CCC=CCCCCCCCC(=O)[O-]
REMARK SMILES IDX 11 1 12 2 13 3 14 4 15 5 16 6 17 7 18 8 19 9 20 10 10 11
REMARK SMILES IDX 9 12 8 13 7 14 6 15 5 16 4 17 3 18 2 19 1 20
REMARK H PARENT
REMARK Flexibility Score: inf
ROOT
ATOM      1  C   UNL     1      35.080  37.027  33.493  1.00  0.00     0.027 C 
ENDROOT
BRANCH   1   2
ATOM      2  C   UNL     1      36.373  37.817  33.742  1.00  0.00     0.004 C 
BRANCH   2   3
ATOM      3  C   UNL     1      37.426  37.587  32.647  1.00  0.00     0.000 C 
BRANCH   3   4
ATOM      4  C   UNL     1      38.767  37.088  33.208  1.00  0.00     0.000 C 
BRANCH   4   5
ATOM      5  C   UNL     1      39.925  37.976  32.728  1.00  0.00     0.000 C 
BRANCH   5   6
ATOM      6  C   UNL     1      39.442  39.283  32.071  1.00  0.00     0.006 C 
BRANCH   6   7
ATOM      7  C   UNL     1      39.997  40.560  32.722  1.00  0.00     0.053 C 
BRANCH   7   8
ATOM      8  C   UNL     1      39.554  40.703  34.146  1.00  0.00     0.041 C 
ATOM      9  O   UNL     1      38.327  40.726  34.429  1.00  0.00    -0.550 OA
ATOM     10  O   UNL     1      40.496  40.845  35.157  1.00  0.00    -0.550 OA
ENDBRANCH   7   8
ENDBRANCH   6   7
ENDBRANCH   5   6
ENDBRANCH   4   5
ENDBRANCH   3   4
ENDBRANCH   2   3
ENDBRANCH   1   2
BRANCH   1  11
ATOM     11  C   UNL     1      35.327  35.859  32.577  1.00  0.00    -0.031 C 
ATOM     12  C   UNL     1      34.844  34.637  32.850  1.00  0.00    -0.027 C 
BRANCH  12  13
ATOM     13  C   UNL     1      35.100  33.469  31.939  1.00  0.00     0.054 C 
BRANCH  13  14
ATOM     14  C   UNL     1      36.393  33.639  31.182  1.00  0.00    -0.027 C 
ATOM     15  C   UNL     1      37.570  33.099  31.551  1.00  0.00    -0.031 C 
BRANCH  15  16
ATOM     16  C   UNL     1      37.759  32.180  32.733  1.00  0.00     0.027 C 
BRANCH  16  17
ATOM     17  C   UNL     1      38.652  32.810  33.812  1.00  0.00     0.004 C 
BRANCH  17  18
ATOM     18  C   UNL     1      37.950  33.967  34.543  1.00  0.00     0.000 C 
BRANCH  18  19
ATOM     19  C   UNL     1      37.087  33.485  35.719  1.00  0.00    -0.003 C 
ATOM     20  C   UNL     1      36.090  34.543  36.190  1.00  0.00     0.004 C 
ENDBRANCH  18  19
ENDBRANCH  17  18
ENDBRANCH  16  17
ENDBRANCH  15  16
ENDBRANCH  13  14
ENDBRANCH  12  13
ENDBRANCH   1  11
TORSDOF 14
ENDMDL
MODEL 7
REMARK VINA RESULT:    -3.708      2.528      4.292
REMARK INTER + INTRA:          -9.306
REMARK INTER:                  -6.956
REMARK INTRA:                  -2.350
REMARK UNBOUND:                -2.562
REMARK SMILES CCCCCC=CCC=CCCCCCCCC(=O)[O-]
REMARK SMILES IDX 11 1 12 2 13 3 14 4 15 5 16 6 17 7 18 8 19 9 20 10 10 11
REMARK SMILES IDX 9 12 8 13 7 14 6 15 5 16 4 17 3 18 2 19 1 20
REMARK H PARENT
REMARK Flexibility Score: inf
ROOT
ATOM      1  C   UNL     1      38.260  34.033  32.491  1.00  0.00     0.027 C 
ENDROOT
BRANCH   1   2
ATOM      2  C   UNL     1      38.726  33.324  33.772  1.00  0.00     0.004 C 
BRANCH   2   3
ATOM      3  C   UNL     1      37.553  32.813  34.624  1.00  0.00     0.000 C 
BRANCH   3   4
ATOM      4  C   UNL     1      37.402  33.580  35.947  1.00  0.00     0.000 C 
BRANCH   4   5
ATOM      5  C   UNL     1      36.106  34.404  35.957  1.00  0.00     0.000 C 
BRANCH   5   6
ATOM      6  C   UNL     1      36.274  35.790  35.306  1.00  0.00     0.006 C 
BRANCH   6   7
ATOM      7  C   UNL     1      35.387  36.021  34.073  1.00  0.00     0.053 C 
BRANCH   7   8
ATOM      8  C   UNL     1      35.617  37.368  33.460  1.00  0.00     0.041 C 
ATOM      9  O   UNL     1      35.723  38.388  34.191  1.00  0.00    -0.550 OA
ATOM     10  O   UNL     1      35.678  37.502  32.078  1.00  0.00    -0.550 OA
ENDBRANCH   7   8
ENDBRANCH   6   7
ENDBRANCH   5   6
ENDBRANCH   4   5
ENDBRANCH   3   4
ENDBRANCH   2   3
ENDBRANCH   1   2
BRANCH   1  11
ATOM     11  C   UNL     1      38.736  35.460  32.458  1.00  0.00    -0.031 C 
ATOM     12  C   UNL     1      39.401  36.004  33.489  1.00  0.00    -0.027 C 
BRANCH  12  13
ATOM     13  C   UNL     1      39.867  37.432  33.458  1.00  0.00     0.054 C 
BRANCH  13  14
ATOM     14  C   UNL     1      39.199  38.201  32.346  1.00  0.00    -0.027 C 
ATOM     15  C   UNL     1      38.719  39.454  32.465  1.00  0.00    -0.031 C 
BRANCH  15  16
ATOM     16  C   UNL     1      38.845  40.305  33.705  1.00  0.00     0.027 C 
BRANCH  16  17
ATOM     17  C   UNL     1      39.465  41.677  33.398  1.00  0.00     0.004 C 
BRANCH  17  18
ATOM     18  C   UNL     1      40.953  41.739  33.784  1.00  0.00     0.000 C 
BRANCH  18  19
ATOM     19  C   UNL     1      41.329  40.700  34.851  1.00  0.00    -0.003 C 
ATOM     20  C   UNL     1      41.976  41.330  36.084  1.00  0.00     0.004 C 
ENDBRANCH  18  19
ENDBRANCH  17  18
ENDBRANCH  16  17
ENDBRANCH  15  16
ENDBRANCH  13  14
ENDBRANCH  12  13
ENDBRANCH   1  11
TORSDOF 14
ENDMDL
MODEL 8
REMARK VINA RESULT:    -3.698      9.431     12.432
REMARK INTER + INTRA:          -9.287
REMARK INTER:                  -6.221
REMARK INTRA:                  -3.066
REMARK UNBOUND:                -2.562
REMARK SMILES CCCCCC=CCC=CCCCCCCCC(=O)[O-]
REMARK SMILES IDX 11 1 12 2 13 3 14 4 15 5 16 6 17 7 18 8 19 9 20 10 10 11
REMARK SMILES IDX 9 12 8 13 7 14 6 15 5 16 4 17 3 18 2 19 1 20
REMARK H PARENT
REMARK Flexibility Score: inf
ROOT
ATOM      1  C   UNL     1      25.536  26.117  36.174  1.00  0.00     0.027 C 
ENDROOT
BRANCH   1   2
ATOM      2  C   UNL     1      25.656  26.345  34.660  1.00  0.00     0.004 C 
BRANCH   2   3
ATOM      3  C   UNL     1      25.359  27.798  34.256  1.00  0.00     0.000 C 
BRANCH   3   4
ATOM      4  C   UNL     1      26.634  28.609  33.976  1.00  0.00     0.000 C 
BRANCH   4   5
ATOM      5  C   UNL     1      26.543  30.006  34.607  1.00  0.00     0.000 C 
BRANCH   5   6
ATOM      6  C   UNL     1      27.855  30.439  35.289  1.00  0.00     0.006 C 
BRANCH   6   7
ATOM      7  C   UNL     1      28.953  30.896  34.315  1.00  0.00     0.053 C 
BRANCH   7   8
ATOM      8  C   UNL     1      28.653  32.237  33.720  1.00  0.00     0.041 C 
ATOM      9  O   UNL     1      28.799  33.283  34.406  1.00  0.00    -0.550 OA
ATOM     10  O   UNL     1      28.180  32.330  32.417  1.00  0.00    -0.550 OA
ENDBRANCH   7   8
ENDBRANCH   6   7
ENDBRANCH   5   6
ENDBRANCH   4   5
ENDBRANCH   3   4
ENDBRANCH   2   3
ENDBRANCH   1   2
BRANCH   1  11
ATOM     11  C   UNL     1      26.892  26.076  36.825  1.00  0.00    -0.031 C 
ATOM     12  C   UNL     1      27.449  27.174  37.359  1.00  0.00    -0.027 C 
BRANCH  12  13
ATOM     13  C   UNL     1      28.807  27.134  38.000  1.00  0.00     0.054 C 
BRANCH  13  14
ATOM     14  C   UNL     1      29.607  28.369  37.665  1.00  0.00    -0.027 C 
ATOM     15  C   UNL     1      30.552  28.429  36.707  1.00  0.00    -0.031 C 
BRANCH  15  16
ATOM     16  C   UNL     1      30.900  27.295  35.775  1.00  0.00     0.027 C 
BRANCH  16  17
ATOM     17  C   UNL     1      30.002  27.280  34.529  1.00  0.00     0.004 C 
BRANCH  17  18
ATOM     18  C   UNL     1      29.388  25.892  34.275  1.00  0.00     0.000 C 
BRANCH  18  19
ATOM     19  C   UNL     1      29.888  24.834  35.269  1.00  0.00    -0.003 C 
ATOM     20  C   UNL     1      29.444  23.420  34.899  1.00  0.00     0.004 C 
ENDBRANCH  18  19
ENDBRANCH  17  18
ENDBRANCH  16  17
ENDBRANCH  15  16
ENDBRANCH  13  14
ENDBRANCH  12  13
ENDBRANCH   1  11
TORSDOF 14
ENDMDL
MODEL 9
REMARK VINA RESULT:    -3.650      1.403      3.136
REMARK INTER + INTRA:          -9.199
REMARK INTER:                  -6.777
REMARK INTRA:                  -2.421
REMARK UNBOUND:                -2.562
REMARK SMILES CCCCCC=CCC=CCCCCCCCC(=O)[O-]
REMARK SMILES IDX 11 1 12 2 13 3 14 4 15 5 16 6 17 7 18 8 19 9 20 10 10 11
REMARK SMILES IDX 9 12 8 13 7 14 6 15 5 16 4 17 3 18 2 19 1 20
REMARK H PARENT
REMARK Flexibility Score: inf
ROOT
ATOM      1  C   UNL     1      35.748  36.801  34.476  1.00  0.00     0.027 C 
ENDROOT
BRANCH   1   2
ATOM      2  C   UNL     1      35.379  35.358  34.850  1.00  0.00     0.004 C 
BRANCH   2   3
ATOM      3  C   UNL     1      36.199  34.828  36.038  1.00  0.00     0.000 C 
BRANCH   3   4
ATOM      4  C   UNL     1      36.860  33.472  35.746  1.00  0.00     0.000 C 
BRANCH   4   5
ATOM      5  C   UNL     1      38.043  33.637  34.781  1.00  0.00     0.000 C 
BRANCH   5   6
ATOM      6  C   UNL     1      38.059  32.572  33.667  1.00  0.00     0.006 C 
BRANCH   6   7
ATOM      7  C   UNL     1      37.705  33.112  32.273  1.00  0.00     0.053 C 
BRANCH   7   8
ATOM      8  C   UNL     1      36.374  32.614  31.799  1.00  0.00     0.041 C 
ATOM      9  O   UNL     1      36.286  31.506  31.206  1.00  0.00    -0.550 OA
ATOM     10  O   UNL     1      35.236  33.390  31.980  1.00  0.00    -0.550 OA
ENDBRANCH   7   8
ENDBRANCH   6   7
ENDBRANCH   5   6
ENDBRANCH   4   5
ENDBRANCH   3   4
ENDBRANCH   2   3
ENDBRANCH   1   2
BRANCH   1  11
ATOM     11  C   UNL     1      36.292  36.876  33.076  1.00  0.00    -0.031 C 
ATOM     12  C   UNL     1      37.605  36.761  32.824  1.00  0.00    -0.027 C 
BRANCH  12  13
ATOM     13  C   UNL     1      38.149  36.847  31.426  1.00  0.00     0.054 C 
BRANCH  13  14
ATOM     14  C   UNL     1      39.525  36.236  31.335  1.00  0.00    -0.027 C 
ATOM     15  C   UNL     1      40.668  36.941  31.245  1.00  0.00    -0.031 C 
BRANCH  15  16
ATOM     16  C   UNL     1      40.753  38.447  31.297  1.00  0.00     0.027 C 
BRANCH  16  17
ATOM     17  C   UNL     1      41.382  38.941  32.608  1.00  0.00     0.004 C 
BRANCH  17  18
ATOM     18  C   UNL     1      40.328  39.181  33.702  1.00  0.00     0.000 C 
BRANCH  18  19
ATOM     19  C   UNL     1      39.151  40.036  33.210  1.00  0.00    -0.003 C 
ATOM     20  C   UNL     1      38.385  40.699  34.354  1.00  0.00     0.004 C 
ENDBRANCH  18  19
ENDBRANCH  17  18
ENDBRANCH  16  17
ENDBRANCH  15  16
ENDBRANCH  13  14
ENDBRANCH  12  13
ENDBRANCH   1  11
TORSDOF 14
ENDMDL
