MODEL 1
REMARK VINA RESULT:    -6.849      0.000      0.000
REMARK INTER + INTRA:         -12.080
REMARK INTER:                  -9.452
REMARK INTRA:                  -2.628
REMARK UNBOUND:                -2.628
REMARK SMILES CC[C@@H](CC[C@H](C)[C@@H]1CC[C@H]2C3=CC[C@H]4C[C@H](O)CC[C@]4(C)[C@@H]3CC[C@]21C)C(C)C
REMARK SMILES IDX 5 1 4 2 3 3 2 4 1 5 28 6 29 7 30 8 6 9 7 10 8 11 9 12 26 13
REMARK SMILES IDX 10 14 11 15 25 16 27 17 12 18 24 19 23 20 13 21 21 22 14 23
REMARK SMILES IDX 15 24 20 25 22 26 16 27 19 28 17 29 18 30
REMARK H PARENT 18 31
REMARK Flexibility Score: inf
ROOT
ATOM      1  C   UNL     1     117.710 122.497 123.569  1.00  0.00     0.004 C 
ENDROOT
BRANCH   1   2
ATOM      2  C   UNL     1     118.796 121.576 124.187  1.00  0.00     0.004 C 
BRANCH   2   3
ATOM      3  C   UNL     1     118.744 120.076 123.759  1.00  0.00    -0.009 C 
BRANCH   3   4
ATOM      4  C   UNL     1     118.003 119.858 122.402  1.00  0.00     0.000 C 
ATOM      5  C   UNL     1     118.691 118.842 121.485  1.00  0.00     0.004 C 
ENDBRANCH   3   4
BRANCH   3   6
ATOM      6  C   UNL     1     118.292 119.135 124.931  1.00  0.00    -0.014 C 
ATOM      7  C   UNL     1     116.983 118.395 124.627  1.00  0.00     0.007 C 
ATOM      8  C   UNL     1     118.200 119.813 126.308  1.00  0.00     0.007 C 
ENDBRANCH   3   6
ENDBRANCH   2   3
ENDBRANCH   1   2
BRANCH   1   9
ATOM      9  C   UNL     1     116.611 122.930 124.598  1.00  0.00    -0.011 C 
ATOM     10  C   UNL     1     117.302 123.361 125.907  1.00  0.00     0.008 C 
BRANCH   9  11
ATOM     11  C   UNL     1     115.560 121.783 124.836  1.00  0.00    -0.002 C 
ATOM     12  C   UNL     1     115.006 121.241 123.513  1.00  0.00     0.005 C 
ATOM     13  C   UNL     1     114.274 122.094 125.678  1.00  0.00    -0.023 C 
ATOM     14  C   UNL     1     113.713 120.511 123.836  1.00  0.00     0.009 C 
ATOM     15  C   UNL     1     113.217 121.046 125.185  1.00  0.00     0.021 C 
ATOM     16  C   UNL     1     114.485 121.968 127.224  1.00  0.00     0.008 C 
ATOM     17  C   UNL     1     113.726 123.513 125.375  1.00  0.00     0.012 C 
ATOM     18  C   UNL     1     113.022 119.903 126.170  1.00  0.00    -0.067 C 
ATOM     19  C   UNL     1     114.866 120.555 127.730  1.00  0.00     0.009 C 
ATOM     20  C   UNL     1     114.267 119.396 126.886  1.00  0.00     0.021 C 
ATOM     21  C   UNL     1     111.776 119.464 126.473  1.00  0.00    -0.027 C 
ATOM     22  C   UNL     1     114.012 118.041 127.647  1.00  0.00    -0.023 C 
ATOM     23  C   UNL     1     111.497 118.386 127.497  1.00  0.00     0.031 C 
ATOM     24  C   UNL     1     112.688 118.185 128.449  1.00  0.00     0.002 C 
ATOM     25  C   UNL     1     115.146 117.713 128.651  1.00  0.00     0.010 C 
ATOM     26  C   UNL     1     113.942 116.919 126.560  1.00  0.00     0.012 C 
ATOM     27  C   UNL     1     112.432 117.097 129.534  1.00  0.00     0.036 C 
ATOM     28  C   UNL     1     114.950 116.370 129.377  1.00  0.00     0.032 C 
ATOM     29  C   UNL     1     113.475 115.957 129.631  1.00  0.00     0.114 C 
BRANCH  29  30
ATOM     30  O   UNL     1     113.357 115.298 130.869  1.00  0.00    -0.393 OA
ATOM     31  H   UNL     1     114.061 115.657 131.471  1.00  0.00     0.210 HD
ENDBRANCH  29  30
ENDBRANCH   9  11
ENDBRANCH   1   9
TORSDOF 7
ENDMDL
MODEL 2
REMARK VINA RESULT:    -6.509      3.227      6.434
REMARK INTER + INTRA:         -11.610
REMARK INTER:                  -9.519
REMARK INTRA:                  -2.091
REMARK UNBOUND:                -2.628
REMARK SMILES CC[C@@H](CC[C@H](C)[C@@H]1CC[C@H]2C3=CC[C@H]4C[C@H](O)CC[C@]4(C)[C@@H]3CC[C@]21C)C(C)C
REMARK SMILES IDX 5 1 4 2 3 3 2 4 1 5 28 6 29 7 30 8 6 9 7 10 8 11 9 12 26 13
REMARK SMILES IDX 10 14 11 15 25 16 27 17 12 18 24 19 23 20 13 21 21 22 14 23
REMARK SMILES IDX 15 24 20 25 22 26 16 27 19 28 17 29 18 30
REMARK H PARENT 18 31
REMARK Flexibility Score: inf
ROOT
ATOM      1  C   UNL     1     112.776 115.253 125.129  1.00  0.00     0.004 C 
ENDROOT
BRANCH   1   2
ATOM      2  C   UNL     1     113.818 114.885 124.040  1.00  0.00     0.004 C 
BRANCH   2   3
ATOM      3  C   UNL     1     115.312 115.148 124.407  1.00  0.00    -0.009 C 
BRANCH   3   4
ATOM      4  C   UNL     1     115.887 116.429 123.725  1.00  0.00     0.000 C 
ATOM      5  C   UNL     1     116.483 117.435 124.715  1.00  0.00     0.004 C 
ENDBRANCH   3   4
BRANCH   3   6
ATOM      6  C   UNL     1     116.196 113.858 124.271  1.00  0.00    -0.014 C 
ATOM      7  C   UNL     1     117.589 114.151 123.698  1.00  0.00     0.007 C 
ATOM      8  C   UNL     1     115.545 112.704 123.492  1.00  0.00     0.007 C 
ENDBRANCH   3   6
ENDBRANCH   2   3
ENDBRANCH   1   2
BRANCH   1   9
ATOM      9  C   UNL     1     112.164 116.683 124.938  1.00  0.00    -0.011 C 
ATOM     10  C   UNL     1     112.043 116.972 123.429  1.00  0.00     0.008 C 
BRANCH   9  11
ATOM     11  C   UNL     1     113.017 117.778 125.682  1.00  0.00    -0.002 C 
ATOM     12  C   UNL     1     113.519 117.278 127.041  1.00  0.00     0.005 C 
ATOM     13  C   UNL     1     112.354 119.160 126.015  1.00  0.00    -0.023 C 
ATOM     14  C   UNL     1     113.904 118.503 127.853  1.00  0.00     0.009 C 
ATOM     15  C   UNL     1     113.166 119.700 127.243  1.00  0.00     0.021 C 
ATOM     16  C   UNL     1     112.404 120.187 124.835  1.00  0.00     0.008 C 
ATOM     17  C   UNL     1     110.875 118.990 126.451  1.00  0.00     0.012 C 
ATOM     18  C   UNL     1     114.153 120.792 126.857  1.00  0.00    -0.067 C 
ATOM     19  C   UNL     1     113.823 120.612 124.384  1.00  0.00     0.009 C 
ATOM     20  C   UNL     1     114.875 120.624 125.527  1.00  0.00     0.021 C 
ATOM     21  C   UNL     1     114.269 121.910 127.614  1.00  0.00    -0.027 C 
ATOM     22  C   UNL     1     116.071 121.634 125.361  1.00  0.00    -0.023 C 
ATOM     23  C   UNL     1     115.170 123.072 127.256  1.00  0.00     0.031 C 
ATOM     24  C   UNL     1     115.565 123.046 125.769  1.00  0.00     0.002 C 
ATOM     25  C   UNL     1     116.572 121.711 123.897  1.00  0.00     0.010 C 
ATOM     26  C   UNL     1     117.228 121.118 126.277  1.00  0.00     0.012 C 
ATOM     27  C   UNL     1     116.476 124.239 125.354  1.00  0.00     0.036 C 
ATOM     28  C   UNL     1     117.774 122.655 123.710  1.00  0.00     0.032 C 
ATOM     29  C   UNL     1     117.815 123.880 124.663  1.00  0.00     0.114 C 
BRANCH  29  30
ATOM     30  O   UNL     1     118.331 125.005 123.994  1.00  0.00    -0.393 OA
ATOM     31  H   UNL     1     118.152 124.887 123.023  1.00  0.00     0.210 HD
ENDBRANCH  29  30
ENDBRANCH   9  11
ENDBRANCH   1   9
TORSDOF 7
ENDMDL
MODEL 3
REMARK VINA RESULT:    -6.342      2.851      6.853
REMARK INTER + INTRA:         -11.380
REMARK INTER:                  -9.794
REMARK INTRA:                  -1.586
REMARK UNBOUND:                -2.628
REMARK SMILES CC[C@@H](CC[C@H](C)[C@@H]1CC[C@H]2C3=CC[C@H]4C[C@H](O)CC[C@]4(C)[C@@H]3CC[C@]21C)C(C)C
REMARK SMILES IDX 5 1 4 2 3 3 2 4 1 5 28 6 29 7 30 8 6 9 7 10 8 11 9 12 26 13
REMARK SMILES IDX 10 14 11 15 25 16 27 17 12 18 24 19 23 20 13 21 21 22 14 23
REMARK SMILES IDX 15 24 20 25 22 26 16 27 19 28 17 29 18 30
REMARK H PARENT 18 31
REMARK Flexibility Score: inf
ROOT
ATOM      1  C   UNL     1     111.995 115.710 127.348  1.00  0.00     0.004 C 
ENDROOT
BRANCH   1   2
ATOM      2  C   UNL     1     112.033 116.837 126.282  1.00  0.00     0.004 C 
BRANCH   2   3
ATOM      3  C   UNL     1     112.549 116.424 124.869  1.00  0.00    -0.009 C 
BRANCH   3   4
ATOM      4  C   UNL     1     113.944 115.724 124.914  1.00  0.00     0.000 C 
ATOM      5  C   UNL     1     115.088 116.604 124.401  1.00  0.00     0.004 C 
ENDBRANCH   3   4
BRANCH   3   6
ATOM      6  C   UNL     1     112.412 117.583 123.819  1.00  0.00    -0.014 C 
ATOM      7  C   UNL     1     111.807 118.859 124.421  1.00  0.00     0.007 C 
ATOM      8  C   UNL     1     111.659 117.207 122.533  1.00  0.00     0.007 C 
ENDBRANCH   3   6
ENDBRANCH   2   3
ENDBRANCH   1   2
BRANCH   1   9
ATOM      9  C   UNL     1     112.863 116.029 128.613  1.00  0.00    -0.011 C 
ATOM     10  C   UNL     1     111.991 116.790 129.631  1.00  0.00     0.008 C 
BRANCH   9  11
ATOM     11  C   UNL     1     114.162 116.833 128.232  1.00  0.00    -0.002 C 
ATOM     12  C   UNL     1     115.421 115.968 128.366  1.00  0.00     0.005 C 
ATOM     13  C   UNL     1     114.515 118.132 129.036  1.00  0.00    -0.023 C 
ATOM     14  C   UNL     1     116.607 116.915 128.440  1.00  0.00     0.009 C 
ATOM     15  C   UNL     1     116.069 118.280 128.883  1.00  0.00     0.021 C 
ATOM     16  C   UNL     1     113.790 119.416 128.514  1.00  0.00     0.008 C 
ATOM     17  C   UNL     1     114.192 117.970 130.545  1.00  0.00     0.012 C 
ATOM     18  C   UNL     1     116.456 119.356 127.878  1.00  0.00    -0.067 C 
ATOM     19  C   UNL     1     114.139 119.833 127.064  1.00  0.00     0.009 C 
ATOM     20  C   UNL     1     115.589 119.475 126.632  1.00  0.00     0.021 C 
ATOM     21  C   UNL     1     117.448 120.235 128.164  1.00  0.00    -0.027 C 
ATOM     22  C   UNL     1     116.237 120.400 125.536  1.00  0.00    -0.023 C 
ATOM     23  C   UNL     1     117.840 121.376 127.252  1.00  0.00     0.031 C 
ATOM     24  C   UNL     1     116.731 121.698 126.236  1.00  0.00     0.002 C 
ATOM     25  C   UNL     1     115.220 120.806 124.439  1.00  0.00     0.010 C 
ATOM     26  C   UNL     1     117.400 119.582 124.886  1.00  0.00     0.012 C 
ATOM     27  C   UNL     1     117.086 122.883 125.291  1.00  0.00     0.036 C 
ATOM     28  C   UNL     1     115.835 121.672 123.325  1.00  0.00     0.032 C 
ATOM     29  C   UNL     1     116.991 122.610 123.770  1.00  0.00     0.114 C 
BRANCH  29  30
ATOM     30  O   UNL     1     116.936 123.825 123.062  1.00  0.00    -0.393 OA
ATOM     31  H   UNL     1     116.375 124.455 123.588  1.00  0.00     0.210 HD
ENDBRANCH  29  30
ENDBRANCH   9  11
ENDBRANCH   1   9
TORSDOF 7
ENDMDL
MODEL 4
REMARK VINA RESULT:    -6.313      3.304      6.956
REMARK INTER + INTRA:         -11.341
REMARK INTER:                  -9.531
REMARK INTRA:                  -1.809
REMARK UNBOUND:                -2.628
REMARK SMILES CC[C@@H](CC[C@H](C)[C@@H]1CC[C@H]2C3=CC[C@H]4C[C@H](O)CC[C@]4(C)[C@@H]3CC[C@]21C)C(C)C
REMARK SMILES IDX 5 1 4 2 3 3 2 4 1 5 28 6 29 7 30 8 6 9 7 10 8 11 9 12 26 13
REMARK SMILES IDX 10 14 11 15 25 16 27 17 12 18 24 19 23 20 13 21 21 22 14 23
REMARK SMILES IDX 15 24 20 25 22 26 16 27 19 28 17 29 18 30
REMARK H PARENT 18 31
REMARK Flexibility Score: inf
ROOT
ATOM      1  C   UNL     1     112.438 117.344 126.596  1.00  0.00     0.004 C 
ENDROOT
BRANCH   1   2
ATOM      2  C   UNL     1     112.671 115.944 125.970  1.00  0.00     0.004 C 
BRANCH   2   3
ATOM      3  C   UNL     1     113.149 115.929 124.485  1.00  0.00    -0.009 C 
BRANCH   3   4
ATOM      4  C   UNL     1     111.965 115.926 123.468  1.00  0.00     0.000 C 
ATOM      5  C   UNL     1     111.941 117.154 122.553  1.00  0.00     0.004 C 
ENDBRANCH   3   4
BRANCH   3   6
ATOM      6  C   UNL     1     114.263 114.853 124.226  1.00  0.00    -0.014 C 
ATOM      7  C   UNL     1     115.130 115.179 123.002  1.00  0.00     0.007 C 
ATOM      8  C   UNL     1     113.755 113.405 124.133  1.00  0.00     0.007 C 
ENDBRANCH   3   6
ENDBRANCH   2   3
ENDBRANCH   1   2
BRANCH   1   9
ATOM      9  C   UNL     1     113.756 118.016 127.111  1.00  0.00    -0.011 C 
ATOM     10  C   UNL     1     113.594 118.338 128.610  1.00  0.00     0.008 C 
BRANCH   9  11
ATOM     11  C   UNL     1     114.117 119.296 126.268  1.00  0.00    -0.002 C 
ATOM     12  C   UNL     1     113.168 119.476 125.078  1.00  0.00     0.005 C 
ATOM     13  C   UNL     1     115.544 119.405 125.626  1.00  0.00    -0.023 C 
ATOM     14  C   UNL     1     113.853 120.414 124.098  1.00  0.00     0.009 C 
ATOM     15  C   UNL     1     115.354 120.371 124.405  1.00  0.00     0.021 C 
ATOM     16  C   UNL     1     116.635 119.964 126.599  1.00  0.00     0.008 C 
ATOM     17  C   UNL     1     116.029 118.034 125.086  1.00  0.00     0.012 C 
ATOM     18  C   UNL     1     115.880 121.772 124.681  1.00  0.00    -0.067 C 
ATOM     19  C   UNL     1     116.399 121.410 127.102  1.00  0.00     0.009 C 
ATOM     20  C   UNL     1     115.661 122.323 126.084  1.00  0.00     0.021 C 
ATOM     21  C   UNL     1     116.617 122.423 123.749  1.00  0.00    -0.027 C 
ATOM     22  C   UNL     1     115.970 123.863 126.179  1.00  0.00    -0.023 C 
ATOM     23  C   UNL     1     117.238 123.785 123.976  1.00  0.00     0.031 C 
ATOM     24  C   UNL     1     117.331 124.122 125.474  1.00  0.00     0.002 C 
ATOM     25  C   UNL     1     116.093 124.345 127.647  1.00  0.00     0.010 C 
ATOM     26  C   UNL     1     114.779 124.607 125.489  1.00  0.00     0.012 C 
ATOM     27  C   UNL     1     117.985 125.508 125.752  1.00  0.00     0.036 C 
ATOM     28  C   UNL     1     116.348 125.857 127.776  1.00  0.00     0.032 C 
ATOM     29  C   UNL     1     117.171 126.496 126.624  1.00  0.00     0.114 C 
BRANCH  29  30
ATOM     30  O   UNL     1     118.013 127.506 127.124  1.00  0.00    -0.393 OA
ATOM     31  H   UNL     1     118.947 127.272 126.874  1.00  0.00     0.210 HD
ENDBRANCH  29  30
ENDBRANCH   9  11
ENDBRANCH   1   9
TORSDOF 7
ENDMDL
MODEL 5
REMARK VINA RESULT:    -6.125      2.618      6.757
REMARK INTER + INTRA:         -11.081
REMARK INTER:                  -8.641
REMARK INTRA:                  -2.440
REMARK UNBOUND:                -2.628
REMARK SMILES CC[C@@H](CC[C@H](C)[C@@H]1CC[C@H]2C3=CC[C@H]4C[C@H](O)CC[C@]4(C)[C@@H]3CC[C@]21C)C(C)C
REMARK SMILES IDX 5 1 4 2 3 3 2 4 1 5 28 6 29 7 30 8 6 9 7 10 8 11 9 12 26 13
REMARK SMILES IDX 10 14 11 15 25 16 27 17 12 18 24 19 23 20 13 21 21 22 14 23
REMARK SMILES IDX 15 24 20 25 22 26 16 27 19 28 17 29 18 30
REMARK H PARENT 18 31
REMARK Flexibility Score: inf
ROOT
ATOM      1  C   UNL     1     111.699 117.393 127.896  1.00  0.00     0.004 C 
ENDROOT
BRANCH   1   2
ATOM      2  C   UNL     1     112.708 116.233 128.097  1.00  0.00     0.004 C 
BRANCH   2   3
ATOM      3  C   UNL     1     113.869 116.502 129.105  1.00  0.00    -0.009 C 
BRANCH   3   4
ATOM      4  C   UNL     1     113.499 117.571 130.181  1.00  0.00     0.000 C 
ATOM      5  C   UNL     1     112.378 117.127 131.125  1.00  0.00     0.004 C 
ENDBRANCH   3   4
BRANCH   3   6
ATOM      6  C   UNL     1     115.247 116.720 128.385  1.00  0.00    -0.014 C 
ATOM      7  C   UNL     1     115.805 118.136 128.586  1.00  0.00     0.007 C 
ATOM      8  C   UNL     1     115.262 116.361 126.891  1.00  0.00     0.007 C 
ENDBRANCH   3   6
ENDBRANCH   2   3
ENDBRANCH   1   2
BRANCH   1   9
ATOM      9  C   UNL     1     111.839 118.098 126.503  1.00  0.00    -0.011 C 
ATOM     10  C   UNL     1     112.053 117.020 125.423  1.00  0.00     0.008 C 
BRANCH   9  11
ATOM     11  C   UNL     1     112.998 119.164 126.512  1.00  0.00    -0.002 C 
ATOM     12  C   UNL     1     112.896 120.101 127.720  1.00  0.00     0.005 C 
ATOM     13  C   UNL     1     113.139 120.141 125.293  1.00  0.00    -0.023 C 
ATOM     14  C   UNL     1     113.727 121.332 127.403  1.00  0.00     0.009 C 
ATOM     15  C   UNL     1     113.878 121.395 125.878  1.00  0.00     0.021 C 
ATOM     16  C   UNL     1     113.947 119.543 124.093  1.00  0.00     0.008 C 
ATOM     17  C   UNL     1     111.753 120.598 124.768  1.00  0.00     0.012 C 
ATOM     18  C   UNL     1     115.348 121.441 125.490  1.00  0.00    -0.067 C 
ATOM     19  C   UNL     1     115.425 119.193 124.396  1.00  0.00     0.009 C 
ATOM     20  C   UNL     1     116.091 120.112 125.457  1.00  0.00     0.021 C 
ATOM     21  C   UNL     1     115.911 122.602 125.074  1.00  0.00    -0.027 C 
ATOM     22  C   UNL     1     117.649 120.298 125.338  1.00  0.00    -0.023 C 
ATOM     23  C   UNL     1     117.344 122.713 124.601  1.00  0.00     0.031 C 
ATOM     24  C   UNL     1     117.922 121.340 124.216  1.00  0.00     0.002 C 
ATOM     25  C   UNL     1     118.366 118.980 124.950  1.00  0.00     0.010 C 
ATOM     26  C   UNL     1     118.157 120.769 126.739  1.00  0.00     0.012 C 
ATOM     27  C   UNL     1     119.390 121.412 123.702  1.00  0.00     0.036 C 
ATOM     28  C   UNL     1     119.897 119.116 124.871  1.00  0.00     0.032 C 
ATOM     29  C   UNL     1     120.421 120.507 124.420  1.00  0.00     0.114 C 
BRANCH  29  30
ATOM     30  O   UNL     1     121.574 120.363 123.625  1.00  0.00    -0.393 OA
ATOM     31  H   UNL     1     121.808 119.396 123.607  1.00  0.00     0.210 HD
ENDBRANCH  29  30
ENDBRANCH   9  11
ENDBRANCH   1   9
TORSDOF 7
ENDMDL
MODEL 6
REMARK VINA RESULT:    -6.033      2.981      6.473
REMARK INTER + INTRA:         -10.953
REMARK INTER:                  -8.747
REMARK INTRA:                  -2.206
REMARK UNBOUND:                -2.628
REMARK SMILES CC[C@@H](CC[C@H](C)[C@@H]1CC[C@H]2C3=CC[C@H]4C[C@H](O)CC[C@]4(C)[C@@H]3CC[C@]21C)C(C)C
REMARK SMILES IDX 5 1 4 2 3 3 2 4 1 5 28 6 29 7 30 8 6 9 7 10 8 11 9 12 26 13
REMARK SMILES IDX 10 14 11 15 25 16 27 17 12 18 24 19 23 20 13 21 21 22 14 23
REMARK SMILES IDX 15 24 20 25 22 26 16 27 19 28 17 29 18 30
REMARK H PARENT 18 31
REMARK Flexibility Score: inf
ROOT
ATOM      1  C   UNL     1     112.657 115.759 125.733  1.00  0.00     0.004 C 
ENDROOT
BRANCH   1   2
ATOM      2  C   UNL     1     114.012 116.008 126.445  1.00  0.00     0.004 C 
BRANCH   2   3
ATOM      3  C   UNL     1     113.928 116.447 127.941  1.00  0.00    -0.009 C 
BRANCH   3   4
ATOM      4  C   UNL     1     112.471 116.418 128.499  1.00  0.00     0.000 C 
ATOM      5  C   UNL     1     112.402 116.364 130.028  1.00  0.00     0.004 C 
ENDBRANCH   3   4
BRANCH   3   6
ATOM      6  C   UNL     1     114.732 117.765 128.223  1.00  0.00    -0.014 C 
ATOM      7  C   UNL     1     113.823 118.992 128.379  1.00  0.00     0.007 C 
ATOM      8  C   UNL     1     115.851 118.071 127.215  1.00  0.00     0.007 C 
ENDBRANCH   3   6
ENDBRANCH   2   3
ENDBRANCH   1   2
BRANCH   1   9
ATOM      9  C   UNL     1     112.405 116.733 124.531  1.00  0.00    -0.011 C 
ATOM     10  C   UNL     1     113.438 116.433 123.427  1.00  0.00     0.008 C 
BRANCH   9  11
ATOM     11  C   UNL     1     112.452 118.238 124.990  1.00  0.00    -0.002 C 
ATOM     12  C   UNL     1     111.229 118.610 125.836  1.00  0.00     0.005 C 
ATOM     13  C   UNL     1     112.505 119.363 123.898  1.00  0.00    -0.023 C 
ATOM     14  C   UNL     1     111.124 120.125 125.829  1.00  0.00     0.009 C 
ATOM     15  C   UNL     1     111.900 120.626 124.605  1.00  0.00     0.021 C 
ATOM     16  C   UNL     1     113.947 119.670 123.375  1.00  0.00     0.008 C 
ATOM     17  C   UNL     1     111.608 119.015 122.680  1.00  0.00     0.012 C 
ATOM     18  C   UNL     1     112.965 121.628 125.024  1.00  0.00    -0.067 C 
ATOM     19  C   UNL     1     114.938 120.207 124.437  1.00  0.00     0.009 C 
ATOM     20  C   UNL     1     114.273 121.056 125.555  1.00  0.00     0.021 C 
ATOM     21  C   UNL     1     112.784 122.953 124.804  1.00  0.00    -0.027 C 
ATOM     22  C   UNL     1     115.178 122.153 126.228  1.00  0.00    -0.023 C 
ATOM     23  C   UNL     1     113.826 124.003 125.124  1.00  0.00     0.031 C 
ATOM     24  C   UNL     1     115.226 123.383 125.278  1.00  0.00     0.002 C 
ATOM     25  C   UNL     1     116.631 121.660 126.444  1.00  0.00     0.010 C 
ATOM     26  C   UNL     1     114.533 122.483 127.614  1.00  0.00     0.012 C 
ATOM     27  C   UNL     1     116.334 124.434 125.586  1.00  0.00     0.036 C 
ATOM     28  C   UNL     1     117.531 122.693 127.145  1.00  0.00     0.032 C 
ATOM     29  C   UNL     1     117.199 124.180 126.844  1.00  0.00     0.114 C 
BRANCH  29  30
ATOM     30  O   UNL     1     118.379 124.944 126.781  1.00  0.00    -0.393 OA
ATOM     31  H   UNL     1     118.399 125.396 125.896  1.00  0.00     0.210 HD
ENDBRANCH  29  30
ENDBRANCH   9  11
ENDBRANCH   1   9
TORSDOF 7
ENDMDL
MODEL 7
REMARK VINA RESULT:    -5.995      3.378      5.665
REMARK INTER + INTRA:         -10.901
REMARK INTER:                  -8.893
REMARK INTRA:                  -2.009
REMARK UNBOUND:                -2.628
REMARK SMILES CC[C@@H](CC[C@H](C)[C@@H]1CC[C@H]2C3=CC[C@H]4C[C@H](O)CC[C@]4(C)[C@@H]3CC[C@]21C)C(C)C
REMARK SMILES IDX 5 1 4 2 3 3 2 4 1 5 28 6 29 7 30 8 6 9 7 10 8 11 9 12 26 13
REMARK SMILES IDX 10 14 11 15 25 16 27 17 12 18 24 19 23 20 13 21 21 22 14 23
REMARK SMILES IDX 15 24 20 25 22 26 16 27 19 28 17 29 18 30
REMARK H PARENT 18 31
REMARK Flexibility Score: inf
ROOT
ATOM      1  C   UNL     1     113.481 121.052 126.136  1.00  0.00     0.004 C 
ENDROOT
BRANCH   1   2
ATOM      2  C   UNL     1     114.968 121.258 125.744  1.00  0.00     0.004 C 
BRANCH   2   3
ATOM      3  C   UNL     1     115.364 120.807 124.304  1.00  0.00    -0.009 C 
BRANCH   3   4
ATOM      4  C   UNL     1     116.310 119.565 124.296  1.00  0.00     0.000 C 
ATOM      5  C   UNL     1     117.062 119.360 125.615  1.00  0.00     0.004 C 
ENDBRANCH   3   4
BRANCH   3   6
ATOM      6  C   UNL     1     115.826 122.010 123.407  1.00  0.00    -0.014 C 
ATOM      7  C   UNL     1     117.234 121.814 122.830  1.00  0.00     0.007 C 
ATOM      8  C   UNL     1     115.723 123.392 124.072  1.00  0.00     0.007 C 
ENDBRANCH   3   6
ENDBRANCH   2   3
ENDBRANCH   1   2
BRANCH   1   9
ATOM      9  C   UNL     1     113.219 119.694 126.871  1.00  0.00    -0.011 C 
ATOM     10  C   UNL     1     114.196 119.578 128.058  1.00  0.00     0.008 C 
BRANCH   9  11
ATOM     11  C   UNL     1     113.341 118.472 125.885  1.00  0.00    -0.002 C 
ATOM     12  C   UNL     1     112.399 118.619 124.684  1.00  0.00     0.005 C 
ATOM     13  C   UNL     1     113.038 117.030 126.421  1.00  0.00    -0.023 C 
ATOM     14  C   UNL     1     112.242 117.239 124.068  1.00  0.00     0.009 C 
ATOM     15  C   UNL     1     112.616 116.217 125.148  1.00  0.00     0.021 C 
ATOM     16  C   UNL     1     114.259 116.347 127.124  1.00  0.00     0.008 C 
ATOM     17  C   UNL     1     111.844 117.032 127.412  1.00  0.00     0.012 C 
ATOM     18  C   UNL     1     113.720 115.297 124.649  1.00  0.00    -0.067 C 
ATOM     19  C   UNL     1     115.493 116.101 126.221  1.00  0.00     0.009 C 
ATOM     20  C   UNL     1     115.145 115.828 124.731  1.00  0.00     0.021 C 
ATOM     21  C   UNL     1     113.436 114.025 124.278  1.00  0.00    -0.027 C 
ATOM     22  C   UNL     1     116.165 114.937 123.931  1.00  0.00    -0.023 C 
ATOM     23  C   UNL     1     114.488 113.027 123.843  1.00  0.00     0.031 C 
ATOM     24  C   UNL     1     115.895 113.451 124.300  1.00  0.00     0.002 C 
ATOM     25  C   UNL     1     117.636 115.260 124.297  1.00  0.00     0.010 C 
ATOM     26  C   UNL     1     115.933 115.236 122.414  1.00  0.00     0.012 C 
ATOM     27  C   UNL     1     117.005 112.438 123.891  1.00  0.00     0.036 C 
ATOM     28  C   UNL     1     118.661 114.437 123.496  1.00  0.00     0.032 C 
ATOM     29  C   UNL     1     118.204 113.009 123.094  1.00  0.00     0.114 C 
BRANCH  29  30
ATOM     30  O   UNL     1     119.288 112.114 123.145  1.00  0.00    -0.393 OA
ATOM     31  H   UNL     1     119.139 111.420 122.448  1.00  0.00     0.210 HD
ENDBRANCH  29  30
ENDBRANCH   9  11
ENDBRANCH   1   9
TORSDOF 7
ENDMDL
MODEL 8
REMARK VINA RESULT:    -5.958      3.251      5.390
REMARK INTER + INTRA:         -10.850
REMARK INTER:                  -8.602
REMARK INTRA:                  -2.248
REMARK UNBOUND:                -2.628
REMARK SMILES CC[C@@H](CC[C@H](C)[C@@H]1CC[C@H]2C3=CC[C@H]4C[C@H](O)CC[C@]4(C)[C@@H]3CC[C@]21C)C(C)C
REMARK SMILES IDX 5 1 4 2 3 3 2 4 1 5 28 6 29 7 30 8 6 9 7 10 8 11 9 12 26 13
REMARK SMILES IDX 10 14 11 15 25 16 27 17 12 18 24 19 23 20 13 21 21 22 14 23
REMARK SMILES IDX 15 24 20 25 22 26 16 27 19 28 17 29 18 30
REMARK H PARENT 18 31
REMARK Flexibility Score: inf
ROOT
ATOM      1  C   UNL     1     112.212 116.614 123.444  1.00  0.00     0.004 C 
ENDROOT
BRANCH   1   2
ATOM      2  C   UNL     1     113.672 116.535 122.926  1.00  0.00     0.004 C 
BRANCH   2   3
ATOM      3  C   UNL     1     114.585 115.472 123.613  1.00  0.00    -0.009 C 
BRANCH   3   4
ATOM      4  C   UNL     1     113.786 114.240 124.143  1.00  0.00     0.000 C 
ATOM      5  C   UNL     1     114.339 112.896 123.659  1.00  0.00     0.004 C 
ENDBRANCH   3   4
BRANCH   3   6
ATOM      6  C   UNL     1     115.587 116.115 124.635  1.00  0.00    -0.014 C 
ATOM      7  C   UNL     1     116.651 116.987 123.954  1.00  0.00     0.007 C 
ATOM      8  C   UNL     1     116.264 115.121 125.592  1.00  0.00     0.007 C 
ENDBRANCH   3   6
ENDBRANCH   2   3
ENDBRANCH   1   2
BRANCH   1   9
ATOM      9  C   UNL     1     112.003 117.724 124.530  1.00  0.00    -0.011 C 
ATOM     10  C   UNL     1     112.604 119.045 124.010  1.00  0.00     0.008 C 
BRANCH   9  11
ATOM     11  C   UNL     1     112.622 117.299 125.914  1.00  0.00    -0.002 C 
ATOM     12  C   UNL     1     111.965 116.026 126.460  1.00  0.00     0.005 C 
ATOM     13  C   UNL     1     112.550 118.301 127.118  1.00  0.00    -0.023 C 
ATOM     14  C   UNL     1     112.274 115.967 127.947  1.00  0.00     0.009 C 
ATOM     15  C   UNL     1     112.623 117.391 128.393  1.00  0.00     0.021 C 
ATOM     16  C   UNL     1     113.706 119.356 127.134  1.00  0.00     0.008 C 
ATOM     17  C   UNL     1     111.197 119.061 127.144  1.00  0.00     0.012 C 
ATOM     18  C   UNL     1     113.993 117.420 129.054  1.00  0.00    -0.067 C 
ATOM     19  C   UNL     1     115.133 118.774 127.286  1.00  0.00     0.009 C 
ATOM     20  C   UNL     1     115.201 117.469 128.127  1.00  0.00     0.021 C 
ATOM     21  C   UNL     1     114.103 117.527 130.401  1.00  0.00    -0.027 C 
ATOM     22  C   UNL     1     116.552 117.200 128.887  1.00  0.00    -0.023 C 
ATOM     23  C   UNL     1     115.426 117.638 131.125  1.00  0.00     0.031 C 
ATOM     24  C   UNL     1     116.558 118.069 130.176  1.00  0.00     0.002 C 
ATOM     25  C   UNL     1     117.788 117.595 128.039  1.00  0.00     0.010 C 
ATOM     26  C   UNL     1     116.602 115.667 129.191  1.00  0.00     0.012 C 
ATOM     27  C   UNL     1     117.935 118.217 130.888  1.00  0.00     0.036 C 
ATOM     28  C   UNL     1     119.128 117.299 128.736  1.00  0.00     0.032 C 
ATOM     29  C   UNL     1     119.116 117.417 130.284  1.00  0.00     0.114 C 
BRANCH  29  30
ATOM     30  O   UNL     1     120.339 117.937 130.747  1.00  0.00    -0.393 OA
ATOM     31  H   UNL     1     121.006 117.201 130.728  1.00  0.00     0.210 HD
ENDBRANCH  29  30
ENDBRANCH   9  11
ENDBRANCH   1   9
TORSDOF 7
ENDMDL
