MODEL 1
REMARK VINA RESULT:    -8.296      0.000      0.000
REMARK INTER + INTRA:          -8.296
REMARK INTER:                  -8.296
REMARK INTRA:                   0.000
REMARK UNBOUND:                 0.000
REMARK SMILES C=C1CCC[C@@]2(C)CC(=O)C(=C(C)C)C[C@@H]12
REMARK SMILES IDX 13 1 12 2 11 3 15 4 16 5 2 6 1 7 3 8 4 9 5 10 6 11 8 12 9 13
REMARK SMILES IDX 10 14 7 15 14 16
REMARK H PARENT
REMARK Flexibility Score: inf
ROOT
ATOM      1  C   UNL     1       1.870  10.515  22.625  1.00  0.00     0.039 C 
ATOM      2  C   UNL     1       1.209  11.177  21.437  1.00  0.00    -0.070 C 
ATOM      3  C   UNL     1       0.332  12.211  21.601  1.00  0.00    -0.006 C 
ATOM      4  C   UNL     1       0.004  12.757  22.985  1.00  0.00     0.047 C 
ATOM      5  C   UNL     1      -0.344  14.269  22.986  1.00  0.00     0.025 C 
ATOM      6  C   UNL     1       0.859  15.209  22.882  1.00  0.00    -0.073 C 
ATOM      7  C   UNL     1       2.122  14.807  22.637  1.00  0.00     0.008 C 
ATOM      8  C   UNL     1       0.552  16.681  22.978  1.00  0.00     0.031 C 
ATOM      9  C   UNL     1      -0.449  17.062  21.888  1.00  0.00     0.005 C 
ATOM     10  C   UNL     1      -1.703  16.171  21.935  1.00  0.00     0.008 C 
ATOM     11  C   UNL     1      -1.403  14.638  21.896  1.00  0.00    -0.018 C 
ATOM     12  C   UNL     1      -0.872  14.227  20.497  1.00  0.00     0.088 C 
ATOM     13  C   UNL     1      -0.438  12.790  20.462  1.00  0.00     0.159 C 
ATOM     14  O   UNL     1      -0.748  12.090  19.461  1.00  0.00    -0.295 OA
ATOM     15  C   UNL     1      -2.744  13.906  22.168  1.00  0.00     0.012 C 
ATOM     16  C   UNL     1       1.594  10.670  20.067  1.00  0.00     0.039 C 
ENDROOT
TORSDOF 0
ENDMDL
MODEL 2
REMARK VINA RESULT:    -8.281      1.862      5.257
REMARK INTER + INTRA:          -8.281
REMARK INTER:                  -8.281
REMARK INTRA:                   0.000
REMARK UNBOUND:                 0.000
REMARK SMILES C=C1CCC[C@@]2(C)CC(=O)C(=C(C)C)C[C@@H]12
REMARK SMILES IDX 13 1 12 2 11 3 15 4 16 5 2 6 1 7 3 8 4 9 5 10 6 11 8 12 9 13
REMARK SMILES IDX 10 14 7 15 14 16
REMARK H PARENT
REMARK Flexibility Score: inf
ROOT
ATOM      1  C   UNL     1      -2.045  14.639  22.477  1.00  0.00     0.039 C 
ATOM      2  C   UNL     1      -1.369  13.940  21.318  1.00  0.00    -0.070 C 
ATOM      3  C   UNL     1      -0.477  12.927  21.525  1.00  0.00    -0.006 C 
ATOM      4  C   UNL     1      -0.146  12.441  22.931  1.00  0.00     0.047 C 
ATOM      5  C   UNL     1       0.225  10.936  22.993  1.00  0.00     0.025 C 
ATOM      6  C   UNL     1      -0.964   9.974  22.922  1.00  0.00    -0.073 C 
ATOM      7  C   UNL     1      -2.232  10.347  22.658  1.00  0.00     0.008 C 
ATOM      8  C   UNL     1      -0.635   8.512  23.077  1.00  0.00     0.031 C 
ATOM      9  C   UNL     1       0.376   8.104  22.006  1.00  0.00     0.005 C 
ATOM     10  C   UNL     1       1.616   9.015  22.022  1.00  0.00     0.008 C 
ATOM     11  C   UNL     1       1.293  10.541  21.922  1.00  0.00    -0.018 C 
ATOM     12  C   UNL     1       0.761  10.887  20.506  1.00  0.00     0.088 C 
ATOM     13  C   UNL     1       0.305  12.315  20.413  1.00  0.00     0.159 C 
ATOM     14  O   UNL     1       0.609  12.980  19.386  1.00  0.00    -0.295 OA
ATOM     15  C   UNL     1       2.622  11.302  22.168  1.00  0.00     0.012 C 
ATOM     16  C   UNL     1      -1.757  14.387  19.928  1.00  0.00     0.039 C 
ENDROOT
TORSDOF 0
ENDMDL
MODEL 3
REMARK VINA RESULT:    -8.241      2.003      3.330
REMARK INTER + INTRA:          -8.241
REMARK INTER:                  -8.241
REMARK INTRA:                   0.000
REMARK UNBOUND:                 0.000
REMARK SMILES C=C1CCC[C@@]2(C)CC(=O)C(=C(C)C)C[C@@H]12
REMARK SMILES IDX 13 1 12 2 11 3 15 4 16 5 2 6 1 7 3 8 4 9 5 10 6 11 8 12 9 13
REMARK SMILES IDX 10 14 7 15 14 16
REMARK H PARENT
REMARK Flexibility Score: inf
ROOT
ATOM      1  C   UNL     1       3.871  11.539  21.804  1.00  0.00     0.039 C 
ATOM      2  C   UNL     1       2.517  11.105  22.318  1.00  0.00    -0.070 C 
ATOM      3  C   UNL     1       1.418  11.903  22.179  1.00  0.00    -0.006 C 
ATOM      4  C   UNL     1       1.506  13.253  21.476  1.00  0.00     0.047 C 
ATOM      5  C   UNL     1       0.193  13.661  20.757  1.00  0.00     0.025 C 
ATOM      6  C   UNL     1      -0.054  12.961  19.418  1.00  0.00    -0.073 C 
ATOM      7  C   UNL     1       0.689  11.943  18.941  1.00  0.00     0.008 C 
ATOM      8  C   UNL     1      -1.274  13.413  18.657  1.00  0.00     0.031 C 
ATOM      9  C   UNL     1      -2.514  13.228  19.531  1.00  0.00     0.005 C 
ATOM     10  C   UNL     1      -2.353  13.921  20.896  1.00  0.00     0.008 C 
ATOM     11  C   UNL     1      -1.062  13.510  21.676  1.00  0.00    -0.018 C 
ATOM     12  C   UNL     1      -1.173  12.042  22.167  1.00  0.00     0.088 C 
ATOM     13  C   UNL     1       0.104  11.564  22.796  1.00  0.00     0.159 C 
ATOM     14  O   UNL     1       0.037  10.885  23.856  1.00  0.00    -0.295 OA
ATOM     15  C   UNL     1      -0.957  14.451  22.905  1.00  0.00     0.012 C 
ATOM     16  C   UNL     1       2.431   9.737  22.953  1.00  0.00     0.039 C 
ENDROOT
TORSDOF 0
ENDMDL
MODEL 4
REMARK VINA RESULT:    -8.224      1.445      2.017
REMARK INTER + INTRA:          -8.224
REMARK INTER:                  -8.224
REMARK INTRA:                   0.000
REMARK UNBOUND:                 0.000
REMARK SMILES C=C1CCC[C@@]2(C)CC(=O)C(=C(C)C)C[C@@H]12
REMARK SMILES IDX 13 1 12 2 11 3 15 4 16 5 2 6 1 7 3 8 4 9 5 10 6 11 8 12 9 13
REMARK SMILES IDX 10 14 7 15 14 16
REMARK H PARENT
REMARK Flexibility Score: inf
ROOT
ATOM      1  C   UNL     1       0.084  10.155  23.068  1.00  0.00     0.039 C 
ATOM      2  C   UNL     1       0.337  10.883  21.767  1.00  0.00    -0.070 C 
ATOM      3  C   UNL     1      -0.570  11.773  21.266  1.00  0.00    -0.006 C 
ATOM      4  C   UNL     1      -1.862  12.088  22.011  1.00  0.00     0.047 C 
ATOM      5  C   UNL     1      -2.374  13.534  21.775  1.00  0.00     0.025 C 
ATOM      6  C   UNL     1      -1.635  14.617  22.564  1.00  0.00    -0.073 C 
ATOM      7  C   UNL     1      -0.517  14.406  23.287  1.00  0.00     0.008 C 
ATOM      8  C   UNL     1      -2.177  16.016  22.424  1.00  0.00     0.031 C 
ATOM      9  C   UNL     1      -2.179  16.414  20.949  1.00  0.00     0.005 C 
ATOM     10  C   UNL     1      -2.922  15.380  20.084  1.00  0.00     0.008 C 
ATOM     11  C   UNL     1      -2.412  13.913  20.259  1.00  0.00    -0.018 C 
ATOM     12  C   UNL     1      -0.994  13.758  19.649  1.00  0.00     0.088 C 
ATOM     13  C   UNL     1      -0.411  12.401  19.922  1.00  0.00     0.159 C 
ATOM     14  O   UNL     1       0.198  11.807  18.993  1.00  0.00    -0.295 OA
ATOM     15  C   UNL     1      -3.400  12.996  19.491  1.00  0.00     0.012 C 
ATOM     16  C   UNL     1       1.651  10.612  21.073  1.00  0.00     0.039 C 
ENDROOT
TORSDOF 0
ENDMDL
MODEL 5
REMARK VINA RESULT:    -8.184      2.019      4.930
REMARK INTER + INTRA:          -8.184
REMARK INTER:                  -8.184
REMARK INTRA:                   0.000
REMARK UNBOUND:                 0.000
REMARK SMILES C=C1CCC[C@@]2(C)CC(=O)C(=C(C)C)C[C@@H]12
REMARK SMILES IDX 13 1 12 2 11 3 15 4 16 5 2 6 1 7 3 8 4 9 5 10 6 11 8 12 9 13
REMARK SMILES IDX 10 14 7 15 14 16
REMARK H PARENT
REMARK Flexibility Score: inf
ROOT
ATOM      1  C   UNL     1      -3.779  13.368  21.754  1.00  0.00     0.039 C 
ATOM      2  C   UNL     1      -2.442  13.872  22.249  1.00  0.00    -0.070 C 
ATOM      3  C   UNL     1      -1.312  13.114  22.134  1.00  0.00    -0.006 C 
ATOM      4  C   UNL     1      -1.348  11.738  21.479  1.00  0.00     0.047 C 
ATOM      5  C   UNL     1      -0.022  11.357  20.771  1.00  0.00     0.025 C 
ATOM      6  C   UNL     1       0.195  12.018  19.407  1.00  0.00    -0.073 C 
ATOM      7  C   UNL     1      -0.589  12.988  18.897  1.00  0.00     0.008 C 
ATOM      8  C   UNL     1       1.430  11.588  18.659  1.00  0.00     0.031 C 
ATOM      9  C   UNL     1       2.663  11.853  19.521  1.00  0.00     0.005 C 
ATOM     10  C   UNL     1       2.533  11.203  20.911  1.00  0.00     0.008 C 
ATOM     11  C   UNL     1       1.229  11.590  21.680  1.00  0.00    -0.018 C 
ATOM     12  C   UNL     1       1.282  13.078  22.118  1.00  0.00     0.088 C 
ATOM     13  C   UNL     1      -0.011  13.527  22.734  1.00  0.00     0.159 C 
ATOM     14  O   UNL     1       0.031  14.245  23.770  1.00  0.00    -0.295 OA
ATOM     15  C   UNL     1       1.163  10.689  22.941  1.00  0.00     0.012 C 
ATOM     16  C   UNL     1      -2.408  15.265  22.834  1.00  0.00     0.039 C 
ENDROOT
TORSDOF 0
ENDMDL
MODEL 6
REMARK VINA RESULT:    -8.144      1.493      5.190
REMARK INTER + INTRA:          -8.144
REMARK INTER:                  -8.144
REMARK INTRA:                   0.000
REMARK UNBOUND:                 0.000
REMARK SMILES C=C1CCC[C@@]2(C)CC(=O)C(=C(C)C)C[C@@H]12
REMARK SMILES IDX 13 1 12 2 11 3 15 4 16 5 2 6 1 7 3 8 4 9 5 10 6 11 8 12 9 13
REMARK SMILES IDX 10 14 7 15 14 16
REMARK H PARENT
REMARK Flexibility Score: inf
ROOT
ATOM      1  C   UNL     1      -0.025  14.656  23.402  1.00  0.00     0.039 C 
ATOM      2  C   UNL     1      -0.298  14.042  22.047  1.00  0.00    -0.070 C 
ATOM      3  C   UNL     1       0.612  13.220  21.447  1.00  0.00    -0.006 C 
ATOM      4  C   UNL     1       1.929  12.867  22.128  1.00  0.00     0.047 C 
ATOM      5  C   UNL     1       2.462  11.460  21.750  1.00  0.00     0.025 C 
ATOM      6  C   UNL     1       1.764  10.295  22.456  1.00  0.00    -0.073 C 
ATOM      7  C   UNL     1       0.662  10.416  23.222  1.00  0.00     0.008 C 
ATOM      8  C   UNL     1       2.330   8.926  22.177  1.00  0.00     0.031 C 
ATOM      9  C   UNL     1       2.300   8.662  20.672  1.00  0.00     0.005 C 
ATOM     10  C   UNL     1       3.000   9.786  19.886  1.00  0.00     0.008 C 
ATOM     11  C   UNL     1       2.467  11.220  20.205  1.00  0.00    -0.018 C 
ATOM     12  C   UNL     1       1.031  11.399  19.646  1.00  0.00     0.088 C 
ATOM     13  C   UNL     1       0.430  12.713  20.056  1.00  0.00     0.159 C 
ATOM     14  O   UNL     1      -0.214  13.375  19.199  1.00  0.00    -0.295 OA
ATOM     15  C   UNL     1       3.418  12.223  19.500  1.00  0.00     0.012 C 
ATOM     16  C   UNL     1      -1.635  14.346  21.414  1.00  0.00     0.039 C 
ENDROOT
TORSDOF 0
ENDMDL
MODEL 7
REMARK VINA RESULT:    -8.022      1.976      4.686
REMARK INTER + INTRA:          -8.022
REMARK INTER:                  -8.022
REMARK INTRA:                   0.000
REMARK UNBOUND:                 0.000
REMARK SMILES C=C1CCC[C@@]2(C)CC(=O)C(=C(C)C)C[C@@H]12
REMARK SMILES IDX 13 1 12 2 11 3 15 4 16 5 2 6 1 7 3 8 4 9 5 10 6 11 8 12 9 13
REMARK SMILES IDX 10 14 7 15 14 16
REMARK H PARENT
REMARK Flexibility Score: inf
ROOT
ATOM      1  C   UNL     1      -3.286  13.684  21.962  1.00  0.00     0.039 C 
ATOM      2  C   UNL     1      -2.327  13.240  20.880  1.00  0.00    -0.070 C 
ATOM      3  C   UNL     1      -1.012  12.999  21.155  1.00  0.00    -0.006 C 
ATOM      4  C   UNL     1      -0.460  13.144  22.568  1.00  0.00     0.047 C 
ATOM      5  C   UNL     1       0.721  12.185  22.872  1.00  0.00     0.025 C 
ATOM      6  C   UNL     1       0.320  10.736  23.158  1.00  0.00    -0.073 C 
ATOM      7  C   UNL     1      -0.926  10.245  23.006  1.00  0.00     0.008 C 
ATOM      8  C   UNL     1       1.442   9.810  23.549  1.00  0.00     0.031 C 
ATOM      9  C   UNL     1       2.502   9.805  22.449  1.00  0.00     0.005 C 
ATOM     10  C   UNL     1       2.975  11.231  22.111  1.00  0.00     0.008 C 
ATOM     11  C   UNL     1       1.820  12.223  21.760  1.00  0.00    -0.018 C 
ATOM     12  C   UNL     1       1.188  11.852  20.392  1.00  0.00     0.088 C 
ATOM     13  C   UNL     1      -0.017  12.694  20.086  1.00  0.00     0.159 C 
ATOM     14  O   UNL     1      -0.159  13.142  18.916  1.00  0.00    -0.295 OA
ATOM     15  C   UNL     1       2.451  13.637  21.663  1.00  0.00     0.012 C 
ATOM     16  C   UNL     1      -2.901  13.035  19.498  1.00  0.00     0.039 C 
ENDROOT
TORSDOF 0
ENDMDL
MODEL 8
REMARK VINA RESULT:    -7.946      2.375      4.560
REMARK INTER + INTRA:          -7.946
REMARK INTER:                  -7.946
REMARK INTRA:                   0.000
REMARK UNBOUND:                 0.000
REMARK SMILES C=C1CCC[C@@]2(C)CC(=O)C(=C(C)C)C[C@@H]12
REMARK SMILES IDX 13 1 12 2 11 3 15 4 16 5 2 6 1 7 3 8 4 9 5 10 6 11 8 12 9 13
REMARK SMILES IDX 10 14 7 15 14 16
REMARK H PARENT
REMARK Flexibility Score: inf
ROOT
ATOM      1  C   UNL     1       3.952  12.621  20.488  1.00  0.00     0.039 C 
ATOM      2  C   UNL     1       2.912  13.195  21.424  1.00  0.00    -0.070 C 
ATOM      3  C   UNL     1       1.652  12.674  21.487  1.00  0.00    -0.006 C 
ATOM      4  C   UNL     1       1.249  11.476  20.635  1.00  0.00     0.047 C 
ATOM      5  C   UNL     1       0.170  10.581  21.299  1.00  0.00     0.025 C 
ATOM      6  C   UNL     1       0.690   9.648  22.395  1.00  0.00    -0.073 C 
ATOM      7  C   UNL     1       1.941   9.683  22.897  1.00  0.00     0.008 C 
ATOM      8  C   UNL     1      -0.323   8.702  22.987  1.00  0.00     0.031 C 
ATOM      9  C   UNL     1      -1.493   9.503  23.555  1.00  0.00     0.005 C 
ATOM     10  C   UNL     1      -2.088  10.459  22.505  1.00  0.00     0.008 C 
ATOM     11  C   UNL     1      -1.043  11.409  21.837  1.00  0.00    -0.018 C 
ATOM     12  C   UNL     1      -0.540  12.462  22.860  1.00  0.00     0.088 C 
ATOM     13  C   UNL     1       0.569  13.304  22.297  1.00  0.00     0.159 C 
ATOM     14  O   UNL     1       0.555  14.545  22.515  1.00  0.00    -0.295 OA
ATOM     15  C   UNL     1      -1.769  12.133  20.673  1.00  0.00     0.012 C 
ATOM     16  C   UNL     1       3.345  14.339  22.312  1.00  0.00     0.039 C 
ENDROOT
TORSDOF 0
ENDMDL
MODEL 9
REMARK VINA RESULT:    -7.847      2.043      3.813
REMARK INTER + INTRA:          -7.847
REMARK INTER:                  -7.847
REMARK INTRA:                   0.000
REMARK UNBOUND:                 0.000
REMARK SMILES C=C1CCC[C@@]2(C)CC(=O)C(=C(C)C)C[C@@H]12
REMARK SMILES IDX 13 1 12 2 11 3 15 4 16 5 2 6 1 7 3 8 4 9 5 10 6 11 8 12 9 13
REMARK SMILES IDX 10 14 7 15 14 16
REMARK H PARENT
REMARK Flexibility Score: inf
ROOT
ATOM      1  C   UNL     1       3.263  12.799  20.941  1.00  0.00     0.039 C 
ATOM      2  C   UNL     1       2.368  13.746  21.709  1.00  0.00    -0.070 C 
ATOM      3  C   UNL     1       1.039  13.857  21.417  1.00  0.00    -0.006 C 
ATOM      4  C   UNL     1       0.397  13.014  20.322  1.00  0.00     0.047 C 
ATOM      5  C   UNL     1      -1.096  12.686  20.590  1.00  0.00     0.025 C 
ATOM      6  C   UNL     1      -1.338  11.574  21.612  1.00  0.00    -0.073 C 
ATOM      7  C   UNL     1      -0.377  11.011  22.370  1.00  0.00     0.008 C 
ATOM      8  C   UNL     1      -2.777  11.173  21.817  1.00  0.00     0.031 C 
ATOM      9  C   UNL     1      -3.589  12.397  22.238  1.00  0.00     0.005 C 
ATOM     10  C   UNL     1      -3.413  13.562  21.247  1.00  0.00     0.008 C 
ATOM     11  C   UNL     1      -1.925  13.954  20.976  1.00  0.00    -0.018 C 
ATOM     12  C   UNL     1      -1.304  14.617  22.235  1.00  0.00     0.088 C 
ATOM     13  C   UNL     1       0.165  14.879  22.063  1.00  0.00     0.159 C 
ATOM     14  O   UNL     1       0.633  15.979  22.464  1.00  0.00    -0.295 OA
ATOM     15  C   UNL     1      -1.931  14.979  19.811  1.00  0.00     0.012 C 
ATOM     16  C   UNL     1       3.003  14.526  22.836  1.00  0.00     0.039 C 
ENDROOT
TORSDOF 0
ENDMDL
