MODEL 1
REMARK VINA RESULT:    -5.196      0.000      0.000
REMARK INTER + INTRA:          -6.075
REMARK INTER:                  -5.955
REMARK INTRA:                  -0.120
REMARK UNBOUND:                -0.120
REMARK SMILES COc1cc(C(C)=O)ccc1O
REMARK SMILES IDX 5 1 4 2 3 3 11 4 10 5 9 6 6 7 7 8 8 9 2 10 1 11 12 12
REMARK H PARENT 12 13
REMARK Flexibility Score: inf
ROOT
ATOM      1  C   UNL     1       1.326  28.778  56.071  1.00  0.00     0.021 A 
ATOM      2  C   UNL     1       2.100  28.670  54.900  1.00  0.00     0.062 A 
ATOM      3  C   UNL     1       3.442  28.243  54.956  1.00  0.00     0.161 A 
ATOM      4  C   UNL     1       4.009  27.922  56.196  1.00  0.00     0.157 A 
ATOM      5  C   UNL     1       3.246  28.026  57.365  1.00  0.00     0.051 A 
ATOM      6  C   UNL     1       1.917  28.450  57.306  1.00  0.00     0.016 A 
ENDROOT
BRANCH   1   7
ATOM      7  C   UNL     1      -0.090  29.231  55.990  1.00  0.00     0.159 C 
ATOM      8  C   UNL     1      -0.839  29.717  57.195  1.00  0.00     0.093 C 
ATOM      9  O   UNL     1      -0.691  29.212  54.881  1.00  0.00    -0.295 OA
ENDBRANCH   1   7
BRANCH   3  10
ATOM     10  O   UNL     1       4.240  28.125  53.808  1.00  0.00    -0.493 OA
ATOM     11  C   UNL     1       4.219  29.035  52.713  1.00  0.00     0.278 C 
ENDBRANCH   3  10
BRANCH   4  12
ATOM     12  O   UNL     1       5.335  27.499  56.260  1.00  0.00    -0.504 OA
ATOM     13  H   UNL     1       5.926  27.479  55.436  1.00  0.00     0.293 HD
ENDBRANCH   4  12
TORSDOF 3
ENDMDL
MODEL 2
REMARK VINA RESULT:    -4.973      1.023      2.784
REMARK INTER + INTRA:          -5.820
REMARK INTER:                  -5.706
REMARK INTRA:                  -0.114
REMARK UNBOUND:                -0.120
REMARK SMILES COc1cc(C(C)=O)ccc1O
REMARK SMILES IDX 5 1 4 2 3 3 11 4 10 5 9 6 6 7 7 8 8 9 2 10 1 11 12 12
REMARK H PARENT 12 13
REMARK Flexibility Score: inf
ROOT
ATOM      1  C   UNL     1       1.383  28.804  55.934  1.00  0.00     0.021 A 
ATOM      2  C   UNL     1       1.982  28.438  57.155  1.00  0.00     0.062 A 
ATOM      3  C   UNL     1       3.329  28.024  57.205  1.00  0.00     0.161 A 
ATOM      4  C   UNL     1       4.077  27.980  56.022  1.00  0.00     0.157 A 
ATOM      5  C   UNL     1       3.489  28.343  54.805  1.00  0.00     0.051 A 
ATOM      6  C   UNL     1       2.155  28.752  54.758  1.00  0.00     0.016 A 
ENDROOT
BRANCH   1   7
ATOM      7  C   UNL     1      -0.041  29.239  55.903  1.00  0.00     0.159 C 
ATOM      8  C   UNL     1      -0.774  29.648  57.145  1.00  0.00     0.093 C 
ATOM      9  O   UNL     1      -0.661  29.272  54.805  1.00  0.00    -0.295 OA
ENDBRANCH   1   7
BRANCH   3  10
ATOM     10  O   UNL     1       3.954  27.653  58.404  1.00  0.00    -0.493 OA
ATOM     11  C   UNL     1       3.706  26.437  59.102  1.00  0.00     0.278 C 
ENDBRANCH   3  10
BRANCH   4  12
ATOM     12  O   UNL     1       5.409  27.572  56.064  1.00  0.00    -0.504 OA
ATOM     13  H   UNL     1       5.845  27.270  56.928  1.00  0.00     0.293 HD
ENDBRANCH   4  12
TORSDOF 3
ENDMDL
MODEL 3
REMARK VINA RESULT:    -4.939      1.796      4.852
REMARK INTER + INTRA:          -5.781
REMARK INTER:                  -5.723
REMARK INTRA:                  -0.058
REMARK UNBOUND:                -0.120
REMARK SMILES COc1cc(C(C)=O)ccc1O
REMARK SMILES IDX 5 1 4 2 3 3 11 4 10 5 9 6 6 7 7 8 8 9 2 10 1 11 12 12
REMARK H PARENT 12 13
REMARK Flexibility Score: inf
ROOT
ATOM      1  C   UNL     1       3.576  27.935  57.007  1.00  0.00     0.021 A 
ATOM      2  C   UNL     1       2.299  28.138  57.565  1.00  0.00     0.062 A 
ATOM      3  C   UNL     1       1.191  28.439  56.747  1.00  0.00     0.161 A 
ATOM      4  C   UNL     1       1.368  28.536  55.361  1.00  0.00     0.157 A 
ATOM      5  C   UNL     1       2.633  28.335  54.799  1.00  0.00     0.051 A 
ATOM      6  C   UNL     1       3.729  28.037  55.611  1.00  0.00     0.016 A 
ENDROOT
BRANCH   1   7
ATOM      7  C   UNL     1       4.733  27.617  57.888  1.00  0.00     0.159 C 
ATOM      8  C   UNL     1       6.098  28.188  57.644  1.00  0.00     0.093 C 
ATOM      9  O   UNL     1       4.576  26.846  58.875  1.00  0.00    -0.295 OA
ENDBRANCH   1   7
BRANCH   3  10
ATOM     10  O   UNL     1      -0.093  28.647  57.272  1.00  0.00    -0.493 OA
ATOM     11  C   UNL     1      -0.658  29.926  57.541  1.00  0.00     0.278 C 
ENDBRANCH   3  10
BRANCH   4  12
ATOM     12  O   UNL     1       0.277  28.834  54.546  1.00  0.00    -0.504 OA
ATOM     13  H   UNL     1      -0.573  29.236  54.923  1.00  0.00     0.293 HD
ENDBRANCH   4  12
TORSDOF 3
ENDMDL
MODEL 4
REMARK VINA RESULT:    -4.819      1.533      3.961
REMARK INTER + INTRA:          -5.643
REMARK INTER:                  -5.531
REMARK INTRA:                  -0.112
REMARK UNBOUND:                -0.120
REMARK SMILES COc1cc(C(C)=O)ccc1O
REMARK SMILES IDX 5 1 4 2 3 3 11 4 10 5 9 6 6 7 7 8 8 9 2 10 1 11 12 12
REMARK H PARENT 12 13
REMARK Flexibility Score: inf
ROOT
ATOM      1  C   UNL     1       3.724  27.866  57.251  1.00  0.00     0.021 A 
ATOM      2  C   UNL     1       4.067  28.082  55.902  1.00  0.00     0.062 A 
ATOM      3  C   UNL     1       3.111  28.550  54.978  1.00  0.00     0.161 A 
ATOM      4  C   UNL     1       1.803  28.804  55.412  1.00  0.00     0.157 A 
ATOM      5  C   UNL     1       1.455  28.592  56.751  1.00  0.00     0.051 A 
ATOM      6  C   UNL     1       2.403  28.127  57.664  1.00  0.00     0.016 A 
ENDROOT
BRANCH   1   7
ATOM      7  C   UNL     1       4.748  27.371  58.211  1.00  0.00     0.159 C 
ATOM      8  C   UNL     1       6.125  27.963  58.279  1.00  0.00     0.093 C 
ATOM      9  O   UNL     1       4.464  26.427  58.999  1.00  0.00    -0.295 OA
ENDBRANCH   1   7
BRANCH   3  10
ATOM     10  O   UNL     1       3.421  28.776  53.629  1.00  0.00    -0.493 OA
ATOM     11  C   UNL     1       4.097  29.928  53.137  1.00  0.00     0.278 C 
ENDBRANCH   3  10
BRANCH   4  12
ATOM     12  O   UNL     1       0.853  29.267  54.504  1.00  0.00    -0.504 OA
ATOM     13  H   UNL     1       0.477  30.207  54.563  1.00  0.00     0.293 HD
ENDBRANCH   4  12
TORSDOF 3
ENDMDL
MODEL 5
REMARK VINA RESULT:    -4.334      8.283     10.077
REMARK INTER + INTRA:          -5.088
REMARK INTER:                  -4.975
REMARK INTRA:                  -0.113
REMARK UNBOUND:                -0.120
REMARK SMILES COc1cc(C(C)=O)ccc1O
REMARK SMILES IDX 5 1 4 2 3 3 11 4 10 5 9 6 6 7 7 8 8 9 2 10 1 11 12 12
REMARK H PARENT 12 13
REMARK Flexibility Score: inf
ROOT
ATOM      1  C   UNL     1      -7.505  31.844  57.843  1.00  0.00     0.021 A 
ATOM      2  C   UNL     1      -6.532  31.936  58.856  1.00  0.00     0.062 A 
ATOM      3  C   UNL     1      -5.659  30.862  59.122  1.00  0.00     0.161 A 
ATOM      4  C   UNL     1      -5.765  29.688  58.365  1.00  0.00     0.157 A 
ATOM      5  C   UNL     1      -6.729  29.589  57.355  1.00  0.00     0.051 A 
ATOM      6  C   UNL     1      -7.592  30.655  57.094  1.00  0.00     0.016 A 
ENDROOT
BRANCH   1   7
ATOM      7  C   UNL     1      -8.416  32.991  57.577  1.00  0.00     0.159 C 
ATOM      8  C   UNL     1      -7.964  34.208  56.827  1.00  0.00     0.093 C 
ATOM      9  O   UNL     1      -9.609  32.951  57.987  1.00  0.00    -0.295 OA
ENDBRANCH   1   7
BRANCH   3  10
ATOM     10  O   UNL     1      -4.680  30.922  60.125  1.00  0.00    -0.493 OA
ATOM     11  C   UNL     1      -3.490  31.700  60.045  1.00  0.00     0.278 C 
ENDBRANCH   3  10
BRANCH   4  12
ATOM     12  O   UNL     1      -4.905  28.622  58.622  1.00  0.00    -0.504 OA
ATOM     13  H   UNL     1      -5.200  27.824  59.173  1.00  0.00     0.293 HD
ENDBRANCH   4  12
TORSDOF 3
ENDMDL
MODEL 6
REMARK VINA RESULT:    -4.283      1.657      4.587
REMARK INTER + INTRA:          -5.030
REMARK INTER:                  -4.923
REMARK INTRA:                  -0.107
REMARK UNBOUND:                -0.120
REMARK SMILES COc1cc(C(C)=O)ccc1O
REMARK SMILES IDX 5 1 4 2 3 3 11 4 10 5 9 6 6 7 7 8 8 9 2 10 1 11 12 12
REMARK H PARENT 12 13
REMARK Flexibility Score: inf
ROOT
ATOM      1  C   UNL     1       3.437  28.899  54.867  1.00  0.00     0.021 A 
ATOM      2  C   UNL     1       3.643  28.341  56.143  1.00  0.00     0.062 A 
ATOM      3  C   UNL     1       2.564  28.134  57.026  1.00  0.00     0.161 A 
ATOM      4  C   UNL     1       1.271  28.489  56.624  1.00  0.00     0.157 A 
ATOM      5  C   UNL     1       1.057  29.045  55.357  1.00  0.00     0.051 A 
ATOM      6  C   UNL     1       2.128  29.249  54.485  1.00  0.00     0.016 A 
ENDROOT
BRANCH   1   7
ATOM      7  C   UNL     1       4.591  29.109  53.949  1.00  0.00     0.159 C 
ATOM      8  C   UNL     1       4.574  28.624  52.530  1.00  0.00     0.093 C 
ATOM      9  O   UNL     1       5.619  29.712  54.363  1.00  0.00    -0.295 OA
ENDBRANCH   1   7
BRANCH   3  10
ATOM     10  O   UNL     1       2.736  27.580  58.303  1.00  0.00    -0.493 OA
ATOM     11  C   UNL     1       3.880  26.837  58.714  1.00  0.00     0.278 C 
ENDBRANCH   3  10
BRANCH   4  12
ATOM     12  O   UNL     1       0.199  28.288  57.491  1.00  0.00    -0.504 OA
ATOM     13  H   UNL     1      -0.759  28.289  57.161  1.00  0.00     0.293 HD
ENDBRANCH   4  12
TORSDOF 3
ENDMDL
MODEL 7
REMARK VINA RESULT:    -4.210      1.583      4.155
REMARK INTER + INTRA:          -4.946
REMARK INTER:                  -4.833
REMARK INTRA:                  -0.112
REMARK UNBOUND:                -0.120
REMARK SMILES COc1cc(C(C)=O)ccc1O
REMARK SMILES IDX 5 1 4 2 3 3 11 4 10 5 9 6 6 7 7 8 8 9 2 10 1 11 12 12
REMARK H PARENT 12 13
REMARK Flexibility Score: inf
ROOT
ATOM      1  C   UNL     1       3.696  28.964  54.358  1.00  0.00     0.021 A 
ATOM      2  C   UNL     1       2.348  28.823  54.742  1.00  0.00     0.062 A 
ATOM      3  C   UNL     1       2.008  28.390  56.040  1.00  0.00     0.161 A 
ATOM      4  C   UNL     1       3.026  28.099  56.956  1.00  0.00     0.157 A 
ATOM      5  C   UNL     1       4.367  28.238  56.582  1.00  0.00     0.051 A 
ATOM      6  C   UNL     1       4.702  28.666  55.296  1.00  0.00     0.016 A 
ENDROOT
BRANCH   1   7
ATOM      7  C   UNL     1       4.035  29.424  52.983  1.00  0.00     0.159 C 
ATOM      8  C   UNL     1       4.622  28.499  51.959  1.00  0.00     0.093 C 
ATOM      9  O   UNL     1       3.826  30.624  52.654  1.00  0.00    -0.295 OA
ENDBRANCH   1   7
BRANCH   3  10
ATOM     10  O   UNL     1       0.675  28.239  56.453  1.00  0.00    -0.493 OA
ATOM     11  C   UNL     1      -0.138  29.293  56.957  1.00  0.00     0.278 C 
ENDBRANCH   3  10
BRANCH   4  12
ATOM     12  O   UNL     1       2.696  27.671  58.241  1.00  0.00    -0.504 OA
ATOM     13  H   UNL     1       3.094  28.107  59.064  1.00  0.00     0.293 HD
ENDBRANCH   4  12
TORSDOF 3
ENDMDL
MODEL 8
REMARK VINA RESULT:    -4.171      8.685     10.175
REMARK INTER + INTRA:          -4.901
REMARK INTER:                  -4.783
REMARK INTRA:                  -0.118
REMARK UNBOUND:                -0.120
REMARK SMILES COc1cc(C(C)=O)ccc1O
REMARK SMILES IDX 5 1 4 2 3 3 11 4 10 5 9 6 6 7 7 8 8 9 2 10 1 11 12 12
REMARK H PARENT 12 13
REMARK Flexibility Score: inf
ROOT
ATOM      1  C   UNL     1      -7.475  31.764  58.068  1.00  0.00     0.021 A 
ATOM      2  C   UNL     1      -7.575  30.565  57.336  1.00  0.00     0.062 A 
ATOM      3  C   UNL     1      -6.657  29.515  57.537  1.00  0.00     0.161 A 
ATOM      4  C   UNL     1      -5.632  29.670  58.479  1.00  0.00     0.157 A 
ATOM      5  C   UNL     1      -5.525  30.858  59.211  1.00  0.00     0.051 A 
ATOM      6  C   UNL     1      -6.436  31.897  59.010  1.00  0.00     0.016 A 
ENDROOT
BRANCH   1   7
ATOM      7  C   UNL     1      -8.456  32.861  57.842  1.00  0.00     0.159 C 
ATOM      8  C   UNL     1      -8.119  34.070  57.021  1.00  0.00     0.093 C 
ATOM      9  O   UNL     1      -9.608  32.785  58.349  1.00  0.00    -0.295 OA
ENDBRANCH   1   7
BRANCH   3  10
ATOM     10  O   UNL     1      -6.730  28.309  56.823  1.00  0.00    -0.493 OA
ATOM     11  C   UNL     1      -7.690  27.286  57.064  1.00  0.00     0.278 C 
ENDBRANCH   3  10
BRANCH   4  12
ATOM     12  O   UNL     1      -4.720  28.636  58.682  1.00  0.00    -0.504 OA
ATOM     13  H   UNL     1      -4.993  27.664  58.597  1.00  0.00     0.293 HD
ENDBRANCH   4  12
TORSDOF 3
ENDMDL
MODEL 9
REMARK VINA RESULT:    -4.063      8.574      9.986
REMARK INTER + INTRA:          -4.777
REMARK INTER:                  -4.663
REMARK INTRA:                  -0.114
REMARK UNBOUND:                -0.120
REMARK SMILES COc1cc(C(C)=O)ccc1O
REMARK SMILES IDX 5 1 4 2 3 3 11 4 10 5 9 6 6 7 7 8 8 9 2 10 1 11 12 12
REMARK H PARENT 12 13
REMARK Flexibility Score: inf
ROOT
ATOM      1  C   UNL     1      -7.186  28.777  57.189  1.00  0.00     0.021 A 
ATOM      2  C   UNL     1      -7.494  30.149  57.266  1.00  0.00     0.062 A 
ATOM      3  C   UNL     1      -6.657  31.041  57.967  1.00  0.00     0.161 A 
ATOM      4  C   UNL     1      -5.504  30.551  58.593  1.00  0.00     0.157 A 
ATOM      5  C   UNL     1      -5.190  29.189  58.521  1.00  0.00     0.051 A 
ATOM      6  C   UNL     1      -6.021  28.308  57.826  1.00  0.00     0.016 A 
ENDROOT
BRANCH   1   7
ATOM      7  C   UNL     1      -8.082  27.851  56.443  1.00  0.00     0.159 C 
ATOM      8  C   UNL     1      -7.559  26.635  55.739  1.00  0.00     0.093 C 
ATOM      9  O   UNL     1      -9.322  28.082  56.395  1.00  0.00    -0.295 OA
ENDBRANCH   1   7
BRANCH   3  10
ATOM     10  O   UNL     1      -6.937  32.412  58.061  1.00  0.00    -0.493 OA
ATOM     11  C   UNL     1      -7.645  33.162  57.080  1.00  0.00     0.278 C 
ENDBRANCH   3  10
BRANCH   4  12
ATOM     12  O   UNL     1      -4.672  31.427  59.287  1.00  0.00    -0.504 OA
ATOM     13  H   UNL     1      -4.315  31.203  60.209  1.00  0.00     0.293 HD
ENDBRANCH   4  12
TORSDOF 3
ENDMDL
