MODEL 1
REMARK VINA RESULT:    -5.160      0.000      0.000
REMARK INTER + INTRA:          -5.462
REMARK INTER:                  -5.462
REMARK INTRA:                   0.000
REMARK UNBOUND:                 0.000
REMARK SMILES O=c1ccc2cc(O)c(O)cc2o1
REMARK SMILES IDX 4 1 3 2 2 3 1 4 13 5 12 6 11 7 9 8 7 9 6 10 5 11 8 12 10 14
REMARK H PARENT 8 13 10 15
REMARK Flexibility Score: inf
ROOT
ATOM      1  C   UNL     1     -99.234  85.018 206.491  1.00  0.00     0.019 A 
ATOM      2  C   UNL     1     -99.272  83.705 206.021  1.00  0.00     0.094 A 
ATOM      3  C   UNL     1     -98.294  82.803 206.453  1.00  0.00     0.336 A 
ATOM      4  O   UNL     1     -98.311  81.614 206.040  1.00  0.00    -0.246 OA
ATOM      5  O   UNL     1     -97.344  83.192 207.300  1.00  0.00    -0.423 OA
ATOM      6  C   UNL     1     -97.273  84.434 207.772  1.00  0.00     0.142 A 
ATOM      7  C   UNL     1     -96.251  84.787 208.660  1.00  0.00     0.098 A 
ATOM      8  C   UNL     1     -96.168  86.091 209.162  1.00  0.00     0.161 A 
ATOM      9  C   UNL     1     -97.117  87.054 208.772  1.00  0.00     0.158 A 
ATOM     10  C   UNL     1     -98.144  86.706 207.882  1.00  0.00     0.062 A 
ATOM     11  C   UNL     1     -98.225  85.400 207.380  1.00  0.00     0.022 A 
ENDROOT
BRANCH   9  12
ATOM     12  O   UNL     1     -97.036  88.354 209.271  1.00  0.00    -0.504 OA
ATOM     13  H   UNL     1     -97.215  89.160 208.684  1.00  0.00     0.293 HD
ENDBRANCH   9  12
BRANCH   8  14
ATOM     14  O   UNL     1     -95.139  86.411 210.045  1.00  0.00    -0.504 OA
ATOM     15  H   UNL     1     -94.350  85.794 210.199  1.00  0.00     0.293 HD
ENDBRANCH   8  14
TORSDOF 2
ENDMDL
MODEL 2
REMARK VINA RESULT:    -5.150      3.059      6.234
REMARK INTER + INTRA:          -5.451
REMARK INTER:                  -5.451
REMARK INTRA:                   0.000
REMARK UNBOUND:                 0.000
REMARK SMILES O=c1ccc2cc(O)c(O)cc2o1
REMARK SMILES IDX 4 1 3 2 2 3 1 4 13 5 12 6 11 7 9 8 7 9 6 10 5 11 8 12 10 14
REMARK H PARENT 8 13 10 15
REMARK Flexibility Score: inf
ROOT
ATOM      1  C   UNL     1     -97.745  82.726 206.898  1.00  0.00     0.019 A 
ATOM      2  C   UNL     1     -97.066  83.536 207.807  1.00  0.00     0.094 A 
ATOM      3  C   UNL     1     -95.930  83.029 208.448  1.00  0.00     0.336 A 
ATOM      4  O   UNL     1     -95.303  83.745 209.272  1.00  0.00    -0.246 OA
ATOM      5  O   UNL     1     -95.505  81.795 208.192  1.00  0.00    -0.423 OA
ATOM      6  C   UNL     1     -96.124  80.990 207.332  1.00  0.00     0.142 A 
ATOM      7  C   UNL     1     -95.633  79.701 207.102  1.00  0.00     0.098 A 
ATOM      8  C   UNL     1     -96.277  78.847 206.199  1.00  0.00     0.161 A 
ATOM      9  C   UNL     1     -97.426  79.288 205.516  1.00  0.00     0.158 A 
ATOM     10  C   UNL     1     -97.923  80.580 205.743  1.00  0.00     0.062 A 
ATOM     11  C   UNL     1     -97.277  81.432 206.648  1.00  0.00     0.022 A 
ENDROOT
BRANCH   9  12
ATOM     12  O   UNL     1     -98.069  78.439 204.616  1.00  0.00    -0.504 OA
ATOM     13  H   UNL     1     -98.221  78.706 203.651  1.00  0.00     0.293 HD
ENDBRANCH   9  12
BRANCH   8  14
ATOM     14  O   UNL     1     -95.762  77.569 205.993  1.00  0.00    -0.504 OA
ATOM     15  H   UNL     1     -96.088  76.972 205.241  1.00  0.00     0.293 HD
ENDBRANCH   8  14
TORSDOF 2
ENDMDL
MODEL 3
REMARK VINA RESULT:    -5.143      2.507      3.335
REMARK INTER + INTRA:          -5.444
REMARK INTER:                  -5.444
REMARK INTRA:                   0.000
REMARK UNBOUND:                 0.000
REMARK SMILES O=c1ccc2cc(O)c(O)cc2o1
REMARK SMILES IDX 4 1 3 2 2 3 1 4 13 5 12 6 11 7 9 8 7 9 6 10 5 11 8 12 10 14
REMARK H PARENT 8 13 10 15
REMARK Flexibility Score: inf
ROOT
ATOM      1  C   UNL     1     -97.873  81.908 206.400  1.00  0.00     0.019 A 
ATOM      2  C   UNL     1     -98.120  80.563 206.128  1.00  0.00     0.094 A 
ATOM      3  C   UNL     1     -97.728  79.599 207.064  1.00  0.00     0.336 A 
ATOM      4  O   UNL     1     -97.941  78.380 206.836  1.00  0.00    -0.246 OA
ATOM      5  O   UNL     1     -97.131  79.963 208.196  1.00  0.00    -0.423 OA
ATOM      6  C   UNL     1     -96.878  81.234 208.495  1.00  0.00     0.142 A 
ATOM      7  C   UNL     1     -96.247  81.558 209.700  1.00  0.00     0.098 A 
ATOM      8  C   UNL     1     -95.977  82.893 210.022  1.00  0.00     0.161 A 
ATOM      9  C   UNL     1     -96.342  83.918 209.130  1.00  0.00     0.158 A 
ATOM     10  C   UNL     1     -96.975  83.599 207.919  1.00  0.00     0.062 A 
ATOM     11  C   UNL     1     -97.244  82.262 207.598  1.00  0.00     0.022 A 
ENDROOT
BRANCH   9  12
ATOM     12  O   UNL     1     -96.074  85.248 209.449  1.00  0.00    -0.504 OA
ATOM     13  H   UNL     1     -95.878  85.538 210.400  1.00  0.00     0.293 HD
ENDBRANCH   9  12
BRANCH   8  14
ATOM     14  O   UNL     1     -95.347  83.182 211.232  1.00  0.00    -0.504 OA
ATOM     15  H   UNL     1     -94.456  83.664 211.273  1.00  0.00     0.293 HD
ENDBRANCH   8  14
TORSDOF 2
ENDMDL
MODEL 4
REMARK VINA RESULT:    -5.010      1.046      2.382
REMARK INTER + INTRA:          -5.302
REMARK INTER:                  -5.302
REMARK INTRA:                   0.000
REMARK UNBOUND:                 0.000
REMARK SMILES O=c1ccc2cc(O)c(O)cc2o1
REMARK SMILES IDX 4 1 3 2 2 3 1 4 13 5 12 6 11 7 9 8 7 9 6 10 5 11 8 12 10 14
REMARK H PARENT 8 13 10 15
REMARK Flexibility Score: inf
ROOT
ATOM      1  C   UNL     1     -95.879  82.665 207.793  1.00  0.00     0.019 A 
ATOM      2  C   UNL     1     -96.744  81.949 206.966  1.00  0.00     0.094 A 
ATOM      3  C   UNL     1     -97.945  82.546 206.565  1.00  0.00     0.336 A 
ATOM      4  O   UNL     1     -98.740  81.916 205.819  1.00  0.00    -0.246 OA
ATOM      5  O   UNL     1     -98.254  83.776 206.966  1.00  0.00    -0.423 OA
ATOM      6  C   UNL     1     -97.457  84.493 207.754  1.00  0.00     0.142 A 
ATOM      7  C   UNL     1     -97.833  85.781 208.145  1.00  0.00     0.098 A 
ATOM      8  C   UNL     1     -97.001  86.542 208.974  1.00  0.00     0.161 A 
ATOM      9  C   UNL     1     -95.776  86.009 209.417  1.00  0.00     0.158 A 
ATOM     10  C   UNL     1     -95.393  84.717 209.029  1.00  0.00     0.062 A 
ATOM     11  C   UNL     1     -96.229  83.957 208.199  1.00  0.00     0.022 A 
ENDROOT
BRANCH   9  12
ATOM     12  O   UNL     1     -94.946  86.765 210.243  1.00  0.00    -0.504 OA
ATOM     13  H   UNL     1     -94.230  87.373 209.863  1.00  0.00     0.293 HD
ENDBRANCH   9  12
BRANCH   8  14
ATOM     14  O   UNL     1     -97.405  87.823 209.345  1.00  0.00    -0.504 OA
ATOM     15  H   UNL     1     -96.765  88.492 209.758  1.00  0.00     0.293 HD
ENDBRANCH   8  14
TORSDOF 2
ENDMDL
MODEL 5
REMARK VINA RESULT:    -4.991      1.989      2.784
REMARK INTER + INTRA:          -5.283
REMARK INTER:                  -5.283
REMARK INTRA:                   0.000
REMARK UNBOUND:                 0.000
REMARK SMILES O=c1ccc2cc(O)c(O)cc2o1
REMARK SMILES IDX 4 1 3 2 2 3 1 4 13 5 12 6 11 7 9 8 7 9 6 10 5 11 8 12 10 14
REMARK H PARENT 8 13 10 15
REMARK Flexibility Score: inf
ROOT
ATOM      1  C   UNL     1     -97.550  84.151 207.231  1.00  0.00     0.019 A 
ATOM      2  C   UNL     1     -96.791  83.178 207.881  1.00  0.00     0.094 A 
ATOM      3  C   UNL     1     -96.042  83.543 209.006  1.00  0.00     0.336 A 
ATOM      4  O   UNL     1     -95.351  82.679 209.606  1.00  0.00    -0.246 OA
ATOM      5  O   UNL     1     -96.056  84.798 209.447  1.00  0.00    -0.423 OA
ATOM      6  C   UNL     1     -96.766  85.756 208.857  1.00  0.00     0.142 A 
ATOM      7  C   UNL     1     -96.741  87.058 209.364  1.00  0.00     0.098 A 
ATOM      8  C   UNL     1     -97.485  88.072 208.750  1.00  0.00     0.161 A 
ATOM      9  C   UNL     1     -98.264  87.781 207.614  1.00  0.00     0.158 A 
ATOM     10  C   UNL     1     -98.292  86.476 207.100  1.00  0.00     0.062 A 
ATOM     11  C   UNL     1     -97.546  85.463 207.717  1.00  0.00     0.022 A 
ENDROOT
BRANCH   9  12
ATOM     12  O   UNL     1     -99.005  88.789 207.001  1.00  0.00    -0.504 OA
ATOM     13  H   UNL     1     -99.990  88.673 206.793  1.00  0.00     0.293 HD
ENDBRANCH   9  12
BRANCH   8  14
ATOM     14  O   UNL     1     -97.440  89.360 209.281  1.00  0.00    -0.504 OA
ATOM     15  H   UNL     1     -97.392  89.530 210.279  1.00  0.00     0.293 HD
ENDBRANCH   8  14
TORSDOF 2
ENDMDL
MODEL 6
REMARK VINA RESULT:    -4.937      2.564      5.924
REMARK INTER + INTRA:          -5.225
REMARK INTER:                  -5.225
REMARK INTRA:                   0.000
REMARK UNBOUND:                 0.000
REMARK SMILES O=c1ccc2cc(O)c(O)cc2o1
REMARK SMILES IDX 4 1 3 2 2 3 1 4 13 5 12 6 11 7 9 8 7 9 6 10 5 11 8 12 10 14
REMARK H PARENT 8 13 10 15
REMARK Flexibility Score: inf
ROOT
ATOM      1  C   UNL     1     -95.937  83.039 207.842  1.00  0.00     0.019 A 
ATOM      2  C   UNL     1     -96.692  84.210 207.895  1.00  0.00     0.094 A 
ATOM      3  C   UNL     1     -97.930  84.248 207.243  1.00  0.00     0.336 A 
ATOM      4  O   UNL     1     -98.627  85.295 207.280  1.00  0.00    -0.246 OA
ATOM      5  O   UNL     1     -98.379  83.182 206.586  1.00  0.00    -0.423 OA
ATOM      6  C   UNL     1     -97.690  82.046 206.511  1.00  0.00     0.142 A 
ATOM      7  C   UNL     1     -98.211  80.957 205.804  1.00  0.00     0.098 A 
ATOM      8  C   UNL     1     -97.493  79.758 205.720  1.00  0.00     0.161 A 
ATOM      9  C   UNL     1     -96.240  79.645 206.351  1.00  0.00     0.158 A 
ATOM     10  C   UNL     1     -95.713  80.734 207.061  1.00  0.00     0.062 A 
ATOM     11  C   UNL     1     -96.432  81.934 207.143  1.00  0.00     0.022 A 
ENDROOT
BRANCH   9  12
ATOM     12  O   UNL     1     -95.524  78.452 206.268  1.00  0.00    -0.504 OA
ATOM     13  H   UNL     1     -95.704  77.679 206.898  1.00  0.00     0.293 HD
ENDBRANCH   9  12
BRANCH   8  14
ATOM     14  O   UNL     1     -98.040  78.692 205.009  1.00  0.00    -0.504 OA
ATOM     15  H   UNL     1     -98.018  77.741 205.362  1.00  0.00     0.293 HD
ENDBRANCH   8  14
TORSDOF 2
ENDMDL
MODEL 7
REMARK VINA RESULT:    -4.850      1.691      2.585
REMARK INTER + INTRA:          -5.133
REMARK INTER:                  -5.133
REMARK INTRA:                   0.000
REMARK UNBOUND:                 0.000
REMARK SMILES O=c1ccc2cc(O)c(O)cc2o1
REMARK SMILES IDX 4 1 3 2 2 3 1 4 13 5 12 6 11 7 9 8 7 9 6 10 5 11 8 12 10 14
REMARK H PARENT 8 13 10 15
REMARK Flexibility Score: inf
ROOT
ATOM      1  C   UNL     1     -98.258  82.976 206.530  1.00  0.00     0.019 A 
ATOM      2  C   UNL     1     -99.387  83.242 205.757  1.00  0.00     0.094 A 
ATOM      3  C   UNL     1     -99.954  84.521 205.803  1.00  0.00     0.336 A 
ATOM      4  O   UNL     1    -100.974  84.780 205.112  1.00  0.00    -0.246 OA
ATOM      5  O   UNL     1     -99.421  85.467 206.572  1.00  0.00    -0.423 OA
ATOM      6  C   UNL     1     -98.345  85.255 207.324  1.00  0.00     0.142 A 
ATOM      7  C   UNL     1     -97.828  86.288 208.113  1.00  0.00     0.098 A 
ATOM      8  C   UNL     1     -96.696  86.074 208.908  1.00  0.00     0.161 A 
ATOM      9  C   UNL     1     -96.071  84.813 208.914  1.00  0.00     0.158 A 
ATOM     10  C   UNL     1     -96.585  83.773 208.124  1.00  0.00     0.062 A 
ATOM     11  C   UNL     1     -97.719  83.990 207.330  1.00  0.00     0.022 A 
ENDROOT
BRANCH   9  12
ATOM     12  O   UNL     1     -94.943  84.598 209.704  1.00  0.00    -0.504 OA
ATOM     13  H   UNL     1     -94.163  84.040 209.377  1.00  0.00     0.293 HD
ENDBRANCH   9  12
BRANCH   8  14
ATOM     14  O   UNL     1     -96.206  87.123 209.683  1.00  0.00    -0.504 OA
ATOM     15  H   UNL     1     -95.494  87.758 209.342  1.00  0.00     0.293 HD
ENDBRANCH   8  14
TORSDOF 2
ENDMDL
MODEL 8
REMARK VINA RESULT:    -4.820      3.188      6.349
REMARK INTER + INTRA:          -5.102
REMARK INTER:                  -5.102
REMARK INTRA:                   0.000
REMARK UNBOUND:                 0.000
REMARK SMILES O=c1ccc2cc(O)c(O)cc2o1
REMARK SMILES IDX 4 1 3 2 2 3 1 4 13 5 12 6 11 7 9 8 7 9 6 10 5 11 8 12 10 14
REMARK H PARENT 8 13 10 15
REMARK Flexibility Score: inf
ROOT
ATOM      1  C   UNL     1     -96.586  81.714 209.483  1.00  0.00     0.019 A 
ATOM      2  C   UNL     1     -95.966  82.945 209.271  1.00  0.00     0.094 A 
ATOM      3  C   UNL     1     -95.738  83.372 207.958  1.00  0.00     0.336 A 
ATOM      4  O   UNL     1     -95.179  84.480 207.747  1.00  0.00    -0.246 OA
ATOM      5  O   UNL     1     -96.110  82.615 206.929  1.00  0.00    -0.423 OA
ATOM      6  C   UNL     1     -96.705  81.435 207.087  1.00  0.00     0.142 A 
ATOM      7  C   UNL     1     -97.073  80.682 205.968  1.00  0.00     0.098 A 
ATOM      8  C   UNL     1     -97.699  79.440 206.125  1.00  0.00     0.161 A 
ATOM      9  C   UNL     1     -97.961  78.945 207.415  1.00  0.00     0.158 A 
ATOM     10  C   UNL     1     -97.594  79.696 208.542  1.00  0.00     0.062 A 
ATOM     11  C   UNL     1     -96.966  80.939 208.383  1.00  0.00     0.022 A 
ENDROOT
BRANCH   9  12
ATOM     12  O   UNL     1     -98.585  77.708 207.574  1.00  0.00    -0.504 OA
ATOM     13  H   UNL     1     -99.578  77.633 207.758  1.00  0.00     0.293 HD
ENDBRANCH   9  12
BRANCH   8  14
ATOM     14  O   UNL     1     -98.054  78.714 204.989  1.00  0.00    -0.504 OA
ATOM     15  H   UNL     1     -97.748  78.982 204.061  1.00  0.00     0.293 HD
ENDBRANCH   8  14
TORSDOF 2
ENDMDL
MODEL 9
REMARK VINA RESULT:    -4.772      1.445      2.638
REMARK INTER + INTRA:          -5.051
REMARK INTER:                  -5.051
REMARK INTRA:                   0.000
REMARK UNBOUND:                 0.000
REMARK SMILES O=c1ccc2cc(O)c(O)cc2o1
REMARK SMILES IDX 4 1 3 2 2 3 1 4 13 5 12 6 11 7 9 8 7 9 6 10 5 11 8 12 10 14
REMARK H PARENT 8 13 10 15
REMARK Flexibility Score: inf
ROOT
ATOM      1  C   UNL     1     -96.109  84.306 208.738  1.00  0.00     0.019 A 
ATOM      2  C   UNL     1     -96.459  83.092 208.149  1.00  0.00     0.094 A 
ATOM      3  C   UNL     1     -97.500  83.068 207.214  1.00  0.00     0.336 A 
ATOM      4  O   UNL     1     -97.830  81.981 206.671  1.00  0.00    -0.246 OA
ATOM      5  O   UNL     1     -98.144  84.187 206.893  1.00  0.00    -0.423 OA
ATOM      6  C   UNL     1     -97.842  85.365 207.431  1.00  0.00     0.142 A 
ATOM      7  C   UNL     1     -98.554  86.509 207.057  1.00  0.00     0.098 A 
ATOM      8  C   UNL     1     -98.243  87.753 207.618  1.00  0.00     0.161 A 
ATOM      9  C   UNL     1     -97.207  87.856 208.565  1.00  0.00     0.158 A 
ATOM     10  C   UNL     1     -96.489  86.712 208.945  1.00  0.00     0.062 A 
ATOM     11  C   UNL     1     -96.803  85.467 208.382  1.00  0.00     0.022 A 
ENDROOT
BRANCH   9  12
ATOM     12  O   UNL     1     -96.895  89.094 209.125  1.00  0.00    -0.504 OA
ATOM     13  H   UNL     1     -97.609  89.790 209.306  1.00  0.00     0.293 HD
ENDBRANCH   9  12
BRANCH   8  14
ATOM     14  O   UNL     1     -98.971  88.874 207.223  1.00  0.00    -0.504 OA
ATOM     15  H   UNL     1     -99.923  89.034 207.531  1.00  0.00     0.293 HD
ENDBRANCH   8  14
TORSDOF 2
ENDMDL
