MODEL 1
REMARK VINA RESULT:    -2.835      0.000      0.000
REMARK INTER + INTRA:          -3.084
REMARK INTER:                  -3.084
REMARK INTRA:                   0.000
REMARK UNBOUND:                 0.000
REMARK SMILES [NH3+]CC(=O)[O-]
REMARK SMILES IDX 2 1 1 2 3 6 4 7 5 8
REMARK H PARENT 1 3 1 4 1 5
REMARK Flexibility Score: inf
ROOT
ATOM      1  C   UNL     1     191.324 192.953  84.470  1.00  0.00     0.312 C 
ENDROOT
BRANCH   1   2
ATOM      2  N   UNL     1     192.709 193.279  84.801  1.00  0.00    -0.353 N 
ATOM      3  H   UNL     1     192.728 194.159  85.367  1.00  0.00     0.344 HD
ATOM      4  H   UNL     1     193.262 193.428  83.926  1.00  0.00     0.344 HD
ATOM      5  H   UNL     1     193.136 192.507  85.363  1.00  0.00     0.344 HD
ENDBRANCH   1   2
BRANCH   1   6
ATOM      6  C   UNL     1     190.652 194.117  83.808  1.00  0.00     0.096 C 
ATOM      7  O   UNL     1     189.413 194.292  83.942  1.00  0.00    -0.544 OA
ATOM      8  O   UNL     1     191.404 195.037  83.088  1.00  0.00    -0.544 OA
ENDBRANCH   1   6
TORSDOF 2
ENDMDL
MODEL 2
REMARK VINA RESULT:    -2.801      1.184      1.520
REMARK INTER + INTRA:          -3.046
REMARK INTER:                  -3.046
REMARK INTRA:                   0.000
REMARK UNBOUND:                 0.000
REMARK SMILES [NH3+]CC(=O)[O-]
REMARK SMILES IDX 2 1 1 2 3 6 4 7 5 8
REMARK H PARENT 1 3 1 4 1 5
REMARK Flexibility Score: inf
ROOT
ATOM      1  C   UNL     1     191.466 193.265  84.094  1.00  0.00     0.312 C 
ENDROOT
BRANCH   1   2
ATOM      2  N   UNL     1     192.738 193.276  84.814  1.00  0.00    -0.353 N 
ATOM      3  H   UNL     1     192.603 193.744  85.739  1.00  0.00     0.344 HD
ATOM      4  H   UNL     1     193.454 193.808  84.267  1.00  0.00     0.344 HD
ATOM      5  H   UNL     1     193.069 192.297  84.975  1.00  0.00     0.344 HD
ENDBRANCH   1   2
BRANCH   1   6
ATOM      6  C   UNL     1     191.550 194.109  82.860  1.00  0.00     0.096 C 
ATOM      7  O   UNL     1     191.128 195.294  82.873  1.00  0.00    -0.544 OA
ATOM      8  O   UNL     1     192.144 193.602  81.711  1.00  0.00    -0.544 OA
ENDBRANCH   1   6
TORSDOF 2
ENDMDL
MODEL 3
REMARK VINA RESULT:    -2.779      2.284      2.540
REMARK INTER + INTRA:          -3.022
REMARK INTER:                  -3.022
REMARK INTRA:                   0.000
REMARK UNBOUND:                 0.000
REMARK SMILES [NH3+]CC(=O)[O-]
REMARK SMILES IDX 2 1 1 2 3 6 4 7 5 8
REMARK H PARENT 1 3 1 4 1 5
REMARK Flexibility Score: inf
ROOT
ATOM      1  C   UNL     1     191.816 193.604  81.704  1.00  0.00     0.312 C 
ENDROOT
BRANCH   1   2
ATOM      2  N   UNL     1     193.125 194.001  81.189  1.00  0.00    -0.353 N 
ATOM      3  H   UNL     1     193.058 194.138  80.154  1.00  0.00     0.344 HD
ATOM      4  H   UNL     1     193.830 193.253  81.386  1.00  0.00     0.344 HD
ATOM      5  H   UNL     1     193.428 194.900  81.630  1.00  0.00     0.344 HD
ENDBRANCH   1   2
BRANCH   1   6
ATOM      6  C   UNL     1     191.635 194.084  83.111  1.00  0.00     0.096 C 
ATOM      7  O   UNL     1     191.108 195.205  83.334  1.00  0.00    -0.544 OA
ATOM      8  O   UNL     1     191.999 193.269  84.176  1.00  0.00    -0.544 OA
ENDBRANCH   1   6
TORSDOF 2
ENDMDL
MODEL 4
REMARK VINA RESULT:    -2.767     10.203     10.495
REMARK INTER + INTRA:          -3.009
REMARK INTER:                  -3.009
REMARK INTRA:                   0.000
REMARK UNBOUND:                 0.000
REMARK SMILES [NH3+]CC(=O)[O-]
REMARK SMILES IDX 2 1 1 2 3 6 4 7 5 8
REMARK H PARENT 1 3 1 4 1 5
REMARK Flexibility Score: inf
ROOT
ATOM      1  C   UNL     1     191.378 202.932  87.285  1.00  0.00     0.312 C 
ENDROOT
BRANCH   1   2
ATOM      2  N   UNL     1     190.952 204.248  86.812  1.00  0.00    -0.353 N 
ATOM      3  H   UNL     1     189.914 204.326  86.909  1.00  0.00     0.344 HD
ATOM      4  H   UNL     1     191.208 204.366  85.804  1.00  0.00     0.344 HD
ATOM      5  H   UNL     1     191.403 204.999  87.384  1.00  0.00     0.344 HD
ENDBRANCH   1   2
BRANCH   1   6
ATOM      6  C   UNL     1     192.576 203.053  88.176  1.00  0.00     0.096 C 
ATOM      7  O   UNL     1     193.125 202.022  88.642  1.00  0.00    -0.544 OA
ATOM      8  O   UNL     1     193.116 204.304  88.448  1.00  0.00    -0.544 OA
ENDBRANCH   1   6
TORSDOF 2
ENDMDL
MODEL 5
REMARK VINA RESULT:    -2.671     10.709     10.852
REMARK INTER + INTRA:          -2.905
REMARK INTER:                  -2.905
REMARK INTRA:                   0.000
REMARK UNBOUND:                 0.000
REMARK SMILES [NH3+]CC(=O)[O-]
REMARK SMILES IDX 2 1 1 2 3 6 4 7 5 8
REMARK H PARENT 1 3 1 4 1 5
REMARK Flexibility Score: inf
ROOT
ATOM      1  C   UNL     1     189.713 193.737  95.463  1.00  0.00     0.312 C 
ENDROOT
BRANCH   1   2
ATOM      2  N   UNL     1     190.866 193.397  94.632  1.00  0.00    -0.353 N 
ATOM      3  H   UNL     1     190.660 193.655  93.640  1.00  0.00     0.344 HD
ATOM      4  H   UNL     1     191.053 192.369  94.683  1.00  0.00     0.344 HD
ATOM      5  H   UNL     1     191.709 193.927  94.952  1.00  0.00     0.344 HD
ENDBRANCH   1   2
BRANCH   1   6
ATOM      6  C   UNL     1     188.584 194.242  94.618  1.00  0.00     0.096 C 
ATOM      7  O   UNL     1     187.632 193.478  94.311  1.00  0.00    -0.544 OA
ATOM      8  O   UNL     1     188.558 195.571  94.215  1.00  0.00    -0.544 OA
ENDBRANCH   1   6
TORSDOF 2
ENDMDL
MODEL 6
REMARK VINA RESULT:    -2.652      2.922      3.167
REMARK INTER + INTRA:          -2.884
REMARK INTER:                  -2.884
REMARK INTRA:                   0.000
REMARK UNBOUND:                 0.000
REMARK SMILES [NH3+]CC(=O)[O-]
REMARK SMILES IDX 2 1 1 2 3 6 4 7 5 8
REMARK H PARENT 1 3 1 4 1 5
REMARK Flexibility Score: inf
ROOT
ATOM      1  C   UNL     1     189.201 195.155  83.085  1.00  0.00     0.312 C 
ENDROOT
BRANCH   1   2
ATOM      2  N   UNL     1     188.536 196.278  83.743  1.00  0.00    -0.353 N 
ATOM      3  H   UNL     1     187.540 196.319  83.426  1.00  0.00     0.344 HD
ATOM      4  H   UNL     1     189.009 197.175  83.487  1.00  0.00     0.344 HD
ATOM      5  H   UNL     1     188.555 196.149  84.781  1.00  0.00     0.344 HD
ENDBRANCH   1   2
BRANCH   1   6
ATOM      6  C   UNL     1     190.689 195.317  83.140  1.00  0.00     0.096 C 
ATOM      7  O   UNL     1     191.204 196.462  83.063  1.00  0.00    -0.544 OA
ATOM      8  O   UNL     1     191.502 194.206  83.330  1.00  0.00    -0.544 OA
ENDBRANCH   1   6
TORSDOF 2
ENDMDL
MODEL 7
REMARK VINA RESULT:    -2.636     14.720     15.173
REMARK INTER + INTRA:          -2.867
REMARK INTER:                  -2.867
REMARK INTRA:                   0.000
REMARK UNBOUND:                 0.000
REMARK SMILES [NH3+]CC(=O)[O-]
REMARK SMILES IDX 2 1 1 2 3 6 4 7 5 8
REMARK H PARENT 1 3 1 4 1 5
REMARK Flexibility Score: inf
ROOT
ATOM      1  C   UNL     1     180.306 203.192  86.753  1.00  0.00     0.312 C 
ENDROOT
BRANCH   1   2
ATOM      2  N   UNL     1     181.443 203.519  85.895  1.00  0.00    -0.353 N 
ATOM      3  H   UNL     1     182.216 203.904  86.485  1.00  0.00     0.344 HD
ATOM      4  H   UNL     1     181.164 204.240  85.190  1.00  0.00     0.344 HD
ATOM      5  H   UNL     1     181.785 202.659  85.408  1.00  0.00     0.344 HD
ENDBRANCH   1   2
BRANCH   1   6
ATOM      6  C   UNL     1     180.218 204.150  87.902  1.00  0.00     0.096 C 
ATOM      7  O   UNL     1     180.769 203.874  88.999  1.00  0.00    -0.544 OA
ATOM      8  O   UNL     1     179.573 205.370  87.742  1.00  0.00    -0.544 OA
ENDBRANCH   1   6
TORSDOF 2
ENDMDL
MODEL 8
REMARK VINA RESULT:    -2.620      2.253      2.460
REMARK INTER + INTRA:          -2.850
REMARK INTER:                  -2.850
REMARK INTRA:                   0.000
REMARK UNBOUND:                 0.000
REMARK SMILES [NH3+]CC(=O)[O-]
REMARK SMILES IDX 2 1 1 2 3 6 4 7 5 8
REMARK H PARENT 1 3 1 4 1 5
REMARK Flexibility Score: inf
ROOT
ATOM      1  C   UNL     1     191.480 195.232  82.941  1.00  0.00     0.312 C 
ENDROOT
BRANCH   1   2
ATOM      2  N   UNL     1     190.546 196.333  83.168  1.00  0.00    -0.353 N 
ATOM      3  H   UNL     1     191.084 197.188  83.438  1.00  0.00     0.344 HD
ATOM      4  H   UNL     1     189.886 196.090  83.942  1.00  0.00     0.344 HD
ATOM      5  H   UNL     1     190.008 196.535  82.293  1.00  0.00     0.344 HD
ENDBRANCH   1   2
BRANCH   1   6
ATOM      6  C   UNL     1     191.115 194.049  83.783  1.00  0.00     0.096 C 
ATOM      7  O   UNL     1     189.908 193.730  83.938  1.00  0.00    -0.544 OA
ATOM      8  O   UNL     1     192.113 193.267  84.352  1.00  0.00    -0.544 OA
ENDBRANCH   1   6
TORSDOF 2
ENDMDL
MODEL 9
REMARK VINA RESULT:    -2.584     17.332     17.383
REMARK INTER + INTRA:          -2.810
REMARK INTER:                  -2.810
REMARK INTRA:                   0.000
REMARK UNBOUND:                 0.000
REMARK SMILES [NH3+]CC(=O)[O-]
REMARK SMILES IDX 2 1 1 2 3 6 4 7 5 8
REMARK H PARENT 1 3 1 4 1 5
REMARK Flexibility Score: inf
ROOT
ATOM      1  C   UNL     1     185.612 207.115  93.847  1.00  0.00     0.312 C 
ENDROOT
BRANCH   1   2
ATOM      2  N   UNL     1     184.683 206.325  93.043  1.00  0.00    -0.353 N 
ATOM      3  H   UNL     1     185.211 205.558  92.566  1.00  0.00     0.344 HD
ATOM      4  H   UNL     1     184.235 206.929  92.316  1.00  0.00     0.344 HD
ATOM      5  H   UNL     1     183.948 205.901  93.654  1.00  0.00     0.344 HD
ENDBRANCH   1   2
BRANCH   1   6
ATOM      6  C   UNL     1     185.990 206.378  95.095  1.00  0.00     0.096 C 
ATOM      7  O   UNL     1     185.120 205.736  95.739  1.00  0.00    -0.544 OA
ATOM      8  O   UNL     1     187.314 206.357  95.516  1.00  0.00    -0.544 OA
ENDBRANCH   1   6
TORSDOF 2
ENDMDL
