MODEL 1
REMARK VINA RESULT:   146.876      0.000      0.000
REMARK INTER + INTRA:         161.041
REMARK INTER:                 159.755
REMARK INTRA:                   1.286
REMARK UNBOUND:                 1.286
REMARK SMILES C[C@H]1[C@H](C)CC[C@@]2(C(=O)[O-])CC[C@]3(C)C(=CC[C@@H]4[C@]5(C)CC[C@H](O)C(C)(C)[C@H]5CC[C@@]43C)[C@H]12
REMARK SMILES IDX 7 1 6 2 11 3 33 4 5 5 12 6 15 7 2 8 3 9 13 10 16 11 1 12
REMARK SMILES IDX 4 13 14 14 31 15 17 16 18 17 30 18 32 19 19 20 29 21 28 22
REMARK SMILES IDX 21 23 20 24 25 25 22 26 23 27 26 28 27 29 8 30 9 31 10 32
REMARK SMILES IDX 24 33
REMARK H PARENT 24 34
REMARK Flexibility Score: inf
ROOT
ATOM      1  C   UNL     1       8.622  96.253   1.723  1.00  0.00     0.017 C 
ATOM      2  C   UNL     1       7.908  95.510   2.905  1.00  0.00     0.014 C 
ATOM      3  C   UNL     1       9.964  96.817   2.216  1.00  0.00     0.014 C 
ATOM      4  C   UNL     1       8.964  95.239   0.572  1.00  0.00     0.030 C 
ATOM      5  C   UNL     1       7.307  94.146   2.539  1.00  0.00     0.004 C 
ATOM      6  C   UNL     1      10.598  97.742   1.171  1.00  0.00     0.013 C 
ATOM      7  C   UNL     1      10.016  95.783  -0.436  1.00  0.00    -0.063 C 
ATOM      8  C   UNL     1       7.636  94.595  -0.008  1.00  0.00    -0.003 C 
ATOM      9  C   UNL     1       6.663  94.110   1.138  1.00  0.00    -0.011 C 
ATOM     10  C   UNL     1      10.707  97.166  -0.304  1.00  0.00    -0.006 C 
ATOM     11  C   UNL     1      10.539  94.914  -1.314  1.00  0.00    -0.027 C 
ATOM     12  C   UNL     1       7.854  93.421  -0.986  1.00  0.00     0.008 C 
ATOM     13  C   UNL     1       5.313  94.846   1.118  1.00  0.00     0.008 C 
ATOM     14  C   UNL     1       9.937  98.119  -1.264  1.00  0.00     0.017 C 
ATOM     15  C   UNL     1      12.263  97.099  -0.752  1.00  0.00    -0.020 C 
ATOM     16  C   UNL     1      11.428  95.303  -2.452  1.00  0.00     0.032 C 
ATOM     17  C   UNL     1      12.393  96.519  -2.232  1.00  0.00     0.006 C 
ATOM     18  C   UNL     1      13.070  96.161   0.218  1.00  0.00     0.008 C 
ATOM     19  C   UNL     1      12.868  98.550  -0.682  1.00  0.00     0.012 C 
ATOM     20  C   UNL     1      13.884  96.214  -2.722  1.00  0.00    -0.025 C 
ATOM     21  C   UNL     1      14.500  95.814  -0.244  1.00  0.00     0.005 C 
ATOM     22  C   UNL     1      14.536  95.231  -1.682  1.00  0.00     0.003 C 
ATOM     23  C   UNL     1      13.874  95.599  -4.167  1.00  0.00     0.010 C 
ATOM     24  C   UNL     1      14.693  97.542  -2.875  1.00  0.00     0.012 C 
ATOM     25  C   UNL     1      15.918  94.599  -2.118  1.00  0.00    -0.006 C 
ATOM     26  C   UNL     1      15.186  94.915  -4.593  1.00  0.00     0.033 C 
ATOM     27  C   UNL     1      15.751  93.944  -3.529  1.00  0.00     0.120 C 
ATOM     28  C   UNL     1      17.089  95.624  -2.138  1.00  0.00     0.014 C 
ATOM     29  C   UNL     1      16.321  93.476  -1.123  1.00  0.00     0.014 C 
ENDROOT
BRANCH   1  30
ATOM     30  C   UNL     1       7.731  97.439   1.327  1.00  0.00     0.048 C 
ATOM     31  O   UNL     1       7.792  97.977   0.189  1.00  0.00    -0.550 OA
ATOM     32  O   UNL     1       6.781  97.918   2.232  1.00  0.00    -0.550 OA
ENDBRANCH   1  30
BRANCH  27  33
ATOM     33  O   UNL     1      14.996  92.752  -3.460  1.00  0.00    -0.393 OA
ATOM     34  H   UNL     1      14.378  92.806  -2.686  1.00  0.00     0.210 HD
ENDBRANCH  27  33
TORSDOF 2
ENDMDL
MODEL 2
REMARK VINA RESULT:   148.021      3.279      7.444
REMARK INTER + INTRA:         162.286
REMARK INTER:                 160.863
REMARK INTRA:                   1.424
REMARK UNBOUND:                 1.286
REMARK SMILES C[C@H]1[C@H](C)CC[C@@]2(C(=O)[O-])CC[C@]3(C)C(=CC[C@@H]4[C@]5(C)CC[C@H](O)C(C)(C)[C@H]5CC[C@@]43C)[C@H]12
REMARK SMILES IDX 7 1 6 2 11 3 33 4 5 5 12 6 15 7 2 8 3 9 13 10 16 11 1 12
REMARK SMILES IDX 4 13 14 14 31 15 17 16 18 17 30 18 32 19 19 20 29 21 28 22
REMARK SMILES IDX 21 23 20 24 25 25 22 26 23 27 26 28 27 29 8 30 9 31 10 32
REMARK SMILES IDX 24 33
REMARK H PARENT 24 34
REMARK Flexibility Score: inf
ROOT
ATOM      1  C   UNL     1      14.878  94.214  -1.676  1.00  0.00     0.017 C 
ATOM      2  C   UNL     1      16.246  93.454  -1.571  1.00  0.00     0.014 C 
ATOM      3  C   UNL     1      14.434  94.655  -0.273  1.00  0.00     0.014 C 
ATOM      4  C   UNL     1      15.051  95.528  -2.520  1.00  0.00     0.030 C 
ATOM      5  C   UNL     1      17.291  93.859  -2.619  1.00  0.00     0.004 C 
ATOM      6  C   UNL     1      13.002  95.201  -0.287  1.00  0.00     0.013 C 
ATOM      7  C   UNL     1      13.881  96.536  -2.337  1.00  0.00    -0.063 C 
ATOM      8  C   UNL     1      15.513  95.178  -3.996  1.00  0.00    -0.003 C 
ATOM      9  C   UNL     1      16.693  94.129  -4.015  1.00  0.00    -0.011 C 
ATOM     10  C   UNL     1      12.681  96.305  -1.382  1.00  0.00    -0.006 C 
ATOM     11  C   UNL     1      14.046  97.772  -2.831  1.00  0.00    -0.027 C 
ATOM     12  C   UNL     1      15.933  96.392  -4.852  1.00  0.00     0.008 C 
ATOM     13  C   UNL     1      16.309  92.821  -4.727  1.00  0.00     0.008 C 
ATOM     14  C   UNL     1      11.518  95.788  -2.278  1.00  0.00     0.017 C 
ATOM     15  C   UNL     1      12.226  97.681  -0.655  1.00  0.00    -0.020 C 
ATOM     16  C   UNL     1      12.966  98.804  -2.892  1.00  0.00     0.032 C 
ATOM     17  C   UNL     1      11.902  98.804  -1.740  1.00  0.00     0.006 C 
ATOM     18  C   UNL     1      13.376  98.212   0.277  1.00  0.00     0.008 C 
ATOM     19  C   UNL     1      10.951  97.387   0.220  1.00  0.00     0.012 C 
ATOM     20  C   UNL     1      11.634 100.267  -1.154  1.00  0.00    -0.025 C 
ATOM     21  C   UNL     1      13.167  99.637   0.828  1.00  0.00     0.005 C 
ATOM     22  C   UNL     1      12.885 100.673  -0.292  1.00  0.00     0.003 C 
ATOM     23  C   UNL     1      11.381 101.289  -2.320  1.00  0.00     0.010 C 
ATOM     24  C   UNL     1      10.308 100.292  -0.328  1.00  0.00     0.012 C 
ATOM     25  C   UNL     1      12.936 102.186   0.161  1.00  0.00    -0.006 C 
ATOM     26  C   UNL     1      11.493 102.773  -1.922  1.00  0.00     0.033 C 
ATOM     27  C   UNL     1      12.763 103.098  -1.099  1.00  0.00     0.120 C 
ATOM     28  C   UNL     1      11.868 102.548   1.235  1.00  0.00     0.014 C 
ATOM     29  C   UNL     1      14.323 102.503   0.784  1.00  0.00     0.014 C 
ENDROOT
BRANCH   1  30
ATOM     30  C   UNL     1      13.841  93.211  -2.204  1.00  0.00     0.048 C 
ATOM     31  O   UNL     1      12.744  93.578  -2.704  1.00  0.00    -0.550 OA
ATOM     32  O   UNL     1      14.130  91.846  -2.179  1.00  0.00    -0.550 OA
ENDBRANCH   1  30
BRANCH  27  33
ATOM     33  O   UNL     1      13.923 103.090  -1.906  1.00  0.00    -0.393 OA
ATOM     34  H   UNL     1      14.216 104.025  -2.058  1.00  0.00     0.210 HD
ENDBRANCH  27  33
TORSDOF 2
ENDMDL
