MODEL 1
REMARK VINA RESULT:    -3.559      0.000      0.000
REMARK INTER + INTRA:          -4.953
REMARK INTER:                  -4.600
REMARK INTRA:                  -0.353
REMARK UNBOUND:                -0.353
REMARK SMILES CCCCCCC(=O)[O-]
REMARK SMILES IDX 5 1 6 2 7 3 8 4 9 5 4 6 3 7 2 8 1 9
REMARK H PARENT
REMARK Flexibility Score: inf
ROOT
ATOM      1  C   UNL     1     -31.436 -20.458 -23.270  1.00  0.00     0.006 C 
ENDROOT
BRANCH   1   2
ATOM      2  C   UNL     1     -31.123 -21.299 -24.512  1.00  0.00     0.053 C 
BRANCH   2   3
ATOM      3  C   UNL     1     -30.463 -20.459 -25.560  1.00  0.00     0.041 C 
ATOM      4  O   UNL     1     -30.062 -19.298 -25.282  1.00  0.00    -0.550 OA
ATOM      5  O   UNL     1     -30.333 -20.941 -26.855  1.00  0.00    -0.550 OA
ENDBRANCH   2   3
ENDBRANCH   1   2
BRANCH   1   6
ATOM      6  C   UNL     1     -31.151 -21.246 -21.986  1.00  0.00     0.000 C 
BRANCH   6   7
ATOM      7  C   UNL     1     -29.903 -22.125 -22.145  1.00  0.00    -0.000 C 
BRANCH   7   8
ATOM      8  C   UNL     1     -28.602 -21.368 -21.833  1.00  0.00    -0.003 C 
ATOM      9  C   UNL     1     -27.615 -21.384 -22.999  1.00  0.00     0.004 C 
ENDBRANCH   7   8
ENDBRANCH   6   7
ENDBRANCH   1   6
TORSDOF 5
ENDMDL
MODEL 2
REMARK VINA RESULT:    -3.252      1.723      2.195
REMARK INTER + INTRA:          -4.556
REMARK INTER:                  -4.491
REMARK INTRA:                  -0.065
REMARK UNBOUND:                -0.353
REMARK SMILES CCCCCCC(=O)[O-]
REMARK SMILES IDX 5 1 6 2 7 3 8 4 9 5 4 6 3 7 2 8 1 9
REMARK H PARENT
REMARK Flexibility Score: inf
ROOT
ATOM      1  C   UNL     1     -29.571 -21.545 -23.054  1.00  0.00     0.006 C 
ENDROOT
BRANCH   1   2
ATOM      2  C   UNL     1     -30.888 -21.060 -23.669  1.00  0.00     0.053 C 
BRANCH   2   3
ATOM      3  C   UNL     1     -30.714 -20.794 -25.132  1.00  0.00     0.041 C 
ATOM      4  O   UNL     1     -30.419 -19.638 -25.535  1.00  0.00    -0.550 OA
ATOM      5  O   UNL     1     -30.927 -21.811 -26.053  1.00  0.00    -0.550 OA
ENDBRANCH   2   3
ENDBRANCH   1   2
BRANCH   1   6
ATOM      6  C   UNL     1     -29.796 -22.102 -21.643  1.00  0.00     0.000 C 
BRANCH   6   7
ATOM      7  C   UNL     1     -28.582 -21.829 -20.744  1.00  0.00    -0.000 C 
BRANCH   7   8
ATOM      8  C   UNL     1     -28.883 -22.064 -19.255  1.00  0.00    -0.003 C 
ATOM      9  C   UNL     1     -27.619 -22.125 -18.399  1.00  0.00     0.004 C 
ENDBRANCH   7   8
ENDBRANCH   6   7
ENDBRANCH   1   6
TORSDOF 5
ENDMDL
MODEL 3
REMARK VINA RESULT:    -2.860      2.305      2.844
REMARK INTER + INTRA:          -4.049
REMARK INTER:                  -3.910
REMARK INTRA:                  -0.139
REMARK UNBOUND:                -0.353
REMARK SMILES CCCCCCC(=O)[O-]
REMARK SMILES IDX 5 1 6 2 7 3 8 4 9 5 4 6 3 7 2 8 1 9
REMARK H PARENT
REMARK Flexibility Score: inf
ROOT
ATOM      1  C   UNL     1     -29.996 -20.102 -24.567  1.00  0.00     0.006 C 
ENDROOT
BRANCH   1   2
ATOM      2  C   UNL     1     -31.506 -20.314 -24.418  1.00  0.00     0.053 C 
BRANCH   2   3
ATOM      3  C   UNL     1     -31.917 -20.161 -22.987  1.00  0.00     0.041 C 
ATOM      4  O   UNL     1     -32.408 -19.075 -22.581  1.00  0.00    -0.550 OA
ATOM      5  O   UNL     1     -31.711 -21.201 -22.090  1.00  0.00    -0.550 OA
ENDBRANCH   2   3
ENDBRANCH   1   2
BRANCH   1   6
ATOM      6  C   UNL     1     -29.224 -21.379 -24.212  1.00  0.00     0.000 C 
BRANCH   6   7
ATOM      7  C   UNL     1     -28.027 -21.063 -23.304  1.00  0.00    -0.000 C 
BRANCH   7   8
ATOM      8  C   UNL     1     -27.817 -22.124 -22.212  1.00  0.00    -0.003 C 
ATOM      9  C   UNL     1     -28.591 -21.815 -20.931  1.00  0.00     0.004 C 
ENDBRANCH   7   8
ENDBRANCH   6   7
ENDBRANCH   1   6
TORSDOF 5
ENDMDL
MODEL 4
REMARK VINA RESULT:    -2.820      1.035      2.374
REMARK INTER + INTRA:          -3.998
REMARK INTER:                  -3.677
REMARK INTRA:                  -0.321
REMARK UNBOUND:                -0.353
REMARK SMILES CCCCCCC(=O)[O-]
REMARK SMILES IDX 5 1 6 2 7 3 8 4 9 5 4 6 3 7 2 8 1 9
REMARK H PARENT
REMARK Flexibility Score: inf
ROOT
ATOM      1  C   UNL     1     -29.087 -21.221 -23.882  1.00  0.00     0.006 C 
ENDROOT
BRANCH   1   2
ATOM      2  C   UNL     1     -30.184 -21.455 -24.926  1.00  0.00     0.053 C 
BRANCH   2   3
ATOM      3  C   UNL     1     -30.372 -20.234 -25.770  1.00  0.00     0.041 C 
ATOM      4  O   UNL     1     -30.326 -19.089 -25.247  1.00  0.00    -0.550 OA
ATOM      5  O   UNL     1     -30.647 -20.362 -27.125  1.00  0.00    -0.550 OA
ENDBRANCH   2   3
ENDBRANCH   1   2
BRANCH   1   6
ATOM      6  C   UNL     1     -29.642 -21.362 -22.460  1.00  0.00     0.000 C 
BRANCH   6   7
ATOM      7  C   UNL     1     -31.127 -21.752 -22.484  1.00  0.00    -0.000 C 
BRANCH   7   8
ATOM      8  C   UNL     1     -32.019 -20.730 -21.763  1.00  0.00    -0.003 C 
ATOM      9  C   UNL     1     -32.359 -19.522 -22.636  1.00  0.00     0.004 C 
ENDBRANCH   7   8
ENDBRANCH   6   7
ENDBRANCH   1   6
TORSDOF 5
ENDMDL
MODEL 5
REMARK VINA RESULT:    -2.643      3.717      4.932
REMARK INTER + INTRA:          -3.768
REMARK INTER:                  -3.622
REMARK INTRA:                  -0.146
REMARK UNBOUND:                -0.353
REMARK SMILES CCCCCCC(=O)[O-]
REMARK SMILES IDX 5 1 6 2 7 3 8 4 9 5 4 6 3 7 2 8 1 9
REMARK H PARENT
REMARK Flexibility Score: inf
ROOT
ATOM      1  C   UNL     1     -30.135 -22.125 -21.593  1.00  0.00     0.006 C 
ENDROOT
BRANCH   1   2
ATOM      2  C   UNL     1     -28.728 -21.661 -21.204  1.00  0.00     0.053 C 
BRANCH   2   3
ATOM      3  C   UNL     1     -28.467 -21.940 -19.757  1.00  0.00     0.041 C 
ATOM      4  O   UNL     1     -27.285 -22.051 -19.337  1.00  0.00    -0.550 OA
ATOM      5  O   UNL     1     -29.529 -22.124 -18.882  1.00  0.00    -0.550 OA
ENDBRANCH   2   3
ENDBRANCH   1   2
BRANCH   1   6
ATOM      6  C   UNL     1     -30.403 -21.883 -23.083  1.00  0.00     0.000 C 
BRANCH   6   7
ATOM      7  C   UNL     1     -31.229 -20.606 -23.293  1.00  0.00    -0.000 C 
BRANCH   7   8
ATOM      8  C   UNL     1     -30.741 -19.776 -24.490  1.00  0.00    -0.003 C 
ATOM      9  C   UNL     1     -30.580 -20.610 -25.761  1.00  0.00     0.004 C 
ENDBRANCH   7   8
ENDBRANCH   6   7
ENDBRANCH   1   6
TORSDOF 5
ENDMDL
MODEL 6
REMARK VINA RESULT:    -2.643      2.636      4.209
REMARK INTER + INTRA:          -3.768
REMARK INTER:                  -3.593
REMARK INTRA:                  -0.175
REMARK UNBOUND:                -0.353
REMARK SMILES CCCCCCC(=O)[O-]
REMARK SMILES IDX 5 1 6 2 7 3 8 4 9 5 4 6 3 7 2 8 1 9
REMARK H PARENT
REMARK Flexibility Score: inf
ROOT
ATOM      1  C   UNL     1     -29.169 -21.049 -24.400  1.00  0.00     0.006 C 
ENDROOT
BRANCH   1   2
ATOM      2  C   UNL     1     -29.497 -21.382 -22.941  1.00  0.00     0.053 C 
BRANCH   2   3
ATOM      3  C   UNL     1     -28.247 -21.706 -22.184  1.00  0.00     0.041 C 
ATOM      4  O   UNL     1     -28.299 -21.950 -20.950  1.00  0.00    -0.550 OA
ATOM      5  O   UNL     1     -27.020 -21.692 -22.833  1.00  0.00    -0.550 OA
ENDBRANCH   2   3
ENDBRANCH   1   2
BRANCH   1   6
ATOM      6  C   UNL     1     -30.112 -19.969 -24.944  1.00  0.00     0.000 C 
BRANCH   6   7
ATOM      7  C   UNL     1     -31.566 -20.257 -24.545  1.00  0.00    -0.000 C 
BRANCH   7   8
ATOM      8  C   UNL     1     -32.185 -19.125 -23.710  1.00  0.00    -0.003 C 
ATOM      9  C   UNL     1     -32.557 -19.569 -22.296  1.00  0.00     0.004 C 
ENDBRANCH   7   8
ENDBRANCH   6   7
ENDBRANCH   1   6
TORSDOF 5
ENDMDL
MODEL 7
REMARK VINA RESULT:    -2.531      4.518      5.978
REMARK INTER + INTRA:          -3.625
REMARK INTER:                  -3.521
REMARK INTRA:                  -0.104
REMARK UNBOUND:                -0.353
REMARK SMILES CCCCCCC(=O)[O-]
REMARK SMILES IDX 5 1 6 2 7 3 8 4 9 5 4 6 3 7 2 8 1 9
REMARK H PARENT
REMARK Flexibility Score: inf
ROOT
ATOM      1  C   UNL     1     -28.208 -21.173 -20.226  1.00  0.00     0.006 C 
ENDROOT
BRANCH   1   2
ATOM      2  C   UNL     1     -28.889 -22.125 -19.238  1.00  0.00     0.053 C 
BRANCH   2   3
ATOM      3  C   UNL     1     -28.202 -22.078 -17.909  1.00  0.00     0.041 C 
ATOM      4  O   UNL     1     -28.876 -22.122 -16.846  1.00  0.00    -0.550 OA
ATOM      5  O   UNL     1     -26.822 -21.937 -17.845  1.00  0.00    -0.550 OA
ENDBRANCH   2   3
ENDBRANCH   1   2
BRANCH   1   6
ATOM      6  C   UNL     1     -28.182 -21.771 -21.638  1.00  0.00     0.000 C 
BRANCH   6   7
ATOM      7  C   UNL     1     -29.564 -21.676 -22.301  1.00  0.00    -0.000 C 
BRANCH   7   8
ATOM      8  C   UNL     1     -29.502 -21.074 -23.713  1.00  0.00    -0.003 C 
ATOM      9  C   UNL     1     -30.876 -20.988 -24.379  1.00  0.00     0.004 C 
ENDBRANCH   7   8
ENDBRANCH   6   7
ENDBRANCH   1   6
TORSDOF 5
ENDMDL
