MODEL 1
REMARK VINA RESULT:    -5.275      0.000      0.000
REMARK INTER + INTRA:          -7.704
REMARK INTER:                  -7.125
REMARK INTRA:                  -0.579
REMARK UNBOUND:                -0.579
REMARK SMILES CC(=O)CCC=C(C)CCC=C(C)C
REMARK SMILES IDX 7 1 6 2 8 3 9 4 10 5 11 6 13 7 12 8 14 9 5 10 4 11 2 12 3 13
REMARK SMILES IDX 1 14
REMARK H PARENT
REMARK Flexibility Score: inf
ROOT
ATOM      1  C   UNL     1     -14.745   3.819  26.907  1.00  0.00    -0.077 C 
ATOM      2  C   UNL     1     -13.947   3.219  27.821  1.00  0.00    -0.028 C 
ATOM      3  C   UNL     1     -15.871   3.079  26.223  1.00  0.00     0.039 C 
ENDROOT
BRANCH   1   4
ATOM      4  C   UNL     1     -14.517   5.279  26.582  1.00  0.00     0.034 C 
BRANCH   4   5
ATOM      5  C   UNL     1     -13.101   5.710  26.979  1.00  0.00     0.032 C 
BRANCH   5   6
ATOM      6  C   UNL     1     -12.422   6.430  25.841  1.00  0.00    -0.028 C 
ATOM      7  C   UNL     1     -10.628   6.952  24.245  1.00  0.00     0.039 C 
ATOM      8  C   UNL     1     -11.196   6.119  25.365  1.00  0.00    -0.080 C 
ATOM      9  C   UNL     1     -10.397   4.957  25.908  1.00  0.00     0.039 C 
ENDBRANCH   5   6
ENDBRANCH   4   5
ENDBRANCH   1   4
BRANCH   2  10
ATOM     10  C   UNL     1     -14.034   1.763  28.204  1.00  0.00     0.035 C 
BRANCH  10  11
ATOM     11  C   UNL     1     -12.652   1.218  28.577  1.00  0.00     0.079 C 
BRANCH  11  12
ATOM     12  C   UNL     1     -12.664  -0.287  28.610  1.00  0.00     0.130 C 
ATOM     13  O   UNL     1     -13.672  -0.872  28.977  1.00  0.00    -0.300 OA
ATOM     14  C   UNL     1     -11.468  -1.089  28.189  1.00  0.00     0.087 C 
ENDBRANCH  11  12
ENDBRANCH  10  11
ENDBRANCH   2  10
TORSDOF 6
ENDMDL
MODEL 2
REMARK VINA RESULT:    -5.081      3.260      4.756
REMARK INTER + INTRA:          -7.442
REMARK INTER:                  -6.918
REMARK INTRA:                  -0.524
REMARK UNBOUND:                -0.579
REMARK SMILES CC(=O)CCC=C(C)CCC=C(C)C
REMARK SMILES IDX 7 1 6 2 8 3 9 4 10 5 11 6 13 7 12 8 14 9 5 10 4 11 2 12 3 13
REMARK SMILES IDX 1 14
REMARK H PARENT
REMARK Flexibility Score: inf
ROOT
ATOM      1  C   UNL     1     -11.754   6.135  25.337  1.00  0.00    -0.077 C 
ATOM      2  C   UNL     1     -11.288   5.108  26.085  1.00  0.00    -0.028 C 
ATOM      3  C   UNL     1     -10.838   6.979  24.482  1.00  0.00     0.039 C 
ENDROOT
BRANCH   1   4
ATOM      4  C   UNL     1     -13.238   6.427  25.339  1.00  0.00     0.034 C 
BRANCH   4   5
ATOM      5  C   UNL     1     -13.648   7.153  26.625  1.00  0.00     0.032 C 
BRANCH   5   6
ATOM      6  C   UNL     1     -14.048   8.577  26.332  1.00  0.00    -0.028 C 
ATOM      7  C   UNL     1     -15.570  10.447  25.860  1.00  0.00     0.039 C 
ATOM      8  C   UNL     1     -15.324   8.998  26.190  1.00  0.00    -0.080 C 
ATOM      9  C   UNL     1     -16.499   8.065  26.371  1.00  0.00     0.039 C 
ENDBRANCH   5   6
ENDBRANCH   4   5
ENDBRANCH   1   4
BRANCH   2  10
ATOM     10  C   UNL     1      -9.831   4.737  26.211  1.00  0.00     0.035 C 
BRANCH  10  11
ATOM     11  C   UNL     1      -9.596   3.300  25.734  1.00  0.00     0.079 C 
BRANCH  11  12
ATOM     12  C   UNL     1      -9.431   2.370  26.907  1.00  0.00     0.130 C 
ATOM     13  O   UNL     1     -10.363   1.656  27.243  1.00  0.00    -0.300 OA
ATOM     14  C   UNL     1      -8.139   2.291  27.667  1.00  0.00     0.087 C 
ENDBRANCH  11  12
ENDBRANCH  10  11
ENDBRANCH   2  10
TORSDOF 6
ENDMDL
MODEL 3
REMARK VINA RESULT:    -5.043      2.292      4.656
REMARK INTER + INTRA:          -7.391
REMARK INTER:                  -6.619
REMARK INTRA:                  -0.773
REMARK UNBOUND:                -0.579
REMARK SMILES CC(=O)CCC=C(C)CCC=C(C)C
REMARK SMILES IDX 7 1 6 2 8 3 9 4 10 5 11 6 13 7 12 8 14 9 5 10 4 11 2 12 3 13
REMARK SMILES IDX 1 14
REMARK H PARENT
REMARK Flexibility Score: inf
ROOT
ATOM      1  C   UNL     1     -11.832   6.223  25.385  1.00  0.00    -0.077 C 
ATOM      2  C   UNL     1     -11.301   5.193  26.082  1.00  0.00    -0.028 C 
ATOM      3  C   UNL     1     -10.988   7.097  24.487  1.00  0.00     0.039 C 
ENDROOT
BRANCH   1   4
ATOM      4  C   UNL     1     -13.318   6.489  25.488  1.00  0.00     0.034 C 
BRANCH   4   5
ATOM      5  C   UNL     1     -13.809   6.279  26.925  1.00  0.00     0.032 C 
BRANCH   5   6
ATOM      6  C   UNL     1     -15.152   5.591  26.936  1.00  0.00    -0.028 C 
ATOM      7  C   UNL     1     -16.727   3.708  27.019  1.00  0.00     0.039 C 
ATOM      8  C   UNL     1     -15.325   4.258  27.063  1.00  0.00    -0.080 C 
ATOM      9  C   UNL     1     -14.161   3.315  27.265  1.00  0.00     0.039 C 
ENDBRANCH   5   6
ENDBRANCH   4   5
ENDBRANCH   1   4
BRANCH   2  10
ATOM     10  C   UNL     1      -9.834   4.845  26.106  1.00  0.00     0.035 C 
BRANCH  10  11
ATOM     11  C   UNL     1      -9.613   3.398  25.655  1.00  0.00     0.079 C 
BRANCH  11  12
ATOM     12  C   UNL     1      -9.504   2.480  26.844  1.00  0.00     0.130 C 
ATOM     13  O   UNL     1     -10.473   1.816  27.180  1.00  0.00    -0.300 OA
ATOM     14  C   UNL     1      -8.227   2.353  27.619  1.00  0.00     0.087 C 
ENDBRANCH  11  12
ENDBRANCH  10  11
ENDBRANCH   2  10
TORSDOF 6
ENDMDL
MODEL 4
REMARK VINA RESULT:    -4.974      3.927      6.613
REMARK INTER + INTRA:          -7.298
REMARK INTER:                  -6.754
REMARK INTRA:                  -0.544
REMARK UNBOUND:                -0.579
REMARK SMILES CC(=O)CCC=C(C)CCC=C(C)C
REMARK SMILES IDX 7 1 6 2 8 3 9 4 10 5 11 6 13 7 12 8 14 9 5 10 4 11 2 12 3 13
REMARK SMILES IDX 1 14
REMARK H PARENT
REMARK Flexibility Score: inf
ROOT
ATOM      1  C   UNL     1     -12.051   5.633  26.173  1.00  0.00    -0.077 C 
ATOM      2  C   UNL     1     -12.572   6.790  25.704  1.00  0.00    -0.028 C 
ATOM      3  C   UNL     1     -12.927   4.522  26.704  1.00  0.00     0.039 C 
ENDROOT
BRANCH   1   4
ATOM      4  C   UNL     1     -10.552   5.438  26.140  1.00  0.00     0.034 C 
BRANCH   4   5
ATOM      5  C   UNL     1     -10.197   4.013  25.700  1.00  0.00     0.032 C 
BRANCH   5   6
ATOM      6  C   UNL     1      -9.006   3.497  26.468  1.00  0.00    -0.028 C 
ATOM      7  C   UNL     1      -7.762   2.017  27.985  1.00  0.00     0.039 C 
ATOM      8  C   UNL     1      -9.021   2.392  27.246  1.00  0.00    -0.080 C 
ATOM      9  C   UNL     1     -10.249   1.522  27.378  1.00  0.00     0.039 C 
ENDBRANCH   5   6
ENDBRANCH   4   5
ENDBRANCH   1   4
BRANCH   2  10
ATOM     10  C   UNL     1     -14.041   7.132  25.719  1.00  0.00     0.035 C 
BRANCH  10  11
ATOM     11  C   UNL     1     -14.258   8.560  26.228  1.00  0.00     0.079 C 
BRANCH  11  12
ATOM     12  C   UNL     1     -15.727   8.884  26.295  1.00  0.00     0.130 C 
ATOM     13  O   UNL     1     -16.098  10.033  26.106  1.00  0.00    -0.300 OA
ATOM     14  C   UNL     1     -16.750   7.824  26.577  1.00  0.00     0.087 C 
ENDBRANCH  11  12
ENDBRANCH  10  11
ENDBRANCH   2  10
TORSDOF 6
ENDMDL
MODEL 5
REMARK VINA RESULT:    -4.971      1.991      4.263
REMARK INTER + INTRA:          -7.294
REMARK INTER:                  -6.582
REMARK INTRA:                  -0.712
REMARK UNBOUND:                -0.579
REMARK SMILES CC(=O)CCC=C(C)CCC=C(C)C
REMARK SMILES IDX 7 1 6 2 8 3 9 4 10 5 11 6 13 7 12 8 14 9 5 10 4 11 2 12 3 13
REMARK SMILES IDX 1 14
REMARK H PARENT
REMARK Flexibility Score: inf
ROOT
ATOM      1  C   UNL     1     -12.170   5.786  26.087  1.00  0.00    -0.077 C 
ATOM      2  C   UNL     1     -12.984   4.987  26.816  1.00  0.00    -0.028 C 
ATOM      3  C   UNL     1     -12.713   6.879  25.199  1.00  0.00     0.039 C 
ENDROOT
BRANCH   1   4
ATOM      4  C   UNL     1     -10.673   5.592  26.188  1.00  0.00     0.034 C 
BRANCH   4   5
ATOM      5  C   UNL     1     -10.253   4.260  25.557  1.00  0.00     0.032 C 
BRANCH   5   6
ATOM      6  C   UNL     1      -9.086   3.660  26.300  1.00  0.00    -0.028 C 
ATOM      7  C   UNL     1      -7.918   2.094  27.791  1.00  0.00     0.039 C 
ATOM      8  C   UNL     1      -9.162   2.558  27.078  1.00  0.00    -0.080 C 
ATOM      9  C   UNL     1     -10.446   1.776  27.235  1.00  0.00     0.039 C 
ENDBRANCH   5   6
ENDBRANCH   4   5
ENDBRANCH   1   4
BRANCH   2  10
ATOM     10  C   UNL     1     -14.490   5.041  26.776  1.00  0.00     0.035 C 
BRANCH  10  11
ATOM     11  C   UNL     1     -15.071   3.677  26.393  1.00  0.00     0.079 C 
BRANCH  11  12
ATOM     12  C   UNL     1     -15.113   2.761  27.587  1.00  0.00     0.130 C 
ATOM     13  O   UNL     1     -14.836   1.579  27.448  1.00  0.00    -0.300 OA
ATOM     14  C   UNL     1     -15.476   3.269  28.951  1.00  0.00     0.087 C 
ENDBRANCH  11  12
ENDBRANCH  10  11
ENDBRANCH   2  10
TORSDOF 6
ENDMDL
MODEL 6
REMARK VINA RESULT:    -4.886      1.038      1.677
REMARK INTER + INTRA:          -7.178
REMARK INTER:                  -6.667
REMARK INTRA:                  -0.511
REMARK UNBOUND:                -0.579
REMARK SMILES CC(=O)CCC=C(C)CCC=C(C)C
REMARK SMILES IDX 7 1 6 2 8 3 9 4 10 5 11 6 13 7 12 8 14 9 5 10 4 11 2 12 3 13
REMARK SMILES IDX 1 14
REMARK H PARENT
REMARK Flexibility Score: inf
ROOT
ATOM      1  C   UNL     1     -14.675   4.011  27.535  1.00  0.00    -0.077 C 
ATOM      2  C   UNL     1     -14.455   2.706  27.254  1.00  0.00    -0.028 C 
ATOM      3  C   UNL     1     -14.860   4.500  28.952  1.00  0.00     0.039 C 
ENDROOT
BRANCH   1   4
ATOM      4  C   UNL     1     -14.709   5.010  26.400  1.00  0.00     0.034 C 
BRANCH   4   5
ATOM      5  C   UNL     1     -13.509   5.961  26.475  1.00  0.00     0.032 C 
BRANCH   5   6
ATOM      6  C   UNL     1     -12.214   5.188  26.501  1.00  0.00    -0.028 C 
ATOM      7  C   UNL     1      -9.901   4.630  25.888  1.00  0.00     0.039 C 
ATOM      8  C   UNL     1     -11.114   5.520  25.792  1.00  0.00    -0.080 C 
ATOM      9  C   UNL     1     -11.062   6.759  24.928  1.00  0.00     0.039 C 
ENDBRANCH   5   6
ENDBRANCH   4   5
ENDBRANCH   1   4
BRANCH   2  10
ATOM     10  C   UNL     1     -14.441   1.602  28.281  1.00  0.00     0.035 C 
BRANCH  10  11
ATOM     11  C   UNL     1     -13.004   1.254  28.683  1.00  0.00     0.079 C 
BRANCH  11  12
ATOM     12  C   UNL     1     -12.861  -0.226  28.920  1.00  0.00     0.130 C 
ATOM     13  O   UNL     1     -12.204  -0.898  28.140  1.00  0.00    -0.300 OA
ATOM     14  C   UNL     1     -13.497  -0.894  30.103  1.00  0.00     0.087 C 
ENDBRANCH  11  12
ENDBRANCH  10  11
ENDBRANCH   2  10
TORSDOF 6
ENDMDL
MODEL 7
REMARK VINA RESULT:    -4.784      1.592      1.827
REMARK INTER + INTRA:          -7.041
REMARK INTER:                  -6.318
REMARK INTRA:                  -0.723
REMARK UNBOUND:                -0.579
REMARK SMILES CC(=O)CCC=C(C)CCC=C(C)C
REMARK SMILES IDX 7 1 6 2 8 3 9 4 10 5 11 6 13 7 12 8 14 9 5 10 4 11 2 12 3 13
REMARK SMILES IDX 1 14
REMARK H PARENT
REMARK Flexibility Score: inf
ROOT
ATOM      1  C   UNL     1     -14.793   3.935  26.885  1.00  0.00    -0.077 C 
ATOM      2  C   UNL     1     -14.060   3.229  27.776  1.00  0.00    -0.028 C 
ATOM      3  C   UNL     1     -15.817   3.273  25.993  1.00  0.00     0.039 C 
ENDROOT
BRANCH   1   4
ATOM      4  C   UNL     1     -14.599   5.433  26.799  1.00  0.00     0.034 C 
BRANCH   4   5
ATOM      5  C   UNL     1     -13.153   5.814  27.138  1.00  0.00     0.032 C 
BRANCH   5   6
ATOM      6  C   UNL     1     -12.489   6.488  25.964  1.00  0.00    -0.028 C 
ATOM      7  C   UNL     1     -10.728   6.926  24.307  1.00  0.00     0.039 C 
ATOM      8  C   UNL     1     -11.285   6.136  25.463  1.00  0.00    -0.080 C 
ATOM      9  C   UNL     1     -10.498   4.969  26.015  1.00  0.00     0.039 C 
ENDBRANCH   5   6
ENDBRANCH   4   5
ENDBRANCH   1   4
BRANCH   2  10
ATOM     10  C   UNL     1     -14.120   1.730  27.934  1.00  0.00     0.035 C 
BRANCH  10  11
ATOM     11  C   UNL     1     -15.205   1.335  28.940  1.00  0.00     0.079 C 
BRANCH  11  12
ATOM     12  C   UNL     1     -15.946   0.111  28.470  1.00  0.00     0.130 C 
ATOM     13  O   UNL     1     -16.870  -0.325  29.140  1.00  0.00    -0.300 OA
ATOM     14  C   UNL     1     -15.582  -0.580  27.190  1.00  0.00     0.087 C 
ENDBRANCH  11  12
ENDBRANCH  10  11
ENDBRANCH   2  10
TORSDOF 6
ENDMDL
MODEL 8
REMARK VINA RESULT:    -4.776      3.264      5.232
REMARK INTER + INTRA:          -7.030
REMARK INTER:                  -6.229
REMARK INTRA:                  -0.801
REMARK UNBOUND:                -0.579
REMARK SMILES CC(=O)CCC=C(C)CCC=C(C)C
REMARK SMILES IDX 7 1 6 2 8 3 9 4 10 5 11 6 13 7 12 8 14 9 5 10 4 11 2 12 3 13
REMARK SMILES IDX 1 14
REMARK H PARENT
REMARK Flexibility Score: inf
ROOT
ATOM      1  C   UNL     1     -13.894   5.007  27.444  1.00  0.00    -0.077 C 
ATOM      2  C   UNL     1     -13.220   6.017  26.848  1.00  0.00    -0.028 C 
ATOM      3  C   UNL     1     -13.595   3.558  27.137  1.00  0.00     0.039 C 
ENDROOT
BRANCH   1   4
ATOM      4  C   UNL     1     -14.960   5.339  28.464  1.00  0.00     0.034 C 
BRANCH   4   5
ATOM      5  C   UNL     1     -16.201   5.927  27.783  1.00  0.00     0.032 C 
BRANCH   5   6
ATOM      6  C   UNL     1     -16.466   7.329  28.272  1.00  0.00    -0.028 C 
ATOM      7  C   UNL     1     -16.629   9.777  28.140  1.00  0.00     0.039 C 
ATOM      8  C   UNL     1     -16.370   8.436  27.504  1.00  0.00    -0.080 C 
ATOM      9  C   UNL     1     -16.031   8.362  26.033  1.00  0.00     0.039 C 
ENDBRANCH   5   6
ENDBRANCH   4   5
ENDBRANCH   1   4
BRANCH   2  10
ATOM     10  C   UNL     1     -12.168   5.830  25.783  1.00  0.00     0.035 C 
BRANCH  10  11
ATOM     11  C   UNL     1     -10.785   5.646  26.414  1.00  0.00     0.079 C 
BRANCH  11  12
ATOM     12  C   UNL     1      -9.989   4.613  25.661  1.00  0.00     0.130 C 
ATOM     13  O   UNL     1      -9.602   4.862  24.529  1.00  0.00    -0.300 OA
ATOM     14  C   UNL     1      -9.649   3.287  26.274  1.00  0.00     0.087 C 
ENDBRANCH  11  12
ENDBRANCH  10  11
ENDBRANCH   2  10
TORSDOF 6
ENDMDL
MODEL 9
REMARK VINA RESULT:    -4.760      2.845      5.413
REMARK INTER + INTRA:          -7.008
REMARK INTER:                  -6.210
REMARK INTRA:                  -0.799
REMARK UNBOUND:                -0.579
REMARK SMILES CC(=O)CCC=C(C)CCC=C(C)C
REMARK SMILES IDX 7 1 6 2 8 3 9 4 10 5 11 6 13 7 12 8 14 9 5 10 4 11 2 12 3 13
REMARK SMILES IDX 1 14
REMARK H PARENT
REMARK Flexibility Score: inf
ROOT
ATOM      1  C   UNL     1     -14.307   6.145  26.700  1.00  0.00    -0.077 C 
ATOM      2  C   UNL     1     -13.207   5.440  26.348  1.00  0.00    -0.028 C 
ATOM      3  C   UNL     1     -14.467   7.604  26.344  1.00  0.00     0.039 C 
ENDROOT
BRANCH   1   4
ATOM      4  C   UNL     1     -15.418   5.443  27.449  1.00  0.00     0.034 C 
BRANCH   4   5
ATOM      5  C   UNL     1     -14.887   4.804  28.737  1.00  0.00     0.032 C 
BRANCH   5   6
ATOM      6  C   UNL     1     -15.500   3.443  28.952  1.00  0.00    -0.028 C 
ATOM      7  C   UNL     1     -15.617   0.989  28.950  1.00  0.00     0.039 C 
ATOM      8  C   UNL     1     -14.863   2.274  28.725  1.00  0.00    -0.080 C 
ATOM      9  C   UNL     1     -13.421   2.223  28.274  1.00  0.00     0.039 C 
ENDBRANCH   5   6
ENDBRANCH   4   5
ENDBRANCH   1   4
BRANCH   2  10
ATOM     10  C   UNL     1     -12.010   6.024  25.642  1.00  0.00     0.035 C 
BRANCH  10  11
ATOM     11  C   UNL     1     -10.716   5.654  26.374  1.00  0.00     0.079 C 
BRANCH  11  12
ATOM     12  C   UNL     1      -9.953   4.605  25.610  1.00  0.00     0.130 C 
ATOM     13  O   UNL     1      -9.591   4.838  24.467  1.00  0.00    -0.300 OA
ATOM     14  C   UNL     1      -9.615   3.279  26.227  1.00  0.00     0.087 C 
ENDBRANCH  11  12
ENDBRANCH  10  11
ENDBRANCH   2  10
TORSDOF 6
ENDMDL
