MODEL 1
REMARK VINA RESULT:    -4.811      0.000      0.000
REMARK INTER + INTRA:          -5.790
REMARK INTER:                  -5.514
REMARK INTRA:                  -0.276
REMARK UNBOUND:                -0.276
REMARK SMILES O=c1c(-c2ccc(O)cc2)coc2c(O)c(O)ccc12
REMARK SMILES IDX 3 1 11 2 12 3 13 4 20 5 2 6 1 7 19 8 18 9 16 10 14 11 4 12
REMARK SMILES IDX 5 13 6 14 7 15 10 16 9 17 8 18 15 20 17 22
REMARK H PARENT 8 19 15 21 17 23
REMARK Flexibility Score: inf
ROOT
ATOM      1  C   UNL     1      58.201  41.980 124.236  1.00  0.00     0.065 A 
ATOM      2  C   UNL     1      58.986  40.981 124.831  1.00  0.00     0.208 A 
ATOM      3  O   UNL     1      58.597  39.712 124.821  1.00  0.00    -0.459 OA
ATOM      4  C   UNL     1      57.463  39.308 124.259  1.00  0.00     0.183 A 
ATOM      5  C   UNL     1      56.610  40.245 123.632  1.00  0.00     0.069 A 
ATOM      6  C   UNL     1      56.995  41.598 123.618  1.00  0.00     0.200 A 
ATOM      7  O   UNL     1      56.275  42.459 123.041  1.00  0.00    -0.288 OA
ATOM      8  C   UNL     1      55.415  39.805 123.036  1.00  0.00     0.020 A 
ATOM      9  C   UNL     1      55.072  38.452 123.069  1.00  0.00     0.051 A 
ATOM     10  C   UNL     1      55.911  37.521 123.689  1.00  0.00     0.161 A 
ATOM     11  C   UNL     1      57.111  37.946 124.288  1.00  0.00     0.201 A 
ENDROOT
BRANCH   1  12
ATOM     12  C   UNL     1      58.653  43.394 124.267  1.00  0.00    -0.011 A 
ATOM     13  C   UNL     1      59.401  43.923 123.198  1.00  0.00     0.013 A 
ATOM     14  C   UNL     1      59.835  45.251 123.228  1.00  0.00     0.047 A 
ATOM     15  C   UNL     1      59.535  46.066 124.325  1.00  0.00     0.115 A 
ATOM     16  C   UNL     1      58.361  44.218 125.369  1.00  0.00     0.013 A 
ATOM     17  C   UNL     1      58.798  45.546 125.395  1.00  0.00     0.047 A 
BRANCH  15  18
ATOM     18  O   UNL     1      59.975  47.387 124.339  1.00  0.00    -0.508 OA
ATOM     19  H   UNL     1      59.473  48.118 123.848  1.00  0.00     0.293 HD
ENDBRANCH  15  18
ENDBRANCH   1  12
BRANCH  11  20
ATOM     20  O   UNL     1      57.942  37.008 124.904  1.00  0.00    -0.502 OA
ATOM     21  H   UNL     1      58.918  37.196 125.097  1.00  0.00     0.293 HD
ENDBRANCH  11  20
BRANCH  10  22
ATOM     22  O   UNL     1      55.536  36.178 123.702  1.00  0.00    -0.504 OA
ATOM     23  H   UNL     1      55.811  35.549 124.446  1.00  0.00     0.293 HD
ENDBRANCH  10  22
TORSDOF 4
ENDMDL
MODEL 2
REMARK VINA RESULT:    -4.733     14.355     15.788
REMARK INTER + INTRA:          -5.701
REMARK INTER:                  -5.426
REMARK INTRA:                  -0.275
REMARK UNBOUND:                -0.276
REMARK SMILES O=c1c(-c2ccc(O)cc2)coc2c(O)c(O)ccc12
REMARK SMILES IDX 3 1 11 2 12 3 13 4 20 5 2 6 1 7 19 8 18 9 16 10 14 11 4 12
REMARK SMILES IDX 5 13 6 14 7 15 10 16 9 17 8 18 15 20 17 22
REMARK H PARENT 8 19 15 21 17 23
REMARK Flexibility Score: inf
ROOT
ATOM      1  C   UNL     1      48.984  37.730 135.913  1.00  0.00     0.065 A 
ATOM      2  C   UNL     1      48.053  38.669 136.381  1.00  0.00     0.208 A 
ATOM      3  O   UNL     1      46.854  38.777 135.822  1.00  0.00    -0.459 OA
ATOM      4  C   UNL     1      46.460  38.021 134.803  1.00  0.00     0.183 A 
ATOM      5  C   UNL     1      47.332  37.044 134.268  1.00  0.00     0.069 A 
ATOM      6  C   UNL     1      48.607  36.898 134.841  1.00  0.00     0.200 A 
ATOM      7  O   UNL     1      49.402  36.016 134.411  1.00  0.00    -0.288 OA
ATOM      8  C   UNL     1      46.902  36.247 133.193  1.00  0.00     0.020 A 
ATOM      9  C   UNL     1      45.625  36.422 132.655  1.00  0.00     0.051 A 
ATOM     10  C   UNL     1      44.761  37.387 133.179  1.00  0.00     0.161 A 
ATOM     11  C   UNL     1      45.175  38.192 134.256  1.00  0.00     0.201 A 
ENDROOT
BRANCH   1  12
ATOM     12  C   UNL     1      50.322  37.632 136.549  1.00  0.00    -0.011 A 
ATOM     13  C   UNL     1      50.495  36.877 137.724  1.00  0.00     0.013 A 
ATOM     14  C   UNL     1      51.751  36.790 138.331  1.00  0.00     0.047 A 
ATOM     15  C   UNL     1      52.848  37.459 137.777  1.00  0.00     0.115 A 
ATOM     16  C   UNL     1      51.428  38.307 136.003  1.00  0.00     0.013 A 
ATOM     17  C   UNL     1      52.683  38.218 136.612  1.00  0.00     0.047 A 
BRANCH  15  18
ATOM     18  O   UNL     1      54.093  37.362 138.394  1.00  0.00    -0.508 OA
ATOM     19  H   UNL     1      54.550  36.467 138.527  1.00  0.00     0.293 HD
ENDBRANCH  15  18
ENDBRANCH   1  12
BRANCH  11  20
ATOM     20  O   UNL     1      44.303  39.153 134.772  1.00  0.00    -0.502 OA
ATOM     21  H   UNL     1      44.008  39.149 135.740  1.00  0.00     0.293 HD
ENDBRANCH  11  20
BRANCH  10  22
ATOM     22  O   UNL     1      43.493  37.534 132.617  1.00  0.00    -0.504 OA
ATOM     23  H   UNL     1      42.757  36.855 132.762  1.00  0.00     0.293 HD
ENDBRANCH  10  22
TORSDOF 4
ENDMDL
MODEL 3
REMARK VINA RESULT:    -4.429      1.911      7.705
REMARK INTER + INTRA:          -5.352
REMARK INTER:                  -5.068
REMARK INTRA:                  -0.285
REMARK UNBOUND:                -0.276
REMARK SMILES O=c1c(-c2ccc(O)cc2)coc2c(O)c(O)ccc12
REMARK SMILES IDX 3 1 11 2 12 3 13 4 20 5 2 6 1 7 19 8 18 9 16 10 14 11 4 12
REMARK SMILES IDX 5 13 6 14 7 15 10 16 9 17 8 18 15 20 17 22
REMARK H PARENT 8 19 15 21 17 23
REMARK Flexibility Score: inf
ROOT
ATOM      1  C   UNL     1      58.800  43.681 124.676  1.00  0.00     0.065 A 
ATOM      2  C   UNL     1      58.009  44.464 125.530  1.00  0.00     0.208 A 
ATOM      3  O   UNL     1      58.190  45.776 125.616  1.00  0.00    -0.459 OA
ATOM      4  C   UNL     1      59.112  46.426 124.914  1.00  0.00     0.183 A 
ATOM      5  C   UNL     1      59.953  45.719 124.023  1.00  0.00     0.069 A 
ATOM      6  C   UNL     1      59.784  44.329 123.903  1.00  0.00     0.200 A 
ATOM      7  O   UNL     1      60.494  43.668 123.095  1.00  0.00    -0.288 OA
ATOM      8  C   UNL     1      60.921  46.419 123.282  1.00  0.00     0.020 A 
ATOM      9  C   UNL     1      61.053  47.801 123.429  1.00  0.00     0.051 A 
ATOM     10  C   UNL     1      60.226  48.504 124.309  1.00  0.00     0.161 A 
ATOM     11  C   UNL     1      59.251  47.819 125.056  1.00  0.00     0.201 A 
ENDROOT
BRANCH   1  12
ATOM     12  C   UNL     1      58.584  42.214 124.603  1.00  0.00    -0.011 A 
ATOM     13  C   UNL     1      57.665  41.678 123.682  1.00  0.00     0.013 A 
ATOM     14  C   UNL     1      57.453  40.298 123.617  1.00  0.00     0.047 A 
ATOM     15  C   UNL     1      58.150  39.437 124.471  1.00  0.00     0.115 A 
ATOM     16  C   UNL     1      59.276  41.343 125.463  1.00  0.00     0.013 A 
ATOM     17  C   UNL     1      59.061  39.963 125.395  1.00  0.00     0.047 A 
BRANCH  15  18
ATOM     18  O   UNL     1      57.928  38.064 124.394  1.00  0.00    -0.508 OA
ATOM     19  H   UNL     1      58.212  37.527 123.582  1.00  0.00     0.293 HD
ENDBRANCH  15  18
ENDBRANCH   1  12
BRANCH  11  20
ATOM     20  O   UNL     1      58.429  48.531 125.933  1.00  0.00    -0.502 OA
ATOM     21  H   UNL     1      57.483  48.798 125.690  1.00  0.00     0.293 HD
ENDBRANCH  11  20
BRANCH  10  22
ATOM     22  O   UNL     1      60.387  49.884 124.430  1.00  0.00    -0.504 OA
ATOM     23  H   UNL     1      61.233  50.298 124.802  1.00  0.00     0.293 HD
ENDBRANCH  10  22
TORSDOF 4
ENDMDL
MODEL 4
REMARK VINA RESULT:    -4.293      4.091      8.327
REMARK INTER + INTRA:          -5.196
REMARK INTER:                  -4.925
REMARK INTRA:                  -0.271
REMARK UNBOUND:                -0.276
REMARK SMILES O=c1c(-c2ccc(O)cc2)coc2c(O)c(O)ccc12
REMARK SMILES IDX 3 1 11 2 12 3 13 4 20 5 2 6 1 7 19 8 18 9 16 10 14 11 4 12
REMARK SMILES IDX 5 13 6 14 7 15 10 16 9 17 8 18 15 20 17 22
REMARK H PARENT 8 19 15 21 17 23
REMARK Flexibility Score: inf
ROOT
ATOM      1  C   UNL     1      52.473  37.919 123.805  1.00  0.00     0.065 A 
ATOM      2  C   UNL     1      53.339  36.880 123.431  1.00  0.00     0.208 A 
ATOM      3  O   UNL     1      54.638  37.099 123.273  1.00  0.00    -0.459 OA
ATOM      4  C   UNL     1      55.198  38.291 123.453  1.00  0.00     0.183 A 
ATOM      5  C   UNL     1      54.403  39.396 123.835  1.00  0.00     0.069 A 
ATOM      6  C   UNL     1      53.023  39.198 124.018  1.00  0.00     0.200 A 
ATOM      7  O   UNL     1      52.285  40.153 124.389  1.00  0.00    -0.288 OA
ATOM      8  C   UNL     1      55.007  40.651 124.028  1.00  0.00     0.020 A 
ATOM      9  C   UNL     1      56.382  40.804 123.840  1.00  0.00     0.051 A 
ATOM     10  C   UNL     1      57.172  39.715 123.460  1.00  0.00     0.161 A 
ATOM     11  C   UNL     1      56.583  38.452 123.265  1.00  0.00     0.201 A 
ENDROOT
BRANCH   1  12
ATOM     12  C   UNL     1      51.022  37.651 123.968  1.00  0.00    -0.011 A 
ATOM     13  C   UNL     1      50.127  37.926 122.917  1.00  0.00     0.013 A 
ATOM     14  C   UNL     1      48.759  37.683 123.071  1.00  0.00     0.047 A 
ATOM     15  C   UNL     1      48.266  37.169 124.274  1.00  0.00     0.115 A 
ATOM     16  C   UNL     1      50.517  37.140 125.178  1.00  0.00     0.013 A 
ATOM     17  C   UNL     1      49.149  36.899 125.328  1.00  0.00     0.047 A 
BRANCH  15  18
ATOM     18  O   UNL     1      46.900  36.932 124.412  1.00  0.00    -0.508 OA
ATOM     19  H   UNL     1      46.340  36.600 123.635  1.00  0.00     0.293 HD
ENDBRANCH  15  18
ENDBRANCH   1  12
BRANCH  11  20
ATOM     20  O   UNL     1      57.381  37.371 122.887  1.00  0.00    -0.502 OA
ATOM     21  H   UNL     1      57.446  37.057 121.927  1.00  0.00     0.293 HD
ENDBRANCH  11  20
BRANCH  10  22
ATOM     22  O   UNL     1      58.542  39.905 123.281  1.00  0.00    -0.504 OA
ATOM     23  H   UNL     1      59.228  39.254 123.641  1.00  0.00     0.293 HD
ENDBRANCH  10  22
TORSDOF 4
ENDMDL
MODEL 5
REMARK VINA RESULT:    -4.250     14.617     15.866
REMARK INTER + INTRA:          -5.147
REMARK INTER:                  -4.890
REMARK INTRA:                  -0.257
REMARK UNBOUND:                -0.276
REMARK SMILES O=c1c(-c2ccc(O)cc2)coc2c(O)c(O)ccc12
REMARK SMILES IDX 3 1 11 2 12 3 13 4 20 5 2 6 1 7 19 8 18 9 16 10 14 11 4 12
REMARK SMILES IDX 5 13 6 14 7 15 10 16 9 17 8 18 15 20 17 22
REMARK H PARENT 8 19 15 21 17 23
REMARK Flexibility Score: inf
ROOT
ATOM      1  C   UNL     1      48.398  37.161 135.148  1.00  0.00     0.065 A 
ATOM      2  C   UNL     1      48.334  36.205 134.124  1.00  0.00     0.208 A 
ATOM      3  O   UNL     1      47.288  36.148 133.308  1.00  0.00    -0.459 OA
ATOM      4  C   UNL     1      46.253  36.976 133.401  1.00  0.00     0.183 A 
ATOM      5  C   UNL     1      46.233  37.975 134.401  1.00  0.00     0.069 A 
ATOM      6  C   UNL     1      47.327  38.067 135.279  1.00  0.00     0.200 A 
ATOM      7  O   UNL     1      47.360  38.966 136.165  1.00  0.00    -0.288 OA
ATOM      8  C   UNL     1      45.134  38.848 134.487  1.00  0.00     0.020 A 
ATOM      9  C   UNL     1      44.068  38.725 133.593  1.00  0.00     0.051 A 
ATOM     10  C   UNL     1      44.082  37.737 132.603  1.00  0.00     0.161 A 
ATOM     11  C   UNL     1      45.176  36.857 132.503  1.00  0.00     0.201 A 
ENDROOT
BRANCH   1  12
ATOM     12  C   UNL     1      49.574  37.200 136.053  1.00  0.00    -0.011 A 
ATOM     13  C   UNL     1      50.773  37.802 135.632  1.00  0.00     0.013 A 
ATOM     14  C   UNL     1      51.885  37.832 136.479  1.00  0.00     0.047 A 
ATOM     15  C   UNL     1      51.816  37.258 137.752  1.00  0.00     0.115 A 
ATOM     16  C   UNL     1      49.514  36.619 137.333  1.00  0.00     0.013 A 
ATOM     17  C   UNL     1      50.628  36.651 138.177  1.00  0.00     0.047 A 
BRANCH  15  18
ATOM     18  O   UNL     1      52.933  37.296 138.584  1.00  0.00    -0.508 OA
ATOM     19  H   UNL     1      52.966  36.770 139.450  1.00  0.00     0.293 HD
ENDBRANCH  15  18
ENDBRANCH   1  12
BRANCH  11  20
ATOM     20  O   UNL     1      45.180  35.875 131.511  1.00  0.00    -0.502 OA
ATOM     21  H   UNL     1      44.326  35.474 131.144  1.00  0.00     0.293 HD
ENDBRANCH  11  20
BRANCH  10  22
ATOM     22  O   UNL     1      43.001  37.644 131.728  1.00  0.00    -0.504 OA
ATOM     23  H   UNL     1      42.427  36.812 131.667  1.00  0.00     0.293 HD
ENDBRANCH  10  22
TORSDOF 4
ENDMDL
MODEL 6
REMARK VINA RESULT:    -4.195      1.673      7.147
REMARK INTER + INTRA:          -5.084
REMARK INTER:                  -4.801
REMARK INTRA:                  -0.283
REMARK UNBOUND:                -0.276
REMARK SMILES O=c1c(-c2ccc(O)cc2)coc2c(O)c(O)ccc12
REMARK SMILES IDX 3 1 11 2 12 3 13 4 20 5 2 6 1 7 19 8 18 9 16 10 14 11 4 12
REMARK SMILES IDX 5 13 6 14 7 15 10 16 9 17 8 18 15 20 17 22
REMARK H PARENT 8 19 15 21 17 23
REMARK Flexibility Score: inf
ROOT
ATOM      1  C   UNL     1      57.668  42.256 124.616  1.00  0.00     0.065 A 
ATOM      2  C   UNL     1      56.977  42.800 125.709  1.00  0.00     0.208 A 
ATOM      3  O   UNL     1      57.215  44.041 126.117  1.00  0.00    -0.459 OA
ATOM      4  C   UNL     1      58.104  44.836 125.532  1.00  0.00     0.183 A 
ATOM      5  C   UNL     1      58.844  44.374 124.420  1.00  0.00     0.069 A 
ATOM      6  C   UNL     1      58.613  43.066 123.957  1.00  0.00     0.200 A 
ATOM      7  O   UNL     1      59.232  42.628 122.948  1.00  0.00    -0.288 OA
ATOM      8  C   UNL     1      59.779  45.226 123.806  1.00  0.00     0.020 A 
ATOM      9  C   UNL     1      59.976  46.519 124.295  1.00  0.00     0.051 A 
ATOM     10  C   UNL     1      59.247  46.981 125.395  1.00  0.00     0.161 A 
ATOM     11  C   UNL     1      58.308  46.141 126.019  1.00  0.00     0.201 A 
ENDROOT
BRANCH   1  12
ATOM     12  C   UNL     1      57.390  40.863 124.183  1.00  0.00    -0.011 A 
ATOM     13  C   UNL     1      56.343  40.597 123.282  1.00  0.00     0.013 A 
ATOM     14  C   UNL     1      56.073  39.286 122.879  1.00  0.00     0.047 A 
ATOM     15  C   UNL     1      56.839  38.225 123.373  1.00  0.00     0.115 A 
ATOM     16  C   UNL     1      58.152  39.791 124.681  1.00  0.00     0.013 A 
ATOM     17  C   UNL     1      57.879  38.481 124.276  1.00  0.00     0.047 A 
BRANCH  15  18
ATOM     18  O   UNL     1      56.558  36.924 122.962  1.00  0.00    -0.508 OA
ATOM     19  H   UNL     1      56.523  36.156 123.623  1.00  0.00     0.293 HD
ENDBRANCH  15  18
ENDBRANCH   1  12
BRANCH  11  20
ATOM     20  O   UNL     1      57.585  46.612 127.117  1.00  0.00    -0.502 OA
ATOM     21  H   UNL     1      56.919  46.034 127.614  1.00  0.00     0.293 HD
ENDBRANCH  11  20
BRANCH  10  22
ATOM     22  O   UNL     1      59.471  48.278 125.856  1.00  0.00    -0.504 OA
ATOM     23  H   UNL     1      59.661  48.479 126.830  1.00  0.00     0.293 HD
ENDBRANCH  10  22
TORSDOF 4
ENDMDL
MODEL 7
REMARK VINA RESULT:    -4.151      3.888      7.405
REMARK INTER + INTRA:          -5.034
REMARK INTER:                  -4.829
REMARK INTRA:                  -0.204
REMARK UNBOUND:                -0.276
REMARK SMILES O=c1c(-c2ccc(O)cc2)coc2c(O)c(O)ccc12
REMARK SMILES IDX 3 1 11 2 12 3 13 4 20 5 2 6 1 7 19 8 18 9 16 10 14 11 4 12
REMARK SMILES IDX 5 13 6 14 7 15 10 16 9 17 8 18 15 20 17 22
REMARK H PARENT 8 19 15 21 17 23
REMARK Flexibility Score: inf
ROOT
ATOM      1  C   UNL     1      54.824  42.239 124.163  1.00  0.00     0.065 A 
ATOM      2  C   UNL     1      54.139  42.959 123.172  1.00  0.00     0.208 A 
ATOM      3  O   UNL     1      53.541  44.110 123.456  1.00  0.00    -0.459 OA
ATOM      4  C   UNL     1      53.550  44.649 124.670  1.00  0.00     0.183 A 
ATOM      5  C   UNL     1      54.221  43.996 125.730  1.00  0.00     0.069 A 
ATOM      6  C   UNL     1      54.870  42.778 125.463  1.00  0.00     0.200 A 
ATOM      7  O   UNL     1      55.505  42.181 126.376  1.00  0.00    -0.288 OA
ATOM      8  C   UNL     1      54.228  44.579 127.010  1.00  0.00     0.020 A 
ATOM      9  C   UNL     1      53.574  45.792 127.231  1.00  0.00     0.051 A 
ATOM     10  C   UNL     1      52.908  46.442 126.187  1.00  0.00     0.161 A 
ATOM     11  C   UNL     1      52.893  45.872 124.901  1.00  0.00     0.201 A 
ENDROOT
BRANCH   1  12
ATOM     12  C   UNL     1      55.478  40.951 123.823  1.00  0.00    -0.011 A 
ATOM     13  C   UNL     1      54.705  39.788 123.646  1.00  0.00     0.013 A 
ATOM     14  C   UNL     1      55.319  38.571 123.334  1.00  0.00     0.047 A 
ATOM     15  C   UNL     1      56.709  38.498 123.201  1.00  0.00     0.115 A 
ATOM     16  C   UNL     1      56.876  40.867 123.694  1.00  0.00     0.013 A 
ATOM     17  C   UNL     1      57.487  39.648 123.383  1.00  0.00     0.047 A 
BRANCH  15  18
ATOM     18  O   UNL     1      57.306  37.278 122.891  1.00  0.00    -0.508 OA
ATOM     19  H   UNL     1      58.107  37.223 122.272  1.00  0.00     0.293 HD
ENDBRANCH  15  18
ENDBRANCH   1  12
BRANCH  11  20
ATOM     20  O   UNL     1      52.226  46.529 123.865  1.00  0.00    -0.502 OA
ATOM     21  H   UNL     1      51.500  46.080 123.321  1.00  0.00     0.293 HD
ENDBRANCH  11  20
BRANCH  10  22
ATOM     22  O   UNL     1      52.265  47.652 126.446  1.00  0.00    -0.504 OA
ATOM     23  H   UNL     1      51.412  47.921 125.972  1.00  0.00     0.293 HD
ENDBRANCH  10  22
TORSDOF 4
ENDMDL
MODEL 8
REMARK VINA RESULT:    -4.115      3.487      5.287
REMARK INTER + INTRA:          -4.993
REMARK INTER:                  -4.726
REMARK INTRA:                  -0.267
REMARK UNBOUND:                -0.276
REMARK SMILES O=c1c(-c2ccc(O)cc2)coc2c(O)c(O)ccc12
REMARK SMILES IDX 3 1 11 2 12 3 13 4 20 5 2 6 1 7 19 8 18 9 16 10 14 11 4 12
REMARK SMILES IDX 5 13 6 14 7 15 10 16 9 17 8 18 15 20 17 22
REMARK H PARENT 8 19 15 21 17 23
REMARK Flexibility Score: inf
ROOT
ATOM      1  C   UNL     1      55.543  39.113 124.083  1.00  0.00     0.065 A 
ATOM      2  C   UNL     1      54.611  40.155 123.952  1.00  0.00     0.208 A 
ATOM      3  O   UNL     1      53.333  39.899 123.700  1.00  0.00    -0.459 OA
ATOM      4  C   UNL     1      52.857  38.667 123.558  1.00  0.00     0.183 A 
ATOM      5  C   UNL     1      53.722  37.555 123.678  1.00  0.00     0.069 A 
ATOM      6  C   UNL     1      55.081  37.789 123.951  1.00  0.00     0.200 A 
ATOM      7  O   UNL     1      55.878  36.821 124.096  1.00  0.00    -0.288 OA
ATOM      8  C   UNL     1      53.205  36.256 123.531  1.00  0.00     0.020 A 
ATOM      9  C   UNL     1      51.848  36.067 123.264  1.00  0.00     0.051 A 
ATOM     10  C   UNL     1      50.988  37.163 123.142  1.00  0.00     0.161 A 
ATOM     11  C   UNL     1      51.490  38.469 123.289  1.00  0.00     0.201 A 
ENDROOT
BRANCH   1  12
ATOM     12  C   UNL     1      56.968  39.425 124.357  1.00  0.00    -0.011 A 
ATOM     13  C   UNL     1      57.846  39.718 123.297  1.00  0.00     0.013 A 
ATOM     14  C   UNL     1      59.191  40.003 123.551  1.00  0.00     0.047 A 
ATOM     15  C   UNL     1      59.677  39.993 124.862  1.00  0.00     0.115 A 
ATOM     16  C   UNL     1      57.466  39.411 125.672  1.00  0.00     0.013 A 
ATOM     17  C   UNL     1      58.812  39.696 125.922  1.00  0.00     0.047 A 
BRANCH  15  18
ATOM     18  O   UNL     1      61.020  40.279 125.098  1.00  0.00    -0.508 OA
ATOM     19  H   UNL     1      61.449  40.098 125.999  1.00  0.00     0.293 HD
ENDBRANCH  15  18
ENDBRANCH   1  12
BRANCH  11  20
ATOM     20  O   UNL     1      50.623  39.557 123.166  1.00  0.00    -0.502 OA
ATOM     21  H   UNL     1      50.951  40.514 123.190  1.00  0.00     0.293 HD
ENDBRANCH  11  20
BRANCH  10  22
ATOM     22  O   UNL     1      49.639  36.936 122.875  1.00  0.00    -0.504 OA
ATOM     23  H   UNL     1      48.954  36.831 123.613  1.00  0.00     0.293 HD
ENDBRANCH  10  22
TORSDOF 4
ENDMDL
MODEL 9
REMARK VINA RESULT:    -4.087     15.894     16.918
REMARK INTER + INTRA:          -4.960
REMARK INTER:                  -4.774
REMARK INTRA:                  -0.186
REMARK UNBOUND:                -0.276
REMARK SMILES O=c1c(-c2ccc(O)cc2)coc2c(O)c(O)ccc12
REMARK SMILES IDX 3 1 11 2 12 3 13 4 20 5 2 6 1 7 19 8 18 9 16 10 14 11 4 12
REMARK SMILES IDX 5 13 6 14 7 15 10 16 9 17 8 18 15 20 17 22
REMARK H PARENT 8 19 15 21 17 23
REMARK Flexibility Score: inf
ROOT
ATOM      1  C   UNL     1      55.537  42.798 140.528  1.00  0.00     0.065 A 
ATOM      2  C   UNL     1      56.259  42.930 141.724  1.00  0.00     0.208 A 
ATOM      3  O   UNL     1      57.096  41.980 142.124  1.00  0.00    -0.459 OA
ATOM      4  C   UNL     1      57.305  40.864 141.435  1.00  0.00     0.183 A 
ATOM      5  C   UNL     1      56.625  40.647 140.215  1.00  0.00     0.069 A 
ATOM      6  C   UNL     1      55.735  41.635 139.758  1.00  0.00     0.200 A 
ATOM      7  O   UNL     1      55.133  41.491 138.658  1.00  0.00    -0.288 OA
ATOM      8  C   UNL     1      56.858  39.464 139.492  1.00  0.00     0.020 A 
ATOM      9  C   UNL     1      57.753  38.509 139.980  1.00  0.00     0.051 A 
ATOM     10  C   UNL     1      58.427  38.718 141.186  1.00  0.00     0.161 A 
ATOM     11  C   UNL     1      58.206  39.898 141.920  1.00  0.00     0.201 A 
ENDROOT
BRANCH   1  12
ATOM     12  C   UNL     1      54.601  43.870 140.105  1.00  0.00    -0.011 A 
ATOM     13  C   UNL     1      55.096  45.118 139.684  1.00  0.00     0.013 A 
ATOM     14  C   UNL     1      54.216  46.132 139.294  1.00  0.00     0.047 A 
ATOM     15  C   UNL     1      52.835  45.916 139.323  1.00  0.00     0.115 A 
ATOM     16  C   UNL     1      53.210  43.662 140.138  1.00  0.00     0.013 A 
ATOM     17  C   UNL     1      52.334  44.679 139.747  1.00  0.00     0.047 A 
BRANCH  15  18
ATOM     18  O   UNL     1      51.972  46.936 138.931  1.00  0.00    -0.508 OA
ATOM     19  H   UNL     1      51.450  47.479 139.611  1.00  0.00     0.293 HD
ENDBRANCH  15  18
ENDBRANCH   1  12
BRANCH  11  20
ATOM     20  O   UNL     1      58.884  40.097 143.124  1.00  0.00    -0.502 OA
ATOM     21  H   UNL     1      59.581  39.447 143.465  1.00  0.00     0.293 HD
ENDBRANCH  11  20
BRANCH  10  22
ATOM     22  O   UNL     1      59.313  37.742 141.642  1.00  0.00    -0.504 OA
ATOM     23  H   UNL     1      59.001  36.928 142.156  1.00  0.00     0.293 HD
ENDBRANCH  10  22
TORSDOF 4
ENDMDL
