MODEL 1
REMARK VINA RESULT:    -4.722      0.000      0.000
REMARK INTER + INTRA:          -9.974
REMARK INTER:                  -9.139
REMARK INTRA:                  -0.835
REMARK UNBOUND:                -0.835
REMARK SMILES CCCCCCCCCCCCCCCCCC(=O)[O-]
REMARK SMILES IDX 10 1 11 2 12 3 13 4 14 5 15 6 16 7 17 8 18 9 19 10 20 11
REMARK SMILES IDX 9 12 8 13 7 14 6 15 5 16 4 17 3 18 2 19 1 20
REMARK H PARENT
REMARK Flexibility Score: inf
ROOT
ATOM      1  C   UNL     1       0.296  -6.144  -1.608  1.00  0.00     0.000 C 
ENDROOT
BRANCH   1   2
ATOM      2  C   UNL     1      -0.706  -6.730  -2.619  1.00  0.00     0.000 C 
BRANCH   2   3
ATOM      3  C   UNL     1      -1.022  -8.212  -2.354  1.00  0.00     0.000 C 
BRANCH   3   4
ATOM      4  C   UNL     1      -0.774  -8.616  -0.892  1.00  0.00     0.000 C 
BRANCH   4   5
ATOM      5  C   UNL     1      -1.547  -9.883  -0.489  1.00  0.00     0.000 C 
BRANCH   5   6
ATOM      6  C   UNL     1      -0.910 -10.611   0.706  1.00  0.00     0.000 C 
BRANCH   6   7
ATOM      7  C   UNL     1      -1.833 -10.653   1.936  1.00  0.00     0.006 C 
BRANCH   7   8
ATOM      8  C   UNL     1      -2.249  -9.248   2.394  1.00  0.00     0.053 C 
BRANCH   8   9
ATOM      9  C   UNL     1      -2.448  -9.184   3.877  1.00  0.00     0.041 C 
ATOM     10  O   UNL     1      -2.978 -10.148   4.488  1.00  0.00    -0.550 OA
ATOM     11  O   UNL     1      -2.072  -8.046   4.581  1.00  0.00    -0.550 OA
ENDBRANCH   8   9
ENDBRANCH   7   8
ENDBRANCH   6   7
ENDBRANCH   5   6
ENDBRANCH   4   5
ENDBRANCH   3   4
ENDBRANCH   2   3
ENDBRANCH   1   2
BRANCH   1  12
ATOM     12  C   UNL     1       0.825  -4.735  -1.946  1.00  0.00     0.000 C 
BRANCH  12  13
ATOM     13  C   UNL     1       0.468  -3.636  -0.928  1.00  0.00    -0.000 C 
BRANCH  13  14
ATOM     14  C   UNL     1       0.469  -2.228  -1.548  1.00  0.00    -0.000 C 
BRANCH  14  15
ATOM     15  C   UNL     1       1.170  -2.186  -2.916  1.00  0.00    -0.000 C 
BRANCH  15  16
ATOM     16  C   UNL     1       2.608  -1.651  -2.830  1.00  0.00    -0.000 C 
BRANCH  16  17
ATOM     17  C   UNL     1       2.696  -0.473  -1.848  1.00  0.00    -0.000 C 
BRANCH  17  18
ATOM     18  C   UNL     1       4.054  -0.392  -1.128  1.00  0.00    -0.000 C 
BRANCH  18  19
ATOM     19  C   UNL     1       5.278  -0.642  -2.027  1.00  0.00    -0.003 C 
ATOM     20  C   UNL     1       6.552   0.014  -1.498  1.00  0.00     0.004 C 
ENDBRANCH  18  19
ENDBRANCH  17  18
ENDBRANCH  16  17
ENDBRANCH  15  16
ENDBRANCH  14  15
ENDBRANCH  13  14
ENDBRANCH  12  13
ENDBRANCH   1  12
TORSDOF 16
ENDMDL
MODEL 2
REMARK VINA RESULT:    -4.499      1.159      2.639
REMARK INTER + INTRA:          -9.542
REMARK INTER:                  -8.790
REMARK INTRA:                  -0.753
REMARK UNBOUND:                -0.835
REMARK SMILES CCCCCCCCCCCCCCCCCC(=O)[O-]
REMARK SMILES IDX 10 1 11 2 12 3 13 4 14 5 15 6 16 7 17 8 18 9 19 10 20 11
REMARK SMILES IDX 9 12 8 13 7 14 6 15 5 16 4 17 3 18 2 19 1 20
REMARK H PARENT
REMARK Flexibility Score: inf
ROOT
ATOM      1  C   UNL     1      -1.092  -8.199  -2.299  1.00  0.00     0.000 C 
ENDROOT
BRANCH   1   2
ATOM      2  C   UNL     1      -0.780  -8.705  -0.878  1.00  0.00     0.000 C 
BRANCH   2   3
ATOM      3  C   UNL     1      -1.606  -9.944  -0.492  1.00  0.00     0.000 C 
BRANCH   3   4
ATOM      4  C   UNL     1      -1.003 -10.707   0.698  1.00  0.00     0.000 C 
BRANCH   4   5
ATOM      5  C   UNL     1      -1.936 -10.726   1.921  1.00  0.00     0.000 C 
BRANCH   5   6
ATOM      6  C   UNL     1      -2.244  -9.316   2.452  1.00  0.00     0.000 C 
BRANCH   6   7
ATOM      7  C   UNL     1      -2.588  -9.309   3.951  1.00  0.00     0.006 C 
BRANCH   7   8
ATOM      8  C   UNL     1      -3.770 -10.231   4.277  1.00  0.00     0.053 C 
BRANCH   8   9
ATOM      9  C   UNL     1      -4.574  -9.717   5.433  1.00  0.00     0.041 C 
ATOM     10  O   UNL     1      -4.098  -9.745   6.598  1.00  0.00    -0.550 OA
ATOM     11  O   UNL     1      -5.860  -9.234   5.226  1.00  0.00    -0.550 OA
ENDBRANCH   8   9
ENDBRANCH   7   8
ENDBRANCH   6   7
ENDBRANCH   5   6
ENDBRANCH   4   5
ENDBRANCH   3   4
ENDBRANCH   2   3
ENDBRANCH   1   2
BRANCH   1  12
ATOM     12  C   UNL     1      -0.723  -6.726  -2.568  1.00  0.00     0.000 C 
BRANCH  12  13
ATOM     13  C   UNL     1       0.312  -6.119  -1.603  1.00  0.00    -0.000 C 
BRANCH  13  14
ATOM     14  C   UNL     1       0.739  -4.697  -2.005  1.00  0.00    -0.000 C 
BRANCH  14  15
ATOM     15  C   UNL     1       0.351  -3.645  -0.953  1.00  0.00    -0.000 C 
BRANCH  15  16
ATOM     16  C   UNL     1       0.640  -2.208  -1.414  1.00  0.00    -0.000 C 
BRANCH  16  17
ATOM     17  C   UNL     1       1.091  -2.185  -2.882  1.00  0.00    -0.000 C 
BRANCH  17  18
ATOM     18  C   UNL     1       2.526  -1.657  -3.061  1.00  0.00    -0.000 C 
BRANCH  18  19
ATOM     19  C   UNL     1       3.077  -0.863  -1.863  1.00  0.00    -0.003 C 
ATOM     20  C   UNL     1       4.553  -0.503  -2.013  1.00  0.00     0.004 C 
ENDBRANCH  18  19
ENDBRANCH  17  18
ENDBRANCH  16  17
ENDBRANCH  15  16
ENDBRANCH  14  15
ENDBRANCH  13  14
ENDBRANCH  12  13
ENDBRANCH   1  12
TORSDOF 16
ENDMDL
MODEL 3
REMARK VINA RESULT:    -4.288      7.273     11.287
REMARK INTER + INTRA:          -9.135
REMARK INTER:                  -7.644
REMARK INTRA:                  -1.491
REMARK UNBOUND:                -0.835
REMARK SMILES CCCCCCCCCCCCCCCCCC(=O)[O-]
REMARK SMILES IDX 10 1 11 2 12 3 13 4 14 5 15 6 16 7 17 8 18 9 19 10 20 11
REMARK SMILES IDX 9 12 8 13 7 14 6 15 5 16 4 17 3 18 2 19 1 20
REMARK H PARENT
REMARK Flexibility Score: inf
ROOT
ATOM      1  C   UNL     1      -7.619  -4.278   6.437  1.00  0.00     0.000 C 
ENDROOT
BRANCH   1   2
ATOM      2  C   UNL     1      -8.517  -3.032   6.338  1.00  0.00     0.000 C 
BRANCH   2   3
ATOM      3  C   UNL     1      -7.731  -1.717   6.491  1.00  0.00     0.000 C 
BRANCH   3   4
ATOM      4  C   UNL     1      -6.662  -1.540   5.401  1.00  0.00     0.000 C 
BRANCH   4   5
ATOM      5  C   UNL     1      -5.322  -1.034   5.965  1.00  0.00     0.000 C 
BRANCH   5   6
ATOM      6  C   UNL     1      -4.496  -2.153   6.619  1.00  0.00     0.000 C 
BRANCH   6   7
ATOM      7  C   UNL     1      -3.539  -2.840   5.629  1.00  0.00     0.006 C 
BRANCH   7   8
ATOM      8  C   UNL     1      -4.119  -4.151   5.081  1.00  0.00     0.053 C 
BRANCH   8   9
ATOM      9  C   UNL     1      -3.519  -5.348   5.753  1.00  0.00     0.041 C 
ATOM     10  O   UNL     1      -3.875  -5.668   6.917  1.00  0.00    -0.550 OA
ATOM     11  O   UNL     1      -2.543  -6.094   5.103  1.00  0.00    -0.550 OA
ENDBRANCH   8   9
ENDBRANCH   7   8
ENDBRANCH   6   7
ENDBRANCH   5   6
ENDBRANCH   4   5
ENDBRANCH   3   4
ENDBRANCH   2   3
ENDBRANCH   1   2
BRANCH   1  12
ATOM     12  C   UNL     1      -7.817  -5.323   5.320  1.00  0.00     0.000 C 
BRANCH  12  13
ATOM     13  C   UNL     1      -8.148  -6.748   5.802  1.00  0.00    -0.000 C 
BRANCH  13  14
ATOM     14  C   UNL     1      -7.008  -7.379   6.619  1.00  0.00    -0.000 C 
BRANCH  14  15
ATOM     15  C   UNL     1      -6.326  -8.542   5.880  1.00  0.00    -0.000 C 
BRANCH  15  16
ATOM     16  C   UNL     1      -5.219  -9.207   6.712  1.00  0.00    -0.000 C 
BRANCH  16  17
ATOM     17  C   UNL     1      -4.404 -10.187   5.855  1.00  0.00    -0.000 C 
BRANCH  17  18
ATOM     18  C   UNL     1      -4.038  -9.615   4.473  1.00  0.00    -0.000 C 
BRANCH  18  19
ATOM     19  C   UNL     1      -2.911 -10.366   3.741  1.00  0.00    -0.003 C 
ATOM     20  C   UNL     1      -2.116  -9.472   2.792  1.00  0.00     0.004 C 
ENDBRANCH  18  19
ENDBRANCH  17  18
ENDBRANCH  16  17
ENDBRANCH  15  16
ENDBRANCH  14  15
ENDBRANCH  13  14
ENDBRANCH  12  13
ENDBRANCH   1  12
TORSDOF 16
ENDMDL
MODEL 4
REMARK VINA RESULT:    -4.279      8.659     12.424
REMARK INTER + INTRA:          -9.117
REMARK INTER:                  -6.677
REMARK INTRA:                  -2.440
REMARK UNBOUND:                -0.835
REMARK SMILES CCCCCCCCCCCCCCCCCC(=O)[O-]
REMARK SMILES IDX 10 1 11 2 12 3 13 4 14 5 15 6 16 7 17 8 18 9 19 10 20 11
REMARK SMILES IDX 9 12 8 13 7 14 6 15 5 16 4 17 3 18 2 19 1 20
REMARK H PARENT
REMARK Flexibility Score: inf
ROOT
ATOM      1  C   UNL     1      -9.356  -3.800   7.736  1.00  0.00     0.000 C 
ENDROOT
BRANCH   1   2
ATOM      2  C   UNL     1      -9.512  -2.647   6.728  1.00  0.00     0.000 C 
BRANCH   2   3
ATOM      3  C   UNL     1      -8.254  -1.765   6.633  1.00  0.00     0.000 C 
BRANCH   3   4
ATOM      4  C   UNL     1      -7.186  -2.149   7.669  1.00  0.00     0.000 C 
BRANCH   4   5
ATOM      5  C   UNL     1      -5.887  -2.657   7.017  1.00  0.00     0.000 C 
BRANCH   5   6
ATOM      6  C   UNL     1      -5.954  -2.650   5.481  1.00  0.00     0.000 C 
BRANCH   6   7
ATOM      7  C   UNL     1      -4.919  -3.590   4.839  1.00  0.00     0.006 C 
BRANCH   7   8
ATOM      8  C   UNL     1      -3.606  -3.631   5.632  1.00  0.00     0.053 C 
BRANCH   8   9
ATOM      9  C   UNL     1      -3.243  -5.028   6.033  1.00  0.00     0.041 C 
ATOM     10  O   UNL     1      -2.374  -5.668   5.384  1.00  0.00    -0.550 OA
ATOM     11  O   UNL     1      -3.884  -5.633   7.107  1.00  0.00    -0.550 OA
ENDBRANCH   8   9
ENDBRANCH   7   8
ENDBRANCH   6   7
ENDBRANCH   5   6
ENDBRANCH   4   5
ENDBRANCH   3   4
ENDBRANCH   2   3
ENDBRANCH   1   2
BRANCH   1  12
ATOM     12  C   UNL     1      -9.375  -5.216   7.125  1.00  0.00     0.000 C 
BRANCH  12  13
ATOM     13  C   UNL     1      -8.090  -5.630   6.383  1.00  0.00    -0.000 C 
BRANCH  13  14
ATOM     14  C   UNL     1      -8.281  -5.704   4.859  1.00  0.00    -0.000 C 
BRANCH  14  15
ATOM     15  C   UNL     1      -9.759  -5.825   4.454  1.00  0.00    -0.000 C 
BRANCH  15  16
ATOM     16  C   UNL     1      -9.977  -6.794   3.282  1.00  0.00    -0.000 C 
BRANCH  16  17
ATOM     17  C   UNL     1      -8.843  -7.827   3.207  1.00  0.00    -0.000 C 
BRANCH  17  18
ATOM     18  C   UNL     1      -9.252  -9.209   3.747  1.00  0.00    -0.000 C 
BRANCH  18  19
ATOM     19  C   UNL     1      -8.476  -9.670   4.995  1.00  0.00    -0.003 C 
ATOM     20  C   UNL     1      -7.030  -9.180   5.014  1.00  0.00     0.004 C 
ENDBRANCH  18  19
ENDBRANCH  17  18
ENDBRANCH  16  17
ENDBRANCH  15  16
ENDBRANCH  14  15
ENDBRANCH  13  14
ENDBRANCH  12  13
ENDBRANCH   1  12
TORSDOF 16
ENDMDL
MODEL 5
REMARK VINA RESULT:    -4.262      9.000     12.368
REMARK INTER + INTRA:          -9.083
REMARK INTER:                  -6.470
REMARK INTRA:                  -2.613
REMARK UNBOUND:                -0.835
REMARK SMILES CCCCCCCCCCCCCCCCCC(=O)[O-]
REMARK SMILES IDX 10 1 11 2 12 3 13 4 14 5 15 6 16 7 17 8 18 9 19 10 20 11
REMARK SMILES IDX 9 12 8 13 7 14 6 15 5 16 4 17 3 18 2 19 1 20
REMARK H PARENT
REMARK Flexibility Score: inf
ROOT
ATOM      1  C   UNL     1      -3.689  -5.507   5.593  1.00  0.00     0.000 C 
ENDROOT
BRANCH   1   2
ATOM      2  C   UNL     1      -2.676  -4.887   6.573  1.00  0.00     0.000 C 
BRANCH   2   3
ATOM      3  C   UNL     1      -2.239  -3.470   6.161  1.00  0.00     0.000 C 
BRANCH   3   4
ATOM      4  C   UNL     1      -2.709  -2.397   7.156  1.00  0.00     0.000 C 
BRANCH   4   5
ATOM      5  C   UNL     1      -4.233  -2.188   7.122  1.00  0.00     0.000 C 
BRANCH   5   6
ATOM      6  C   UNL     1      -4.768  -1.959   5.699  1.00  0.00     0.000 C 
BRANCH   6   7
ATOM      7  C   UNL     1      -6.058  -1.121   5.678  1.00  0.00     0.006 C 
BRANCH   7   8
ATOM      8  C   UNL     1      -6.478  -0.672   7.084  1.00  0.00     0.053 C 
BRANCH   8   9
ATOM      9  C   UNL     1      -6.235   0.792   7.296  1.00  0.00     0.041 C 
ATOM     10  O   UNL     1      -7.203   1.572   7.495  1.00  0.00    -0.550 OA
ATOM     11  O   UNL     1      -4.942   1.297   7.243  1.00  0.00    -0.550 OA
ENDBRANCH   8   9
ENDBRANCH   7   8
ENDBRANCH   6   7
ENDBRANCH   5   6
ENDBRANCH   4   5
ENDBRANCH   3   4
ENDBRANCH   2   3
ENDBRANCH   1   2
BRANCH   1  12
ATOM     12  C   UNL     1      -4.899  -6.203   6.250  1.00  0.00     0.000 C 
BRANCH  12  13
ATOM     13  C   UNL     1      -5.440  -5.521   7.520  1.00  0.00    -0.000 C 
BRANCH  13  14
ATOM     14  C   UNL     1      -6.882  -5.012   7.354  1.00  0.00    -0.000 C 
BRANCH  14  15
ATOM     15  C   UNL     1      -7.235  -4.710   5.888  1.00  0.00    -0.000 C 
BRANCH  15  16
ATOM     16  C   UNL     1      -8.729  -4.904   5.584  1.00  0.00    -0.000 C 
BRANCH  16  17
ATOM     17  C   UNL     1      -9.187  -6.319   5.971  1.00  0.00    -0.000 C 
BRANCH  17  18
ATOM     18  C   UNL     1      -8.875  -7.368   4.889  1.00  0.00    -0.000 C 
BRANCH  18  19
ATOM     19  C   UNL     1      -7.691  -8.297   5.212  1.00  0.00    -0.003 C 
ATOM     20  C   UNL     1      -7.611  -8.670   6.691  1.00  0.00     0.004 C 
ENDBRANCH  18  19
ENDBRANCH  17  18
ENDBRANCH  16  17
ENDBRANCH  15  16
ENDBRANCH  14  15
ENDBRANCH  13  14
ENDBRANCH  12  13
ENDBRANCH   1  12
TORSDOF 16
ENDMDL
MODEL 6
REMARK VINA RESULT:    -4.252      7.462      9.965
REMARK INTER + INTRA:          -9.065
REMARK INTER:                  -7.311
REMARK INTRA:                  -1.754
REMARK UNBOUND:                -0.835
REMARK SMILES CCCCCCCCCCCCCCCCCC(=O)[O-]
REMARK SMILES IDX 10 1 11 2 12 3 13 4 14 5 15 6 16 7 17 8 18 9 19 10 20 11
REMARK SMILES IDX 9 12 8 13 7 14 6 15 5 16 4 17 3 18 2 19 1 20
REMARK H PARENT
REMARK Flexibility Score: inf
ROOT
ATOM      1  C   UNL     1      -7.352  -5.121   7.011  1.00  0.00     0.000 C 
ENDROOT
BRANCH   1   2
ATOM      2  C   UNL     1      -6.664  -6.087   6.030  1.00  0.00     0.000 C 
BRANCH   2   3
ATOM      3  C   UNL     1      -5.391  -6.724   6.614  1.00  0.00     0.000 C 
BRANCH   3   4
ATOM      4  C   UNL     1      -5.462  -8.259   6.647  1.00  0.00     0.000 C 
BRANCH   4   5
ATOM      5  C   UNL     1      -6.300  -8.836   5.494  1.00  0.00     0.000 C 
BRANCH   5   6
ATOM      6  C   UNL     1      -5.675 -10.102   4.884  1.00  0.00     0.000 C 
BRANCH   6   7
ATOM      7  C   UNL     1      -4.213 -10.308   5.315  1.00  0.00     0.006 C 
BRANCH   7   8
ATOM      8  C   UNL     1      -3.284 -10.537   4.115  1.00  0.00     0.053 C 
BRANCH   8   9
ATOM      9  C   UNL     1      -2.573  -9.281   3.714  1.00  0.00     0.041 C 
ATOM     10  O   UNL     1      -2.353  -8.378   4.563  1.00  0.00    -0.550 OA
ATOM     11  O   UNL     1      -2.177  -9.096   2.395  1.00  0.00    -0.550 OA
ENDBRANCH   8   9
ENDBRANCH   7   8
ENDBRANCH   6   7
ENDBRANCH   5   6
ENDBRANCH   4   5
ENDBRANCH   3   4
ENDBRANCH   2   3
ENDBRANCH   1   2
BRANCH   1  12
ATOM     12  C   UNL     1      -8.737  -4.608   6.568  1.00  0.00     0.000 C 
BRANCH  12  13
ATOM     13  C   UNL     1      -9.332  -3.484   7.436  1.00  0.00    -0.000 C 
BRANCH  13  14
ATOM     14  C   UNL     1      -9.272  -2.107   6.752  1.00  0.00    -0.000 C 
BRANCH  14  15
ATOM     15  C   UNL     1      -7.897  -1.435   6.900  1.00  0.00    -0.000 C 
BRANCH  15  16
ATOM     16  C   UNL     1      -7.119  -1.376   5.576  1.00  0.00    -0.000 C 
BRANCH  16  17
ATOM     17  C   UNL     1      -5.635  -1.069   5.826  1.00  0.00    -0.000 C 
BRANCH  17  18
ATOM     18  C   UNL     1      -4.903  -2.202   6.567  1.00  0.00    -0.000 C 
BRANCH  18  19
ATOM     19  C   UNL     1      -3.841  -2.939   5.732  1.00  0.00    -0.003 C 
ATOM     20  C   UNL     1      -4.427  -3.658   4.518  1.00  0.00     0.004 C 
ENDBRANCH  18  19
ENDBRANCH  17  18
ENDBRANCH  16  17
ENDBRANCH  15  16
ENDBRANCH  14  15
ENDBRANCH  13  14
ENDBRANCH  12  13
ENDBRANCH   1  12
TORSDOF 16
ENDMDL
MODEL 7
REMARK VINA RESULT:    -4.230      8.580     12.257
REMARK INTER + INTRA:          -9.022
REMARK INTER:                  -6.364
REMARK INTRA:                  -2.658
REMARK UNBOUND:                -0.835
REMARK SMILES CCCCCCCCCCCCCCCCCC(=O)[O-]
REMARK SMILES IDX 10 1 11 2 12 3 13 4 14 5 15 6 16 7 17 8 18 9 19 10 20 11
REMARK SMILES IDX 9 12 8 13 7 14 6 15 5 16 4 17 3 18 2 19 1 20
REMARK H PARENT
REMARK Flexibility Score: inf
ROOT
ATOM      1  C   UNL     1      -8.973  -3.086   7.223  1.00  0.00     0.000 C 
ENDROOT
BRANCH   1   2
ATOM      2  C   UNL     1      -8.591  -1.969   6.234  1.00  0.00     0.000 C 
BRANCH   2   3
ATOM      3  C   UNL     1      -7.439  -1.087   6.747  1.00  0.00     0.000 C 
BRANCH   3   4
ATOM      4  C   UNL     1      -6.657  -1.748   7.893  1.00  0.00     0.000 C 
BRANCH   4   5
ATOM      5  C   UNL     1      -5.272  -2.252   7.449  1.00  0.00     0.000 C 
BRANCH   5   6
ATOM      6  C   UNL     1      -4.906  -1.799   6.027  1.00  0.00     0.000 C 
BRANCH   6   7
ATOM      7  C   UNL     1      -4.147  -2.879   5.237  1.00  0.00     0.006 C 
BRANCH   7   8
ATOM      8  C   UNL     1      -2.827  -3.271   5.915  1.00  0.00     0.053 C 
BRANCH   8   9
ATOM      9  C   UNL     1      -2.786  -4.730   6.250  1.00  0.00     0.041 C 
ATOM     10  O   UNL     1      -2.326  -5.558   5.420  1.00  0.00    -0.550 OA
ATOM     11  O   UNL     1      -3.282  -5.179   7.467  1.00  0.00    -0.550 OA
ENDBRANCH   8   9
ENDBRANCH   7   8
ENDBRANCH   6   7
ENDBRANCH   5   6
ENDBRANCH   4   5
ENDBRANCH   3   4
ENDBRANCH   2   3
ENDBRANCH   1   2
BRANCH   1  12
ATOM     12  C   UNL     1      -8.943  -4.516   6.645  1.00  0.00     0.000 C 
BRANCH  12  13
ATOM     13  C   UNL     1      -7.932  -4.744   5.506  1.00  0.00    -0.000 C 
BRANCH  13  14
ATOM     14  C   UNL     1      -6.593  -5.315   6.004  1.00  0.00    -0.000 C 
BRANCH  14  15
ATOM     15  C   UNL     1      -6.732  -6.067   7.338  1.00  0.00    -0.000 C 
BRANCH  15  16
ATOM     16  C   UNL     1      -6.050  -7.443   7.319  1.00  0.00    -0.000 C 
BRANCH  16  17
ATOM     17  C   UNL     1      -6.295  -8.157   5.981  1.00  0.00    -0.000 C 
BRANCH  17  18
ATOM     18  C   UNL     1      -7.614  -8.950   5.957  1.00  0.00    -0.000 C 
BRANCH  18  19
ATOM     19  C   UNL     1      -8.754  -8.282   5.167  1.00  0.00    -0.003 C 
ATOM     20  C   UNL     1      -8.567  -8.374   3.654  1.00  0.00     0.004 C 
ENDBRANCH  18  19
ENDBRANCH  17  18
ENDBRANCH  16  17
ENDBRANCH  15  16
ENDBRANCH  14  15
ENDBRANCH  13  14
ENDBRANCH  12  13
ENDBRANCH   1  12
TORSDOF 16
ENDMDL
MODEL 8
REMARK VINA RESULT:    -4.217      8.429     11.987
REMARK INTER + INTRA:          -8.996
REMARK INTER:                  -6.888
REMARK INTRA:                  -2.108
REMARK UNBOUND:                -0.835
REMARK SMILES CCCCCCCCCCCCCCCCCC(=O)[O-]
REMARK SMILES IDX 10 1 11 2 12 3 13 4 14 5 15 6 16 7 17 8 18 9 19 10 20 11
REMARK SMILES IDX 9 12 8 13 7 14 6 15 5 16 4 17 3 18 2 19 1 20
REMARK H PARENT
REMARK Flexibility Score: inf
ROOT
ATOM      1  C   UNL     1      -7.788  -5.259   6.628  1.00  0.00     0.000 C 
ENDROOT
BRANCH   1   2
ATOM      2  C   UNL     1      -8.086  -3.789   6.975  1.00  0.00     0.000 C 
BRANCH   2   3
ATOM      3  C   UNL     1      -7.654  -2.815   5.864  1.00  0.00     0.000 C 
BRANCH   3   4
ATOM      4  C   UNL     1      -6.985  -1.548   6.420  1.00  0.00     0.000 C 
BRANCH   4   5
ATOM      5  C   UNL     1      -5.644  -1.238   5.731  1.00  0.00     0.000 C 
BRANCH   5   6
ATOM      6  C   UNL     1      -4.453  -1.927   6.418  1.00  0.00     0.000 C 
BRANCH   6   7
ATOM      7  C   UNL     1      -3.605  -2.758   5.440  1.00  0.00     0.006 C 
BRANCH   7   8
ATOM      8  C   UNL     1      -4.138  -4.189   5.285  1.00  0.00     0.053 C 
BRANCH   8   9
ATOM      9  C   UNL     1      -3.259  -5.187   5.975  1.00  0.00     0.041 C 
ATOM     10  O   UNL     1      -3.275  -5.286   7.229  1.00  0.00    -0.550 OA
ATOM     11  O   UNL     1      -2.400  -5.987   5.231  1.00  0.00    -0.550 OA
ENDBRANCH   8   9
ENDBRANCH   7   8
ENDBRANCH   6   7
ENDBRANCH   5   6
ENDBRANCH   4   5
ENDBRANCH   3   4
ENDBRANCH   2   3
ENDBRANCH   1   2
BRANCH   1  12
ATOM     12  C   UNL     1      -8.095  -5.667   5.172  1.00  0.00     0.000 C 
BRANCH  12  13
ATOM     13  C   UNL     1      -9.588  -5.847   4.840  1.00  0.00    -0.000 C 
BRANCH  13  14
ATOM     14  C   UNL     1      -9.818  -6.468   3.452  1.00  0.00    -0.000 C 
BRANCH  14  15
ATOM     15  C   UNL     1      -8.912  -7.683   3.192  1.00  0.00    -0.000 C 
BRANCH  15  16
ATOM     16  C   UNL     1      -9.578  -9.014   3.574  1.00  0.00    -0.000 C 
BRANCH  16  17
ATOM     17  C   UNL     1      -8.644  -9.862   4.451  1.00  0.00    -0.000 C 
BRANCH  17  18
ATOM     18  C   UNL     1      -7.236  -9.256   4.590  1.00  0.00    -0.000 C 
BRANCH  18  19
ATOM     19  C   UNL     1      -6.763  -9.044   6.040  1.00  0.00    -0.003 C 
ATOM     20  C   UNL     1      -5.475  -8.229   6.136  1.00  0.00     0.004 C 
ENDBRANCH  18  19
ENDBRANCH  17  18
ENDBRANCH  16  17
ENDBRANCH  15  16
ENDBRANCH  14  15
ENDBRANCH  13  14
ENDBRANCH  12  13
ENDBRANCH   1  12
TORSDOF 16
ENDMDL
MODEL 9
REMARK VINA RESULT:    -4.177      7.440      9.654
REMARK INTER + INTRA:          -8.919
REMARK INTER:                  -6.794
REMARK INTRA:                  -2.125
REMARK UNBOUND:                -0.835
REMARK SMILES CCCCCCCCCCCCCCCCCC(=O)[O-]
REMARK SMILES IDX 10 1 11 2 12 3 13 4 14 5 15 6 16 7 17 8 18 9 19 10 20 11
REMARK SMILES IDX 9 12 8 13 7 14 6 15 5 16 4 17 3 18 2 19 1 20
REMARK H PARENT
REMARK Flexibility Score: inf
ROOT
ATOM      1  C   UNL     1      -7.097  -5.227   5.548  1.00  0.00     0.000 C 
ENDROOT
BRANCH   1   2
ATOM      2  C   UNL     1      -8.280  -6.123   5.137  1.00  0.00     0.000 C 
BRANCH   2   3
ATOM      3  C   UNL     1      -7.878  -7.599   4.966  1.00  0.00     0.000 C 
BRANCH   3   4
ATOM      4  C   UNL     1      -7.270  -8.196   6.245  1.00  0.00     0.000 C 
BRANCH   4   5
ATOM      5  C   UNL     1      -5.790  -8.579   6.072  1.00  0.00     0.000 C 
BRANCH   5   6
ATOM      6  C   UNL     1      -5.600  -9.822   5.188  1.00  0.00     0.000 C 
BRANCH   6   7
ATOM      7  C   UNL     1      -4.144 -10.318   5.167  1.00  0.00     0.006 C 
BRANCH   7   8
ATOM      8  C   UNL     1      -3.568 -10.359   3.745  1.00  0.00     0.053 C 
BRANCH   8   9
ATOM      9  C   UNL     1      -2.518  -9.310   3.540  1.00  0.00     0.041 C 
ATOM     10  O   UNL     1      -1.843  -9.287   2.478  1.00  0.00    -0.550 OA
ATOM     11  O   UNL     1      -2.267  -8.374   4.536  1.00  0.00    -0.550 OA
ENDBRANCH   8   9
ENDBRANCH   7   8
ENDBRANCH   6   7
ENDBRANCH   5   6
ENDBRANCH   4   5
ENDBRANCH   3   4
ENDBRANCH   2   3
ENDBRANCH   1   2
BRANCH   1  12
ATOM     12  C   UNL     1      -7.258  -4.504   6.901  1.00  0.00     0.000 C 
BRANCH  12  13
ATOM     13  C   UNL     1      -6.329  -4.998   8.025  1.00  0.00    -0.000 C 
BRANCH  13  14
ATOM     14  C   UNL     1      -4.964  -5.478   7.502  1.00  0.00    -0.000 C 
BRANCH  14  15
ATOM     15  C   UNL     1      -3.936  -4.338   7.404  1.00  0.00    -0.000 C 
BRANCH  15  16
ATOM     16  C   UNL     1      -3.357  -4.181   5.989  1.00  0.00    -0.000 C 
BRANCH  16  17
ATOM     17  C   UNL     1      -3.937  -2.939   5.295  1.00  0.00    -0.000 C 
BRANCH  17  18
ATOM     18  C   UNL     1      -4.614  -1.964   6.275  1.00  0.00    -0.000 C 
BRANCH  18  19
ATOM     19  C   UNL     1      -5.747  -1.118   5.666  1.00  0.00    -0.003 C 
ATOM     20  C   UNL     1      -6.868  -0.818   6.658  1.00  0.00     0.004 C 
ENDBRANCH  18  19
ENDBRANCH  17  18
ENDBRANCH  16  17
ENDBRANCH  15  16
ENDBRANCH  14  15
ENDBRANCH  13  14
ENDBRANCH  12  13
ENDBRANCH   1  12
TORSDOF 16
ENDMDL
