MODEL 1
REMARK VINA RESULT:    -6.984      0.000      0.000
REMARK INTER + INTRA:          -9.527
REMARK INTER:                  -9.230
REMARK INTRA:                  -0.297
REMARK UNBOUND:                -0.297
REMARK SMILES CCCCC=CC=CCO
REMARK SMILES IDX 5 1 6 2 4 3 3 4 2 5 1 6 7 7 8 8 9 9 10 10
REMARK H PARENT 10 11
REMARK Flexibility Score: inf
ROOT
ATOM      1  C   UNL     1      22.936  37.927  13.418  1.00  0.00    -0.027 C 
ATOM      2  C   UNL     1      22.264  39.057  13.680  1.00  0.00    -0.005 C 
ENDROOT
BRANCH   1   3
ATOM      3  C   UNL     1      24.113  37.829  12.485  1.00  0.00     0.027 C 
BRANCH   3   4
ATOM      4  C   UNL     1      24.395  36.367  12.104  1.00  0.00     0.004 C 
BRANCH   4   5
ATOM      5  C   UNL     1      23.649  35.371  13.006  1.00  0.00    -0.003 C 
ATOM      6  C   UNL     1      24.569  34.702  14.028  1.00  0.00     0.004 C 
ENDBRANCH   4   5
ENDBRANCH   3   4
ENDBRANCH   1   3
BRANCH   2   7
ATOM      7  C   UNL     1      22.575  40.366  13.069  1.00  0.00    -0.002 C 
ATOM      8  C   UNL     1      22.952  41.400  13.825  1.00  0.00     0.001 C 
BRANCH   8   9
ATOM      9  C   UNL     1      23.283  42.731  13.219  1.00  0.00     0.183 C 
BRANCH   9  10
ATOM     10  O   UNL     1      24.673  42.905  13.156  1.00  0.00    -0.392 OA
ATOM     11  H   UNL     1      24.935  42.783  12.206  1.00  0.00     0.210 HD
ENDBRANCH   9  10
ENDBRANCH   8   9
ENDBRANCH   2   7
TORSDOF 6
ENDMDL
MODEL 2
REMARK VINA RESULT:    -6.776      3.220      6.033
REMARK INTER + INTRA:          -9.252
REMARK INTER:                  -8.953
REMARK INTRA:                  -0.299
REMARK UNBOUND:                -0.297
REMARK SMILES CCCCC=CC=CCO
REMARK SMILES IDX 5 1 6 2 4 3 3 4 2 5 1 6 7 7 8 8 9 9 10 10
REMARK H PARENT 10 11
REMARK Flexibility Score: inf
ROOT
ATOM      1  C   UNL     1      23.807  38.098  12.431  1.00  0.00    -0.027 C 
ATOM      2  C   UNL     1      24.455  37.038  11.929  1.00  0.00    -0.005 C 
ENDROOT
BRANCH   1   3
ATOM      3  C   UNL     1      22.924  38.062  13.650  1.00  0.00     0.027 C 
BRANCH   3   4
ATOM      4  C   UNL     1      22.060  39.329  13.744  1.00  0.00     0.004 C 
BRANCH   4   5
ATOM      5  C   UNL     1      22.622  40.487  12.905  1.00  0.00    -0.003 C 
ATOM      6  C   UNL     1      23.027  41.688  13.760  1.00  0.00     0.004 C 
ENDBRANCH   4   5
ENDBRANCH   3   4
ENDBRANCH   1   3
BRANCH   2   7
ATOM      7  C   UNL     1      24.378  35.675  12.495  1.00  0.00    -0.002 C 
ATOM      8  C   UNL     1      25.325  35.223  13.319  1.00  0.00     0.001 C 
BRANCH   8   9
ATOM      9  C   UNL     1      25.254  33.847  13.911  1.00  0.00     0.183 C 
BRANCH   9  10
ATOM     10  O   UNL     1      26.392  33.106  13.559  1.00  0.00    -0.392 OA
ATOM     11  H   UNL     1      26.151  32.574  12.756  1.00  0.00     0.210 HD
ENDBRANCH   9  10
ENDBRANCH   8   9
ENDBRANCH   2   7
TORSDOF 6
ENDMDL
MODEL 3
REMARK VINA RESULT:    -5.982      3.747      6.324
REMARK INTER + INTRA:          -8.201
REMARK INTER:                  -8.082
REMARK INTRA:                  -0.119
REMARK UNBOUND:                -0.297
REMARK SMILES CCCCC=CC=CCO
REMARK SMILES IDX 5 1 6 2 4 3 3 4 2 5 1 6 7 7 8 8 9 9 10 10
REMARK H PARENT 10 11
REMARK Flexibility Score: inf
ROOT
ATOM      1  C   UNL     1      24.341  36.399  14.655  1.00  0.00    -0.027 C 
ATOM      2  C   UNL     1      24.430  35.080  14.873  1.00  0.00    -0.005 C 
ENDROOT
BRANCH   1   3
ATOM      3  C   UNL     1      24.870  37.102  13.433  1.00  0.00     0.027 C 
BRANCH   3   4
ATOM      4  C   UNL     1      23.732  37.762  12.639  1.00  0.00     0.004 C 
BRANCH   4   5
ATOM      5  C   UNL     1      22.629  38.323  13.549  1.00  0.00    -0.003 C 
ATOM      6  C   UNL     1      22.456  39.835  13.399  1.00  0.00     0.004 C 
ENDBRANCH   4   5
ENDBRANCH   3   4
ENDBRANCH   1   3
BRANCH   2   7
ATOM      7  C   UNL     1      25.081  34.129  13.948  1.00  0.00    -0.002 C 
ATOM      8  C   UNL     1      24.634  33.978  12.699  1.00  0.00     0.001 C 
BRANCH   8   9
ATOM      9  C   UNL     1      25.292  33.026  11.745  1.00  0.00     0.183 C 
BRANCH   9  10
ATOM     10  O   UNL     1      25.965  32.017  12.449  1.00  0.00    -0.392 OA
ATOM     11  H   UNL     1      26.907  32.026  12.135  1.00  0.00     0.210 HD
ENDBRANCH   9  10
ENDBRANCH   8   9
ENDBRANCH   2   7
TORSDOF 6
ENDMDL
MODEL 4
REMARK VINA RESULT:    -5.979      1.671      2.893
REMARK INTER + INTRA:          -8.198
REMARK INTER:                  -8.047
REMARK INTRA:                  -0.151
REMARK UNBOUND:                -0.297
REMARK SMILES CCCCC=CC=CCO
REMARK SMILES IDX 5 1 6 2 4 3 3 4 2 5 1 6 7 7 8 8 9 9 10 10
REMARK H PARENT 10 11
REMARK Flexibility Score: inf
ROOT
ATOM      1  C   UNL     1      24.721  35.998  12.705  1.00  0.00    -0.027 C 
ATOM      2  C   UNL     1      24.274  37.061  12.022  1.00  0.00    -0.005 C 
ENDROOT
BRANCH   1   3
ATOM      3  C   UNL     1      24.800  35.917  14.206  1.00  0.00     0.027 C 
BRANCH   3   4
ATOM      4  C   UNL     1      24.748  34.458  14.684  1.00  0.00     0.004 C 
BRANCH   4   5
ATOM      5  C   UNL     1      25.250  33.472  13.618  1.00  0.00    -0.003 C 
ATOM      6  C   UNL     1      26.770  33.302  13.646  1.00  0.00     0.004 C 
ENDBRANCH   4   5
ENDBRANCH   3   4
ENDBRANCH   1   3
BRANCH   2   7
ATOM      7  C   UNL     1      23.813  38.316  12.651  1.00  0.00    -0.002 C 
ATOM      8  C   UNL     1      22.616  38.386  13.238  1.00  0.00     0.001 C 
BRANCH   8   9
ATOM      9  C   UNL     1      22.139  39.649  13.891  1.00  0.00     0.183 C 
BRANCH   9  10
ATOM     10  O   UNL     1      22.999  40.713  13.581  1.00  0.00    -0.392 OA
ATOM     11  H   UNL     1      22.788  41.448  14.215  1.00  0.00     0.210 HD
ENDBRANCH   9  10
ENDBRANCH   8   9
ENDBRANCH   2   7
TORSDOF 6
ENDMDL
MODEL 5
REMARK VINA RESULT:    -5.374      3.415      3.942
REMARK INTER + INTRA:          -7.398
REMARK INTER:                  -7.128
REMARK INTRA:                  -0.271
REMARK UNBOUND:                -0.297
REMARK SMILES CCCCC=CC=CCO
REMARK SMILES IDX 5 1 6 2 4 3 3 4 2 5 1 6 7 7 8 8 9 9 10 10
REMARK H PARENT 10 11
REMARK Flexibility Score: inf
ROOT
ATOM      1  C   UNL     1      23.402  34.975  12.505  1.00  0.00    -0.027 C 
ATOM      2  C   UNL     1      23.424  36.266  12.863  1.00  0.00    -0.005 C 
ENDROOT
BRANCH   1   3
ATOM      3  C   UNL     1      24.523  34.266  11.793  1.00  0.00     0.027 C 
BRANCH   3   4
ATOM      4  C   UNL     1      25.152  33.188  12.689  1.00  0.00     0.004 C 
BRANCH   4   5
ATOM      5  C   UNL     1      25.767  33.774  13.969  1.00  0.00    -0.003 C 
ATOM      6  C   UNL     1      24.808  33.723  15.159  1.00  0.00     0.004 C 
ENDBRANCH   4   5
ENDBRANCH   3   4
ENDBRANCH   1   3
BRANCH   2   7
ATOM      7  C   UNL     1      24.550  37.183  12.591  1.00  0.00    -0.002 C 
ATOM      8  C   UNL     1      25.568  37.288  13.449  1.00  0.00     0.001 C 
BRANCH   8   9
ATOM      9  C   UNL     1      26.724  38.204  13.180  1.00  0.00     0.183 C 
BRANCH   9  10
ATOM     10  O   UNL     1      27.540  38.305  14.317  1.00  0.00    -0.392 OA
ATOM     11  H   UNL     1      27.381  37.487  14.858  1.00  0.00     0.210 HD
ENDBRANCH   9  10
ENDBRANCH   8   9
ENDBRANCH   2   7
TORSDOF 6
ENDMDL
MODEL 6
REMARK VINA RESULT:    -5.255      2.815      5.741
REMARK INTER + INTRA:          -7.241
REMARK INTER:                  -7.038
REMARK INTRA:                  -0.203
REMARK UNBOUND:                -0.297
REMARK SMILES CCCCC=CC=CCO
REMARK SMILES IDX 5 1 6 2 4 3 3 4 2 5 1 6 7 7 8 8 9 9 10 10
REMARK H PARENT 10 11
REMARK Flexibility Score: inf
ROOT
ATOM      1  C   UNL     1      22.128  39.993  13.798  1.00  0.00    -0.027 C 
ATOM      2  C   UNL     1      22.382  38.677  13.787  1.00  0.00    -0.005 C 
ENDROOT
BRANCH   1   3
ATOM      3  C   UNL     1      22.828  41.007  12.933  1.00  0.00     0.027 C 
BRANCH   3   4
ATOM      4  C   UNL     1      23.300  42.210  13.763  1.00  0.00     0.004 C 
BRANCH   4   5
ATOM      5  C   UNL     1      24.214  43.153  12.965  1.00  0.00    -0.003 C 
ATOM      6  C   UNL     1      25.698  42.876  13.206  1.00  0.00     0.004 C 
ENDBRANCH   4   5
ENDBRANCH   3   4
ENDBRANCH   1   3
BRANCH   2   7
ATOM      7  C   UNL     1      23.404  38.038  12.931  1.00  0.00    -0.002 C 
ATOM      8  C   UNL     1      23.639  36.726  13.012  1.00  0.00     0.001 C 
BRANCH   8   9
ATOM      9  C   UNL     1      24.663  36.062  12.141  1.00  0.00     0.183 C 
BRANCH   9  10
ATOM     10  O   UNL     1      24.726  34.690  12.424  1.00  0.00    -0.392 OA
ATOM     11  H   UNL     1      24.436  34.213  11.602  1.00  0.00     0.210 HD
ENDBRANCH   9  10
ENDBRANCH   8   9
ENDBRANCH   2   7
TORSDOF 6
ENDMDL
MODEL 7
REMARK VINA RESULT:    -4.972      4.339      6.105
REMARK INTER + INTRA:          -6.868
REMARK INTER:                  -6.926
REMARK INTRA:                   0.059
REMARK UNBOUND:                -0.297
REMARK SMILES CCCCC=CC=CCO
REMARK SMILES IDX 5 1 6 2 4 3 3 4 2 5 1 6 7 7 8 8 9 9 10 10
REMARK H PARENT 10 11
REMARK Flexibility Score: inf
ROOT
ATOM      1  C   UNL     1      23.614  36.399  13.889  1.00  0.00    -0.027 C 
ATOM      2  C   UNL     1      24.033  35.594  14.875  1.00  0.00    -0.005 C 
ENDROOT
BRANCH   1   3
ATOM      3  C   UNL     1      23.801  36.123  12.421  1.00  0.00     0.027 C 
BRANCH   3   4
ATOM      4  C   UNL     1      24.790  37.117  11.793  1.00  0.00     0.004 C 
BRANCH   4   5
ATOM      5  C   UNL     1      25.372  38.096  12.824  1.00  0.00    -0.003 C 
ATOM      6  C   UNL     1      26.774  37.697  13.287  1.00  0.00     0.004 C 
ENDBRANCH   4   5
ENDBRANCH   3   4
ENDBRANCH   1   3
BRANCH   2   7
ATOM      7  C   UNL     1      24.757  34.325  14.657  1.00  0.00    -0.002 C 
ATOM      8  C   UNL     1      25.764  34.255  13.783  1.00  0.00     0.001 C 
BRANCH   8   9
ATOM      9  C   UNL     1      26.517  32.977  13.560  1.00  0.00     0.183 C 
BRANCH   9  10
ATOM     10  O   UNL     1      25.903  32.220  12.551  1.00  0.00    -0.392 OA
ATOM     11  H   UNL     1      25.074  32.703  12.294  1.00  0.00     0.210 HD
ENDBRANCH   9  10
ENDBRANCH   8   9
ENDBRANCH   2   7
TORSDOF 6
ENDMDL
MODEL 8
REMARK VINA RESULT:    -4.776      6.109      8.436
REMARK INTER + INTRA:          -6.608
REMARK INTER:                  -6.113
REMARK INTRA:                  -0.495
REMARK UNBOUND:                -0.297
REMARK SMILES CCCCC=CC=CCO
REMARK SMILES IDX 5 1 6 2 4 3 3 4 2 5 1 6 7 7 8 8 9 9 10 10
REMARK H PARENT 10 11
REMARK Flexibility Score: inf
ROOT
ATOM      1  C   UNL     1      30.125  43.591  15.908  1.00  0.00    -0.027 C 
ATOM      2  C   UNL     1      29.480  42.558  15.349  1.00  0.00    -0.005 C 
ENDROOT
BRANCH   1   3
ATOM      3  C   UNL     1      29.543  44.968  16.086  1.00  0.00     0.027 C 
BRANCH   3   4
ATOM      4  C   UNL     1      29.334  45.292  17.573  1.00  0.00     0.004 C 
BRANCH   4   5
ATOM      5  C   UNL     1      27.900  45.004  18.041  1.00  0.00    -0.003 C 
ATOM      6  C   UNL     1      27.776  43.663  18.766  1.00  0.00     0.004 C 
ENDBRANCH   4   5
ENDBRANCH   3   4
ENDBRANCH   1   3
BRANCH   2   7
ATOM      7  C   UNL     1      28.106  42.632  14.810  1.00  0.00    -0.002 C 
ATOM      8  C   UNL     1      27.883  43.066  13.567  1.00  0.00     0.001 C 
BRANCH   8   9
ATOM      9  C   UNL     1      26.496  43.135  13.002  1.00  0.00     0.183 C 
BRANCH   9  10
ATOM     10  O   UNL     1      25.617  42.357  13.771  1.00  0.00    -0.392 OA
ATOM     11  H   UNL     1      25.309  41.613  13.189  1.00  0.00     0.210 HD
ENDBRANCH   9  10
ENDBRANCH   8   9
ENDBRANCH   2   7
TORSDOF 6
ENDMDL
