MODEL 1
REMARK VINA RESULT:    -5.722      0.000      0.000
REMARK INTER + INTRA:          -6.259
REMARK INTER:                  -6.224
REMARK INTRA:                  -0.036
REMARK UNBOUND:                -0.036
REMARK SMILES O=C([O-])c1ccc(O)cc1
REMARK SMILES IDX 4 1 5 2 10 3 6 4 9 5 7 6 2 7 1 8 3 9 8 10
REMARK H PARENT 8 11
REMARK Flexibility Score: inf
ROOT
ATOM      1  C   UNL     1     130.376 125.533 127.085  1.00  0.00    -0.003 A 
ATOM      2  C   UNL     1     129.640 125.639 128.279  1.00  0.00     0.014 A 
ATOM      3  C   UNL     1     130.222 124.383 126.289  1.00  0.00     0.014 A 
ATOM      4  C   UNL     1     128.769 124.616 128.667  1.00  0.00     0.047 A 
ATOM      5  C   UNL     1     129.350 123.363 126.680  1.00  0.00     0.047 A 
ATOM      6  C   UNL     1     128.621 123.477 127.871  1.00  0.00     0.115 A 
ENDROOT
BRANCH   1   7
ATOM      7  C   UNL     1     131.300 126.612 126.669  1.00  0.00     0.071 C 
ATOM      8  O   UNL     1     132.128 126.423 125.739  1.00  0.00    -0.545 OA
ATOM      9  O   UNL     1     131.267 127.850 127.301  1.00  0.00    -0.545 OA
ENDBRANCH   1   7
BRANCH   6  10
ATOM     10  O   UNL     1     127.749 122.467 128.270  1.00  0.00    -0.508 OA
ATOM     11  H   UNL     1     127.343 121.823 127.601  1.00  0.00     0.293 HD
ENDBRANCH   6  10
TORSDOF 2
ENDMDL
MODEL 2
REMARK VINA RESULT:    -5.564      1.417      1.514
REMARK INTER + INTRA:          -6.088
REMARK INTER:                  -6.059
REMARK INTRA:                  -0.029
REMARK UNBOUND:                -0.036
REMARK SMILES O=C([O-])c1ccc(O)cc1
REMARK SMILES IDX 4 1 5 2 10 3 6 4 9 5 7 6 2 7 1 8 3 9 8 10
REMARK H PARENT 8 11
REMARK Flexibility Score: inf
ROOT
ATOM      1  C   UNL     1     130.479 126.265 126.988  1.00  0.00    -0.003 A 
ATOM      2  C   UNL     1     129.091 126.259 127.223  1.00  0.00     0.014 A 
ATOM      3  C   UNL     1     131.081 125.121 126.436  1.00  0.00     0.014 A 
ATOM      4  C   UNL     1     128.326 125.132 126.910  1.00  0.00     0.047 A 
ATOM      5  C   UNL     1     130.312 123.995 126.124  1.00  0.00     0.047 A 
ATOM      6  C   UNL     1     128.931 123.999 126.361  1.00  0.00     0.115 A 
ENDROOT
BRANCH   1   7
ATOM      7  C   UNL     1     131.295 127.455 127.318  1.00  0.00     0.071 C 
ATOM      8  O   UNL     1     131.903 128.084 126.413  1.00  0.00    -0.545 OA
ATOM      9  O   UNL     1     131.402 127.893 128.633  1.00  0.00    -0.545 OA
ENDBRANCH   1   7
BRANCH   6  10
ATOM     10  O   UNL     1     128.155 122.883 126.053  1.00  0.00    -0.508 OA
ATOM     11  H   UNL     1     127.557 122.448 126.745  1.00  0.00     0.293 HD
ENDBRANCH   6  10
TORSDOF 2
ENDMDL
MODEL 3
REMARK VINA RESULT:    -5.550      2.594      4.315
REMARK INTER + INTRA:          -6.072
REMARK INTER:                  -6.036
REMARK INTRA:                  -0.036
REMARK UNBOUND:                -0.036
REMARK SMILES O=C([O-])c1ccc(O)cc1
REMARK SMILES IDX 4 1 5 2 10 3 6 4 9 5 7 6 2 7 1 8 3 9 8 10
REMARK H PARENT 8 11
REMARK Flexibility Score: inf
ROOT
ATOM      1  C   UNL     1     128.839 124.090 130.081  1.00  0.00    -0.003 A 
ATOM      2  C   UNL     1     129.283 125.189 129.322  1.00  0.00     0.014 A 
ATOM      3  C   UNL     1     128.325 122.964 129.414  1.00  0.00     0.014 A 
ATOM      4  C   UNL     1     129.215 125.158 127.926  1.00  0.00     0.047 A 
ATOM      5  C   UNL     1     128.258 122.937 128.017  1.00  0.00     0.047 A 
ATOM      6  C   UNL     1     128.703 124.036 127.270  1.00  0.00     0.115 A 
ENDROOT
BRANCH   1   7
ATOM      7  C   UNL     1     128.908 124.116 131.559  1.00  0.00     0.071 C 
ATOM      8  O   UNL     1     129.475 125.069 132.157  1.00  0.00    -0.545 OA
ATOM      9  O   UNL     1     128.348 123.088 132.309  1.00  0.00    -0.545 OA
ENDBRANCH   1   7
BRANCH   6  10
ATOM     10  O   UNL     1     128.642 124.020 125.878  1.00  0.00    -0.508 OA
ATOM     11  H   UNL     1     128.265 123.226 125.374  1.00  0.00     0.293 HD
ENDBRANCH   6  10
TORSDOF 2
ENDMDL
MODEL 4
REMARK VINA RESULT:    -5.543      1.665      4.111
REMARK INTER + INTRA:          -6.065
REMARK INTER:                  -6.034
REMARK INTRA:                  -0.031
REMARK UNBOUND:                -0.036
REMARK SMILES O=C([O-])c1ccc(O)cc1
REMARK SMILES IDX 4 1 5 2 10 3 6 4 9 5 7 6 2 7 1 8 3 9 8 10
REMARK H PARENT 8 11
REMARK Flexibility Score: inf
ROOT
ATOM      1  C   UNL     1     129.017 124.392 128.468  1.00  0.00    -0.003 A 
ATOM      2  C   UNL     1     128.988 123.369 127.502  1.00  0.00     0.014 A 
ATOM      3  C   UNL     1     129.669 125.600 128.162  1.00  0.00     0.014 A 
ATOM      4  C   UNL     1     129.597 123.554 126.258  1.00  0.00     0.047 A 
ATOM      5  C   UNL     1     130.277 125.781 126.915  1.00  0.00     0.047 A 
ATOM      6  C   UNL     1     130.243 124.757 125.960  1.00  0.00     0.115 A 
ENDROOT
BRANCH   1   7
ATOM      7  C   UNL     1     128.375 124.203 129.788  1.00  0.00     0.071 C 
ATOM      8  O   UNL     1     127.202 123.753 129.870  1.00  0.00    -0.545 OA
ATOM      9  O   UNL     1     129.058 124.521 130.956  1.00  0.00    -0.545 OA
ENDBRANCH   1   7
BRANCH   6  10
ATOM     10  O   UNL     1     130.845 124.926 124.715  1.00  0.00    -0.508 OA
ATOM     11  H   UNL     1     130.776 124.219 123.994  1.00  0.00     0.293 HD
ENDBRANCH   6  10
TORSDOF 2
ENDMDL
MODEL 5
REMARK VINA RESULT:    -5.522      1.258      4.273
REMARK INTER + INTRA:          -6.042
REMARK INTER:                  -6.010
REMARK INTRA:                  -0.032
REMARK UNBOUND:                -0.036
REMARK SMILES O=C([O-])c1ccc(O)cc1
REMARK SMILES IDX 4 1 5 2 10 3 6 4 9 5 7 6 2 7 1 8 3 9 8 10
REMARK H PARENT 8 11
REMARK Flexibility Score: inf
ROOT
ATOM      1  C   UNL     1     129.956 124.985 127.030  1.00  0.00    -0.003 A 
ATOM      2  C   UNL     1     129.934 126.088 127.905  1.00  0.00     0.014 A 
ATOM      3  C   UNL     1     130.846 124.999 125.941  1.00  0.00     0.014 A 
ATOM      4  C   UNL     1     130.783 127.177 127.692  1.00  0.00     0.047 A 
ATOM      5  C   UNL     1     131.694 126.091 125.732  1.00  0.00     0.047 A 
ATOM      6  C   UNL     1     131.664 127.183 126.608  1.00  0.00     0.115 A 
ENDROOT
BRANCH   1   7
ATOM      7  C   UNL     1     129.060 123.829 127.249  1.00  0.00     0.071 C 
ATOM      8  O   UNL     1     128.861 123.384 128.410  1.00  0.00    -0.545 OA
ATOM      9  O   UNL     1     128.424 123.217 126.175  1.00  0.00    -0.545 OA
ENDBRANCH   1   7
BRANCH   6  10
ATOM     10  O   UNL     1     132.505 128.276 126.409  1.00  0.00    -0.508 OA
ATOM     11  H   UNL     1     132.136 129.204 126.239  1.00  0.00     0.293 HD
ENDBRANCH   6  10
TORSDOF 2
ENDMDL
MODEL 6
REMARK VINA RESULT:    -5.506      1.216      4.529
REMARK INTER + INTRA:          -6.024
REMARK INTER:                  -5.994
REMARK INTRA:                  -0.031
REMARK UNBOUND:                -0.036
REMARK SMILES O=C([O-])c1ccc(O)cc1
REMARK SMILES IDX 4 1 5 2 10 3 6 4 9 5 7 6 2 7 1 8 3 9 8 10
REMARK H PARENT 8 11
REMARK Flexibility Score: inf
ROOT
ATOM      1  C   UNL     1     129.928 125.023 127.213  1.00  0.00    -0.003 A 
ATOM      2  C   UNL     1     130.842 124.966 126.144  1.00  0.00     0.014 A 
ATOM      3  C   UNL     1     129.906 126.168 128.030  1.00  0.00     0.014 A 
ATOM      4  C   UNL     1     131.714 126.031 125.901  1.00  0.00     0.047 A 
ATOM      5  C   UNL     1     130.780 127.232 127.783  1.00  0.00     0.047 A 
ATOM      6  C   UNL     1     131.686 127.165 126.717  1.00  0.00     0.115 A 
ENDROOT
BRANCH   1   7
ATOM      7  C   UNL     1     129.003 123.899 127.476  1.00  0.00     0.071 C 
ATOM      8  O   UNL     1     128.855 123.451 128.644  1.00  0.00    -0.545 OA
ATOM      9  O   UNL     1     128.284 123.320 126.436  1.00  0.00    -0.545 OA
ENDBRANCH   1   7
BRANCH   6  10
ATOM     10  O   UNL     1     132.560 128.220 126.461  1.00  0.00    -0.508 OA
ATOM     11  H   UNL     1     133.559 128.071 126.380  1.00  0.00     0.293 HD
ENDBRANCH   6  10
TORSDOF 2
ENDMDL
MODEL 7
REMARK VINA RESULT:    -5.436      1.036      4.287
REMARK INTER + INTRA:          -5.949
REMARK INTER:                  -5.921
REMARK INTRA:                  -0.027
REMARK UNBOUND:                -0.036
REMARK SMILES O=C([O-])c1ccc(O)cc1
REMARK SMILES IDX 4 1 5 2 10 3 6 4 9 5 7 6 2 7 1 8 3 9 8 10
REMARK H PARENT 8 11
REMARK Flexibility Score: inf
ROOT
ATOM      1  C   UNL     1     128.760 123.846 128.173  1.00  0.00    -0.003 A 
ATOM      2  C   UNL     1     129.095 125.141 128.609  1.00  0.00     0.014 A 
ATOM      3  C   UNL     1     129.322 123.363 126.978  1.00  0.00     0.014 A 
ATOM      4  C   UNL     1     129.973 125.934 127.864  1.00  0.00     0.047 A 
ATOM      5  C   UNL     1     130.200 124.159 126.235  1.00  0.00     0.047 A 
ATOM      6  C   UNL     1     130.527 125.448 126.677  1.00  0.00     0.115 A 
ENDROOT
BRANCH   1   7
ATOM      7  C   UNL     1     127.831 123.002 128.957  1.00  0.00     0.071 C 
ATOM      8  O   UNL     1     128.270 122.074 129.686  1.00  0.00    -0.545 OA
ATOM      9  O   UNL     1     126.460 123.222 128.899  1.00  0.00    -0.545 OA
ENDBRANCH   1   7
BRANCH   6  10
ATOM     10  O   UNL     1     131.401 126.249 125.946  1.00  0.00    -0.508 OA
ATOM     11  H   UNL     1     131.245 127.245 125.843  1.00  0.00     0.293 HD
ENDBRANCH   6  10
TORSDOF 2
ENDMDL
MODEL 8
REMARK VINA RESULT:    -5.217      1.970      4.448
REMARK INTER + INTRA:          -5.710
REMARK INTER:                  -5.682
REMARK INTRA:                  -0.028
REMARK UNBOUND:                -0.036
REMARK SMILES O=C([O-])c1ccc(O)cc1
REMARK SMILES IDX 4 1 5 2 10 3 6 4 9 5 7 6 2 7 1 8 3 9 8 10
REMARK H PARENT 8 11
REMARK Flexibility Score: inf
ROOT
ATOM      1  C   UNL     1     129.885 125.428 126.489  1.00  0.00    -0.003 A 
ATOM      2  C   UNL     1     129.041 126.020 125.531  1.00  0.00     0.014 A 
ATOM      3  C   UNL     1     131.209 125.886 126.605  1.00  0.00     0.014 A 
ATOM      4  C   UNL     1     129.513 127.047 124.710  1.00  0.00     0.047 A 
ATOM      5  C   UNL     1     131.679 126.914 125.782  1.00  0.00     0.047 A 
ATOM      6  C   UNL     1     130.831 127.497 124.831  1.00  0.00     0.115 A 
ENDROOT
BRANCH   1   7
ATOM      7  C   UNL     1     129.390 124.340 127.361  1.00  0.00     0.071 C 
ATOM      8  O   UNL     1     129.054 123.229 126.872  1.00  0.00    -0.545 OA
ATOM      9  O   UNL     1     129.290 124.529 128.735  1.00  0.00    -0.545 OA
ENDBRANCH   1   7
BRANCH   6  10
ATOM     10  O   UNL     1     131.288 128.523 124.006  1.00  0.00    -0.508 OA
ATOM     11  H   UNL     1     131.293 128.427 122.997  1.00  0.00     0.293 HD
ENDBRANCH   6  10
TORSDOF 2
ENDMDL
MODEL 9
REMARK VINA RESULT:    -5.110      2.020      4.203
REMARK INTER + INTRA:          -5.594
REMARK INTER:                  -5.558
REMARK INTRA:                  -0.035
REMARK UNBOUND:                -0.036
REMARK SMILES O=C([O-])c1ccc(O)cc1
REMARK SMILES IDX 4 1 5 2 10 3 6 4 9 5 7 6 2 7 1 8 3 9 8 10
REMARK H PARENT 8 11
REMARK Flexibility Score: inf
ROOT
ATOM      1  C   UNL     1     129.364 125.755 127.007  1.00  0.00    -0.003 A 
ATOM      2  C   UNL     1     130.747 125.650 127.248  1.00  0.00     0.014 A 
ATOM      3  C   UNL     1     128.923 126.139 125.729  1.00  0.00     0.014 A 
ATOM      4  C   UNL     1     131.665 125.925 126.230  1.00  0.00     0.047 A 
ATOM      5  C   UNL     1     129.844 126.413 124.713  1.00  0.00     0.047 A 
ATOM      6  C   UNL     1     131.219 126.306 124.962  1.00  0.00     0.115 A 
ENDROOT
BRANCH   1   7
ATOM      7  C   UNL     1     128.387 125.466 128.080  1.00  0.00     0.071 C 
ATOM      8  O   UNL     1     127.182 125.808 127.958  1.00  0.00    -0.545 OA
ATOM      9  O   UNL     1     128.788 124.812 129.241  1.00  0.00    -0.545 OA
ENDBRANCH   1   7
BRANCH   6  10
ATOM     10  O   UNL     1     132.146 126.575 123.957  1.00  0.00    -0.508 OA
ATOM     11  H   UNL     1     131.936 126.396 122.982  1.00  0.00     0.293 HD
ENDBRANCH   6  10
TORSDOF 2
ENDMDL
