MODEL 1
REMARK VINA RESULT:    -5.159      0.000      0.000
REMARK INTER + INTRA:          -7.303
REMARK INTER:                  -6.968
REMARK INTRA:                  -0.334
REMARK UNBOUND:                -0.334
REMARK SMILES O=c1c(-c2ccc(O)cc2)coc2c([C@@H]3O[C@@H](CO)[C@@H](O)[C@H](O)[C@@H]3O)c(O)ccc12
REMARK SMILES IDX 3 1 11 2 12 3 13 4 30 5 2 6 1 7 29 8 28 9 26 10 14 11 4 12
REMARK SMILES IDX 5 13 6 14 7 15 10 16 9 17 8 18 15 20 24 21 16 22 22 23 17 24
REMARK SMILES IDX 20 25 25 26 23 28 18 30 19 31 21 33 27 35
REMARK H PARENT 8 19 25 27 23 29 19 32 21 34 27 36
REMARK Flexibility Score: inf
ROOT
ATOM      1  C   UNL     1      -5.108 -13.164 -10.734  1.00  0.00     0.065 A 
ATOM      2  C   UNL     1      -5.335 -13.309 -12.110  1.00  0.00     0.208 A 
ATOM      3  O   UNL     1      -5.343 -14.509 -12.676  1.00  0.00    -0.463 OA
ATOM      4  C   UNL     1      -5.142 -15.637 -11.999  1.00  0.00     0.147 A 
ATOM      5  C   UNL     1      -4.917 -15.583 -10.604  1.00  0.00     0.066 A 
ATOM      6  C   UNL     1      -4.904 -14.327  -9.970  1.00  0.00     0.200 A 
ATOM      7  O   UNL     1      -4.733 -14.245  -8.722  1.00  0.00    -0.288 OA
ATOM      8  C   UNL     1      -4.726 -16.773  -9.884  1.00  0.00     0.020 A 
ATOM      9  C   UNL     1      -4.769 -18.002 -10.539  1.00  0.00     0.047 A 
ATOM     10  C   UNL     1      -4.994 -18.069 -11.918  1.00  0.00     0.125 A 
ATOM     11  C   UNL     1      -5.160 -16.884 -12.672  1.00  0.00     0.069 A 
ENDROOT
BRANCH   1  12
ATOM     12  C   UNL     1      -5.096 -11.810 -10.125  1.00  0.00    -0.011 A 
ATOM     13  C   UNL     1      -3.883 -11.198  -9.763  1.00  0.00     0.013 A 
ATOM     14  C   UNL     1      -3.876  -9.918  -9.199  1.00  0.00     0.047 A 
ATOM     15  C   UNL     1      -5.081  -9.234  -8.993  1.00  0.00     0.115 A 
ATOM     16  C   UNL     1      -6.300 -11.113  -9.920  1.00  0.00     0.013 A 
ATOM     17  C   UNL     1      -6.291  -9.834  -9.355  1.00  0.00     0.047 A 
BRANCH  15  18
ATOM     18  O   UNL     1      -5.087  -7.960  -8.430  1.00  0.00    -0.508 OA
ATOM     19  H   UNL     1      -4.576  -7.192  -8.851  1.00  0.00     0.293 HD
ENDBRANCH  15  18
ENDBRANCH   1  12
BRANCH  11  20
ATOM     20  C   UNL     1      -5.431 -16.974 -14.170  1.00  0.00     0.188 C 
ATOM     21  C   UNL     1      -6.945 -16.875 -14.445  1.00  0.00     0.179 C 
ATOM     22  O   UNL     1      -4.710 -15.964 -14.857  1.00  0.00    -0.362 OA
ATOM     23  C   UNL     1      -7.196 -17.034 -15.952  1.00  0.00     0.177 C 
ATOM     24  C   UNL     1      -4.851 -16.040 -16.271  1.00  0.00     0.176 C 
ATOM     25  C   UNL     1      -6.333 -16.032 -16.739  1.00  0.00     0.177 C 
BRANCH  21  26
ATOM     26  O   UNL     1      -7.435 -15.635 -13.996  1.00  0.00    -0.387 OA
ATOM     27  H   UNL     1      -6.740 -15.244 -13.406  1.00  0.00     0.211 HD
ENDBRANCH  21  26
BRANCH  23  28
ATOM     28  O   UNL     1      -8.552 -16.813 -16.246  1.00  0.00    -0.387 OA
ATOM     29  H   UNL     1      -9.075 -17.437 -15.677  1.00  0.00     0.211 HD
ENDBRANCH  23  28
BRANCH  24  30
ATOM     30  C   UNL     1      -3.952 -17.132 -16.898  1.00  0.00     0.191 C 
BRANCH  30  31
ATOM     31  O   UNL     1      -4.692 -18.239 -17.329  1.00  0.00    -0.394 OA
ATOM     32  H   UNL     1      -5.642 -17.949 -17.341  1.00  0.00     0.210 HD
ENDBRANCH  30  31
ENDBRANCH  24  30
BRANCH  25  33
ATOM     33  O   UNL     1      -6.404 -16.303 -18.117  1.00  0.00    -0.388 OA
ATOM     34  H   UNL     1      -7.132 -16.965 -18.246  1.00  0.00     0.211 HD
ENDBRANCH  25  33
ENDBRANCH  11  20
BRANCH  10  35
ATOM     35  O   UNL     1      -5.057 -19.316 -12.542  1.00  0.00    -0.507 OA
ATOM     36  H   UNL     1      -5.477 -20.118 -12.087  1.00  0.00     0.293 HD
ENDBRANCH  10  35
TORSDOF 9
ENDMDL
MODEL 2
REMARK VINA RESULT:    -4.861      2.599      3.885
REMARK INTER + INTRA:          -6.900
REMARK INTER:                  -6.203
REMARK INTRA:                  -0.697
REMARK UNBOUND:                -0.334
REMARK SMILES O=c1c(-c2ccc(O)cc2)coc2c([C@@H]3O[C@@H](CO)[C@@H](O)[C@H](O)[C@@H]3O)c(O)ccc12
REMARK SMILES IDX 3 1 11 2 12 3 13 4 30 5 2 6 1 7 29 8 28 9 26 10 14 11 4 12
REMARK SMILES IDX 5 13 6 14 7 15 10 16 9 17 8 18 15 20 24 21 16 22 22 23 17 24
REMARK SMILES IDX 20 25 25 26 23 28 18 30 19 31 21 33 27 35
REMARK H PARENT 8 19 25 27 23 29 19 32 21 34 27 36
REMARK Flexibility Score: inf
ROOT
ATOM      1  C   UNL     1      -5.111 -15.792 -11.494  1.00  0.00     0.065 A 
ATOM      2  C   UNL     1      -5.417 -16.087 -12.830  1.00  0.00     0.208 A 
ATOM      3  O   UNL     1      -5.552 -17.342 -13.237  1.00  0.00    -0.463 OA
ATOM      4  C   UNL     1      -5.412 -18.391 -12.429  1.00  0.00     0.147 A 
ATOM      5  C   UNL     1      -5.115 -18.184 -11.063  1.00  0.00     0.066 A 
ATOM      6  C   UNL     1      -4.966 -16.865 -10.596  1.00  0.00     0.200 A 
ATOM      7  O   UNL     1      -4.727 -16.644  -9.376  1.00  0.00    -0.288 OA
ATOM      8  C   UNL     1      -4.987 -19.287 -10.205  1.00  0.00     0.020 A 
ATOM      9  C   UNL     1      -5.164 -20.580 -10.694  1.00  0.00     0.047 A 
ATOM     10  C   UNL     1      -5.463 -20.798 -12.044  1.00  0.00     0.125 A 
ATOM     11  C   UNL     1      -5.568 -19.705 -12.936  1.00  0.00     0.069 A 
ENDROOT
BRANCH   1  12
ATOM     12  C   UNL     1      -4.956 -14.379 -11.064  1.00  0.00    -0.011 A 
ATOM     13  C   UNL     1      -4.024 -13.537 -11.696  1.00  0.00     0.013 A 
ATOM     14  C   UNL     1      -3.888 -12.204 -11.294  1.00  0.00     0.047 A 
ATOM     15  C   UNL     1      -4.685 -11.698 -10.259  1.00  0.00     0.115 A 
ATOM     16  C   UNL     1      -5.755 -13.860 -10.031  1.00  0.00     0.013 A 
ATOM     17  C   UNL     1      -5.617 -12.528  -9.630  1.00  0.00     0.047 A 
BRANCH  15  18
ATOM     18  O   UNL     1      -4.558 -10.372  -9.848  1.00  0.00    -0.508 OA
ATOM     19  H   UNL     1      -4.568 -10.118  -8.867  1.00  0.00     0.293 HD
ENDBRANCH  15  18
ENDBRANCH   1  12
BRANCH  11  20
ATOM     20  C   UNL     1      -5.919 -19.956 -14.398  1.00  0.00     0.188 C 
ATOM     21  C   UNL     1      -4.660 -20.372 -15.185  1.00  0.00     0.179 C 
ATOM     22  O   UNL     1      -6.939 -20.938 -14.494  1.00  0.00    -0.362 OA
ATOM     23  C   UNL     1      -5.026 -20.554 -16.666  1.00  0.00     0.177 C 
ATOM     24  C   UNL     1      -7.376 -21.164 -15.829  1.00  0.00     0.176 C 
ATOM     25  C   UNL     1      -6.215 -21.522 -16.799  1.00  0.00     0.177 C 
BRANCH  21  26
ATOM     26  O   UNL     1      -4.137 -21.568 -14.661  1.00  0.00    -0.387 OA
ATOM     27  H   UNL     1      -3.794 -21.361 -13.753  1.00  0.00     0.211 HD
ENDBRANCH  21  26
BRANCH  23  28
ATOM     28  O   UNL     1      -3.929 -21.063 -17.381  1.00  0.00    -0.387 OA
ATOM     29  H   UNL     1      -3.456 -20.283 -17.774  1.00  0.00     0.211 HD
ENDBRANCH  23  28
BRANCH  24  30
ATOM     30  C   UNL     1      -8.355 -20.073 -16.324  1.00  0.00     0.191 C 
BRANCH  30  31
ATOM     31  O   UNL     1      -9.133 -20.514 -17.402  1.00  0.00    -0.394 OA
ATOM     32  H   UNL     1     -10.043 -20.145 -17.255  1.00  0.00     0.210 HD
ENDBRANCH  30  31
ENDBRANCH  24  30
BRANCH  25  33
ATOM     33  O   UNL     1      -6.685 -21.540 -18.124  1.00  0.00    -0.388 OA
ATOM     34  H   UNL     1      -7.522 -22.073 -18.127  1.00  0.00     0.211 HD
ENDBRANCH  25  33
ENDBRANCH  11  20
BRANCH  10  35
ATOM     35  O   UNL     1      -5.660 -22.101 -12.500  1.00  0.00    -0.507 OA
ATOM     36  H   UNL     1      -4.952 -22.817 -12.388  1.00  0.00     0.293 HD
ENDBRANCH  10  35
TORSDOF 9
ENDMDL
MODEL 3
REMARK VINA RESULT:    -4.162      3.885      5.820
REMARK INTER + INTRA:          -5.956
REMARK INTER:                  -6.094
REMARK INTRA:                   0.138
REMARK UNBOUND:                -0.334
REMARK SMILES O=c1c(-c2ccc(O)cc2)coc2c([C@@H]3O[C@@H](CO)[C@@H](O)[C@H](O)[C@@H]3O)c(O)ccc12
REMARK SMILES IDX 3 1 11 2 12 3 13 4 30 5 2 6 1 7 29 8 28 9 26 10 14 11 4 12
REMARK SMILES IDX 5 13 6 14 7 15 10 16 9 17 8 18 15 20 24 21 16 22 22 23 17 24
REMARK SMILES IDX 20 25 25 26 23 28 18 30 19 31 21 33 27 35
REMARK H PARENT 8 19 25 27 23 29 19 32 21 34 27 36
REMARK Flexibility Score: inf
ROOT
ATOM      1  C   UNL     1      -5.685 -15.900 -14.651  1.00  0.00     0.065 A 
ATOM      2  C   UNL     1      -5.726 -17.193 -15.191  1.00  0.00     0.208 A 
ATOM      3  O   UNL     1      -5.569 -18.259 -14.418  1.00  0.00    -0.463 OA
ATOM      4  C   UNL     1      -5.366 -18.185 -13.105  1.00  0.00     0.147 A 
ATOM      5  C   UNL     1      -5.321 -16.920 -12.475  1.00  0.00     0.066 A 
ATOM      6  C   UNL     1      -5.486 -15.767 -13.265  1.00  0.00     0.200 A 
ATOM      7  O   UNL     1      -5.480 -14.623 -12.732  1.00  0.00    -0.288 OA
ATOM      8  C   UNL     1      -5.128 -16.840 -11.088  1.00  0.00     0.020 A 
ATOM      9  C   UNL     1      -4.992 -18.002 -10.331  1.00  0.00     0.047 A 
ATOM     10  C   UNL     1      -5.038 -19.261 -10.941  1.00  0.00     0.125 A 
ATOM     11  C   UNL     1      -5.202 -19.368 -12.341  1.00  0.00     0.069 A 
ENDROOT
BRANCH   1  12
ATOM     12  C   UNL     1      -5.855 -14.721 -15.539  1.00  0.00    -0.011 A 
ATOM     13  C   UNL     1      -7.138 -14.296 -15.926  1.00  0.00     0.013 A 
ATOM     14  C   UNL     1      -7.293 -13.180 -16.754  1.00  0.00     0.047 A 
ATOM     15  C   UNL     1      -6.168 -12.474 -17.202  1.00  0.00     0.115 A 
ATOM     16  C   UNL     1      -4.732 -14.003 -15.988  1.00  0.00     0.013 A 
ATOM     17  C   UNL     1      -4.890 -12.889 -16.817  1.00  0.00     0.047 A 
BRANCH  15  18
ATOM     18  O   UNL     1      -6.310 -11.362 -18.029  1.00  0.00    -0.508 OA
ATOM     19  H   UNL     1      -6.762 -10.514 -17.704  1.00  0.00     0.293 HD
ENDBRANCH  15  18
ENDBRANCH   1  12
BRANCH  11  20
ATOM     20  C   UNL     1      -5.275 -20.747 -12.989  1.00  0.00     0.188 C 
ATOM     21  C   UNL     1      -6.455 -21.549 -12.402  1.00  0.00     0.179 C 
ATOM     22  O   UNL     1      -5.383 -20.620 -14.398  1.00  0.00    -0.362 OA
ATOM     23  C   UNL     1      -6.467 -22.956 -13.021  1.00  0.00     0.177 C 
ATOM     24  C   UNL     1      -5.374 -21.870 -15.076  1.00  0.00     0.176 C 
ATOM     25  C   UNL     1      -6.459 -22.855 -14.557  1.00  0.00     0.177 C 
BRANCH  21  26
ATOM     26  O   UNL     1      -7.667 -20.887 -12.668  1.00  0.00    -0.387 OA
ATOM     27  H   UNL     1      -8.368 -21.339 -12.131  1.00  0.00     0.211 HD
ENDBRANCH  21  26
BRANCH  23  28
ATOM     28  O   UNL     1      -7.609 -23.660 -12.605  1.00  0.00    -0.387 OA
ATOM     29  H   UNL     1      -7.614 -24.519 -13.104  1.00  0.00     0.211 HD
ENDBRANCH  23  28
BRANCH  24  30
ATOM     30  C   UNL     1      -3.949 -22.455 -15.220  1.00  0.00     0.191 C 
BRANCH  30  31
ATOM     31  O   UNL     1      -3.875 -23.417 -16.235  1.00  0.00    -0.394 OA
ATOM     32  H   UNL     1      -3.728 -24.288 -15.780  1.00  0.00     0.210 HD
ENDBRANCH  30  31
ENDBRANCH  24  30
BRANCH  25  33
ATOM     33  O   UNL     1      -6.269 -24.125 -15.129  1.00  0.00    -0.388 OA
ATOM     34  H   UNL     1      -7.142 -24.595 -15.089  1.00  0.00     0.211 HD
ENDBRANCH  25  33
ENDBRANCH  11  20
BRANCH  10  35
ATOM     35  O   UNL     1      -4.925 -20.407 -10.154  1.00  0.00    -0.507 OA
ATOM     36  H   UNL     1      -5.726 -20.994  -9.950  1.00  0.00     0.293 HD
ENDBRANCH  10  35
TORSDOF 9
ENDMDL
