MODEL 1
REMARK VINA RESULT:    -3.657      0.000      0.000
REMARK INTER + INTRA:          -3.978
REMARK INTER:                  -3.978
REMARK INTRA:                   0.000
REMARK UNBOUND:                 0.000
REMARK SMILES Oc1cccc(O)c1O
REMARK SMILES IDX 4 1 5 2 6 3 8 4 2 5 3 6 7 7 1 9 9 11
REMARK H PARENT 7 8 1 10 9 12
REMARK Flexibility Score: inf
ROOT
ATOM      1  C   UNL     1      -6.363   9.072 -21.978  1.00  0.00     0.008 A 
ATOM      2  C   UNL     1      -6.278   7.895 -22.721  1.00  0.00     0.050 A 
ATOM      3  C   UNL     1      -7.185   6.850 -22.506  1.00  0.00     0.161 A 
ATOM      4  C   UNL     1      -8.198   6.994 -21.524  1.00  0.00     0.200 A 
ATOM      5  C   UNL     1      -8.273   8.188 -20.780  1.00  0.00     0.161 A 
ATOM      6  C   UNL     1      -7.357   9.218 -21.011  1.00  0.00     0.050 A 
ENDROOT
BRANCH   3   7
ATOM      7  O   UNL     1      -7.044   5.699 -23.284  1.00  0.00    -0.504 OA
ATOM      8  H   UNL     1      -7.789   5.040 -23.461  1.00  0.00     0.293 HD
ENDBRANCH   3   7
BRANCH   5   9
ATOM      9  O   UNL     1      -9.254   8.369 -19.805  1.00  0.00    -0.504 OA
ATOM     10  H   UNL     1      -9.224   9.136 -19.144  1.00  0.00     0.293 HD
ENDBRANCH   5   9
BRANCH   4  11
ATOM     11  O   UNL     1      -9.131   5.988 -21.264  1.00  0.00    -0.502 OA
ATOM     12  H   UNL     1      -8.997   5.250 -20.587  1.00  0.00     0.293 HD
ENDBRANCH   4  11
TORSDOF 3
ENDMDL
MODEL 2
REMARK VINA RESULT:    -3.653      2.285      2.928
REMARK INTER + INTRA:          -3.974
REMARK INTER:                  -3.974
REMARK INTRA:                   0.000
REMARK UNBOUND:                 0.000
REMARK SMILES Oc1cccc(O)c1O
REMARK SMILES IDX 4 1 5 2 6 3 8 4 2 5 3 6 7 7 1 9 9 11
REMARK H PARENT 7 8 1 10 9 12
REMARK Flexibility Score: inf
ROOT
ATOM      1  C   UNL     1      -5.889   9.135 -21.743  1.00  0.00     0.008 A 
ATOM      2  C   UNL     1      -6.757   8.237 -21.122  1.00  0.00     0.050 A 
ATOM      3  C   UNL     1      -8.129   8.264 -21.399  1.00  0.00     0.161 A 
ATOM      4  C   UNL     1      -8.637   9.215 -22.321  1.00  0.00     0.200 A 
ATOM      5  C   UNL     1      -7.749  10.116 -22.942  1.00  0.00     0.161 A 
ATOM      6  C   UNL     1      -6.384  10.071 -22.650  1.00  0.00     0.050 A 
ENDROOT
BRANCH   3   7
ATOM      7  O   UNL     1      -8.942   7.338 -20.743  1.00  0.00    -0.504 OA
ATOM      8  H   UNL     1      -9.147   6.414 -21.096  1.00  0.00     0.293 HD
ENDBRANCH   3   7
BRANCH   5   9
ATOM      9  O   UNL     1      -8.209  11.066 -23.854  1.00  0.00    -0.504 OA
ATOM     10  H   UNL     1      -8.960  10.871 -24.507  1.00  0.00     0.293 HD
ENDBRANCH   5   9
BRANCH   4  11
ATOM     11  O   UNL     1      -9.994   9.292 -22.639  1.00  0.00    -0.502 OA
ATOM     12  H   UNL     1     -10.579  10.091 -22.442  1.00  0.00     0.293 HD
ENDBRANCH   4  11
TORSDOF 3
ENDMDL
MODEL 3
REMARK VINA RESULT:    -3.653      0.190      2.829
REMARK INTER + INTRA:          -3.973
REMARK INTER:                  -3.973
REMARK INTRA:                   0.000
REMARK UNBOUND:                 0.000
REMARK SMILES Oc1cccc(O)c1O
REMARK SMILES IDX 4 1 5 2 6 3 8 4 2 5 3 6 7 7 1 9 9 11
REMARK H PARENT 7 8 1 10 9 12
REMARK Flexibility Score: inf
ROOT
ATOM      1  C   UNL     1      -6.471   8.932 -22.126  1.00  0.00     0.008 A 
ATOM      2  C   UNL     1      -7.414   9.129 -21.117  1.00  0.00     0.050 A 
ATOM      3  C   UNL     1      -8.326   8.120 -20.788  1.00  0.00     0.161 A 
ATOM      4  C   UNL     1      -8.289   6.888 -21.489  1.00  0.00     0.200 A 
ATOM      5  C   UNL     1      -7.332   6.702 -22.506  1.00  0.00     0.161 A 
ATOM      6  C   UNL     1      -6.430   7.723 -22.818  1.00  0.00     0.050 A 
ENDROOT
BRANCH   3   7
ATOM      7  O   UNL     1      -9.244   8.383 -19.768  1.00  0.00    -0.504 OA
ATOM      8  H   UNL     1     -10.075   8.944 -19.885  1.00  0.00     0.293 HD
ENDBRANCH   3   7
BRANCH   5   9
ATOM      9  O   UNL     1      -7.263   5.505 -23.219  1.00  0.00    -0.504 OA
ATOM     10  H   UNL     1      -7.611   5.418 -24.167  1.00  0.00     0.293 HD
ENDBRANCH   5   9
BRANCH   4  11
ATOM     11  O   UNL     1      -9.173   5.844 -21.207  1.00  0.00    -0.502 OA
ATOM     12  H   UNL     1      -8.886   4.899 -20.994  1.00  0.00     0.293 HD
ENDBRANCH   4  11
TORSDOF 3
ENDMDL
MODEL 4
REMARK VINA RESULT:    -3.635      2.340      3.665
REMARK INTER + INTRA:          -3.953
REMARK INTER:                  -3.953
REMARK INTRA:                   0.000
REMARK UNBOUND:                 0.000
REMARK SMILES Oc1cccc(O)c1O
REMARK SMILES IDX 4 1 5 2 6 3 8 4 2 5 3 6 7 7 1 9 9 11
REMARK H PARENT 7 8 1 10 9 12
REMARK Flexibility Score: inf
ROOT
ATOM      1  C   UNL     1      -6.134   5.254 -21.034  1.00  0.00     0.008 A 
ATOM      2  C   UNL     1      -6.823   6.441 -21.286  1.00  0.00     0.050 A 
ATOM      3  C   UNL     1      -8.122   6.414 -21.807  1.00  0.00     0.161 A 
ATOM      4  C   UNL     1      -8.740   5.167 -22.081  1.00  0.00     0.200 A 
ATOM      5  C   UNL     1      -8.033   3.976 -21.822  1.00  0.00     0.161 A 
ATOM      6  C   UNL     1      -6.738   4.026 -21.301  1.00  0.00     0.050 A 
ENDROOT
BRANCH   3   7
ATOM      7  O   UNL     1      -8.755   7.638 -22.035  1.00  0.00    -0.504 OA
ATOM      8  H   UNL     1      -9.128   8.227 -21.305  1.00  0.00     0.293 HD
ENDBRANCH   3   7
BRANCH   5   9
ATOM      9  O   UNL     1      -8.605   2.729 -22.077  1.00  0.00    -0.504 OA
ATOM     10  H   UNL     1      -9.415   2.618 -22.677  1.00  0.00     0.293 HD
ENDBRANCH   5   9
BRANCH   4  11
ATOM     11  O   UNL     1     -10.032   5.075 -22.601  1.00  0.00    -0.502 OA
ATOM     12  H   UNL     1     -10.250   5.083 -23.587  1.00  0.00     0.293 HD
ENDBRANCH   4  11
TORSDOF 3
ENDMDL
MODEL 5
REMARK VINA RESULT:    -3.614      2.312      2.814
REMARK INTER + INTRA:          -3.931
REMARK INTER:                  -3.931
REMARK INTRA:                   0.000
REMARK UNBOUND:                 0.000
REMARK SMILES Oc1cccc(O)c1O
REMARK SMILES IDX 4 1 5 2 6 3 8 4 2 5 3 6 7 7 1 9 9 11
REMARK H PARENT 7 8 1 10 9 12
REMARK Flexibility Score: inf
ROOT
ATOM      1  C   UNL     1      -5.917   9.283 -21.783  1.00  0.00     0.008 A 
ATOM      2  C   UNL     1      -6.432  10.176 -22.722  1.00  0.00     0.050 A 
ATOM      3  C   UNL     1      -7.801  10.195 -23.012  1.00  0.00     0.161 A 
ATOM      4  C   UNL     1      -8.669   9.296 -22.343  1.00  0.00     0.200 A 
ATOM      5  C   UNL     1      -8.137   8.399 -21.396  1.00  0.00     0.161 A 
ATOM      6  C   UNL     1      -6.767   8.397 -21.122  1.00  0.00     0.050 A 
ENDROOT
BRANCH   3   7
ATOM      7  O   UNL     1      -8.250  11.114 -23.963  1.00  0.00    -0.504 OA
ATOM      8  H   UNL     1      -9.223  11.267 -24.187  1.00  0.00     0.293 HD
ENDBRANCH   3   7
BRANCH   5   9
ATOM      9  O   UNL     1      -8.958   7.498 -20.716  1.00  0.00    -0.504 OA
ATOM     10  H   UNL     1      -9.022   6.521 -20.976  1.00  0.00     0.293 HD
ENDBRANCH   5   9
BRANCH   4  11
ATOM     11  O   UNL     1     -10.044   9.266 -22.588  1.00  0.00    -0.502 OA
ATOM     12  H   UNL     1     -10.749   9.210 -21.867  1.00  0.00     0.293 HD
ENDBRANCH   4  11
TORSDOF 3
ENDMDL
MODEL 6
REMARK VINA RESULT:    -3.603      1.276      2.265
REMARK INTER + INTRA:          -3.919
REMARK INTER:                  -3.919
REMARK INTRA:                   0.000
REMARK UNBOUND:                 0.000
REMARK SMILES Oc1cccc(O)c1O
REMARK SMILES IDX 4 1 5 2 6 3 8 4 2 5 3 6 7 7 1 9 9 11
REMARK H PARENT 7 8 1 10 9 12
REMARK Flexibility Score: inf
ROOT
ATOM      1  C   UNL     1      -6.020   6.567 -22.690  1.00  0.00     0.008 A 
ATOM      2  C   UNL     1      -7.166   5.817 -22.426  1.00  0.00     0.050 A 
ATOM      3  C   UNL     1      -8.202   6.349 -21.648  1.00  0.00     0.161 A 
ATOM      4  C   UNL     1      -8.080   7.661 -21.125  1.00  0.00     0.200 A 
ATOM      5  C   UNL     1      -6.918   8.408 -21.399  1.00  0.00     0.161 A 
ATOM      6  C   UNL     1      -5.896   7.858 -22.178  1.00  0.00     0.050 A 
ENDROOT
BRANCH   3   7
ATOM      7  O   UNL     1      -9.321   5.545 -21.422  1.00  0.00    -0.504 OA
ATOM      8  H   UNL     1      -9.615   4.799 -22.036  1.00  0.00     0.293 HD
ENDBRANCH   3   7
BRANCH   5   9
ATOM      9  O   UNL     1      -6.760   9.703 -20.904  1.00  0.00    -0.504 OA
ATOM     10  H   UNL     1      -6.722  10.514 -21.510  1.00  0.00     0.293 HD
ENDBRANCH   5   9
BRANCH   4  11
ATOM     11  O   UNL     1      -9.079   8.246 -20.343  1.00  0.00    -0.502 OA
ATOM     12  H   UNL     1      -9.429   7.852 -19.482  1.00  0.00     0.293 HD
ENDBRANCH   4  11
TORSDOF 3
ENDMDL
MODEL 7
REMARK VINA RESULT:    -3.521      2.518      3.018
REMARK INTER + INTRA:          -3.830
REMARK INTER:                  -3.830
REMARK INTRA:                   0.000
REMARK UNBOUND:                 0.000
REMARK SMILES Oc1cccc(O)c1O
REMARK SMILES IDX 4 1 5 2 6 3 8 4 2 5 3 6 7 7 1 9 9 11
REMARK H PARENT 7 8 1 10 9 12
REMARK Flexibility Score: inf
ROOT
ATOM      1  C   UNL     1      -7.369  10.434 -24.101  1.00  0.00     0.008 A 
ATOM      2  C   UNL     1      -6.603  10.036 -23.006  1.00  0.00     0.050 A 
ATOM      3  C   UNL     1      -7.197   9.382 -21.920  1.00  0.00     0.161 A 
ATOM      4  C   UNL     1      -8.591   9.123 -21.938  1.00  0.00     0.200 A 
ATOM      5  C   UNL     1      -9.354   9.529 -23.051  1.00  0.00     0.161 A 
ATOM      6  C   UNL     1      -8.740  10.181 -24.124  1.00  0.00     0.050 A 
ENDROOT
BRANCH   3   7
ATOM      7  O   UNL     1      -6.372   9.011 -20.856  1.00  0.00    -0.504 OA
ATOM      8  H   UNL     1      -5.412   8.717 -20.960  1.00  0.00     0.293 HD
ENDBRANCH   3   7
BRANCH   5   9
ATOM      9  O   UNL     1     -10.728   9.293 -23.107  1.00  0.00    -0.504 OA
ATOM     10  H   UNL     1     -11.349   9.849 -23.684  1.00  0.00     0.293 HD
ENDBRANCH   5   9
BRANCH   4  11
ATOM     11  O   UNL     1      -9.242   8.474 -20.886  1.00  0.00    -0.502 OA
ATOM     12  H   UNL     1      -9.306   8.839 -19.947  1.00  0.00     0.293 HD
ENDBRANCH   4  11
TORSDOF 3
ENDMDL
MODEL 8
REMARK VINA RESULT:    -3.505      2.100      2.479
REMARK INTER + INTRA:          -3.812
REMARK INTER:                  -3.812
REMARK INTRA:                   0.000
REMARK UNBOUND:                 0.000
REMARK SMILES Oc1cccc(O)c1O
REMARK SMILES IDX 4 1 5 2 6 3 8 4 2 5 3 6 7 7 1 9 9 11
REMARK H PARENT 7 8 1 10 9 12
REMARK Flexibility Score: inf
ROOT
ATOM      1  C   UNL     1      -5.891   6.192 -20.778  1.00  0.00     0.008 A 
ATOM      2  C   UNL     1      -6.265   4.858 -20.938  1.00  0.00     0.050 A 
ATOM      3  C   UNL     1      -7.514   4.528 -21.476  1.00  0.00     0.161 A 
ATOM      4  C   UNL     1      -8.405   5.562 -21.859  1.00  0.00     0.200 A 
ATOM      5  C   UNL     1      -8.016   6.906 -21.693  1.00  0.00     0.161 A 
ATOM      6  C   UNL     1      -6.763   7.212 -21.154  1.00  0.00     0.050 A 
ENDROOT
BRANCH   3   7
ATOM      7  O   UNL     1      -7.826   3.173 -21.609  1.00  0.00    -0.504 OA
ATOM      8  H   UNL     1      -7.711   2.491 -20.873  1.00  0.00     0.293 HD
ENDBRANCH   3   7
BRANCH   5   9
ATOM      9  O   UNL     1      -8.863   7.952 -22.058  1.00  0.00    -0.504 OA
ATOM     10  H   UNL     1      -9.665   8.220 -21.499  1.00  0.00     0.293 HD
ENDBRANCH   5   9
BRANCH   4  11
ATOM     11  O   UNL     1      -9.665   5.297 -22.402  1.00  0.00    -0.502 OA
ATOM     12  H   UNL     1     -10.161   4.425 -22.285  1.00  0.00     0.293 HD
ENDBRANCH   4  11
TORSDOF 3
ENDMDL
