MODEL 1
REMARK VINA RESULT:    -4.959      0.000      0.000
REMARK INTER + INTRA:          -8.364
REMARK INTER:                  -7.279
REMARK INTRA:                  -1.085
REMARK UNBOUND:                -1.085
REMARK SMILES CC(C)COC(=O)c1ccccc1C(=O)OCC(C)C
REMARK SMILES IDX 8 1 9 2 10 3 11 4 12 5 13 6 6 7 7 8 5 9 4 10 2 11 1 12 3 13
REMARK SMILES IDX 14 14 15 15 16 16 17 17 18 18 19 19 20 20
REMARK H PARENT
REMARK Flexibility Score: inf
ROOT
ATOM      1  C   UNL     1      27.775  36.569  19.576  1.00  0.00     0.074 A 
ATOM      2  C   UNL     1      28.880  37.437  19.566  1.00  0.00     0.016 A 
ATOM      3  C   UNL     1      28.808  38.678  18.934  1.00  0.00     0.001 A 
ATOM      4  C   UNL     1      27.631  39.072  18.302  1.00  0.00     0.001 A 
ATOM      5  C   UNL     1      26.514  38.235  18.318  1.00  0.00     0.016 A 
ATOM      6  C   UNL     1      26.558  36.989  18.970  1.00  0.00     0.074 A 
ENDROOT
BRANCH   1   7
ATOM      7  C   UNL     1      27.960  35.222  20.162  1.00  0.00     0.339 C 
ATOM      8  O   UNL     1      28.084  34.214  19.414  1.00  0.00    -0.246 OA
BRANCH   7   9
ATOM      9  O   UNL     1      28.055  35.087  21.553  1.00  0.00    -0.462 OA
BRANCH   9  10
ATOM     10  C   UNL     1      28.594  33.938  22.208  1.00  0.00     0.236 C 
BRANCH  10  11
ATOM     11  C   UNL     1      28.301  33.955  23.720  1.00  0.00     0.021 C 
ATOM     12  C   UNL     1      27.136  34.888  24.071  1.00  0.00     0.011 C 
ATOM     13  C   UNL     1      28.039  32.539  24.251  1.00  0.00     0.011 C 
ENDBRANCH  10  11
ENDBRANCH   9  10
ENDBRANCH   7   9
ENDBRANCH   1   7
BRANCH   6  14
ATOM     14  C   UNL     1      25.306  36.202  19.044  1.00  0.00     0.339 C 
ATOM     15  O   UNL     1      25.122  35.221  18.272  1.00  0.00    -0.246 OA
BRANCH  14  16
ATOM     16  O   UNL     1      24.351  36.520  20.015  1.00  0.00    -0.462 OA
BRANCH  16  17
ATOM     17  C   UNL     1      24.687  37.148  21.249  1.00  0.00     0.236 C 
BRANCH  17  18
ATOM     18  C   UNL     1      24.252  38.620  21.226  1.00  0.00     0.021 C 
ATOM     19  C   UNL     1      25.453  39.538  21.476  1.00  0.00     0.011 C 
ATOM     20  C   UNL     1      23.153  38.886  22.265  1.00  0.00     0.011 C 
ENDBRANCH  17  18
ENDBRANCH  16  17
ENDBRANCH  14  16
ENDBRANCH   6  14
TORSDOF 8
ENDMDL
MODEL 2
REMARK VINA RESULT:    -4.568      2.929      4.546
REMARK INTER + INTRA:          -7.790
REMARK INTER:                  -6.367
REMARK INTRA:                  -1.424
REMARK UNBOUND:                -1.085
REMARK SMILES CC(C)COC(=O)c1ccccc1C(=O)OCC(C)C
REMARK SMILES IDX 8 1 9 2 10 3 11 4 12 5 13 6 6 7 7 8 5 9 4 10 2 11 1 12 3 13
REMARK SMILES IDX 14 14 15 15 16 16 17 17 18 18 19 19 20 20
REMARK H PARENT
REMARK Flexibility Score: inf
ROOT
ATOM      1  C   UNL     1      26.227  37.932  19.734  1.00  0.00     0.074 A 
ATOM      2  C   UNL     1      25.352  36.858  19.498  1.00  0.00     0.016 A 
ATOM      3  C   UNL     1      24.216  36.676  20.287  1.00  0.00     0.001 A 
ATOM      4  C   UNL     1      23.937  37.563  21.324  1.00  0.00     0.001 A 
ATOM      5  C   UNL     1      24.781  38.649  21.562  1.00  0.00     0.016 A 
ATOM      6  C   UNL     1      25.919  38.865  20.763  1.00  0.00     0.074 A 
ENDROOT
BRANCH   1   7
ATOM      7  C   UNL     1      27.471  37.996  18.935  1.00  0.00     0.339 C 
ATOM      8  O   UNL     1      27.635  38.915  18.086  1.00  0.00    -0.246 OA
BRANCH   7   9
ATOM      9  O   UNL     1      28.487  37.062  19.172  1.00  0.00    -0.462 OA
BRANCH   9  10
ATOM     10  C   UNL     1      29.084  36.839  20.451  1.00  0.00     0.236 C 
BRANCH  10  11
ATOM     11  C   UNL     1      28.729  35.449  21.010  1.00  0.00     0.021 C 
ATOM     12  C   UNL     1      27.693  35.528  22.138  1.00  0.00     0.011 C 
ATOM     13  C   UNL     1      28.244  34.509  19.897  1.00  0.00     0.011 C 
ENDBRANCH  10  11
ENDBRANCH   9  10
ENDBRANCH   7   9
ENDBRANCH   1   7
BRANCH   6  14
ATOM     14  C   UNL     1      26.706  40.096  21.000  1.00  0.00     0.339 C 
ATOM     15  O   UNL     1      27.782  40.049  21.658  1.00  0.00    -0.246 OA
BRANCH  14  16
ATOM     16  O   UNL     1      26.278  41.303  20.440  1.00  0.00    -0.462 OA
BRANCH  16  17
ATOM     17  C   UNL     1      26.261  42.528  21.168  1.00  0.00     0.236 C 
BRANCH  17  18
ATOM     18  C   UNL     1      27.005  43.618  20.383  1.00  0.00     0.021 C 
ATOM     19  C   UNL     1      26.981  43.308  18.883  1.00  0.00     0.011 C 
ATOM     20  C   UNL     1      28.452  43.762  20.874  1.00  0.00     0.011 C 
ENDBRANCH  17  18
ENDBRANCH  16  17
ENDBRANCH  14  16
ENDBRANCH   6  14
TORSDOF 8
ENDMDL
MODEL 3
REMARK VINA RESULT:    -4.517      2.380      3.752
REMARK INTER + INTRA:          -7.715
REMARK INTER:                  -6.744
REMARK INTRA:                  -0.971
REMARK UNBOUND:                -1.085
REMARK SMILES CC(C)COC(=O)c1ccccc1C(=O)OCC(C)C
REMARK SMILES IDX 8 1 9 2 10 3 11 4 12 5 13 6 6 7 7 8 5 9 4 10 2 11 1 12 3 13
REMARK SMILES IDX 14 14 15 15 16 16 17 17 18 18 19 19 20 20
REMARK H PARENT
REMARK Flexibility Score: inf
ROOT
ATOM      1  C   UNL     1      26.105  37.206  20.785  1.00  0.00     0.074 A 
ATOM      2  C   UNL     1      24.885  36.668  21.230  1.00  0.00     0.016 A 
ATOM      3  C   UNL     1      23.854  37.501  21.666  1.00  0.00     0.001 A 
ATOM      4  C   UNL     1      24.026  38.883  21.666  1.00  0.00     0.001 A 
ATOM      5  C   UNL     1      25.222  39.440  21.209  1.00  0.00     0.016 A 
ATOM      6  C   UNL     1      26.265  38.619  20.743  1.00  0.00     0.074 A 
ENDROOT
BRANCH   1   7
ATOM      7  C   UNL     1      27.193  36.261  20.448  1.00  0.00     0.339 C 
ATOM      8  O   UNL     1      27.309  35.818  19.272  1.00  0.00    -0.246 OA
BRANCH   7   9
ATOM      9  O   UNL     1      28.125  35.908  21.433  1.00  0.00    -0.462 OA
BRANCH   9  10
ATOM     10  C   UNL     1      28.275  34.586  21.952  1.00  0.00     0.236 C 
BRANCH  10  11
ATOM     11  C   UNL     1      28.125  34.557  23.485  1.00  0.00     0.021 C 
ATOM     12  C   UNL     1      26.842  35.253  23.952  1.00  0.00     0.011 C 
ATOM     13  C   UNL     1      28.186  33.120  24.022  1.00  0.00     0.011 C 
ENDBRANCH  10  11
ENDBRANCH   9  10
ENDBRANCH   7   9
ENDBRANCH   1   7
BRANCH   6  14
ATOM     14  C   UNL     1      27.460  39.279  20.169  1.00  0.00     0.339 C 
ATOM     15  O   UNL     1      27.802  39.056  18.976  1.00  0.00    -0.246 OA
BRANCH  14  16
ATOM     16  O   UNL     1      28.176  40.197  20.944  1.00  0.00    -0.462 OA
BRANCH  16  17
ATOM     17  C   UNL     1      28.395  41.545  20.537  1.00  0.00     0.236 C 
BRANCH  17  18
ATOM     18  C   UNL     1      27.108  42.130  19.937  1.00  0.00     0.021 C 
ATOM     19  C   UNL     1      27.419  42.903  18.652  1.00  0.00     0.011 C 
ATOM     20  C   UNL     1      26.394  43.039  20.947  1.00  0.00     0.011 C 
ENDBRANCH  17  18
ENDBRANCH  16  17
ENDBRANCH  14  16
ENDBRANCH   6  14
TORSDOF 8
ENDMDL
MODEL 4
REMARK VINA RESULT:    -4.485      2.338      5.922
REMARK INTER + INTRA:          -7.668
REMARK INTER:                  -6.675
REMARK INTRA:                  -0.993
REMARK UNBOUND:                -1.085
REMARK SMILES CC(C)COC(=O)c1ccccc1C(=O)OCC(C)C
REMARK SMILES IDX 8 1 9 2 10 3 11 4 12 5 13 6 6 7 7 8 5 9 4 10 2 11 1 12 3 13
REMARK SMILES IDX 14 14 15 15 16 16 17 17 18 18 19 19 20 20
REMARK H PARENT
REMARK Flexibility Score: inf
ROOT
ATOM      1  C   UNL     1      26.195  38.600  20.629  1.00  0.00     0.074 A 
ATOM      2  C   UNL     1      25.150  39.419  21.089  1.00  0.00     0.016 A 
ATOM      3  C   UNL     1      23.998  38.862  21.646  1.00  0.00     0.001 A 
ATOM      4  C   UNL     1      23.873  37.478  21.750  1.00  0.00     0.001 A 
ATOM      5  C   UNL     1      24.908  36.647  21.319  1.00  0.00     0.016 A 
ATOM      6  C   UNL     1      26.087  37.190  20.777  1.00  0.00     0.074 A 
ENDROOT
BRANCH   1   7
ATOM      7  C   UNL     1      27.334  39.255  19.946  1.00  0.00     0.339 C 
ATOM      8  O   UNL     1      27.479  39.136  18.698  1.00  0.00    -0.246 OA
BRANCH   7   9
ATOM      9  O   UNL     1      28.213  40.053  20.688  1.00  0.00    -0.462 OA
BRANCH   9  10
ATOM     10  C   UNL     1      28.372  41.459  20.493  1.00  0.00     0.236 C 
BRANCH  10  11
ATOM     11  C   UNL     1      27.097  42.101  19.915  1.00  0.00     0.021 C 
ATOM     12  C   UNL     1      26.371  42.971  20.948  1.00  0.00     0.011 C 
ATOM     13  C   UNL     1      27.408  42.911  18.649  1.00  0.00     0.011 C 
ENDBRANCH  10  11
ENDBRANCH   9  10
ENDBRANCH   7   9
ENDBRANCH   1   7
BRANCH   6  14
ATOM     14  C   UNL     1      27.188  36.257  20.443  1.00  0.00     0.339 C 
ATOM     15  O   UNL     1      27.326  35.828  19.265  1.00  0.00    -0.246 OA
BRANCH  14  16
ATOM     16  O   UNL     1      28.108  35.899  21.433  1.00  0.00    -0.462 OA
BRANCH  16  17
ATOM     17  C   UNL     1      28.285  34.555  21.873  1.00  0.00     0.236 C 
BRANCH  17  18
ATOM     18  C   UNL     1      28.208  34.488  23.405  1.00  0.00     0.021 C 
ATOM     19  C   UNL     1      28.264  33.032  23.881  1.00  0.00     0.011 C 
ATOM     20  C   UNL     1      26.934  35.169  23.923  1.00  0.00     0.011 C 
ENDBRANCH  17  18
ENDBRANCH  16  17
ENDBRANCH  14  16
ENDBRANCH   6  14
TORSDOF 8
ENDMDL
MODEL 5
REMARK VINA RESULT:    -4.314      6.223     10.525
REMARK INTER + INTRA:          -7.418
REMARK INTER:                  -6.830
REMARK INTRA:                  -0.587
REMARK UNBOUND:                -1.085
REMARK SMILES CC(C)COC(=O)c1ccccc1C(=O)OCC(C)C
REMARK SMILES IDX 8 1 9 2 10 3 11 4 12 5 13 6 6 7 7 8 5 9 4 10 2 11 1 12 3 13
REMARK SMILES IDX 14 14 15 15 16 16 17 17 18 18 19 19 20 20
REMARK H PARENT
REMARK Flexibility Score: inf
ROOT
ATOM      1  C   UNL     1      26.822  27.898  26.353  1.00  0.00     0.074 A 
ATOM      2  C   UNL     1      26.560  26.527  26.186  1.00  0.00     0.016 A 
ATOM      3  C   UNL     1      27.560  25.656  25.752  1.00  0.00     0.001 A 
ATOM      4  C   UNL     1      28.837  26.141  25.478  1.00  0.00     0.001 A 
ATOM      5  C   UNL     1      29.125  27.495  25.658  1.00  0.00     0.016 A 
ATOM      6  C   UNL     1      28.137  28.386  26.116  1.00  0.00     0.074 A 
ENDROOT
BRANCH   1   7
ATOM      7  C   UNL     1      25.686  28.779  26.702  1.00  0.00     0.339 C 
ATOM      8  O   UNL     1      25.149  29.504  25.820  1.00  0.00    -0.246 OA
BRANCH   7   9
ATOM      9  O   UNL     1      25.177  28.758  28.007  1.00  0.00    -0.462 OA
BRANCH   9  10
ATOM     10  C   UNL     1      23.787  28.645  28.319  1.00  0.00     0.236 C 
BRANCH  10  11
ATOM     11  C   UNL     1      23.239  27.248  27.973  1.00  0.00     0.021 C 
ATOM     12  C   UNL     1      24.168  26.128  28.454  1.00  0.00     0.011 C 
ATOM     13  C   UNL     1      21.823  27.053  28.532  1.00  0.00     0.011 C 
ENDBRANCH  10  11
ENDBRANCH   9  10
ENDBRANCH   7   9
ENDBRANCH   1   7
BRANCH   6  14
ATOM     14  C   UNL     1      28.541  29.784  26.390  1.00  0.00     0.339 C 
ATOM     15  O   UNL     1      28.409  30.272  27.546  1.00  0.00    -0.246 OA
BRANCH  14  16
ATOM     16  O   UNL     1      29.122  30.544  25.370  1.00  0.00    -0.462 OA
BRANCH  16  17
ATOM     17  C   UNL     1      28.981  31.959  25.287  1.00  0.00     0.236 C 
BRANCH  17  18
ATOM     18  C   UNL     1      28.153  32.333  24.049  1.00  0.00     0.021 C 
ATOM     19  C   UNL     1      28.784  31.743  22.784  1.00  0.00     0.011 C 
ATOM     20  C   UNL     1      28.016  33.856  23.916  1.00  0.00     0.011 C 
ENDBRANCH  17  18
ENDBRANCH  16  17
ENDBRANCH  14  16
ENDBRANCH   6  14
TORSDOF 8
ENDMDL
MODEL 6
REMARK VINA RESULT:    -4.288      2.450      5.127
REMARK INTER + INTRA:          -7.379
REMARK INTER:                  -6.910
REMARK INTRA:                  -0.469
REMARK UNBOUND:                -1.085
REMARK SMILES CC(C)COC(=O)c1ccccc1C(=O)OCC(C)C
REMARK SMILES IDX 8 1 9 2 10 3 11 4 12 5 13 6 6 7 7 8 5 9 4 10 2 11 1 12 3 13
REMARK SMILES IDX 14 14 15 15 16 16 17 17 18 18 19 19 20 20
REMARK H PARENT
REMARK Flexibility Score: inf
ROOT
ATOM      1  C   UNL     1      27.252  40.961  19.539  1.00  0.00     0.074 A 
ATOM      2  C   UNL     1      27.428  42.326  19.253  1.00  0.00     0.016 A 
ATOM      3  C   UNL     1      28.240  42.735  18.195  1.00  0.00     0.001 A 
ATOM      4  C   UNL     1      28.890  41.788  17.407  1.00  0.00     0.001 A 
ATOM      5  C   UNL     1      28.712  40.427  17.659  1.00  0.00     0.016 A 
ATOM      6  C   UNL     1      27.879  39.992  18.706  1.00  0.00     0.074 A 
ENDROOT
BRANCH   1   7
ATOM      7  C   UNL     1      26.472  40.604  20.745  1.00  0.00     0.339 C 
ATOM      8  O   UNL     1      26.601  41.274  21.806  1.00  0.00    -0.246 OA
BRANCH   7   9
ATOM      9  O   UNL     1      25.550  39.552  20.679  1.00  0.00    -0.462 OA
BRANCH   9  10
ATOM     10  C   UNL     1      25.589  38.403  21.528  1.00  0.00     0.236 C 
BRANCH  10  11
ATOM     11  C   UNL     1      24.224  37.691  21.583  1.00  0.00     0.021 C 
ATOM     12  C   UNL     1      23.063  38.681  21.737  1.00  0.00     0.011 C 
ATOM     13  C   UNL     1      24.013  36.797  20.354  1.00  0.00     0.011 C 
ENDBRANCH  10  11
ENDBRANCH   9  10
ENDBRANCH   7   9
ENDBRANCH   1   7
BRANCH   6  14
ATOM     14  C   UNL     1      27.648  38.536  18.847  1.00  0.00     0.339 C 
ATOM     15  O   UNL     1      26.716  37.973  18.211  1.00  0.00    -0.246 OA
BRANCH  14  16
ATOM     16  O   UNL     1      28.508  37.779  19.649  1.00  0.00    -0.462 OA
BRANCH  16  17
ATOM     17  C   UNL     1      28.876  36.439  19.333  1.00  0.00     0.236 C 
BRANCH  17  18
ATOM     18  C   UNL     1      27.956  35.454  20.070  1.00  0.00     0.021 C 
ATOM     19  C   UNL     1      28.004  35.704  21.581  1.00  0.00     0.011 C 
ATOM     20  C   UNL     1      28.343  34.001  19.758  1.00  0.00     0.011 C 
ENDBRANCH  17  18
ENDBRANCH  16  17
ENDBRANCH  14  16
ENDBRANCH   6  14
TORSDOF 8
ENDMDL
MODEL 7
REMARK VINA RESULT:    -4.239      2.529      3.949
REMARK INTER + INTRA:          -7.307
REMARK INTER:                  -6.781
REMARK INTRA:                  -0.526
REMARK UNBOUND:                -1.085
REMARK SMILES CC(C)COC(=O)c1ccccc1C(=O)OCC(C)C
REMARK SMILES IDX 8 1 9 2 10 3 11 4 12 5 13 6 6 7 7 8 5 9 4 10 2 11 1 12 3 13
REMARK SMILES IDX 14 14 15 15 16 16 17 17 18 18 19 19 20 20
REMARK H PARENT
REMARK Flexibility Score: inf
ROOT
ATOM      1  C   UNL     1      27.981  40.080  18.617  1.00  0.00     0.074 A 
ATOM      2  C   UNL     1      28.826  40.445  17.554  1.00  0.00     0.016 A 
ATOM      3  C   UNL     1      29.071  41.787  17.265  1.00  0.00     0.001 A 
ATOM      4  C   UNL     1      28.476  42.786  18.032  1.00  0.00     0.001 A 
ATOM      5  C   UNL     1      27.651  42.446  19.105  1.00  0.00     0.016 A 
ATOM      6  C   UNL     1      27.409  41.098  19.428  1.00  0.00     0.074 A 
ENDROOT
BRANCH   1   7
ATOM      7  C   UNL     1      27.675  38.642  18.791  1.00  0.00     0.339 C 
ATOM      8  O   UNL     1      26.720  38.114  18.157  1.00  0.00    -0.246 OA
BRANCH   7   9
ATOM      9  O   UNL     1      28.489  37.863  19.623  1.00  0.00    -0.462 OA
BRANCH   9  10
ATOM     10  C   UNL     1      28.850  36.509  19.345  1.00  0.00     0.236 C 
BRANCH  10  11
ATOM     11  C   UNL     1      27.923  35.514  20.068  1.00  0.00     0.021 C 
ATOM     12  C   UNL     1      28.327  34.057  19.811  1.00  0.00     0.011 C 
ATOM     13  C   UNL     1      27.867  35.801  21.575  1.00  0.00     0.011 C 
ENDBRANCH  10  11
ENDBRANCH   9  10
ENDBRANCH   7   9
ENDBRANCH   1   7
BRANCH   6  14
ATOM     14  C   UNL     1      26.615  40.810  20.645  1.00  0.00     0.339 C 
ATOM     15  O   UNL     1      26.815  41.462  21.706  1.00  0.00    -0.246 OA
BRANCH  14  16
ATOM     16  O   UNL     1      25.603  39.847  20.592  1.00  0.00    -0.462 OA
BRANCH  16  17
ATOM     17  C   UNL     1      25.564  38.720  21.463  1.00  0.00     0.236 C 
BRANCH  17  18
ATOM     18  C   UNL     1      24.205  38.013  21.348  1.00  0.00     0.021 C 
ATOM     19  C   UNL     1      23.092  38.894  21.923  1.00  0.00     0.011 C 
ATOM     20  C   UNL     1      24.230  36.653  22.060  1.00  0.00     0.011 C 
ENDBRANCH  17  18
ENDBRANCH  16  17
ENDBRANCH  14  16
ENDBRANCH   6  14
TORSDOF 8
ENDMDL
MODEL 8
REMARK VINA RESULT:    -4.204      1.817      5.254
REMARK INTER + INTRA:          -7.255
REMARK INTER:                  -6.438
REMARK INTRA:                  -0.817
REMARK UNBOUND:                -1.085
REMARK SMILES CC(C)COC(=O)c1ccccc1C(=O)OCC(C)C
REMARK SMILES IDX 8 1 9 2 10 3 11 4 12 5 13 6 6 7 7 8 5 9 4 10 2 11 1 12 3 13
REMARK SMILES IDX 14 14 15 15 16 16 17 17 18 18 19 19 20 20
REMARK H PARENT
REMARK Flexibility Score: inf
ROOT
ATOM      1  C   UNL     1      26.763  36.140  22.307  1.00  0.00     0.074 A 
ATOM      2  C   UNL     1      26.819  35.571  23.591  1.00  0.00     0.016 A 
ATOM      3  C   UNL     1      27.641  34.474  23.851  1.00  0.00     0.001 A 
ATOM      4  C   UNL     1      28.418  33.928  22.833  1.00  0.00     0.001 A 
ATOM      5  C   UNL     1      28.395  34.490  21.556  1.00  0.00     0.016 A 
ATOM      6  C   UNL     1      27.591  35.611  21.278  1.00  0.00     0.074 A 
ENDROOT
BRANCH   1   7
ATOM      7  C   UNL     1      25.783  37.225  22.076  1.00  0.00     0.339 C 
ATOM      8  O   UNL     1      24.547  37.001  22.191  1.00  0.00    -0.246 OA
BRANCH   7   9
ATOM      9  O   UNL     1      26.245  38.515  21.784  1.00  0.00    -0.462 OA
BRANCH   9  10
ATOM     10  C   UNL     1      25.629  39.386  20.834  1.00  0.00     0.236 C 
BRANCH  10  11
ATOM     11  C   UNL     1      26.424  40.695  20.664  1.00  0.00     0.021 C 
ATOM     12  C   UNL     1      26.120  41.703  21.779  1.00  0.00     0.011 C 
ATOM     13  C   UNL     1      27.932  40.422  20.579  1.00  0.00     0.011 C 
ENDBRANCH  10  11
ENDBRANCH   9  10
ENDBRANCH   7   9
ENDBRANCH   1   7
BRANCH   6  14
ATOM     14  C   UNL     1      27.699  36.224  19.934  1.00  0.00     0.339 C 
ATOM     15  O   UNL     1      28.645  37.013  19.666  1.00  0.00    -0.246 OA
BRANCH  14  16
ATOM     16  O   UNL     1      26.774  35.876  18.945  1.00  0.00    -0.462 OA
BRANCH  16  17
ATOM     17  C   UNL     1      25.682  36.716  18.580  1.00  0.00     0.236 C 
BRANCH  17  18
ATOM     18  C   UNL     1      24.483  35.861  18.145  1.00  0.00     0.021 C 
ATOM     19  C   UNL     1      23.936  36.351  16.800  1.00  0.00     0.011 C 
ATOM     20  C   UNL     1      23.377  35.880  19.209  1.00  0.00     0.011 C 
ENDBRANCH  17  18
ENDBRANCH  16  17
ENDBRANCH  14  16
ENDBRANCH   6  14
TORSDOF 8
ENDMDL
MODEL 9
REMARK VINA RESULT:    -4.087      1.700      3.020
REMARK INTER + INTRA:          -7.084
REMARK INTER:                  -6.134
REMARK INTRA:                  -0.950
REMARK UNBOUND:                -1.085
REMARK SMILES CC(C)COC(=O)c1ccccc1C(=O)OCC(C)C
REMARK SMILES IDX 8 1 9 2 10 3 11 4 12 5 13 6 6 7 7 8 5 9 4 10 2 11 1 12 3 13
REMARK SMILES IDX 14 14 15 15 16 16 17 17 18 18 19 19 20 20
REMARK H PARENT
REMARK Flexibility Score: inf
ROOT
ATOM      1  C   UNL     1      27.404  38.362  20.641  1.00  0.00     0.074 A 
ATOM      2  C   UNL     1      28.249  39.481  20.541  1.00  0.00     0.016 A 
ATOM      3  C   UNL     1      27.764  40.766  20.786  1.00  0.00     0.001 A 
ATOM      4  C   UNL     1      26.428  40.953  21.133  1.00  0.00     0.001 A 
ATOM      5  C   UNL     1      25.577  39.854  21.259  1.00  0.00     0.016 A 
ATOM      6  C   UNL     1      26.051  38.548  21.040  1.00  0.00     0.074 A 
ENDROOT
BRANCH   1   7
ATOM      7  C   UNL     1      27.957  37.044  20.254  1.00  0.00     0.339 C 
ATOM      8  O   UNL     1      28.082  36.740  19.036  1.00  0.00    -0.246 OA
BRANCH   7   9
ATOM      9  O   UNL     1      28.392  36.163  21.252  1.00  0.00    -0.462 OA
BRANCH   9  10
ATOM     10  C   UNL     1      28.386  34.740  21.118  1.00  0.00     0.236 C 
BRANCH  10  11
ATOM     11  C   UNL     1      28.801  34.044  22.428  1.00  0.00     0.021 C 
ATOM     12  C   UNL     1      27.861  34.391  23.588  1.00  0.00     0.011 C 
ATOM     13  C   UNL     1      28.893  32.523  22.244  1.00  0.00     0.011 C 
ENDBRANCH  10  11
ENDBRANCH   9  10
ENDBRANCH   7   9
ENDBRANCH   1   7
BRANCH   6  14
ATOM     14  C   UNL     1      25.124  37.423  21.299  1.00  0.00     0.339 C 
ATOM     15  O   UNL     1      25.352  36.610  22.237  1.00  0.00    -0.246 OA
BRANCH  14  16
ATOM     16  O   UNL     1      23.962  37.300  20.531  1.00  0.00    -0.462 OA
BRANCH  16  17
ATOM     17  C   UNL     1      23.685  36.154  19.730  1.00  0.00     0.236 C 
BRANCH  17  18
ATOM     18  C   UNL     1      24.646  36.104  18.534  1.00  0.00     0.021 C 
ATOM     19  C   UNL     1      23.878  36.281  17.221  1.00  0.00     0.011 C 
ATOM     20  C   UNL     1      25.435  34.786  18.516  1.00  0.00     0.011 C 
ENDBRANCH  17  18
ENDBRANCH  16  17
ENDBRANCH  14  16
ENDBRANCH   6  14
TORSDOF 8
ENDMDL
