MODEL 1
REMARK VINA RESULT:    -4.250      0.000      0.000
REMARK INTER + INTRA:          -5.503
REMARK INTER:                  -5.368
REMARK INTRA:                  -0.135
REMARK UNBOUND:                -0.135
REMARK SMILES CSCC[C@H]([NH3+])C(=O)[O-]
REMARK SMILES IDX 4 1 5 2 6 3 7 7 8 8 9 9 3 10 2 11 1 12
REMARK H PARENT 6 4 6 5 6 6
REMARK Flexibility Score: inf
ROOT
ATOM      1  C   UNL     1     -29.437 -22.114  18.470  1.00  0.00     0.082 C 
ENDROOT
BRANCH   1   2
ATOM      2  C   UNL     1     -28.180 -21.755  19.291  1.00  0.00     0.228 C 
BRANCH   2   3
ATOM      3  N   UNL     1     -27.453 -20.650  18.657  1.00  0.00    -0.350 N 
ATOM      4  H   UNL     1     -26.673 -20.333  19.279  1.00  0.00     0.345 HD
ATOM      5  H   UNL     1     -28.099 -19.840  18.509  1.00  0.00     0.345 HD
ATOM      6  H   UNL     1     -27.059 -20.946  17.734  1.00  0.00     0.345 HD
ENDBRANCH   2   3
BRANCH   2   7
ATOM      7  C   UNL     1     -27.271 -22.949  19.437  1.00  0.00     0.099 C 
ATOM      8  O   UNL     1     -27.603 -23.908  20.183  1.00  0.00    -0.544 OA
ATOM      9  O   UNL     1     -26.065 -23.003  18.748  1.00  0.00    -0.544 OA
ENDBRANCH   2   7
ENDBRANCH   1   2
BRANCH   1  10
ATOM     10  C   UNL     1     -30.687 -22.235  19.347  1.00  0.00     0.076 C 
BRANCH  10  11
ATOM     11  S   UNL     1     -30.338 -21.576  21.013  1.00  0.00    -0.165 SA
ATOM     12  C   UNL     1     -32.023 -21.862  21.642  1.00  0.00     0.085 C 
ENDBRANCH  10  11
ENDBRANCH   1  10
TORSDOF 5
ENDMDL
MODEL 2
REMARK VINA RESULT:    -4.138      1.966      2.119
REMARK INTER + INTRA:          -5.361
REMARK INTER:                  -5.278
REMARK INTRA:                  -0.083
REMARK UNBOUND:                -0.135
REMARK SMILES CSCC[C@H]([NH3+])C(=O)[O-]
REMARK SMILES IDX 4 1 5 2 6 3 7 7 8 8 9 9 3 10 2 11 1 12
REMARK H PARENT 6 4 6 5 6 6
REMARK Flexibility Score: inf
ROOT
ATOM      1  C   UNL     1     -28.270 -21.692  19.312  1.00  0.00     0.082 C 
ENDROOT
BRANCH   1   2
ATOM      2  C   UNL     1     -27.443 -22.986  19.152  1.00  0.00     0.228 C 
BRANCH   2   3
ATOM      3  N   UNL     1     -27.893 -24.003  20.109  1.00  0.00    -0.350 N 
ATOM      4  H   UNL     1     -28.407 -24.763  19.605  1.00  0.00     0.345 HD
ATOM      5  H   UNL     1     -28.548 -23.573  20.802  1.00  0.00     0.345 HD
ATOM      6  H   UNL     1     -27.080 -24.418  20.620  1.00  0.00     0.345 HD
ENDBRANCH   2   3
BRANCH   2   7
ATOM      7  C   UNL     1     -25.973 -22.715  19.345  1.00  0.00     0.099 C 
ATOM      8  O   UNL     1     -25.586 -21.954  20.269  1.00  0.00    -0.544 OA
ATOM      9  O   UNL     1     -25.034 -23.308  18.507  1.00  0.00    -0.544 OA
ENDBRANCH   2   7
ENDBRANCH   1   2
BRANCH   1  10
ATOM     10  C   UNL     1     -29.773 -21.972  19.405  1.00  0.00     0.076 C 
BRANCH  10  11
ATOM     11  S   UNL     1     -30.383 -21.525  21.065  1.00  0.00    -0.165 SA
ATOM     12  C   UNL     1     -29.304 -20.068  21.233  1.00  0.00     0.085 C 
ENDBRANCH  10  11
ENDBRANCH   1  10
TORSDOF 5
ENDMDL
MODEL 3
REMARK VINA RESULT:    -4.101      1.663      1.903
REMARK INTER + INTRA:          -5.315
REMARK INTER:                  -5.242
REMARK INTRA:                  -0.073
REMARK UNBOUND:                -0.135
REMARK SMILES CSCC[C@H]([NH3+])C(=O)[O-]
REMARK SMILES IDX 4 1 5 2 6 3 7 7 8 8 9 9 3 10 2 11 1 12
REMARK H PARENT 6 4 6 5 6 6
REMARK Flexibility Score: inf
ROOT
ATOM      1  C   UNL     1     -28.292 -21.574  19.237  1.00  0.00     0.082 C 
ENDROOT
BRANCH   1   2
ATOM      2  C   UNL     1     -27.541 -22.912  19.072  1.00  0.00     0.228 C 
BRANCH   2   3
ATOM      3  N   UNL     1     -28.057 -23.909  20.017  1.00  0.00    -0.350 N 
ATOM      4  H   UNL     1     -29.087 -24.032  19.877  1.00  0.00     0.345 HD
ATOM      5  H   UNL     1     -27.899 -23.583  20.999  1.00  0.00     0.345 HD
ATOM      6  H   UNL     1     -27.579 -24.830  19.882  1.00  0.00     0.345 HD
ENDBRANCH   2   3
BRANCH   2   7
ATOM      7  C   UNL     1     -26.059 -22.729  19.278  1.00  0.00     0.099 C 
ATOM      8  O   UNL     1     -25.239 -23.285  18.501  1.00  0.00    -0.544 OA
ATOM      9  O   UNL     1     -25.587 -21.941  20.321  1.00  0.00    -0.544 OA
ENDBRANCH   2   7
ENDBRANCH   1   2
BRANCH   1  10
ATOM     10  C   UNL     1     -29.774 -21.777  19.566  1.00  0.00     0.076 C 
BRANCH  10  11
ATOM     11  S   UNL     1     -30.142 -21.085  21.214  1.00  0.00    -0.165 SA
ATOM     12  C   UNL     1     -31.694 -22.013  21.422  1.00  0.00     0.085 C 
ENDBRANCH  10  11
ENDBRANCH   1  10
TORSDOF 5
ENDMDL
MODEL 4
REMARK VINA RESULT:    -4.041      1.384      1.754
REMARK INTER + INTRA:          -5.239
REMARK INTER:                  -5.130
REMARK INTRA:                  -0.109
REMARK UNBOUND:                -0.135
REMARK SMILES CSCC[C@H]([NH3+])C(=O)[O-]
REMARK SMILES IDX 4 1 5 2 6 3 7 7 8 8 9 9 3 10 2 11 1 12
REMARK H PARENT 6 4 6 5 6 6
REMARK Flexibility Score: inf
ROOT
ATOM      1  C   UNL     1     -29.479 -21.763  19.675  1.00  0.00     0.082 C 
ENDROOT
BRANCH   1   2
ATOM      2  C   UNL     1     -27.949 -21.554  19.688  1.00  0.00     0.228 C 
BRANCH   2   3
ATOM      3  N   UNL     1     -27.547 -20.645  18.608  1.00  0.00    -0.350 N 
ATOM      4  H   UNL     1     -28.120 -19.770  18.648  1.00  0.00     0.345 HD
ATOM      5  H   UNL     1     -27.713 -21.100  17.681  1.00  0.00     0.345 HD
ATOM      6  H   UNL     1     -26.534 -20.397  18.691  1.00  0.00     0.345 HD
ENDBRANCH   2   3
BRANCH   2   7
ATOM      7  C   UNL     1     -27.223 -22.867  19.551  1.00  0.00     0.099 C 
ATOM      8  O   UNL     1     -26.239 -22.968  18.772  1.00  0.00    -0.544 OA
ATOM      9  O   UNL     1     -27.630 -23.975  20.286  1.00  0.00    -0.544 OA
ENDBRANCH   2   7
ENDBRANCH   1   2
BRANCH   1  10
ATOM     10  C   UNL     1     -30.118 -21.452  21.031  1.00  0.00     0.076 C 
BRANCH  10  11
ATOM     11  S   UNL     1     -29.549 -19.823  21.624  1.00  0.00    -0.165 SA
ATOM     12  C   UNL     1     -31.109 -19.418  22.469  1.00  0.00     0.085 C 
ENDBRANCH  10  11
ENDBRANCH   1  10
TORSDOF 5
ENDMDL
MODEL 5
REMARK VINA RESULT:    -3.888      3.091      4.348
REMARK INTER + INTRA:          -5.046
REMARK INTER:                  -5.009
REMARK INTRA:                  -0.037
REMARK UNBOUND:                -0.135
REMARK SMILES CSCC[C@H]([NH3+])C(=O)[O-]
REMARK SMILES IDX 4 1 5 2 6 3 7 7 8 8 9 9 3 10 2 11 1 12
REMARK H PARENT 6 4 6 5 6 6
REMARK Flexibility Score: inf
ROOT
ATOM      1  C   UNL     1     -29.379 -21.263  18.814  1.00  0.00     0.082 C 
ENDROOT
BRANCH   1   2
ATOM      2  C   UNL     1     -30.132 -22.235  19.748  1.00  0.00     0.228 C 
BRANCH   2   3
ATOM      3  N   UNL     1     -31.306 -22.792  19.068  1.00  0.00    -0.350 N 
ATOM      4  H   UNL     1     -31.461 -22.295  18.160  1.00  0.00     0.345 HD
ATOM      5  H   UNL     1     -32.157 -22.658  19.661  1.00  0.00     0.345 HD
ATOM      6  H   UNL     1     -31.176 -23.814  18.882  1.00  0.00     0.345 HD
ENDBRANCH   2   3
BRANCH   2   7
ATOM      7  C   UNL     1     -30.554 -21.544  21.019  1.00  0.00     0.099 C 
ATOM      8  O   UNL     1     -29.889 -20.570  21.460  1.00  0.00    -0.544 OA
ATOM      9  O   UNL     1     -31.682 -21.973  21.710  1.00  0.00    -0.544 OA
ENDBRANCH   2   7
ENDBRANCH   1   2
BRANCH   1  10
ATOM     10  C   UNL     1     -27.862 -21.317  19.021  1.00  0.00     0.076 C 
BRANCH  10  11
ATOM     11  S   UNL     1     -27.363 -23.008  19.491  1.00  0.00    -0.165 SA
ATOM     12  C   UNL     1     -25.614 -22.777  19.043  1.00  0.00     0.085 C 
ENDBRANCH  10  11
ENDBRANCH   1  10
TORSDOF 5
ENDMDL
MODEL 6
REMARK VINA RESULT:    -3.750      3.012      4.448
REMARK INTER + INTRA:          -4.872
REMARK INTER:                  -4.797
REMARK INTRA:                  -0.075
REMARK UNBOUND:                -0.135
REMARK SMILES CSCC[C@H]([NH3+])C(=O)[O-]
REMARK SMILES IDX 4 1 5 2 6 3 7 7 8 8 9 9 3 10 2 11 1 12
REMARK H PARENT 6 4 6 5 6 6
REMARK Flexibility Score: inf
ROOT
ATOM      1  C   UNL     1     -28.451 -22.900  20.032  1.00  0.00     0.082 C 
ENDROOT
BRANCH   1   2
ATOM      2  C   UNL     1     -29.691 -22.036  19.715  1.00  0.00     0.228 C 
BRANCH   2   3
ATOM      3  N   UNL     1     -29.332 -20.936  18.814  1.00  0.00    -0.350 N 
ATOM      4  H   UNL     1     -30.190 -20.401  18.545  1.00  0.00     0.345 HD
ATOM      5  H   UNL     1     -28.902 -21.319  17.940  1.00  0.00     0.345 HD
ATOM      6  H   UNL     1     -28.651 -20.287  19.273  1.00  0.00     0.345 HD
ENDBRANCH   2   3
BRANCH   2   7
ATOM      7  C   UNL     1     -30.303 -21.486  20.978  1.00  0.00     0.099 C 
ATOM      8  O   UNL     1     -29.835 -20.442  21.505  1.00  0.00    -0.544 OA
ATOM      9  O   UNL     1     -31.389 -22.124  21.568  1.00  0.00    -0.544 OA
ENDBRANCH   2   7
ENDBRANCH   1   2
BRANCH   1  10
ATOM     10  C   UNL     1     -27.312 -22.668  19.034  1.00  0.00     0.076 C 
BRANCH  10  11
ATOM     11  S   UNL     1     -25.762 -22.326  19.933  1.00  0.00    -0.165 SA
ATOM     12  C   UNL     1     -24.692 -23.118  18.692  1.00  0.00     0.085 C 
ENDBRANCH  10  11
ENDBRANCH   1  10
TORSDOF 5
ENDMDL
MODEL 7
REMARK VINA RESULT:    -3.613      2.502      2.617
REMARK INTER + INTRA:          -4.699
REMARK INTER:                  -4.614
REMARK INTRA:                  -0.085
REMARK UNBOUND:                -0.135
REMARK SMILES CSCC[C@H]([NH3+])C(=O)[O-]
REMARK SMILES IDX 4 1 5 2 6 3 7 7 8 8 9 9 3 10 2 11 1 12
REMARK H PARENT 6 4 6 5 6 6
REMARK Flexibility Score: inf
ROOT
ATOM      1  C   UNL     1     -29.779 -21.355  20.693  1.00  0.00     0.082 C 
ENDROOT
BRANCH   1   2
ATOM      2  C   UNL     1     -29.208 -21.758  19.316  1.00  0.00     0.228 C 
BRANCH   2   3
ATOM      3  N   UNL     1     -30.166 -22.599  18.591  1.00  0.00    -0.350 N 
ATOM      4  H   UNL     1     -29.870 -22.697  17.592  1.00  0.00     0.345 HD
ATOM      5  H   UNL     1     -31.113 -22.154  18.607  1.00  0.00     0.345 HD
ATOM      6  H   UNL     1     -30.228 -23.549  19.026  1.00  0.00     0.345 HD
ENDBRANCH   2   3
BRANCH   2   7
ATOM      7  C   UNL     1     -27.896 -22.485  19.466  1.00  0.00     0.099 C 
ATOM      8  O   UNL     1     -27.851 -23.589  20.069  1.00  0.00    -0.544 OA
ATOM      9  O   UNL     1     -26.730 -21.944  18.936  1.00  0.00    -0.544 OA
ENDBRANCH   2   7
ENDBRANCH   1   2
BRANCH   1  10
ATOM     10  C   UNL     1     -29.181 -20.042  21.207  1.00  0.00     0.076 C 
BRANCH  10  11
ATOM     11  S   UNL     1     -30.344 -19.246  22.366  1.00  0.00    -0.165 SA
ATOM     12  C   UNL     1     -29.805 -17.551  21.977  1.00  0.00     0.085 C 
ENDBRANCH  10  11
ENDBRANCH   1  10
TORSDOF 5
ENDMDL
MODEL 8
REMARK VINA RESULT:    -3.468      3.109      4.343
REMARK INTER + INTRA:          -4.515
REMARK INTER:                  -4.463
REMARK INTRA:                  -0.052
REMARK UNBOUND:                -0.135
REMARK SMILES CSCC[C@H]([NH3+])C(=O)[O-]
REMARK SMILES IDX 4 1 5 2 6 3 7 7 8 8 9 9 3 10 2 11 1 12
REMARK H PARENT 6 4 6 5 6 6
REMARK Flexibility Score: inf
ROOT
ATOM      1  C   UNL     1     -28.277 -23.194  20.113  1.00  0.00     0.082 C 
ENDROOT
BRANCH   1   2
ATOM      2  C   UNL     1     -29.270 -22.013  20.158  1.00  0.00     0.228 C 
BRANCH   2   3
ATOM      3  N   UNL     1     -30.162 -22.138  21.315  1.00  0.00    -0.350 N 
ATOM      4  H   UNL     1     -29.602 -22.137  22.199  1.00  0.00     0.345 HD
ATOM      5  H   UNL     1     -30.686 -23.042  21.264  1.00  0.00     0.345 HD
ATOM      6  H   UNL     1     -30.848 -21.348  21.342  1.00  0.00     0.345 HD
ENDBRANCH   2   3
BRANCH   2   7
ATOM      7  C   UNL     1     -30.080 -21.940  18.889  1.00  0.00     0.099 C 
ATOM      8  O   UNL     1     -31.114 -22.645  18.758  1.00  0.00    -0.544 OA
ATOM      9  O   UNL     1     -29.694 -21.090  17.858  1.00  0.00    -0.544 OA
ENDBRANCH   2   7
ENDBRANCH   1   2
BRANCH   1  10
ATOM     10  C   UNL     1     -27.153 -22.969  19.098  1.00  0.00     0.076 C 
BRANCH  10  11
ATOM     11  S   UNL     1     -25.663 -22.352  19.952  1.00  0.00    -0.165 SA
ATOM     12  C   UNL     1     -24.496 -23.074  18.756  1.00  0.00     0.085 C 
ENDBRANCH  10  11
ENDBRANCH   1  10
TORSDOF 5
ENDMDL
MODEL 9
REMARK VINA RESULT:    -3.104      4.555      5.174
REMARK INTER + INTRA:          -4.056
REMARK INTER:                  -3.997
REMARK INTRA:                  -0.058
REMARK UNBOUND:                -0.135
REMARK SMILES CSCC[C@H]([NH3+])C(=O)[O-]
REMARK SMILES IDX 4 1 5 2 6 3 7 7 8 8 9 9 3 10 2 11 1 12
REMARK H PARENT 6 4 6 5 6 6
REMARK Flexibility Score: inf
ROOT
ATOM      1  C   UNL     1     -29.262 -20.120  21.163  1.00  0.00     0.082 C 
ENDROOT
BRANCH   1   2
ATOM      2  C   UNL     1     -29.874 -19.341  22.347  1.00  0.00     0.228 C 
BRANCH   2   3
ATOM      3  N   UNL     1     -31.183 -19.897  22.705  1.00  0.00    -0.350 N 
ATOM      4  H   UNL     1     -31.789 -19.959  21.853  1.00  0.00     0.345 HD
ATOM      5  H   UNL     1     -31.658 -19.272  23.396  1.00  0.00     0.345 HD
ATOM      6  H   UNL     1     -31.079 -20.851  23.122  1.00  0.00     0.345 HD
ENDBRANCH   2   3
BRANCH   2   7
ATOM      7  C   UNL     1     -30.011 -17.876  22.016  1.00  0.00     0.099 C 
ATOM      8  O   UNL     1     -31.149 -17.338  21.992  1.00  0.00    -0.544 OA
ATOM      9  O   UNL     1     -28.884 -17.110  21.741  1.00  0.00    -0.544 OA
ENDBRANCH   2   7
ENDBRANCH   1   2
BRANCH   1  10
ATOM     10  C   UNL     1     -30.085 -21.359  20.797  1.00  0.00     0.076 C 
BRANCH  10  11
ATOM     11  S   UNL     1     -29.789 -21.804  19.053  1.00  0.00    -0.165 SA
ATOM     12  C   UNL     1     -28.021 -21.372  19.086  1.00  0.00     0.085 C 
ENDBRANCH  10  11
ENDBRANCH   1  10
TORSDOF 5
ENDMDL
