MODEL 1
REMARK VINA RESULT:    -7.204      0.000      0.000
REMARK INTER + INTRA:          -9.260
REMARK INTER:                  -8.888
REMARK INTRA:                  -0.371
REMARK UNBOUND:                -0.371
REMARK SMILES Oc1cc(O)c2cc(O)c(-c3cc(O)c(O)c(O)c3)[o+]c2c1
REMARK SMILES IDX 10 1 20 2 21 3 22 4 2 5 3 6 4 7 6 8 7 9 8 10 11 11 12 12
REMARK SMILES IDX 13 13 19 14 15 15 17 16 14 17 16 19 18 21 9 23 1 25 5 27
REMARK H PARENT 14 18 16 20 18 22 9 24 1 26 5 28
REMARK Flexibility Score: inf
ROOT
ATOM      1  C   UNL     1       4.604  -0.347 -22.540  1.00  0.00     0.402 A 
ATOM      2  O   UNL     1       3.874   0.355 -23.403  1.00  0.00    -0.202 OA
ATOM      3  C   UNL     1       4.029   1.661 -23.597  1.00  0.00     0.368 A 
ATOM      4  C   UNL     1       3.215   2.311 -24.528  1.00  0.00     0.162 A 
ATOM      5  C   UNL     1       3.357   3.680 -24.755  1.00  0.00     0.128 A 
ATOM      6  C   UNL     1       4.322   4.408 -24.046  1.00  0.00     0.093 A 
ATOM      7  C   UNL     1       5.149   3.779 -23.108  1.00  0.00     0.136 A 
ATOM      8  C   UNL     1       5.006   2.387 -22.873  1.00  0.00     0.125 A 
ATOM      9  C   UNL     1       5.782   1.676 -21.942  1.00  0.00     0.078 A 
ATOM     10  C   UNL     1       5.579   0.306 -21.762  1.00  0.00     0.223 A 
ENDROOT
BRANCH   1  11
ATOM     11  C   UNL     1       4.343  -1.800 -22.421  1.00  0.00     0.091 A 
ATOM     12  C   UNL     1       5.012  -2.692 -23.275  1.00  0.00     0.068 A 
ATOM     13  C   UNL     1       4.798  -4.073 -23.170  1.00  0.00     0.162 A 
ATOM     14  C   UNL     1       3.484  -2.312 -21.434  1.00  0.00     0.068 A 
ATOM     15  C   UNL     1       3.925  -4.575 -22.198  1.00  0.00     0.200 A 
ATOM     16  C   UNL     1       3.268  -3.692 -21.323  1.00  0.00     0.162 A 
BRANCH  13  17
ATOM     17  O   UNL     1       5.454  -4.953 -24.028  1.00  0.00    -0.504 OA
ATOM     18  H   UNL     1       6.275  -4.672 -24.551  1.00  0.00     0.293 HD
ENDBRANCH  13  17
BRANCH  15  19
ATOM     19  O   UNL     1       3.723  -5.953 -22.110  1.00  0.00    -0.502 OA
ATOM     20  H   UNL     1       4.489  -6.602 -21.972  1.00  0.00     0.293 HD
ENDBRANCH  15  19
BRANCH  16  21
ATOM     21  O   UNL     1       2.409  -4.190 -20.345  1.00  0.00    -0.504 OA
ATOM     22  H   UNL     1       2.564  -4.007 -19.360  1.00  0.00     0.293 HD
ENDBRANCH  16  21
ENDBRANCH   1  11
BRANCH  10  23
ATOM     23  O   UNL     1       6.315  -0.391 -20.803  1.00  0.00    -0.500 OA
ATOM     24  H   UNL     1       7.233  -0.769 -21.008  1.00  0.00     0.294 HD
ENDBRANCH  10  23
BRANCH   5  25
ATOM     25  O   UNL     1       2.537   4.310 -25.687  1.00  0.00    -0.507 OA
ATOM     26  H   UNL     1       1.689   3.872 -26.030  1.00  0.00     0.293 HD
ENDBRANCH   5  25
BRANCH   7  27
ATOM     27  O   UNL     1       6.089   4.573 -22.445  1.00  0.00    -0.507 OA
ATOM     28  H   UNL     1       6.124   5.581 -22.496  1.00  0.00     0.293 HD
ENDBRANCH   7  27
TORSDOF 7
ENDMDL
MODEL 2
REMARK VINA RESULT:    -7.099      0.075      1.790
REMARK INTER + INTRA:          -9.131
REMARK INTER:                  -8.761
REMARK INTRA:                  -0.370
REMARK UNBOUND:                -0.371
REMARK SMILES Oc1cc(O)c2cc(O)c(-c3cc(O)c(O)c(O)c3)[o+]c2c1
REMARK SMILES IDX 10 1 20 2 21 3 22 4 2 5 3 6 4 7 6 8 7 9 8 10 11 11 12 12
REMARK SMILES IDX 13 13 19 14 15 15 17 16 14 17 16 19 18 21 9 23 1 25 5 27
REMARK H PARENT 14 18 16 20 18 22 9 24 1 26 5 28
REMARK Flexibility Score: inf
ROOT
ATOM      1  C   UNL     1       4.655  -0.387 -22.565  1.00  0.00     0.402 A 
ATOM      2  O   UNL     1       3.925   0.294 -23.444  1.00  0.00    -0.202 OA
ATOM      3  C   UNL     1       4.052   1.602 -23.642  1.00  0.00     0.368 A 
ATOM      4  C   UNL     1       3.240   2.228 -24.591  1.00  0.00     0.162 A 
ATOM      5  C   UNL     1       3.355   3.599 -24.822  1.00  0.00     0.128 A 
ATOM      6  C   UNL     1       4.289   4.352 -24.100  1.00  0.00     0.093 A 
ATOM      7  C   UNL     1       5.114   3.748 -23.145  1.00  0.00     0.136 A 
ATOM      8  C   UNL     1       4.999   2.353 -22.905  1.00  0.00     0.125 A 
ATOM      9  C   UNL     1       5.774   1.666 -21.957  1.00  0.00     0.078 A 
ATOM     10  C   UNL     1       5.601   0.292 -21.773  1.00  0.00     0.223 A 
ENDROOT
BRANCH   1  11
ATOM     11  C   UNL     1       4.427  -1.845 -22.443  1.00  0.00     0.091 A 
ATOM     12  C   UNL     1       3.527  -2.323 -21.478  1.00  0.00     0.068 A 
ATOM     13  C   UNL     1       3.278  -3.698 -21.355  1.00  0.00     0.162 A 
ATOM     14  C   UNL     1       5.049  -2.759 -23.311  1.00  0.00     0.068 A 
ATOM     15  C   UNL     1       3.917  -4.605 -22.209  1.00  0.00     0.200 A 
ATOM     16  C   UNL     1       4.803  -4.134 -23.193  1.00  0.00     0.162 A 
BRANCH  13  17
ATOM     17  O   UNL     1       2.394  -4.168 -20.386  1.00  0.00    -0.504 OA
ATOM     18  H   UNL     1       2.466  -5.107 -20.012  1.00  0.00     0.293 HD
ENDBRANCH  13  17
BRANCH  15  19
ATOM     19  O   UNL     1       3.658  -5.969 -22.070  1.00  0.00    -0.502 OA
ATOM     20  H   UNL     1       4.274  -6.584 -21.550  1.00  0.00     0.293 HD
ENDBRANCH  15  19
BRANCH  16  21
ATOM     21  O   UNL     1       5.429  -5.033 -24.055  1.00  0.00    -0.504 OA
ATOM     22  H   UNL     1       5.179  -6.015 -24.070  1.00  0.00     0.293 HD
ENDBRANCH  16  21
ENDBRANCH   1  11
BRANCH  10  23
ATOM     23  O   UNL     1       6.335  -0.383 -20.798  1.00  0.00    -0.500 OA
ATOM     24  H   UNL     1       7.199  -0.865 -21.021  1.00  0.00     0.294 HD
ENDBRANCH  10  23
BRANCH   5  25
ATOM     25  O   UNL     1       2.536   4.205 -25.772  1.00  0.00    -0.507 OA
ATOM     26  H   UNL     1       1.556   3.962 -25.861  1.00  0.00     0.293 HD
ENDBRANCH   5  25
BRANCH   7  27
ATOM     27  O   UNL     1       6.023   4.567 -22.469  1.00  0.00    -0.507 OA
ATOM     28  H   UNL     1       6.175   4.550 -21.471  1.00  0.00     0.293 HD
ENDBRANCH   7  27
TORSDOF 7
ENDMDL
MODEL 3
REMARK VINA RESULT:    -6.902      5.975     11.119
REMARK INTER + INTRA:          -8.887
REMARK INTER:                  -8.583
REMARK INTRA:                  -0.304
REMARK UNBOUND:                -0.371
REMARK SMILES Oc1cc(O)c2cc(O)c(-c3cc(O)c(O)c(O)c3)[o+]c2c1
REMARK SMILES IDX 10 1 20 2 21 3 22 4 2 5 3 6 4 7 6 8 7 9 8 10 11 11 12 12
REMARK SMILES IDX 13 13 19 14 15 15 17 16 14 17 16 19 18 21 9 23 1 25 5 27
REMARK H PARENT 14 18 16 20 18 22 9 24 1 26 5 28
REMARK Flexibility Score: inf
ROOT
ATOM      1  C   UNL     1       5.553   8.579 -23.792  1.00  0.00     0.402 A 
ATOM      2  O   UNL     1       4.629   7.953 -24.517  1.00  0.00    -0.202 OA
ATOM      3  C   UNL     1       4.088   6.791 -24.166  1.00  0.00     0.368 A 
ATOM      4  C   UNL     1       3.122   6.213 -24.993  1.00  0.00     0.162 A 
ATOM      5  C   UNL     1       2.535   4.996 -24.648  1.00  0.00     0.128 A 
ATOM      6  C   UNL     1       2.915   4.349 -23.465  1.00  0.00     0.093 A 
ATOM      7  C   UNL     1       3.880   4.908 -22.619  1.00  0.00     0.136 A 
ATOM      8  C   UNL     1       4.481   6.146 -22.969  1.00  0.00     0.125 A 
ATOM      9  C   UNL     1       5.467   6.773 -22.189  1.00  0.00     0.078 A 
ATOM     10  C   UNL     1       6.017   7.990 -22.601  1.00  0.00     0.223 A 
ENDROOT
BRANCH   1  11
ATOM     11  C   UNL     1       6.072   9.875 -24.285  1.00  0.00     0.091 A 
ATOM     12  C   UNL     1       6.833   9.909 -25.464  1.00  0.00     0.068 A 
ATOM     13  C   UNL     1       7.320  11.126 -25.962  1.00  0.00     0.162 A 
ATOM     14  C   UNL     1       5.772  11.081 -23.628  1.00  0.00     0.068 A 
ATOM     15  C   UNL     1       7.035  12.322 -25.292  1.00  0.00     0.200 A 
ATOM     16  C   UNL     1       6.254  12.300 -24.123  1.00  0.00     0.162 A 
BRANCH  13  17
ATOM     17  O   UNL     1       8.087  11.153 -27.125  1.00  0.00    -0.504 OA
ATOM     18  H   UNL     1       7.661  11.099 -28.043  1.00  0.00     0.293 HD
ENDBRANCH  13  17
BRANCH  15  19
ATOM     19  O   UNL     1       7.530  13.522 -25.802  1.00  0.00    -0.502 OA
ATOM     20  H   UNL     1       7.451  13.765 -26.783  1.00  0.00     0.293 HD
ENDBRANCH  15  19
BRANCH  16  21
ATOM     21  O   UNL     1       5.956  13.491 -23.462  1.00  0.00    -0.504 OA
ATOM     22  H   UNL     1       6.618  14.258 -23.426  1.00  0.00     0.293 HD
ENDBRANCH  16  21
ENDBRANCH   1  11
BRANCH  10  23
ATOM     23  O   UNL     1       7.031   8.589 -21.853  1.00  0.00    -0.500 OA
ATOM     24  H   UNL     1       8.010   8.455 -22.079  1.00  0.00     0.294 HD
ENDBRANCH  10  23
BRANCH   5  25
ATOM     25  O   UNL     1       1.573   4.435 -25.486  1.00  0.00    -0.507 OA
ATOM     26  H   UNL     1       1.221   3.497 -25.335  1.00  0.00     0.293 HD
ENDBRANCH   5  25
BRANCH   7  27
ATOM     27  O   UNL     1       4.202   4.204 -21.456  1.00  0.00    -0.507 OA
ATOM     28  H   UNL     1       4.397   3.214 -21.422  1.00  0.00     0.293 HD
ENDBRANCH   7  27
TORSDOF 7
ENDMDL
MODEL 4
REMARK VINA RESULT:    -6.807      1.007      3.104
REMARK INTER + INTRA:          -8.770
REMARK INTER:                  -8.458
REMARK INTRA:                  -0.312
REMARK UNBOUND:                -0.371
REMARK SMILES Oc1cc(O)c2cc(O)c(-c3cc(O)c(O)c(O)c3)[o+]c2c1
REMARK SMILES IDX 10 1 20 2 21 3 22 4 2 5 3 6 4 7 6 8 7 9 8 10 11 11 12 12
REMARK SMILES IDX 13 13 19 14 15 15 17 16 14 17 16 19 18 21 9 23 1 25 5 27
REMARK H PARENT 14 18 16 20 18 22 9 24 1 26 5 28
REMARK Flexibility Score: inf
ROOT
ATOM      1  C   UNL     1       4.001  -0.343 -23.423  1.00  0.00     0.402 A 
ATOM      2  O   UNL     1       4.672   0.533 -22.680  1.00  0.00    -0.202 OA
ATOM      3  C   UNL     1       4.700   1.837 -22.935  1.00  0.00     0.368 A 
ATOM      4  C   UNL     1       5.433   2.679 -22.094  1.00  0.00     0.162 A 
ATOM      5  C   UNL     1       5.476   4.052 -22.335  1.00  0.00     0.128 A 
ATOM      6  C   UNL     1       4.782   4.591 -23.425  1.00  0.00     0.093 A 
ATOM      7  C   UNL     1       4.041   3.769 -24.282  1.00  0.00     0.136 A 
ATOM      8  C   UNL     1       3.995   2.370 -24.041  1.00  0.00     0.125 A 
ATOM      9  C   UNL     1       3.289   1.469 -24.855  1.00  0.00     0.078 A 
ATOM     10  C   UNL     1       3.296   0.104 -24.557  1.00  0.00     0.223 A 
ENDROOT
BRANCH   1  11
ATOM     11  C   UNL     1       4.039  -1.771 -23.031  1.00  0.00     0.091 A 
ATOM     12  C   UNL     1       3.251  -2.210 -21.955  1.00  0.00     0.068 A 
ATOM     13  C   UNL     1       3.255  -3.560 -21.576  1.00  0.00     0.162 A 
ATOM     14  C   UNL     1       4.803  -2.707 -23.748  1.00  0.00     0.068 A 
ATOM     15  C   UNL     1       4.034  -4.485 -22.281  1.00  0.00     0.200 A 
ATOM     16  C   UNL     1       4.808  -4.058 -23.374  1.00  0.00     0.162 A 
BRANCH  13  17
ATOM     17  O   UNL     1       2.482  -3.989 -20.498  1.00  0.00    -0.504 OA
ATOM     18  H   UNL     1       1.905  -3.345 -19.969  1.00  0.00     0.293 HD
ENDBRANCH  13  17
BRANCH  15  19
ATOM     19  O   UNL     1       4.026  -5.823 -21.887  1.00  0.00    -0.502 OA
ATOM     20  H   UNL     1       3.640  -6.555 -22.473  1.00  0.00     0.293 HD
ENDBRANCH  15  19
BRANCH  16  21
ATOM     21  O   UNL     1       5.574  -4.979 -24.087  1.00  0.00    -0.504 OA
ATOM     22  H   UNL     1       5.811  -5.885 -23.700  1.00  0.00     0.293 HD
ENDBRANCH  16  21
ENDBRANCH   1  11
BRANCH  10  23
ATOM     23  O   UNL     1       2.636  -0.798 -25.392  1.00  0.00    -0.500 OA
ATOM     24  H   UNL     1       2.690  -1.800 -25.243  1.00  0.00     0.294 HD
ENDBRANCH  10  23
BRANCH   5  25
ATOM     25  O   UNL     1       6.212   4.874 -21.486  1.00  0.00    -0.507 OA
ATOM     26  H   UNL     1       5.760   5.541 -20.870  1.00  0.00     0.293 HD
ENDBRANCH   5  25
BRANCH   7  27
ATOM     27  O   UNL     1       3.372   4.383 -25.345  1.00  0.00    -0.507 OA
ATOM     28  H   UNL     1       3.524   4.164 -26.318  1.00  0.00     0.293 HD
ENDBRANCH   7  27
TORSDOF 7
ENDMDL
MODEL 5
REMARK VINA RESULT:    -6.788      4.751     10.375
REMARK INTER + INTRA:          -8.747
REMARK INTER:                  -8.373
REMARK INTRA:                  -0.374
REMARK UNBOUND:                -0.371
REMARK SMILES Oc1cc(O)c2cc(O)c(-c3cc(O)c(O)c(O)c3)[o+]c2c1
REMARK SMILES IDX 10 1 20 2 21 3 22 4 2 5 3 6 4 7 6 8 7 9 8 10 11 11 12 12
REMARK SMILES IDX 13 13 19 14 15 15 17 16 14 17 16 19 18 21 9 23 1 25 5 27
REMARK H PARENT 14 18 16 20 18 22 9 24 1 26 5 28
REMARK Flexibility Score: inf
ROOT
ATOM      1  C   UNL     1       4.644   7.478 -22.931  1.00  0.00     0.402 A 
ATOM      2  O   UNL     1       4.548   6.684 -23.994  1.00  0.00    -0.202 OA
ATOM      3  C   UNL     1       4.303   5.380 -23.912  1.00  0.00     0.368 A 
ATOM      4  C   UNL     1       4.218   4.628 -25.087  1.00  0.00     0.162 A 
ATOM      5  C   UNL     1       3.959   3.259 -25.031  1.00  0.00     0.128 A 
ATOM      6  C   UNL     1       3.783   2.633 -23.791  1.00  0.00     0.093 A 
ATOM      7  C   UNL     1       3.863   3.364 -22.600  1.00  0.00     0.136 A 
ATOM      8  C   UNL     1       4.129   4.757 -22.652  1.00  0.00     0.125 A 
ATOM      9  C   UNL     1       4.240   5.566 -21.509  1.00  0.00     0.078 A 
ATOM     10  C   UNL     1       4.509   6.931 -21.641  1.00  0.00     0.223 A 
ENDROOT
BRANCH   1  11
ATOM     11  C   UNL     1       4.910   8.918 -23.153  1.00  0.00     0.091 A 
ATOM     12  C   UNL     1       3.831   9.797 -23.336  1.00  0.00     0.068 A 
ATOM     13  C   UNL     1       4.054  11.167 -23.529  1.00  0.00     0.162 A 
ATOM     14  C   UNL     1       6.217   9.434 -23.129  1.00  0.00     0.068 A 
ATOM     15  C   UNL     1       5.360  11.673 -23.524  1.00  0.00     0.200 A 
ATOM     16  C   UNL     1       6.446  10.803 -23.319  1.00  0.00     0.162 A 
BRANCH  13  17
ATOM     17  O   UNL     1       2.981  12.034 -23.724  1.00  0.00    -0.504 OA
ATOM     18  H   UNL     1       2.770  12.422 -24.636  1.00  0.00     0.293 HD
ENDBRANCH  13  17
BRANCH  15  19
ATOM     19  O   UNL     1       5.563  13.039 -23.720  1.00  0.00    -0.502 OA
ATOM     20  H   UNL     1       6.423  13.406 -24.110  1.00  0.00     0.293 HD
ENDBRANCH  15  19
BRANCH  16  21
ATOM     21  O   UNL     1       7.746  11.305 -23.299  1.00  0.00    -0.504 OA
ATOM     22  H   UNL     1       8.042  11.983 -22.606  1.00  0.00     0.293 HD
ENDBRANCH  16  21
ENDBRANCH   1  11
BRANCH  10  23
ATOM     23  O   UNL     1       4.669   7.726 -20.505  1.00  0.00    -0.500 OA
ATOM     24  H   UNL     1       4.467   8.719 -20.519  1.00  0.00     0.294 HD
ENDBRANCH  10  23
BRANCH   5  25
ATOM     25  O   UNL     1       3.877   2.527 -26.213  1.00  0.00    -0.507 OA
ATOM     26  H   UNL     1       4.580   1.839 -26.460  1.00  0.00     0.293 HD
ENDBRANCH   5  25
BRANCH   7  27
ATOM     27  O   UNL     1       3.672   2.667 -21.403  1.00  0.00    -0.507 OA
ATOM     28  H   UNL     1       4.187   2.840 -20.552  1.00  0.00     0.293 HD
ENDBRANCH   7  27
TORSDOF 7
ENDMDL
MODEL 6
REMARK VINA RESULT:    -6.786      1.163      7.205
REMARK INTER + INTRA:          -8.744
REMARK INTER:                  -8.369
REMARK INTRA:                  -0.375
REMARK UNBOUND:                -0.371
REMARK SMILES Oc1cc(O)c2cc(O)c(-c3cc(O)c(O)c(O)c3)[o+]c2c1
REMARK SMILES IDX 10 1 20 2 21 3 22 4 2 5 3 6 4 7 6 8 7 9 8 10 11 11 12 12
REMARK SMILES IDX 13 13 19 14 15 15 17 16 14 17 16 19 18 21 9 23 1 25 5 27
REMARK H PARENT 14 18 16 20 18 22 9 24 1 26 5 28
REMARK Flexibility Score: inf
ROOT
ATOM      1  C   UNL     1       4.557   0.208 -23.241  1.00  0.00     0.402 A 
ATOM      2  O   UNL     1       3.888  -0.478 -22.318  1.00  0.00    -0.202 OA
ATOM      3  C   UNL     1       3.846  -1.805 -22.282  1.00  0.00     0.368 A 
ATOM      4  C   UNL     1       3.117  -2.436 -21.271  1.00  0.00     0.162 A 
ATOM      5  C   UNL     1       3.058  -3.828 -21.206  1.00  0.00     0.128 A 
ATOM      6  C   UNL     1       3.734  -4.599 -22.160  1.00  0.00     0.093 A 
ATOM      7  C   UNL     1       4.472  -3.991 -23.183  1.00  0.00     0.136 A 
ATOM      8  C   UNL     1       4.532  -2.575 -23.253  1.00  0.00     0.125 A 
ATOM      9  C   UNL     1       5.235  -1.880 -24.250  1.00  0.00     0.078 A 
ATOM     10  C   UNL     1       5.244  -0.482 -24.257  1.00  0.00     0.223 A 
ENDROOT
BRANCH   1  11
ATOM     11  C   UNL     1       4.536   1.687 -23.168  1.00  0.00     0.091 A 
ATOM     12  C   UNL     1       3.554   2.397 -23.876  1.00  0.00     0.068 A 
ATOM     13  C   UNL     1       3.500   3.797 -23.809  1.00  0.00     0.162 A 
ATOM     14  C   UNL     1       5.444   2.394 -22.361  1.00  0.00     0.068 A 
ATOM     15  C   UNL     1       4.420   4.497 -23.019  1.00  0.00     0.200 A 
ATOM     16  C   UNL     1       5.393   3.793 -22.289  1.00  0.00     0.162 A 
BRANCH  13  17
ATOM     17  O   UNL     1       2.531   4.498 -24.524  1.00  0.00    -0.504 OA
ATOM     18  H   UNL     1       1.542   4.322 -24.392  1.00  0.00     0.293 HD
ENDBRANCH  13  17
BRANCH  15  19
ATOM     19  O   UNL     1       4.352   5.889 -22.966  1.00  0.00    -0.502 OA
ATOM     20  H   UNL     1       4.640   6.473 -23.743  1.00  0.00     0.293 HD
ENDBRANCH  15  19
BRANCH  16  21
ATOM     21  O   UNL     1       6.301   4.486 -21.489  1.00  0.00    -0.504 OA
ATOM     22  H   UNL     1       6.758   5.330 -21.815  1.00  0.00     0.293 HD
ENDBRANCH  16  21
ENDBRANCH   1  11
BRANCH  10  23
ATOM     23  O   UNL     1       5.901   0.209 -25.275  1.00  0.00    -0.500 OA
ATOM     24  H   UNL     1       5.677   0.056 -26.252  1.00  0.00     0.294 HD
ENDBRANCH  10  23
BRANCH   5  25
ATOM     25  O   UNL     1       2.326  -4.438 -20.190  1.00  0.00    -0.507 OA
ATOM     26  H   UNL     1       2.006  -5.397 -20.269  1.00  0.00     0.293 HD
ENDBRANCH   5  25
BRANCH   7  27
ATOM     27  O   UNL     1       5.121  -4.829 -24.093  1.00  0.00    -0.507 OA
ATOM     28  H   UNL     1       4.674  -5.268 -24.885  1.00  0.00     0.293 HD
ENDBRANCH   7  27
TORSDOF 7
ENDMDL
MODEL 7
REMARK VINA RESULT:    -6.784      1.158      7.205
REMARK INTER + INTRA:          -8.742
REMARK INTER:                  -8.367
REMARK INTRA:                  -0.375
REMARK UNBOUND:                -0.371
REMARK SMILES Oc1cc(O)c2cc(O)c(-c3cc(O)c(O)c(O)c3)[o+]c2c1
REMARK SMILES IDX 10 1 20 2 21 3 22 4 2 5 3 6 4 7 6 8 7 9 8 10 11 11 12 12
REMARK SMILES IDX 13 13 19 14 15 15 17 16 14 17 16 19 18 21 9 23 1 25 5 27
REMARK H PARENT 14 18 16 20 18 22 9 24 1 26 5 28
REMARK Flexibility Score: inf
ROOT
ATOM      1  C   UNL     1       4.526   0.196 -23.252  1.00  0.00     0.402 A 
ATOM      2  O   UNL     1       3.860  -0.497 -22.333  1.00  0.00    -0.202 OA
ATOM      3  C   UNL     1       3.836  -1.825 -22.294  1.00  0.00     0.368 A 
ATOM      4  C   UNL     1       3.108  -2.464 -21.286  1.00  0.00     0.162 A 
ATOM      5  C   UNL     1       3.069  -3.856 -21.219  1.00  0.00     0.128 A 
ATOM      6  C   UNL     1       3.763  -4.620 -22.166  1.00  0.00     0.093 A 
ATOM      7  C   UNL     1       4.499  -4.004 -23.184  1.00  0.00     0.136 A 
ATOM      8  C   UNL     1       4.540  -2.587 -23.258  1.00  0.00     0.125 A 
ATOM      9  C   UNL     1       5.241  -1.884 -24.252  1.00  0.00     0.078 A 
ATOM     10  C   UNL     1       5.230  -0.487 -24.262  1.00  0.00     0.223 A 
ENDROOT
BRANCH   1  11
ATOM     11  C   UNL     1       4.484   1.675 -23.183  1.00  0.00     0.091 A 
ATOM     12  C   UNL     1       5.445   2.357 -22.421  1.00  0.00     0.068 A 
ATOM     13  C   UNL     1       5.439   3.757 -22.355  1.00  0.00     0.162 A 
ATOM     14  C   UNL     1       3.535   2.415 -23.910  1.00  0.00     0.068 A 
ATOM     15  C   UNL     1       4.479   4.488 -23.065  1.00  0.00     0.200 A 
ATOM     16  C   UNL     1       3.526   3.815 -23.849  1.00  0.00     0.162 A 
BRANCH  13  17
ATOM     17  O   UNL     1       6.387   4.429 -21.586  1.00  0.00    -0.504 OA
ATOM     18  H   UNL     1       6.564   4.176 -20.621  1.00  0.00     0.293 HD
ENDBRANCH  13  17
BRANCH  15  19
ATOM     19  O   UNL     1       4.487   5.881 -22.985  1.00  0.00    -0.502 OA
ATOM     20  H   UNL     1       4.502   6.468 -23.812  1.00  0.00     0.293 HD
ENDBRANCH  15  19
BRANCH  16  21
ATOM     21  O   UNL     1       2.578   4.540 -24.570  1.00  0.00    -0.504 OA
ATOM     22  H   UNL     1       1.586   4.353 -24.479  1.00  0.00     0.293 HD
ENDBRANCH  16  21
ENDBRANCH   1  11
BRANCH  10  23
ATOM     23  O   UNL     1       5.885   0.211 -25.277  1.00  0.00    -0.500 OA
ATOM     24  H   UNL     1       6.289   1.127 -25.118  1.00  0.00     0.294 HD
ENDBRANCH  10  23
BRANCH   5  25
ATOM     25  O   UNL     1       2.338  -4.474 -20.207  1.00  0.00    -0.507 OA
ATOM     26  H   UNL     1       1.421  -4.871 -20.382  1.00  0.00     0.293 HD
ENDBRANCH   5  25
BRANCH   7  27
ATOM     27  O   UNL     1       5.167  -4.835 -24.088  1.00  0.00    -0.507 OA
ATOM     28  H   UNL     1       5.778  -4.507 -24.822  1.00  0.00     0.293 HD
ENDBRANCH   7  27
TORSDOF 7
ENDMDL
MODEL 8
REMARK VINA RESULT:    -6.524      4.574     10.454
REMARK INTER + INTRA:          -8.420
REMARK INTER:                  -8.064
REMARK INTRA:                  -0.356
REMARK UNBOUND:                -0.371
REMARK SMILES Oc1cc(O)c2cc(O)c(-c3cc(O)c(O)c(O)c3)[o+]c2c1
REMARK SMILES IDX 10 1 20 2 21 3 22 4 2 5 3 6 4 7 6 8 7 9 8 10 11 11 12 12
REMARK SMILES IDX 13 13 19 14 15 15 17 16 14 17 16 19 18 21 9 23 1 25 5 27
REMARK H PARENT 14 18 16 20 18 22 9 24 1 26 5 28
REMARK Flexibility Score: inf
ROOT
ATOM      1  C   UNL     1       4.436   7.355 -24.121  1.00  0.00     0.402 A 
ATOM      2  O   UNL     1       4.597   6.558 -23.068  1.00  0.00    -0.202 OA
ATOM      3  C   UNL     1       4.400   5.245 -23.109  1.00  0.00     0.368 A 
ATOM      4  C   UNL     1       4.598   4.491 -21.949  1.00  0.00     0.162 A 
ATOM      5  C   UNL     1       4.402   3.110 -21.964  1.00  0.00     0.128 A 
ATOM      6  C   UNL     1       4.005   2.475 -23.147  1.00  0.00     0.093 A 
ATOM      7  C   UNL     1       3.800   3.207 -24.322  1.00  0.00     0.136 A 
ATOM      8  C   UNL     1       3.997   4.613 -24.310  1.00  0.00     0.125 A 
ATOM      9  C   UNL     1       3.802   5.430 -25.437  1.00  0.00     0.078 A 
ATOM     10  C   UNL     1       4.010   6.809 -25.347  1.00  0.00     0.223 A 
ENDROOT
BRANCH   1  11
ATOM     11  C   UNL     1       4.696   8.803 -23.952  1.00  0.00     0.091 A 
ATOM     12  C   UNL     1       5.912   9.341 -24.403  1.00  0.00     0.068 A 
ATOM     13  C   UNL     1       6.175  10.712 -24.272  1.00  0.00     0.162 A 
ATOM     14  C   UNL     1       3.730   9.662 -23.401  1.00  0.00     0.068 A 
ATOM     15  C   UNL     1       5.217  11.559 -23.704  1.00  0.00     0.200 A 
ATOM     16  C   UNL     1       3.988  11.033 -23.270  1.00  0.00     0.162 A 
BRANCH  13  17
ATOM     17  O   UNL     1       7.389  11.239 -24.709  1.00  0.00    -0.504 OA
ATOM     18  H   UNL     1       8.017  10.707 -25.302  1.00  0.00     0.293 HD
ENDBRANCH  13  17
BRANCH  15  19
ATOM     19  O   UNL     1       5.498  12.920 -23.580  1.00  0.00    -0.502 OA
ATOM     20  H   UNL     1       5.181  13.466 -22.787  1.00  0.00     0.293 HD
ENDBRANCH  15  19
BRANCH  16  21
ATOM     21  O   UNL     1       3.025  11.876 -22.716  1.00  0.00    -0.504 OA
ATOM     22  H   UNL     1       2.375  11.548 -22.011  1.00  0.00     0.293 HD
ENDBRANCH  16  21
ENDBRANCH   1  11
BRANCH  10  23
ATOM     23  O   UNL     1       3.770   7.626 -26.451  1.00  0.00    -0.500 OA
ATOM     24  H   UNL     1       3.270   8.504 -26.364  1.00  0.00     0.294 HD
ENDBRANCH  10  23
BRANCH   5  25
ATOM     25  O   UNL     1       4.605   2.376 -20.797  1.00  0.00    -0.507 OA
ATOM     26  H   UNL     1       3.829   1.971 -20.284  1.00  0.00     0.293 HD
ENDBRANCH   5  25
BRANCH   7  27
ATOM     27  O   UNL     1       3.409   2.500 -25.462  1.00  0.00    -0.507 OA
ATOM     28  H   UNL     1       4.046   2.126 -26.150  1.00  0.00     0.293 HD
ENDBRANCH   7  27
TORSDOF 7
ENDMDL
MODEL 9
REMARK VINA RESULT:    -6.395      5.499     11.342
REMARK INTER + INTRA:          -8.262
REMARK INTER:                  -7.911
REMARK INTRA:                  -0.350
REMARK UNBOUND:                -0.371
REMARK SMILES Oc1cc(O)c2cc(O)c(-c3cc(O)c(O)c(O)c3)[o+]c2c1
REMARK SMILES IDX 10 1 20 2 21 3 22 4 2 5 3 6 4 7 6 8 7 9 8 10 11 11 12 12
REMARK SMILES IDX 13 13 19 14 15 15 17 16 14 17 16 19 18 21 9 23 1 25 5 27
REMARK H PARENT 14 18 16 20 18 22 9 24 1 26 5 28
REMARK Flexibility Score: inf
ROOT
ATOM      1  C   UNL     1       4.646   8.323 -24.846  1.00  0.00     0.402 A 
ATOM      2  O   UNL     1       5.002   7.516 -23.851  1.00  0.00    -0.202 OA
ATOM      3  C   UNL     1       4.425   6.341 -23.620  1.00  0.00     0.368 A 
ATOM      4  C   UNL     1       4.871   5.562 -22.550  1.00  0.00     0.162 A 
ATOM      5  C   UNL     1       4.286   4.323 -22.287  1.00  0.00     0.128 A 
ATOM      6  C   UNL     1       3.246   3.857 -23.101  1.00  0.00     0.093 A 
ATOM      7  C   UNL     1       2.781   4.618 -24.179  1.00  0.00     0.136 A 
ATOM      8  C   UNL     1       3.373   5.880 -24.449  1.00  0.00     0.125 A 
ATOM      9  C   UNL     1       2.963   6.717 -25.500  1.00  0.00     0.078 A 
ATOM     10  C   UNL     1       3.590   7.950 -25.699  1.00  0.00     0.223 A 
ENDROOT
BRANCH   1  11
ATOM     11  C   UNL     1       5.373   9.603 -25.005  1.00  0.00     0.091 A 
ATOM     12  C   UNL     1       5.127  10.651 -24.104  1.00  0.00     0.068 A 
ATOM     13  C   UNL     1       5.816  11.867 -24.221  1.00  0.00     0.162 A 
ATOM     14  C   UNL     1       6.345   9.774 -26.006  1.00  0.00     0.068 A 
ATOM     15  C   UNL     1       6.769  12.038 -25.232  1.00  0.00     0.200 A 
ATOM     16  C   UNL     1       7.037  10.987 -26.126  1.00  0.00     0.162 A 
BRANCH  13  17
ATOM     17  O   UNL     1       5.559  12.909 -23.332  1.00  0.00    -0.504 OA
ATOM     18  H   UNL     1       5.460  13.866 -23.650  1.00  0.00     0.293 HD
ENDBRANCH  13  17
BRANCH  15  19
ATOM     19  O   UNL     1       7.443  13.255 -25.334  1.00  0.00    -0.502 OA
ATOM     20  H   UNL     1       8.446  13.328 -25.209  1.00  0.00     0.293 HD
ENDBRANCH  15  19
BRANCH  16  21
ATOM     21  O   UNL     1       7.996  11.149 -27.125  1.00  0.00    -0.504 OA
ATOM     22  H   UNL     1       8.255  10.386 -27.741  1.00  0.00     0.293 HD
ENDBRANCH  16  21
ENDBRANCH   1  11
BRANCH  10  23
ATOM     23  O   UNL     1       3.151   8.803 -26.712  1.00  0.00    -0.500 OA
ATOM     24  H   UNL     1       3.802   9.321 -27.291  1.00  0.00     0.294 HD
ENDBRANCH  10  23
BRANCH   5  25
ATOM     25  O   UNL     1       4.745   3.561 -21.215  1.00  0.00    -0.507 OA
ATOM     26  H   UNL     1       4.203   2.789 -20.843  1.00  0.00     0.293 HD
ENDBRANCH   5  25
BRANCH   7  27
ATOM     27  O   UNL     1       1.743   4.082 -24.946  1.00  0.00    -0.507 OA
ATOM     28  H   UNL     1       1.730   4.061 -25.955  1.00  0.00     0.293 HD
ENDBRANCH   7  27
TORSDOF 7
ENDMDL
