MODEL 1
REMARK VINA RESULT:    -3.963      0.000      0.000
REMARK INTER + INTRA:          -4.211
REMARK INTER:                  -4.194
REMARK INTRA:                  -0.016
REMARK UNBOUND:                -0.016
REMARK SMILES O=C([O-])c1cccnc1
REMARK SMILES IDX 4 1 5 2 9 3 6 4 8 5 7 6 2 7 1 8 3 9
REMARK H PARENT
REMARK Flexibility Score: inf
ROOT
ATOM      1  C   UNL     1      27.462 -51.865  -8.733  1.00  0.00     0.016 A 
ATOM      2  C   UNL     1      27.789 -52.931  -9.588  1.00  0.00     0.013 A 
ATOM      3  C   UNL     1      26.277 -51.151  -8.980  1.00  0.00     0.120 A 
ATOM      4  C   UNL     1      26.947 -53.262 -10.651  1.00  0.00     0.021 A 
ATOM      5  N   UNL     1      25.474 -51.494 -10.023  1.00  0.00    -0.264 NA
ATOM      6  C   UNL     1      25.780 -52.524 -10.855  1.00  0.00     0.111 A 
ENDROOT
BRANCH   1   7
ATOM      7  C   UNL     1      28.341 -51.498  -7.602  1.00  0.00     0.073 C 
ATOM      8  O   UNL     1      29.417 -50.875  -7.803  1.00  0.00    -0.545 OA
ATOM      9  O   UNL     1      27.991 -51.837  -6.300  1.00  0.00    -0.545 OA
ENDBRANCH   1   7
TORSDOF 1
ENDMDL
MODEL 2
REMARK VINA RESULT:    -3.774      3.006      3.980
REMARK INTER + INTRA:          -4.011
REMARK INTER:                  -3.994
REMARK INTRA:                  -0.017
REMARK UNBOUND:                -0.016
REMARK SMILES O=C([O-])c1cccnc1
REMARK SMILES IDX 4 1 5 2 9 3 6 4 8 5 7 6 2 7 1 8 3 9
REMARK H PARENT
REMARK Flexibility Score: inf
ROOT
ATOM      1  C   UNL     1      27.765 -52.323  -9.838  1.00  0.00     0.016 A 
ATOM      2  C   UNL     1      27.462 -51.940  -8.520  1.00  0.00     0.013 A 
ATOM      3  C   UNL     1      29.023 -51.978 -10.360  1.00  0.00     0.120 A 
ATOM      4  C   UNL     1      28.399 -51.236  -7.761  1.00  0.00     0.021 A 
ATOM      5  N   UNL     1      29.917 -51.291  -9.600  1.00  0.00    -0.264 NA
ATOM      6  C   UNL     1      29.635 -50.917  -8.325  1.00  0.00     0.111 A 
ENDROOT
BRANCH   1   7
ATOM      7  C   UNL     1      26.787 -53.070 -10.658  1.00  0.00     0.073 C 
ATOM      8  O   UNL     1      27.031 -54.248 -11.031  1.00  0.00    -0.545 OA
ATOM      9  O   UNL     1      25.585 -52.480 -11.030  1.00  0.00    -0.545 OA
ENDBRANCH   1   7
TORSDOF 1
ENDMDL
MODEL 3
REMARK VINA RESULT:    -3.722      2.423      2.915
REMARK INTER + INTRA:          -3.956
REMARK INTER:                  -3.939
REMARK INTRA:                  -0.017
REMARK UNBOUND:                -0.016
REMARK SMILES O=C([O-])c1cccnc1
REMARK SMILES IDX 4 1 5 2 9 3 6 4 8 5 7 6 2 7 1 8 3 9
REMARK H PARENT
REMARK Flexibility Score: inf
ROOT
ATOM      1  C   UNL     1      27.400 -52.623  -9.889  1.00  0.00     0.016 A 
ATOM      2  C   UNL     1      27.046 -53.984  -9.903  1.00  0.00     0.013 A 
ATOM      3  C   UNL     1      28.528 -52.220 -10.625  1.00  0.00     0.120 A 
ATOM      4  C   UNL     1      27.805 -54.899 -10.634  1.00  0.00     0.021 A 
ATOM      5  N   UNL     1      29.251 -53.132 -11.329  1.00  0.00    -0.264 NA
ATOM      6  C   UNL     1      28.916 -54.449 -11.349  1.00  0.00     0.111 A 
ENDROOT
BRANCH   1   7
ATOM      7  C   UNL     1      26.610 -51.638  -9.121  1.00  0.00     0.073 C 
ATOM      8  O   UNL     1      25.469 -51.281  -9.519  1.00  0.00    -0.545 OA
ATOM      9  O   UNL     1      27.116 -51.090  -7.948  1.00  0.00    -0.545 OA
ENDBRANCH   1   7
TORSDOF 1
ENDMDL
MODEL 4
REMARK VINA RESULT:    -3.687      2.976      3.774
REMARK INTER + INTRA:          -3.919
REMARK INTER:                  -3.902
REMARK INTRA:                  -0.017
REMARK UNBOUND:                -0.016
REMARK SMILES O=C([O-])c1cccnc1
REMARK SMILES IDX 4 1 5 2 9 3 6 4 8 5 7 6 2 7 1 8 3 9
REMARK H PARENT
REMARK Flexibility Score: inf
ROOT
ATOM      1  C   UNL     1      27.717 -52.256  -9.798  1.00  0.00     0.016 A 
ATOM      2  C   UNL     1      28.984 -51.892 -10.286  1.00  0.00     0.013 A 
ATOM      3  C   UNL     1      27.385 -51.908  -8.478  1.00  0.00     0.120 A 
ATOM      4  C   UNL     1      29.878 -51.199  -9.467  1.00  0.00     0.021 A 
ATOM      5  N   UNL     1      28.275 -51.233  -7.701  1.00  0.00    -0.264 NA
ATOM      6  C   UNL     1      29.501 -50.875  -8.163  1.00  0.00     0.111 A 
ENDROOT
BRANCH   1   7
ATOM      7  C   UNL     1      26.756 -52.990 -10.648  1.00  0.00     0.073 C 
ATOM      8  O   UNL     1      25.670 -52.454 -10.997  1.00  0.00    -0.545 OA
ATOM      9  O   UNL     1      27.037 -54.283 -11.075  1.00  0.00    -0.545 OA
ENDBRANCH   1   7
TORSDOF 1
ENDMDL
MODEL 5
REMARK VINA RESULT:    -3.679      2.406      2.919
REMARK INTER + INTRA:          -3.911
REMARK INTER:                  -3.894
REMARK INTRA:                  -0.017
REMARK UNBOUND:                -0.016
REMARK SMILES O=C([O-])c1cccnc1
REMARK SMILES IDX 4 1 5 2 9 3 6 4 8 5 7 6 2 7 1 8 3 9
REMARK H PARENT
REMARK Flexibility Score: inf
ROOT
ATOM      1  C   UNL     1      27.483 -52.731  -9.822  1.00  0.00     0.016 A 
ATOM      2  C   UNL     1      28.615 -52.403 -10.588  1.00  0.00     0.013 A 
ATOM      3  C   UNL     1      27.048 -54.067  -9.812  1.00  0.00     0.120 A 
ATOM      4  C   UNL     1      29.281 -53.392 -11.314  1.00  0.00     0.021 A 
ATOM      5  N   UNL     1      27.715 -55.011 -10.529  1.00  0.00    -0.264 NA
ATOM      6  C   UNL     1      28.811 -54.705 -11.272  1.00  0.00     0.111 A 
ENDROOT
BRANCH   1   7
ATOM      7  C   UNL     1      26.764 -51.698  -9.045  1.00  0.00     0.073 C 
ATOM      8  O   UNL     1      25.616 -51.316  -9.398  1.00  0.00    -0.545 OA
ATOM      9  O   UNL     1      27.345 -51.134  -7.916  1.00  0.00    -0.545 OA
ENDBRANCH   1   7
TORSDOF 1
ENDMDL
MODEL 6
REMARK VINA RESULT:    -3.663      3.915      4.650
REMARK INTER + INTRA:          -3.894
REMARK INTER:                  -3.874
REMARK INTRA:                  -0.020
REMARK UNBOUND:                -0.016
REMARK SMILES O=C([O-])c1cccnc1
REMARK SMILES IDX 4 1 5 2 9 3 6 4 8 5 7 6 2 7 1 8 3 9
REMARK H PARENT
REMARK Flexibility Score: inf
ROOT
ATOM      1  C   UNL     1      28.052 -54.922 -10.743  1.00  0.00     0.016 A 
ATOM      2  C   UNL     1      27.138 -54.306  -9.870  1.00  0.00     0.013 A 
ATOM      3  C   UNL     1      28.996 -54.115 -11.399  1.00  0.00     0.120 A 
ATOM      4  C   UNL     1      27.182 -52.925  -9.670  1.00  0.00     0.021 A 
ATOM      5  N   UNL     1      29.017 -52.772 -11.186  1.00  0.00    -0.264 NA
ATOM      6  C   UNL     1      28.140 -52.166 -10.344  1.00  0.00     0.111 A 
ENDROOT
BRANCH   1   7
ATOM      7  C   UNL     1      28.022 -56.383 -10.969  1.00  0.00     0.073 C 
ATOM      8  O   UNL     1      28.118 -56.853 -12.134  1.00  0.00    -0.545 OA
ATOM      9  O   UNL     1      27.888 -57.259  -9.898  1.00  0.00    -0.545 OA
ENDBRANCH   1   7
TORSDOF 1
ENDMDL
MODEL 7
REMARK VINA RESULT:    -3.599      3.749      4.415
REMARK INTER + INTRA:          -3.826
REMARK INTER:                  -3.808
REMARK INTRA:                  -0.018
REMARK UNBOUND:                -0.016
REMARK SMILES O=C([O-])c1cccnc1
REMARK SMILES IDX 4 1 5 2 9 3 6 4 8 5 7 6 2 7 1 8 3 9
REMARK H PARENT
REMARK Flexibility Score: inf
ROOT
ATOM      1  C   UNL     1      28.028 -54.754 -10.857  1.00  0.00     0.016 A 
ATOM      2  C   UNL     1      29.105 -54.011 -11.371  1.00  0.00     0.013 A 
ATOM      3  C   UNL     1      27.009 -54.067 -10.175  1.00  0.00     0.120 A 
ATOM      4  C   UNL     1      29.147 -52.626 -11.201  1.00  0.00     0.021 A 
ATOM      5  N   UNL     1      27.074 -52.717 -10.023  1.00  0.00    -0.264 NA
ATOM      6  C   UNL     1      28.110 -51.990 -10.517  1.00  0.00     0.111 A 
ENDROOT
BRANCH   1   7
ATOM      7  C   UNL     1      27.965 -56.221 -11.026  1.00  0.00     0.073 C 
ATOM      8  O   UNL     1      27.890 -56.731 -12.176  1.00  0.00    -0.545 OA
ATOM      9  O   UNL     1      27.986 -57.059  -9.917  1.00  0.00    -0.545 OA
ENDBRANCH   1   7
TORSDOF 1
ENDMDL
MODEL 8
REMARK VINA RESULT:    -3.588      2.522      3.381
REMARK INTER + INTRA:          -3.814
REMARK INTER:                  -3.791
REMARK INTRA:                  -0.022
REMARK UNBOUND:                -0.016
REMARK SMILES O=C([O-])c1cccnc1
REMARK SMILES IDX 4 1 5 2 9 3 6 4 8 5 7 6 2 7 1 8 3 9
REMARK H PARENT
REMARK Flexibility Score: inf
ROOT
ATOM      1  C   UNL     1      28.531 -51.456  -8.878  1.00  0.00     0.016 A 
ATOM      2  C   UNL     1      29.757 -50.965  -8.396  1.00  0.00     0.013 A 
ATOM      3  C   UNL     1      28.521 -52.133 -10.109  1.00  0.00     0.120 A 
ATOM      4  C   UNL     1      30.927 -51.156  -9.133  1.00  0.00     0.021 A 
ATOM      5  N   UNL     1      29.675 -52.306 -10.807  1.00  0.00    -0.264 NA
ATOM      6  C   UNL     1      30.865 -51.837 -10.350  1.00  0.00     0.111 A 
ENDROOT
BRANCH   1   7
ATOM      7  C   UNL     1      27.281 -51.264  -8.112  1.00  0.00     0.073 C 
ATOM      8  O   UNL     1      27.312 -51.119  -6.861  1.00  0.00    -0.545 OA
ATOM      9  O   UNL     1      26.053 -51.241  -8.764  1.00  0.00    -0.545 OA
ENDBRANCH   1   7
TORSDOF 1
ENDMDL
MODEL 9
REMARK VINA RESULT:    -3.470      2.654      3.493
REMARK INTER + INTRA:          -3.689
REMARK INTER:                  -3.673
REMARK INTRA:                  -0.016
REMARK UNBOUND:                -0.016
REMARK SMILES O=C([O-])c1cccnc1
REMARK SMILES IDX 4 1 5 2 9 3 6 4 8 5 7 6 2 7 1 8 3 9
REMARK H PARENT
REMARK Flexibility Score: inf
ROOT
ATOM      1  C   UNL     1      27.316 -53.487 -10.190  1.00  0.00     0.016 A 
ATOM      2  C   UNL     1      27.693 -52.681  -9.102  1.00  0.00     0.013 A 
ATOM      3  C   UNL     1      26.186 -53.114 -10.938  1.00  0.00     0.120 A 
ATOM      4  C   UNL     1      26.954 -51.539  -8.786  1.00  0.00     0.021 A 
ATOM      5  N   UNL     1      25.483 -51.997 -10.608  1.00  0.00    -0.264 NA
ATOM      6  C   UNL     1      25.839 -51.210  -9.559  1.00  0.00     0.111 A 
ENDROOT
BRANCH   1   7
ATOM      7  C   UNL     1      28.085 -54.700 -10.542  1.00  0.00     0.073 C 
ATOM      8  O   UNL     1      27.896 -55.780  -9.922  1.00  0.00    -0.545 OA
ATOM      9  O   UNL     1      29.029 -54.664 -11.562  1.00  0.00    -0.545 OA
ENDBRANCH   1   7
TORSDOF 1
ENDMDL
