MODEL 1
REMARK VINA RESULT:    -4.073      0.000      0.000
REMARK INTER + INTRA:          -4.850
REMARK INTER:                  -4.787
REMARK INTRA:                  -0.063
REMARK UNBOUND:                -0.063
REMARK SMILES CCCCC(=O)[O-]
REMARK SMILES IDX 4 1 5 2 6 3 7 4 3 5 2 6 1 7
REMARK H PARENT
REMARK Flexibility Score: inf
ROOT
ATOM      1  C   UNL     1      85.734 -70.254  14.539  1.00  0.00     0.053 C 
ENDROOT
BRANCH   1   2
ATOM      2  C   UNL     1      85.123 -68.911  14.801  1.00  0.00     0.041 C 
ATOM      3  O   UNL     1      85.421 -67.925  14.077  1.00  0.00    -0.550 OA
ATOM      4  O   UNL     1      84.200 -68.756  15.829  1.00  0.00    -0.550 OA
ENDBRANCH   1   2
BRANCH   1   5
ATOM      5  C   UNL     1      86.786 -70.219  13.417  1.00  0.00     0.006 C 
BRANCH   5   6
ATOM      6  C   UNL     1      88.212 -70.555  13.891  1.00  0.00    -0.003 C 
ATOM      7  C   UNL     1      88.382 -70.457  15.406  1.00  0.00     0.004 C 
ENDBRANCH   5   6
ENDBRANCH   1   5
TORSDOF 3
ENDMDL
MODEL 2
REMARK VINA RESULT:    -3.983      2.474      3.460
REMARK INTER + INTRA:          -4.744
REMARK INTER:                  -4.677
REMARK INTRA:                  -0.067
REMARK UNBOUND:                -0.063
REMARK SMILES CCCCC(=O)[O-]
REMARK SMILES IDX 4 1 5 2 6 3 7 4 3 5 2 6 1 7
REMARK H PARENT
REMARK Flexibility Score: inf
ROOT
ATOM      1  C   UNL     1      86.690 -70.314  13.717  1.00  0.00     0.053 C 
ENDROOT
BRANCH   1   2
ATOM      2  C   UNL     1      87.978 -70.612  14.422  1.00  0.00     0.041 C 
ATOM      3  O   UNL     1      89.078 -70.285  13.903  1.00  0.00    -0.550 OA
ATOM      4  O   UNL     1      87.962 -71.224  15.669  1.00  0.00    -0.550 OA
ENDBRANCH   1   2
BRANCH   1   5
ATOM      5  C   UNL     1      86.553 -68.831  13.331  1.00  0.00     0.006 C 
BRANCH   5   6
ATOM      6  C   UNL     1      85.453 -68.085  14.108  1.00  0.00    -0.003 C 
ATOM      7  C   UNL     1      84.675 -68.987  15.064  1.00  0.00     0.004 C 
ENDBRANCH   5   6
ENDBRANCH   1   5
TORSDOF 3
ENDMDL
MODEL 3
REMARK VINA RESULT:    -3.195     15.909     17.072
REMARK INTER + INTRA:          -3.819
REMARK INTER:                  -3.776
REMARK INTRA:                  -0.042
REMARK UNBOUND:                -0.063
REMARK SMILES CCCCC(=O)[O-]
REMARK SMILES IDX 4 1 5 2 6 3 7 4 3 5 2 6 1 7
REMARK H PARENT
REMARK Flexibility Score: inf
ROOT
ATOM      1  C   UNL     1      77.898 -62.640   2.320  1.00  0.00     0.053 C 
ENDROOT
BRANCH   1   2
ATOM      2  C   UNL     1      78.930 -62.313   3.355  1.00  0.00     0.041 C 
ATOM      3  O   UNL     1      78.763 -61.338   4.135  1.00  0.00    -0.550 OA
ATOM      4  O   UNL     1      80.066 -63.104   3.478  1.00  0.00    -0.550 OA
ENDBRANCH   1   2
BRANCH   1   5
ATOM      5  C   UNL     1      77.339 -61.388   1.621  1.00  0.00     0.006 C 
BRANCH   5   6
ATOM      6  C   UNL     1      75.924 -60.996   2.083  1.00  0.00    -0.003 C 
ATOM      7  C   UNL     1      74.926 -60.879   0.932  1.00  0.00     0.004 C 
ENDBRANCH   5   6
ENDBRANCH   1   5
TORSDOF 3
ENDMDL
MODEL 4
REMARK VINA RESULT:    -3.182     12.368     13.295
REMARK INTER + INTRA:          -3.804
REMARK INTER:                  -3.761
REMARK INTRA:                  -0.042
REMARK UNBOUND:                -0.063
REMARK SMILES CCCCC(=O)[O-]
REMARK SMILES IDX 4 1 5 2 6 3 7 4 3 5 2 6 1 7
REMARK H PARENT
REMARK Flexibility Score: inf
ROOT
ATOM      1  C   UNL     1      88.684 -76.221   2.972  1.00  0.00     0.053 C 
ENDROOT
BRANCH   1   2
ATOM      2  C   UNL     1      87.963 -77.292   3.731  1.00  0.00     0.041 C 
ATOM      3  O   UNL     1      87.709 -77.142   4.955  1.00  0.00    -0.550 OA
ATOM      4  O   UNL     1      87.542 -78.444   3.078  1.00  0.00    -0.550 OA
ENDBRANCH   1   2
BRANCH   1   5
ATOM      5  C   UNL     1      87.797 -74.999   2.679  1.00  0.00     0.006 C 
BRANCH   5   6
ATOM      6  C   UNL     1      88.266 -73.708   3.375  1.00  0.00    -0.003 C 
ATOM      7  C   UNL     1      87.388 -72.499   3.057  1.00  0.00     0.004 C 
ENDBRANCH   5   6
ENDBRANCH   1   5
TORSDOF 3
ENDMDL
MODEL 5
REMARK VINA RESULT:    -3.158     12.288     13.039
REMARK INTER + INTRA:          -3.775
REMARK INTER:                  -3.740
REMARK INTRA:                  -0.035
REMARK UNBOUND:                -0.063
REMARK SMILES CCCCC(=O)[O-]
REMARK SMILES IDX 4 1 5 2 6 3 7 4 3 5 2 6 1 7
REMARK H PARENT
REMARK Flexibility Score: inf
ROOT
ATOM      1  C   UNL     1      88.181 -75.472   2.945  1.00  0.00     0.053 C 
ENDROOT
BRANCH   1   2
ATOM      2  C   UNL     1      87.811 -74.035   3.144  1.00  0.00     0.041 C 
ATOM      3  O   UNL     1      86.631 -73.718   3.448  1.00  0.00    -0.550 OA
ATOM      4  O   UNL     1      88.779 -73.044   3.023  1.00  0.00    -0.550 OA
ENDBRANCH   1   2
BRANCH   1   5
ATOM      5  C   UNL     1      88.002 -76.314   4.221  1.00  0.00     0.006 C 
BRANCH   5   6
ATOM      6  C   UNL     1      87.864 -77.824   3.956  1.00  0.00    -0.003 C 
ATOM      7  C   UNL     1      87.680 -78.161   2.477  1.00  0.00     0.004 C 
ENDBRANCH   5   6
ENDBRANCH   1   5
TORSDOF 3
ENDMDL
MODEL 6
REMARK VINA RESULT:    -2.764     18.605     19.300
REMARK INTER + INTRA:          -3.312
REMARK INTER:                  -3.217
REMARK INTRA:                  -0.094
REMARK UNBOUND:                -0.063
REMARK SMILES CCCCC(=O)[O-]
REMARK SMILES IDX 4 1 5 2 6 3 7 4 3 5 2 6 1 7
REMARK H PARENT
REMARK Flexibility Score: inf
ROOT
ATOM      1  C   UNL     1      70.854 -77.060   5.416  1.00  0.00     0.053 C 
ENDROOT
BRANCH   1   2
ATOM      2  C   UNL     1      70.486 -78.496   5.202  1.00  0.00     0.041 C 
ATOM      3  O   UNL     1      69.651 -79.058   5.959  1.00  0.00    -0.550 OA
ATOM      4  O   UNL     1      71.045 -79.208   4.147  1.00  0.00    -0.550 OA
ENDBRANCH   1   2
BRANCH   1   5
ATOM      5  C   UNL     1      72.059 -76.889   6.358  1.00  0.00     0.006 C 
BRANCH   5   6
ATOM      6  C   UNL     1      73.312 -76.320   5.669  1.00  0.00    -0.003 C 
ATOM      7  C   UNL     1      74.017 -77.334   4.769  1.00  0.00     0.004 C 
ENDBRANCH   5   6
ENDBRANCH   1   5
TORSDOF 3
ENDMDL
MODEL 7
REMARK VINA RESULT:    -2.739     19.722     20.576
REMARK INTER + INTRA:          -3.283
REMARK INTER:                  -3.235
REMARK INTRA:                  -0.048
REMARK UNBOUND:                -0.063
REMARK SMILES CCCCC(=O)[O-]
REMARK SMILES IDX 4 1 5 2 6 3 7 4 3 5 2 6 1 7
REMARK H PARENT
REMARK Flexibility Score: inf
ROOT
ATOM      1  C   UNL     1      77.651 -74.015  -2.270  1.00  0.00     0.053 C 
ENDROOT
BRANCH   1   2
ATOM      2  C   UNL     1      78.081 -75.437  -2.462  1.00  0.00     0.041 C 
ATOM      3  O   UNL     1      77.946 -75.996  -3.582  1.00  0.00    -0.550 OA
ATOM      4  O   UNL     1      78.658 -76.137  -1.410  1.00  0.00    -0.550 OA
ENDBRANCH   1   2
BRANCH   1   5
ATOM      5  C   UNL     1      77.402 -73.284  -3.601  1.00  0.00     0.006 C 
BRANCH   5   6
ATOM      6  C   UNL     1      75.926 -72.917  -3.842  1.00  0.00    -0.003 C 
ATOM      7  C   UNL     1      75.698 -71.414  -3.994  1.00  0.00     0.004 C 
ENDBRANCH   5   6
ENDBRANCH   1   5
TORSDOF 3
ENDMDL
MODEL 8
REMARK VINA RESULT:    -2.731     17.912     18.592
REMARK INTER + INTRA:          -3.273
REMARK INTER:                  -3.179
REMARK INTRA:                  -0.094
REMARK UNBOUND:                -0.063
REMARK SMILES CCCCC(=O)[O-]
REMARK SMILES IDX 4 1 5 2 6 3 7 4 3 5 2 6 1 7
REMARK H PARENT
REMARK Flexibility Score: inf
ROOT
ATOM      1  C   UNL     1      71.702 -76.190   5.551  1.00  0.00     0.053 C 
ENDROOT
BRANCH   1   2
ATOM      2  C   UNL     1      70.638 -77.033   6.186  1.00  0.00     0.041 C 
ATOM      3  O   UNL     1      70.400 -78.190   5.751  1.00  0.00    -0.550 OA
ATOM      4  O   UNL     1      69.929 -76.550   7.279  1.00  0.00    -0.550 OA
ENDBRANCH   1   2
BRANCH   1   5
ATOM      5  C   UNL     1      73.120 -76.584   6.002  1.00  0.00     0.006 C 
BRANCH   5   6
ATOM      6  C   UNL     1      74.040 -77.023   4.848  1.00  0.00    -0.003 C 
ATOM      7  C   UNL     1      73.328 -77.075   3.497  1.00  0.00     0.004 C 
ENDBRANCH   5   6
ENDBRANCH   1   5
TORSDOF 3
ENDMDL
MODEL 9
REMARK VINA RESULT:    -2.706     19.749     20.499
REMARK INTER + INTRA:          -3.244
REMARK INTER:                  -3.202
REMARK INTRA:                  -0.042
REMARK UNBOUND:                -0.063
REMARK SMILES CCCCC(=O)[O-]
REMARK SMILES IDX 4 1 5 2 6 3 7 4 3 5 2 6 1 7
REMARK H PARENT
REMARK Flexibility Score: inf
ROOT
ATOM      1  C   UNL     1      77.258 -72.915  -3.710  1.00  0.00     0.053 C 
ENDROOT
BRANCH   1   2
ATOM      2  C   UNL     1      75.855 -72.395  -3.789  1.00  0.00     0.041 C 
ATOM      3  O   UNL     1      74.890 -73.190  -3.937  1.00  0.00    -0.550 OA
ATOM      4  O   UNL     1      75.611 -71.032  -3.668  1.00  0.00    -0.550 OA
ENDBRANCH   1   2
BRANCH   1   5
ATOM      5  C   UNL     1      77.522 -73.723  -2.427  1.00  0.00     0.006 C 
BRANCH   5   6
ATOM      6  C   UNL     1      77.899 -75.193  -2.683  1.00  0.00    -0.003 C 
ATOM      7  C   UNL     1      78.459 -75.895  -1.447  1.00  0.00     0.004 C 
ENDBRANCH   5   6
ENDBRANCH   1   5
TORSDOF 3
ENDMDL
