MODEL 1
REMARK VINA RESULT:     1.275      0.000      0.000
REMARK INTER + INTRA:           1.365
REMARK INTER:                   1.499
REMARK INTRA:                  -0.134
REMARK UNBOUND:                -0.134
REMARK SMILES O=C([O-])C=Cc1ccc(O)c(O)c1
REMARK SMILES IDX 6 1 13 2 7 3 11 4 8 5 9 6 5 7 4 8 2 9 1 10 3 11 12 12 10 14
REMARK H PARENT 12 13 10 15
REMARK Flexibility Score: inf
ROOT
ATOM      1  C   UNL     1       9.951   6.708  11.375  1.00  0.00    -0.022 A 
ATOM      2  C   UNL     1       8.942   5.876  11.886  1.00  0.00     0.058 A 
ATOM      3  C   UNL     1      10.304   6.593  10.015  1.00  0.00     0.012 A 
ATOM      4  C   UNL     1       8.313   4.925  11.069  1.00  0.00     0.157 A 
ATOM      5  C   UNL     1       9.676   5.647   9.201  1.00  0.00     0.051 A 
ATOM      6  C   UNL     1       8.684   4.810   9.719  1.00  0.00     0.157 A 
ENDROOT
BRANCH   1   7
ATOM      7  C   UNL     1      10.577   7.704  12.280  1.00  0.00     0.010 C 
ATOM      8  C   UNL     1      10.136   7.965  13.519  1.00  0.00     0.025 C 
BRANCH   8   9
ATOM      9  C   UNL     1      10.783   8.970  14.378  1.00  0.00     0.064 C 
ATOM     10  O   UNL     1      11.107  10.085  13.892  1.00  0.00    -0.545 OA
ATOM     11  O   UNL     1      11.043   8.709  15.718  1.00  0.00    -0.545 OA
ENDBRANCH   8   9
ENDBRANCH   1   7
BRANCH   4  12
ATOM     12  O   UNL     1       7.320   4.098  11.592  1.00  0.00    -0.504 OA
ATOM     13  H   UNL     1       7.414   3.668  12.505  1.00  0.00     0.293 HD
ENDBRANCH   4  12
BRANCH   6  14
ATOM     14  O   UNL     1       8.079   3.875   8.881  1.00  0.00    -0.504 OA
ATOM     15  H   UNL     1       7.091   3.661   8.939  1.00  0.00     0.293 HD
ENDBRANCH   6  14
TORSDOF 4
ENDMDL
MODEL 2
REMARK VINA RESULT:     1.942      1.025      1.838
REMARK INTER + INTRA:           2.148
REMARK INTER:                   2.283
REMARK INTRA:                  -0.135
REMARK UNBOUND:                -0.134
REMARK SMILES O=C([O-])C=Cc1ccc(O)c(O)c1
REMARK SMILES IDX 6 1 13 2 7 3 11 4 8 5 9 6 5 7 4 8 2 9 1 10 3 11 12 12 10 14
REMARK H PARENT 12 13 10 15
REMARK Flexibility Score: inf
ROOT
ATOM      1  C   UNL     1       9.884   6.244  11.901  1.00  0.00    -0.022 A 
ATOM      2  C   UNL     1      10.691   5.668  10.907  1.00  0.00     0.058 A 
ATOM      3  C   UNL     1       8.497   5.996  11.880  1.00  0.00     0.012 A 
ATOM      4  C   UNL     1      10.128   4.880   9.892  1.00  0.00     0.157 A 
ATOM      5  C   UNL     1       7.936   5.211  10.870  1.00  0.00     0.051 A 
ATOM      6  C   UNL     1       8.742   4.653   9.874  1.00  0.00     0.157 A 
ENDROOT
BRANCH   1   7
ATOM      7  C   UNL     1      10.533   7.061  12.957  1.00  0.00     0.010 C 
ATOM      8  C   UNL     1      10.114   8.283  13.316  1.00  0.00     0.025 C 
BRANCH   8   9
ATOM      9  C   UNL     1      10.795   9.062  14.362  1.00  0.00     0.064 C 
ATOM     10  O   UNL     1      11.116  10.258  14.135  1.00  0.00    -0.545 OA
ATOM     11  O   UNL     1      11.091   8.499  15.598  1.00  0.00    -0.545 OA
ENDBRANCH   8   9
ENDBRANCH   1   7
BRANCH   4  12
ATOM     12  O   UNL     1      10.938   4.323   8.905  1.00  0.00    -0.504 OA
ATOM     13  H   UNL     1      10.846   4.586   7.930  1.00  0.00     0.293 HD
ENDBRANCH   4  12
BRANCH   6  14
ATOM     14  O   UNL     1       8.151   3.876   8.879  1.00  0.00    -0.504 OA
ATOM     15  H   UNL     1       7.966   2.889   9.005  1.00  0.00     0.293 HD
ENDBRANCH   6  14
TORSDOF 4
ENDMDL
MODEL 3
REMARK VINA RESULT:     3.684      1.438      1.855
REMARK INTER + INTRA:           4.196
REMARK INTER:                   4.324
REMARK INTRA:                  -0.128
REMARK UNBOUND:                -0.134
REMARK SMILES O=C([O-])C=Cc1ccc(O)c(O)c1
REMARK SMILES IDX 6 1 13 2 7 3 11 4 8 5 9 6 5 7 4 8 2 9 1 10 3 11 12 12 10 14
REMARK H PARENT 12 13 10 15
REMARK Flexibility Score: inf
ROOT
ATOM      1  C   UNL     1      10.695   6.308  12.126  1.00  0.00    -0.022 A 
ATOM      2  C   UNL     1      10.018   6.872  11.033  1.00  0.00     0.058 A 
ATOM      3  C   UNL     1      10.972   4.927  12.115  1.00  0.00     0.012 A 
ATOM      4  C   UNL     1       9.600   6.075   9.957  1.00  0.00     0.157 A 
ATOM      5  C   UNL     1      10.557   4.132  11.044  1.00  0.00     0.051 A 
ATOM      6  C   UNL     1       9.870   4.696   9.966  1.00  0.00     0.157 A 
ENDROOT
BRANCH   1   7
ATOM      7  C   UNL     1      11.124   7.199  13.233  1.00  0.00     0.010 C 
ATOM      8  C   UNL     1      10.378   8.204  13.712  1.00  0.00     0.025 C 
BRANCH   8   9
ATOM      9  C   UNL     1      10.849   9.070  14.805  1.00  0.00     0.064 C 
ATOM     10  O   UNL     1      11.051  10.293  14.584  1.00  0.00    -0.545 OA
ATOM     11  O   UNL     1      11.075   8.561  16.078  1.00  0.00    -0.545 OA
ENDBRANCH   8   9
ENDBRANCH   1   7
BRANCH   4  12
ATOM     12  O   UNL     1       8.920   6.646   8.883  1.00  0.00    -0.504 OA
ATOM     13  H   UNL     1       9.332   7.387   8.328  1.00  0.00     0.293 HD
ENDBRANCH   4  12
BRANCH   6  14
ATOM     14  O   UNL     1       9.466   3.876   8.913  1.00  0.00    -0.504 OA
ATOM     15  H   UNL     1       9.814   4.000   7.971  1.00  0.00     0.293 HD
ENDBRANCH   6  14
TORSDOF 4
ENDMDL
