MODEL 1
REMARK VINA RESULT:    -3.172      0.000      0.000
REMARK INTER + INTRA:          -3.265
REMARK INTER:                  -3.265
REMARK INTRA:                   0.000
REMARK UNBOUND:                 0.000
REMARK SMILES Cc1cccc(O)c1C
REMARK SMILES IDX 1 1 2 2 8 3 6 4 5 5 4 6 3 7 9 8 7 9
REMARK H PARENT 7 10
REMARK Flexibility Score: inf
ROOT
ATOM      1  C   UNL     1      13.696   3.943  -1.500  1.00  0.00     0.045 C 
ATOM      2  C   UNL     1      12.339   4.593  -1.583  1.00  0.00    -0.045 A 
ATOM      3  C   UNL     1      11.278   4.032  -2.347  1.00  0.00    -0.006 A 
ATOM      4  C   UNL     1      10.027   4.700  -2.380  1.00  0.00     0.118 A 
ATOM      5  C   UNL     1       9.849   5.889  -1.668  1.00  0.00     0.046 A 
ATOM      6  C   UNL     1      10.890   6.432  -0.923  1.00  0.00     0.004 A 
ATOM      7  C   UNL     1      12.126   5.792  -0.879  1.00  0.00     0.004 A 
ATOM      8  C   UNL     1      11.449   2.747  -3.124  1.00  0.00     0.048 C 
ENDROOT
BRANCH   4   9
ATOM      9  O   UNL     1       8.941   4.208  -3.109  1.00  0.00    -0.508 OA
ATOM     10  H   UNL     1       8.583   4.651  -3.944  1.00  0.00     0.293 HD
ENDBRANCH   4   9
TORSDOF 1
ENDMDL
MODEL 2
REMARK VINA RESULT:    -3.082      1.220      3.003
REMARK INTER + INTRA:          -3.172
REMARK INTER:                  -3.172
REMARK INTRA:                   0.000
REMARK UNBOUND:                 0.000
REMARK SMILES Cc1cccc(O)c1C
REMARK SMILES IDX 1 1 2 2 8 3 6 4 5 5 4 6 3 7 9 8 7 9
REMARK H PARENT 7 10
REMARK Flexibility Score: inf
ROOT
ATOM      1  C   UNL     1       8.871   7.665  -1.323  1.00  0.00     0.045 C 
ATOM      2  C   UNL     1       9.822   6.502  -1.443  1.00  0.00    -0.045 A 
ATOM      3  C   UNL     1       9.515   5.353  -2.225  1.00  0.00    -0.006 A 
ATOM      4  C   UNL     1      10.458   4.295  -2.292  1.00  0.00     0.118 A 
ATOM      5  C   UNL     1      11.668   4.390  -1.599  1.00  0.00     0.046 A 
ATOM      6  C   UNL     1      11.961   5.516  -0.836  1.00  0.00     0.004 A 
ATOM      7  C   UNL     1      11.048   6.564  -0.758  1.00  0.00     0.004 A 
ATOM      8  C   UNL     1       8.213   5.230  -2.983  1.00  0.00     0.048 C 
ENDROOT
BRANCH   4   9
ATOM      9  O   UNL     1      10.225   3.138  -3.040  1.00  0.00    -0.508 OA
ATOM     10  H   UNL     1      10.948   2.648  -3.550  1.00  0.00     0.293 HD
ENDBRANCH   4   9
TORSDOF 1
ENDMDL
MODEL 3
REMARK VINA RESULT:    -3.063      2.501      3.948
REMARK INTER + INTRA:          -3.153
REMARK INTER:                  -3.153
REMARK INTRA:                   0.000
REMARK UNBOUND:                 0.000
REMARK SMILES Cc1cccc(O)c1C
REMARK SMILES IDX 1 1 2 2 8 3 6 4 5 5 4 6 3 7 9 8 7 9
REMARK H PARENT 7 10
REMARK Flexibility Score: inf
ROOT
ATOM      1  C   UNL     1       9.042   7.597  -1.212  1.00  0.00     0.045 C 
ATOM      2  C   UNL     1      10.348   6.853  -1.319  1.00  0.00    -0.045 A 
ATOM      3  C   UNL     1      11.375   7.256  -2.218  1.00  0.00    -0.006 A 
ATOM      4  C   UNL     1      12.579   6.507  -2.266  1.00  0.00     0.118 A 
ATOM      5  C   UNL     1      12.745   5.393  -1.439  1.00  0.00     0.046 A 
ATOM      6  C   UNL     1      11.737   5.004  -0.563  1.00  0.00     0.004 A 
ATOM      7  C   UNL     1      10.547   5.726  -0.502  1.00  0.00     0.004 A 
ATOM      8  C   UNL     1      11.217   8.457  -3.122  1.00  0.00     0.048 C 
ENDROOT
BRANCH   4   9
ATOM      9  O   UNL     1      13.631   6.844  -3.123  1.00  0.00    -0.508 OA
ATOM     10  H   UNL     1      14.432   6.248  -3.284  1.00  0.00     0.293 HD
ENDBRANCH   4   9
TORSDOF 1
ENDMDL
MODEL 4
REMARK VINA RESULT:    -2.813     11.295     12.689
REMARK INTER + INTRA:          -2.896
REMARK INTER:                  -2.896
REMARK INTRA:                   0.000
REMARK UNBOUND:                 0.000
REMARK SMILES Cc1cccc(O)c1C
REMARK SMILES IDX 1 1 2 2 8 3 6 4 5 5 4 6 3 7 9 8 7 9
REMARK H PARENT 7 10
REMARK Flexibility Score: inf
ROOT
ATOM      1  C   UNL     1      13.248  17.345   1.349  1.00  0.00     0.045 C 
ATOM      2  C   UNL     1      14.090  17.193   0.108  1.00  0.00    -0.045 A 
ATOM      3  C   UNL     1      13.875  16.141  -0.826  1.00  0.00    -0.006 A 
ATOM      4  C   UNL     1      14.707  16.059  -1.972  1.00  0.00     0.118 A 
ATOM      5  C   UNL     1      15.718  17.003  -2.172  1.00  0.00     0.046 A 
ATOM      6  C   UNL     1      15.923  18.028  -1.255  1.00  0.00     0.004 A 
ATOM      7  C   UNL     1      15.116  18.125  -0.124  1.00  0.00     0.004 A 
ATOM      8  C   UNL     1      12.787  15.110  -0.628  1.00  0.00     0.048 C 
ENDROOT
BRANCH   4   9
ATOM      9  O   UNL     1      14.555  15.054  -2.931  1.00  0.00    -0.508 OA
ATOM     10  H   UNL     1      14.121  14.161  -2.739  1.00  0.00     0.293 HD
ENDBRANCH   4   9
TORSDOF 1
ENDMDL
MODEL 5
REMARK VINA RESULT:    -2.754     11.206     12.384
REMARK INTER + INTRA:          -2.834
REMARK INTER:                  -2.834
REMARK INTRA:                   0.000
REMARK UNBOUND:                 0.000
REMARK SMILES Cc1cccc(O)c1C
REMARK SMILES IDX 1 1 2 2 8 3 6 4 5 5 4 6 3 7 9 8 7 9
REMARK H PARENT 7 10
REMARK Flexibility Score: inf
ROOT
ATOM      1  C   UNL     1      14.124  15.277  -1.161  1.00  0.00     0.045 C 
ATOM      2  C   UNL     1      13.318  16.226  -0.313  1.00  0.00    -0.045 A 
ATOM      3  C   UNL     1      11.912  16.371  -0.469  1.00  0.00    -0.006 A 
ATOM      4  C   UNL     1      11.218  17.286   0.365  1.00  0.00     0.118 A 
ATOM      5  C   UNL     1      11.915  18.027   1.324  1.00  0.00     0.046 A 
ATOM      6  C   UNL     1      13.290  17.881   1.471  1.00  0.00     0.004 A 
ATOM      7  C   UNL     1      13.989  16.988   0.661  1.00  0.00     0.004 A 
ATOM      8  C   UNL     1      11.138  15.579  -1.498  1.00  0.00     0.048 C 
ENDROOT
BRANCH   4   9
ATOM      9  O   UNL     1       9.837  17.480   0.269  1.00  0.00    -0.508 OA
ATOM     10  H   UNL     1       9.188  16.750   0.006  1.00  0.00     0.293 HD
ENDBRANCH   4   9
TORSDOF 1
ENDMDL
MODEL 6
REMARK VINA RESULT:    -2.674     11.111     12.441
REMARK INTER + INTRA:          -2.752
REMARK INTER:                  -2.752
REMARK INTRA:                   0.000
REMARK UNBOUND:                 0.000
REMARK SMILES Cc1cccc(O)c1C
REMARK SMILES IDX 1 1 2 2 8 3 6 4 5 5 4 6 3 7 9 8 7 9
REMARK H PARENT 7 10
REMARK Flexibility Score: inf
ROOT
ATOM      1  C   UNL     1      12.380  14.472  -0.866  1.00  0.00     0.045 C 
ATOM      2  C   UNL     1      13.246  15.690  -0.671  1.00  0.00    -0.045 A 
ATOM      3  C   UNL     1      14.390  15.941  -1.478  1.00  0.00    -0.006 A 
ATOM      4  C   UNL     1      15.159  17.108  -1.237  1.00  0.00     0.118 A 
ATOM      5  C   UNL     1      14.789  17.993  -0.220  1.00  0.00     0.046 A 
ATOM      6  C   UNL     1      13.670  17.741   0.567  1.00  0.00     0.004 A 
ATOM      7  C   UNL     1      12.903  16.600   0.345  1.00  0.00     0.004 A 
ATOM      8  C   UNL     1      14.807  14.998  -2.584  1.00  0.00     0.048 C 
ENDROOT
BRANCH   4   9
ATOM      9  O   UNL     1      16.294  17.420  -1.991  1.00  0.00    -0.508 OA
ATOM     10  H   UNL     1      16.890  16.723  -2.416  1.00  0.00     0.293 HD
ENDBRANCH   4   9
TORSDOF 1
ENDMDL
MODEL 7
REMARK VINA RESULT:    -2.656     11.212     12.482
REMARK INTER + INTRA:          -2.734
REMARK INTER:                  -2.734
REMARK INTRA:                   0.000
REMARK UNBOUND:                 0.000
REMARK SMILES Cc1cccc(O)c1C
REMARK SMILES IDX 1 1 2 2 8 3 6 4 5 5 4 6 3 7 9 8 7 9
REMARK H PARENT 7 10
REMARK Flexibility Score: inf
ROOT
ATOM      1  C   UNL     1      14.869  14.972  -2.816  1.00  0.00     0.045 C 
ATOM      2  C   UNL     1      14.695  16.034  -1.761  1.00  0.00    -0.045 A 
ATOM      3  C   UNL     1      13.657  15.970  -0.790  1.00  0.00    -0.006 A 
ATOM      4  C   UNL     1      13.553  17.006   0.174  1.00  0.00     0.118 A 
ATOM      5  C   UNL     1      14.462  18.068   0.161  1.00  0.00     0.046 A 
ATOM      6  C   UNL     1      15.473  18.125  -0.792  1.00  0.00     0.004 A 
ATOM      7  C   UNL     1      15.592  17.117  -1.746  1.00  0.00     0.004 A 
ATOM      8  C   UNL     1      12.665  14.831  -0.758  1.00  0.00     0.048 C 
ENDROOT
BRANCH   4   9
ATOM      9  O   UNL     1      12.560  17.010   1.157  1.00  0.00    -0.508 OA
ATOM     10  H   UNL     1      12.249  17.847   1.632  1.00  0.00     0.293 HD
ENDBRANCH   4   9
TORSDOF 1
ENDMDL
MODEL 8
REMARK VINA RESULT:    -2.651     11.088     12.332
REMARK INTER + INTRA:          -2.728
REMARK INTER:                  -2.728
REMARK INTRA:                   0.000
REMARK UNBOUND:                 0.000
REMARK SMILES Cc1cccc(O)c1C
REMARK SMILES IDX 1 1 2 2 8 3 6 4 5 5 4 6 3 7 9 8 7 9
REMARK H PARENT 7 10
REMARK Flexibility Score: inf
ROOT
ATOM      1  C   UNL     1      16.311  17.544  -2.051  1.00  0.00     0.045 C 
ATOM      2  C   UNL     1      15.120  17.211  -1.190  1.00  0.00    -0.045 A 
ATOM      3  C   UNL     1      14.372  16.013  -1.365  1.00  0.00    -0.006 A 
ATOM      4  C   UNL     1      13.262  15.766  -0.518  1.00  0.00     0.118 A 
ATOM      5  C   UNL     1      12.916  16.690   0.472  1.00  0.00     0.046 A 
ATOM      6  C   UNL     1      13.651  17.860   0.637  1.00  0.00     0.004 A 
ATOM      7  C   UNL     1      14.744  18.121  -0.186  1.00  0.00     0.004 A 
ATOM      8  C   UNL     1      14.729  15.000  -2.429  1.00  0.00     0.048 C 
ENDROOT
BRANCH   4   9
ATOM      9  O   UNL     1      12.482  14.611  -0.631  1.00  0.00    -0.508 OA
ATOM     10  H   UNL     1      12.133  14.094   0.165  1.00  0.00     0.293 HD
ENDBRANCH   4   9
TORSDOF 1
ENDMDL
MODEL 9
REMARK VINA RESULT:    -2.646      8.315     10.056
REMARK INTER + INTRA:          -2.723
REMARK INTER:                  -2.723
REMARK INTRA:                   0.000
REMARK UNBOUND:                 0.000
REMARK SMILES Cc1cccc(O)c1C
REMARK SMILES IDX 1 1 2 2 8 3 6 4 5 5 4 6 3 7 9 8 7 9
REMARK H PARENT 7 10
REMARK Flexibility Score: inf
ROOT
ATOM      1  C   UNL     1      10.954  16.595  -1.657  1.00  0.00     0.045 C 
ATOM      2  C   UNL     1      10.681  15.167  -1.259  1.00  0.00    -0.045 A 
ATOM      3  C   UNL     1       9.394  14.734  -0.833  1.00  0.00    -0.006 A 
ATOM      4  C   UNL     1       9.211  13.375  -0.473  1.00  0.00     0.118 A 
ATOM      5  C   UNL     1      10.283  12.481  -0.540  1.00  0.00     0.046 A 
ATOM      6  C   UNL     1      11.539  12.911  -0.957  1.00  0.00     0.004 A 
ATOM      7  C   UNL     1      11.739  14.242  -1.314  1.00  0.00     0.004 A 
ATOM      8  C   UNL     1       8.221  15.684  -0.754  1.00  0.00     0.048 C 
ENDROOT
BRANCH   4   9
ATOM      9  O   UNL     1       7.976  12.878  -0.046  1.00  0.00    -0.508 OA
ATOM     10  H   UNL     1       7.090  13.195  -0.416  1.00  0.00     0.293 HD
ENDBRANCH   4   9
TORSDOF 1
ENDMDL
