MODEL 1
REMARK VINA RESULT:    -5.452      0.000      0.000
REMARK INTER + INTRA:          -5.611
REMARK INTER:                  -5.611
REMARK INTRA:                   0.000
REMARK UNBOUND:                 0.000
REMARK SMILES O=c1ccc2cc(O)ccc2o1
REMARK SMILES IDX 9 1 10 2 11 3 5 4 4 5 3 6 2 7 1 8 12 9 6 10 7 11 8 12
REMARK H PARENT 8 13
REMARK Flexibility Score: inf
ROOT
ATOM      1  C   UNL     1     -22.123  -1.434  23.125  1.00  0.00     0.050 A 
ATOM      2  C   UNL     1     -21.750  -2.712  22.696  1.00  0.00     0.052 A 
ATOM      3  C   UNL     1     -21.374  -2.922  21.366  1.00  0.00     0.138 A 
ATOM      4  C   UNL     1     -21.371  -1.841  20.458  1.00  0.00     0.021 A 
ATOM      5  C   UNL     1     -20.990  -2.082  19.135  1.00  0.00     0.019 A 
ATOM      6  C   UNL     1     -20.626  -3.373  18.753  1.00  0.00     0.094 A 
ATOM      7  C   UNL     1     -20.651  -4.396  19.706  1.00  0.00     0.336 A 
ATOM      8  O   UNL     1     -20.326  -5.567  19.381  1.00  0.00    -0.246 OA
ATOM      9  O   UNL     1     -21.018  -4.139  20.959  1.00  0.00    -0.423 OA
ATOM     10  C   UNL     1     -21.746  -0.562  20.893  1.00  0.00     0.058 A 
ATOM     11  C   UNL     1     -22.123  -0.358  22.229  1.00  0.00     0.116 A 
ENDROOT
BRANCH  11  12
ATOM     12  O   UNL     1     -22.499   0.907  22.675  1.00  0.00    -0.508 OA
ATOM     13  H   UNL     1     -23.233   1.433  22.218  1.00  0.00     0.293 HD
ENDBRANCH  11  12
TORSDOF 1
ENDMDL
MODEL 2
REMARK VINA RESULT:    -5.352      1.739      4.629
REMARK INTER + INTRA:          -5.508
REMARK INTER:                  -5.508
REMARK INTRA:                   0.000
REMARK UNBOUND:                 0.000
REMARK SMILES O=c1ccc2cc(O)ccc2o1
REMARK SMILES IDX 9 1 10 2 11 3 5 4 4 5 3 6 2 7 1 8 12 9 6 10 7 11 8 12
REMARK H PARENT 8 13
REMARK Flexibility Score: inf
ROOT
ATOM      1  C   UNL     1     -20.656  -2.480  17.743  1.00  0.00     0.050 A 
ATOM      2  C   UNL     1     -21.407  -1.862  18.748  1.00  0.00     0.052 A 
ATOM      3  C   UNL     1     -21.382  -2.367  20.052  1.00  0.00     0.138 A 
ATOM      4  C   UNL     1     -20.595  -3.501  20.349  1.00  0.00     0.021 A 
ATOM      5  C   UNL     1     -20.589  -3.982  21.662  1.00  0.00     0.019 A 
ATOM      6  C   UNL     1     -21.354  -3.334  22.632  1.00  0.00     0.094 A 
ATOM      7  C   UNL     1     -22.109  -2.215  22.265  1.00  0.00     0.336 A 
ATOM      8  O   UNL     1     -22.805  -1.616  23.125  1.00  0.00    -0.246 OA
ATOM      9  O   UNL     1     -22.096  -1.777  21.008  1.00  0.00    -0.423 OA
ATOM     10  C   UNL     1     -19.844  -4.116  19.338  1.00  0.00     0.058 A 
ATOM     11  C   UNL     1     -19.875  -3.605  18.032  1.00  0.00     0.116 A 
ENDROOT
BRANCH  11  12
ATOM     12  O   UNL     1     -19.134  -4.206  17.017  1.00  0.00    -0.508 OA
ATOM     13  H   UNL     1     -18.139  -4.368  17.113  1.00  0.00     0.293 HD
ENDBRANCH  11  12
TORSDOF 1
ENDMDL
MODEL 3
REMARK VINA RESULT:    -5.319      2.179      3.229
REMARK INTER + INTRA:          -5.475
REMARK INTER:                  -5.475
REMARK INTRA:                   0.000
REMARK UNBOUND:                 0.000
REMARK SMILES O=c1ccc2cc(O)ccc2o1
REMARK SMILES IDX 9 1 10 2 11 3 5 4 4 5 3 6 2 7 1 8 12 9 6 10 7 11 8 12
REMARK H PARENT 8 13
REMARK Flexibility Score: inf
ROOT
ATOM      1  C   UNL     1     -21.938  -2.040  21.408  1.00  0.00     0.050 A 
ATOM      2  C   UNL     1     -21.739  -1.574  20.104  1.00  0.00     0.052 A 
ATOM      3  C   UNL     1     -20.971  -2.319  19.204  1.00  0.00     0.138 A 
ATOM      4  C   UNL     1     -20.399  -3.543  19.615  1.00  0.00     0.021 A 
ATOM      5  C   UNL     1     -19.637  -4.265  18.692  1.00  0.00     0.019 A 
ATOM      6  C   UNL     1     -19.465  -3.762  17.403  1.00  0.00     0.094 A 
ATOM      7  C   UNL     1     -20.063  -2.543  17.065  1.00  0.00     0.336 A 
ATOM      8  O   UNL     1     -19.920  -2.072  15.907  1.00  0.00    -0.246 OA
ATOM      9  O   UNL     1     -20.783  -1.875  17.963  1.00  0.00    -0.423 OA
ATOM     10  C   UNL     1     -20.602  -4.005  20.923  1.00  0.00     0.058 A 
ATOM     11  C   UNL     1     -21.373  -3.252  21.821  1.00  0.00     0.116 A 
ENDROOT
BRANCH  11  12
ATOM     12  O   UNL     1     -21.582  -3.699  23.124  1.00  0.00    -0.508 OA
ATOM     13  H   UNL     1     -21.192  -4.573  23.452  1.00  0.00     0.293 HD
ENDBRANCH  11  12
TORSDOF 1
ENDMDL
MODEL 4
REMARK VINA RESULT:    -5.318      1.377      2.714
REMARK INTER + INTRA:          -5.474
REMARK INTER:                  -5.474
REMARK INTRA:                   0.000
REMARK UNBOUND:                 0.000
REMARK SMILES O=c1ccc2cc(O)ccc2o1
REMARK SMILES IDX 9 1 10 2 11 3 5 4 4 5 3 6 2 7 1 8 12 9 6 10 7 11 8 12
REMARK H PARENT 8 13
REMARK Flexibility Score: inf
ROOT
ATOM      1  C   UNL     1     -22.506   1.360  21.065  1.00  0.00     0.050 A 
ATOM      2  C   UNL     1     -22.054   0.238  20.363  1.00  0.00     0.052 A 
ATOM      3  C   UNL     1     -21.835  -0.968  21.036  1.00  0.00     0.138 A 
ATOM      4  C   UNL     1     -22.072  -1.049  22.426  1.00  0.00     0.021 A 
ATOM      5  C   UNL     1     -21.845  -2.269  23.071  1.00  0.00     0.019 A 
ATOM      6  C   UNL     1     -21.393  -3.361  22.330  1.00  0.00     0.094 A 
ATOM      7  C   UNL     1     -21.181  -3.208  20.956  1.00  0.00     0.336 A 
ATOM      8  O   UNL     1     -20.774  -4.181  20.270  1.00  0.00    -0.246 OA
ATOM      9  O   UNL     1     -21.406  -2.036  20.367  1.00  0.00    -0.423 OA
ATOM     10  C   UNL     1     -22.526   0.078  23.125  1.00  0.00     0.058 A 
ATOM     11  C   UNL     1     -22.743   1.285  22.443  1.00  0.00     0.116 A 
ENDROOT
BRANCH  11  12
ATOM     12  O   UNL     1     -23.193   2.414  23.125  1.00  0.00    -0.508 OA
ATOM     13  H   UNL     1     -22.957   3.348  22.814  1.00  0.00     0.293 HD
ENDBRANCH  11  12
TORSDOF 1
ENDMDL
MODEL 5
REMARK VINA RESULT:    -5.270      0.806      4.769
REMARK INTER + INTRA:          -5.424
REMARK INTER:                  -5.424
REMARK INTRA:                   0.000
REMARK UNBOUND:                 0.000
REMARK SMILES O=c1ccc2cc(O)ccc2o1
REMARK SMILES IDX 9 1 10 2 11 3 5 4 4 5 3 6 2 7 1 8 12 9 6 10 7 11 8 12
REMARK H PARENT 8 13
REMARK Flexibility Score: inf
ROOT
ATOM      1  C   UNL     1     -20.665  -3.348  18.818  1.00  0.00     0.050 A 
ATOM      2  C   UNL     1     -21.055  -2.059  19.198  1.00  0.00     0.052 A 
ATOM      3  C   UNL     1     -21.419  -1.800  20.523  1.00  0.00     0.138 A 
ATOM      4  C   UNL     1     -21.391  -2.842  21.475  1.00  0.00     0.021 A 
ATOM      5  C   UNL     1     -21.761  -2.552  22.792  1.00  0.00     0.019 A 
ATOM      6  C   UNL     1     -22.142  -1.252  23.125  1.00  0.00     0.094 A 
ATOM      7  C   UNL     1     -22.145  -0.270  22.129  1.00  0.00     0.336 A 
ATOM      8  O   UNL     1     -22.485   0.909  22.410  1.00  0.00    -0.246 OA
ATOM      9  O   UNL     1     -21.788  -0.573  20.884  1.00  0.00    -0.423 OA
ATOM     10  C   UNL     1     -21.001  -4.132  21.089  1.00  0.00     0.058 A 
ATOM     11  C   UNL     1     -20.637  -4.385  19.758  1.00  0.00     0.116 A 
ENDROOT
BRANCH  11  12
ATOM     12  O   UNL     1     -20.247  -5.662  19.360  1.00  0.00    -0.508 OA
ATOM     13  H   UNL     1     -20.023  -5.870  18.395  1.00  0.00     0.293 HD
ENDBRANCH  11  12
TORSDOF 1
ENDMDL
MODEL 6
REMARK VINA RESULT:    -5.015     16.685     18.923
REMARK INTER + INTRA:          -5.162
REMARK INTER:                  -5.162
REMARK INTRA:                   0.000
REMARK UNBOUND:                 0.000
REMARK SMILES O=c1ccc2cc(O)ccc2o1
REMARK SMILES IDX 9 1 10 2 11 3 5 4 4 5 3 6 2 7 1 8 12 9 6 10 7 11 8 12
REMARK H PARENT 8 13
REMARK Flexibility Score: inf
ROOT
ATOM      1  C   UNL     1      -6.915  -3.127   6.609  1.00  0.00     0.050 A 
ATOM      2  C   UNL     1      -7.162  -3.601   7.902  1.00  0.00     0.052 A 
ATOM      3  C   UNL     1      -8.252  -4.442   8.144  1.00  0.00     0.138 A 
ATOM      4  C   UNL     1      -9.103  -4.811   7.079  1.00  0.00     0.021 A 
ATOM      5  C   UNL     1     -10.185  -5.654   7.352  1.00  0.00     0.019 A 
ATOM      6  C   UNL     1     -10.391  -6.102   8.657  1.00  0.00     0.094 A 
ATOM      7  C   UNL     1      -9.507  -5.696   9.661  1.00  0.00     0.336 A 
ATOM      8  O   UNL     1      -9.676  -6.089  10.844  1.00  0.00    -0.246 OA
ATOM      9  O   UNL     1      -8.485  -4.893   9.375  1.00  0.00    -0.423 OA
ATOM     10  C   UNL     1      -8.852  -4.334   5.785  1.00  0.00     0.058 A 
ATOM     11  C   UNL     1      -7.756  -3.490   5.550  1.00  0.00     0.116 A 
ENDROOT
BRANCH  11  12
ATOM     12  O   UNL     1      -7.494  -3.007   4.269  1.00  0.00    -0.508 OA
ATOM     13  H   UNL     1      -6.756  -2.336   4.098  1.00  0.00     0.293 HD
ENDBRANCH  11  12
TORSDOF 1
ENDMDL
MODEL 7
REMARK VINA RESULT:    -4.955      1.628      2.215
REMARK INTER + INTRA:          -5.099
REMARK INTER:                  -5.099
REMARK INTRA:                   0.000
REMARK UNBOUND:                 0.000
REMARK SMILES O=c1ccc2cc(O)ccc2o1
REMARK SMILES IDX 9 1 10 2 11 3 5 4 4 5 3 6 2 7 1 8 12 9 6 10 7 11 8 12
REMARK H PARENT 8 13
REMARK Flexibility Score: inf
ROOT
ATOM      1  C   UNL     1     -21.028  -3.376  22.020  1.00  0.00     0.050 A 
ATOM      2  C   UNL     1     -20.294  -4.038  21.031  1.00  0.00     0.052 A 
ATOM      3  C   UNL     1     -20.296  -3.558  19.718  1.00  0.00     0.138 A 
ATOM      4  C   UNL     1     -21.040  -2.402  19.395  1.00  0.00     0.021 A 
ATOM      5  C   UNL     1     -21.022  -1.946  18.073  1.00  0.00     0.019 A 
ATOM      6  C   UNL     1     -20.275  -2.638  17.120  1.00  0.00     0.094 A 
ATOM      7  C   UNL     1     -19.561  -3.775  17.513  1.00  0.00     0.336 A 
ATOM      8  O   UNL     1     -18.882  -4.413  16.668  1.00  0.00    -0.246 OA
ATOM      9  O   UNL     1     -19.596  -4.188  18.777  1.00  0.00    -0.423 OA
ATOM     10  C   UNL     1     -21.774  -1.742  20.390  1.00  0.00     0.058 A 
ATOM     11  C   UNL     1     -21.768  -2.230  21.705  1.00  0.00     0.116 A 
ENDROOT
BRANCH  11  12
ATOM     12  O   UNL     1     -22.494  -1.585  22.705  1.00  0.00    -0.508 OA
ATOM     13  H   UNL     1     -23.493  -1.714  22.800  1.00  0.00     0.293 HD
ENDBRANCH  11  12
TORSDOF 1
ENDMDL
MODEL 8
REMARK VINA RESULT:    -4.917     19.826     20.290
REMARK INTER + INTRA:          -5.060
REMARK INTER:                  -5.060
REMARK INTRA:                   0.000
REMARK UNBOUND:                 0.000
REMARK SMILES O=c1ccc2cc(O)ccc2o1
REMARK SMILES IDX 9 1 10 2 11 3 5 4 4 5 3 6 2 7 1 8 12 9 6 10 7 11 8 12
REMARK H PARENT 8 13
REMARK Flexibility Score: inf
ROOT
ATOM      1  C   UNL     1      -6.908  -7.726   8.627  1.00  0.00     0.050 A 
ATOM      2  C   UNL     1      -6.539  -6.378   8.671  1.00  0.00     0.052 A 
ATOM      3  C   UNL     1      -7.001  -5.493   7.692  1.00  0.00     0.138 A 
ATOM      4  C   UNL     1      -7.840  -5.965   6.660  1.00  0.00     0.021 A 
ATOM      5  C   UNL     1      -8.286  -5.056   5.695  1.00  0.00     0.019 A 
ATOM      6  C   UNL     1      -7.892  -3.721   5.780  1.00  0.00     0.094 A 
ATOM      7  C   UNL     1      -7.059  -3.324   6.831  1.00  0.00     0.336 A 
ATOM      8  O   UNL     1      -6.694  -2.124   6.925  1.00  0.00    -0.246 OA
ATOM      9  O   UNL     1      -6.650  -4.210   7.736  1.00  0.00    -0.423 OA
ATOM     10  C   UNL     1      -8.207  -7.318   6.620  1.00  0.00     0.058 A 
ATOM     11  C   UNL     1      -7.740  -8.200   7.605  1.00  0.00     0.116 A 
ENDROOT
BRANCH  11  12
ATOM     12  O   UNL     1      -8.095  -9.547   7.578  1.00  0.00    -0.508 OA
ATOM     13  H   UNL     1      -7.655 -10.197   6.940  1.00  0.00     0.293 HD
ENDBRANCH  11  12
TORSDOF 1
ENDMDL
MODEL 9
REMARK VINA RESULT:    -4.806     17.671     18.860
REMARK INTER + INTRA:          -4.946
REMARK INTER:                  -4.946
REMARK INTRA:                   0.000
REMARK UNBOUND:                 0.000
REMARK SMILES O=c1ccc2cc(O)ccc2o1
REMARK SMILES IDX 9 1 10 2 11 3 5 4 4 5 3 6 2 7 1 8 12 9 6 10 7 11 8 12
REMARK H PARENT 8 13
REMARK Flexibility Score: inf
ROOT
ATOM      1  C   UNL     1      -8.400  -4.688   5.897  1.00  0.00     0.050 A 
ATOM      2  C   UNL     1      -7.560  -5.523   6.641  1.00  0.00     0.052 A 
ATOM      3  C   UNL     1      -8.073  -6.253   7.717  1.00  0.00     0.138 A 
ATOM      4  C   UNL     1      -9.440  -6.144   8.051  1.00  0.00     0.021 A 
ATOM      5  C   UNL     1      -9.923  -6.887   9.133  1.00  0.00     0.019 A 
ATOM      6  C   UNL     1      -9.048  -7.707   9.845  1.00  0.00     0.094 A 
ATOM      7  C   UNL     1      -7.706  -7.766   9.457  1.00  0.00     0.336 A 
ATOM      8  O   UNL     1      -6.901  -8.501  10.086  1.00  0.00    -0.246 OA
ATOM      9  O   UNL     1      -7.272  -7.049   8.423  1.00  0.00    -0.423 OA
ATOM     10  C   UNL     1     -10.278  -5.305   7.304  1.00  0.00     0.058 A 
ATOM     11  C   UNL     1      -9.757  -4.575   6.225  1.00  0.00     0.116 A 
ENDROOT
BRANCH  11  12
ATOM     12  O   UNL     1     -10.578  -3.737   5.473  1.00  0.00    -0.508 OA
ATOM     13  H   UNL     1     -10.531  -3.719   4.462  1.00  0.00     0.293 HD
ENDBRANCH  11  12
TORSDOF 1
ENDMDL
