MODEL 1
REMARK VINA RESULT:    -5.680      0.000      0.000
REMARK INTER + INTRA:          -6.105
REMARK INTER:                  -6.012
REMARK INTRA:                  -0.093
REMARK UNBOUND:                -0.093
REMARK SMILES C=C(C)[C@@H]1CC=C(C)C(=O)C1
REMARK SMILES IDX 8 1 7 2 6 3 5 4 4 5 11 6 9 7 10 8 2 9 1 10 3 11
REMARK H PARENT
REMARK Flexibility Score: inf
ROOT
ATOM      1  C   UNL     1     -12.507 -38.354  31.973  1.00  0.00     0.048 C 
ATOM      2  C   UNL     1     -12.614 -37.374  30.838  1.00  0.00    -0.012 C 
ATOM      3  C   UNL     1     -13.457 -37.618  29.820  1.00  0.00    -0.019 C 
ATOM      4  C   UNL     1     -13.615 -36.661  28.669  1.00  0.00     0.036 C 
ATOM      5  C   UNL     1     -12.292 -35.931  28.367  1.00  0.00     0.025 C 
ATOM      6  C   UNL     1     -11.765 -35.235  29.635  1.00  0.00     0.089 C 
ATOM      7  C   UNL     1     -11.699 -36.205  30.783  1.00  0.00     0.158 C 
ATOM      8  O   UNL     1     -10.882 -35.994  31.719  1.00  0.00    -0.295 OA
ENDROOT
BRANCH   5   9
ATOM      9  C   UNL     1     -12.440 -34.953  27.209  1.00  0.00    -0.077 C 
ATOM     10  C   UNL     1     -13.461 -34.080  27.157  1.00  0.00     0.008 C 
ATOM     11  C   UNL     1     -11.431 -34.948  26.090  1.00  0.00     0.039 C 
ENDBRANCH   5   9
TORSDOF 1
ENDMDL
MODEL 2
REMARK VINA RESULT:    -5.546      2.935      4.855
REMARK INTER + INTRA:          -5.964
REMARK INTER:                  -5.868
REMARK INTRA:                  -0.096
REMARK UNBOUND:                -0.093
REMARK SMILES C=C(C)[C@@H]1CC=C(C)C(=O)C1
REMARK SMILES IDX 8 1 7 2 6 3 5 4 4 5 11 6 9 7 10 8 2 9 1 10 3 11
REMARK H PARENT
REMARK Flexibility Score: inf
ROOT
ATOM      1  C   UNL     1     -11.439 -35.005  26.067  1.00  0.00     0.048 C 
ATOM      2  C   UNL     1     -11.720 -34.573  27.480  1.00  0.00    -0.012 C 
ATOM      3  C   UNL     1     -10.868 -34.909  28.464  1.00  0.00    -0.019 C 
ATOM      4  C   UNL     1     -11.093 -34.487  29.892  1.00  0.00     0.036 C 
ATOM      5  C   UNL     1     -12.596 -34.408  30.218  1.00  0.00     0.025 C 
ATOM      6  C   UNL     1     -13.311 -33.482  29.218  1.00  0.00     0.089 C 
ATOM      7  C   UNL     1     -12.996 -33.886  27.803  1.00  0.00     0.158 C 
ATOM      8  O   UNL     1     -13.813 -33.602  26.886  1.00  0.00    -0.295 OA
ENDROOT
BRANCH   5   9
ATOM      9  C   UNL     1     -12.838 -33.973  31.657  1.00  0.00    -0.077 C 
ATOM     10  C   UNL     1     -11.845 -33.969  32.563  1.00  0.00     0.008 C 
ATOM     11  C   UNL     1     -14.212 -33.538  32.094  1.00  0.00     0.039 C 
ENDBRANCH   5   9
TORSDOF 1
ENDMDL
MODEL 3
REMARK VINA RESULT:    -5.449      1.982      2.715
REMARK INTER + INTRA:          -5.861
REMARK INTER:                  -5.766
REMARK INTRA:                  -0.095
REMARK UNBOUND:                -0.093
REMARK SMILES C=C(C)[C@@H]1CC=C(C)C(=O)C1
REMARK SMILES IDX 8 1 7 2 6 3 5 4 4 5 11 6 9 7 10 8 2 9 1 10 3 11
REMARK H PARENT
REMARK Flexibility Score: inf
ROOT
ATOM      1  C   UNL     1     -12.584 -38.869  31.989  1.00  0.00     0.048 C 
ATOM      2  C   UNL     1     -12.295 -37.602  31.232  1.00  0.00    -0.012 C 
ATOM      3  C   UNL     1     -11.673 -36.581  31.847  1.00  0.00    -0.019 C 
ATOM      4  C   UNL     1     -11.346 -35.299  31.131  1.00  0.00     0.036 C 
ATOM      5  C   UNL     1     -12.404 -34.974  30.059  1.00  0.00     0.025 C 
ATOM      6  C   UNL     1     -12.562 -36.160  29.089  1.00  0.00     0.089 C 
ATOM      7  C   UNL     1     -12.807 -37.435  29.848  1.00  0.00     0.158 C 
ATOM      8  O   UNL     1     -13.422 -38.379  29.281  1.00  0.00    -0.295 OA
ENDROOT
BRANCH   5   9
ATOM      9  C   UNL     1     -12.080 -33.683  29.320  1.00  0.00    -0.077 C 
ATOM     10  C   UNL     1     -10.834 -33.179  29.306  1.00  0.00     0.008 C 
ATOM     11  C   UNL     1     -13.165 -32.941  28.584  1.00  0.00     0.039 C 
ENDBRANCH   5   9
TORSDOF 1
ENDMDL
MODEL 4
REMARK VINA RESULT:    -5.359      1.918      2.879
REMARK INTER + INTRA:          -5.765
REMARK INTER:                  -5.674
REMARK INTRA:                  -0.092
REMARK UNBOUND:                -0.093
REMARK SMILES C=C(C)[C@@H]1CC=C(C)C(=O)C1
REMARK SMILES IDX 8 1 7 2 6 3 5 4 4 5 11 6 9 7 10 8 2 9 1 10 3 11
REMARK H PARENT
REMARK Flexibility Score: inf
ROOT
ATOM      1  C   UNL     1     -10.982 -33.862  32.840  1.00  0.00     0.048 C 
ATOM      2  C   UNL     1     -11.313 -34.117  31.395  1.00  0.00    -0.012 C 
ATOM      3  C   UNL     1     -10.619 -33.491  30.429  1.00  0.00    -0.019 C 
ATOM      4  C   UNL     1     -10.898 -33.724  28.968  1.00  0.00     0.036 C 
ATOM      5  C   UNL     1     -12.391 -34.016  28.728  1.00  0.00     0.025 C 
ATOM      6  C   UNL     1     -12.852 -35.195  29.604  1.00  0.00     0.089 C 
ATOM      7  C   UNL     1     -12.483 -34.961  31.043  1.00  0.00     0.158 C 
ATOM      8  O   UNL     1     -13.157 -35.521  31.950  1.00  0.00    -0.295 OA
ENDROOT
BRANCH   5   9
ATOM      9  C   UNL     1     -12.687 -34.264  27.254  1.00  0.00    -0.077 C 
ATOM     10  C   UNL     1     -13.854 -33.892  26.702  1.00  0.00     0.008 C 
ATOM     11  C   UNL     1     -11.661 -34.940  26.381  1.00  0.00     0.039 C 
ENDBRANCH   5   9
TORSDOF 1
ENDMDL
MODEL 5
REMARK VINA RESULT:    -5.113      3.143      4.430
REMARK INTER + INTRA:          -5.506
REMARK INTER:                  -5.408
REMARK INTRA:                  -0.098
REMARK UNBOUND:                -0.093
REMARK SMILES C=C(C)[C@@H]1CC=C(C)C(=O)C1
REMARK SMILES IDX 8 1 7 2 6 3 5 4 4 5 11 6 9 7 10 8 2 9 1 10 3 11
REMARK H PARENT
REMARK Flexibility Score: inf
ROOT
ATOM      1  C   UNL     1     -10.227 -35.746  29.974  1.00  0.00     0.048 C 
ATOM      2  C   UNL     1     -11.540 -35.195  30.459  1.00  0.00    -0.012 C 
ATOM      3  C   UNL     1     -12.007 -34.039  29.957  1.00  0.00    -0.019 C 
ATOM      4  C   UNL     1     -13.322 -33.453  30.395  1.00  0.00     0.036 C 
ATOM      5  C   UNL     1     -13.613 -33.782  31.872  1.00  0.00     0.025 C 
ATOM      6  C   UNL     1     -13.547 -35.303  32.103  1.00  0.00     0.089 C 
ATOM      7  C   UNL     1     -12.253 -35.862  31.578  1.00  0.00     0.158 C 
ATOM      8  O   UNL     1     -11.798 -36.927  32.075  1.00  0.00    -0.295 OA
ENDROOT
BRANCH   5   9
ATOM      9  C   UNL     1     -14.946 -33.203  32.326  1.00  0.00    -0.077 C 
ATOM     10  C   UNL     1     -15.620 -33.727  33.365  1.00  0.00     0.008 C 
ATOM     11  C   UNL     1     -15.540 -32.018  31.608  1.00  0.00     0.039 C 
ENDBRANCH   5   9
TORSDOF 1
ENDMDL
MODEL 6
REMARK VINA RESULT:    -5.112      3.515      4.868
REMARK INTER + INTRA:          -5.504
REMARK INTER:                  -5.408
REMARK INTRA:                  -0.096
REMARK UNBOUND:                -0.093
REMARK SMILES C=C(C)[C@@H]1CC=C(C)C(=O)C1
REMARK SMILES IDX 8 1 7 2 6 3 5 4 4 5 11 6 9 7 10 8 2 9 1 10 3 11
REMARK H PARENT
REMARK Flexibility Score: inf
ROOT
ATOM      1  C   UNL     1     -10.153 -35.309  30.020  1.00  0.00     0.048 C 
ATOM      2  C   UNL     1     -11.337 -34.605  30.623  1.00  0.00    -0.012 C 
ATOM      3  C   UNL     1     -11.503 -34.599  31.957  1.00  0.00    -0.019 C 
ATOM      4  C   UNL     1     -12.661 -33.895  32.613  1.00  0.00     0.036 C 
ATOM      5  C   UNL     1     -13.914 -33.933  31.718  1.00  0.00     0.025 C 
ATOM      6  C   UNL     1     -13.594 -33.356  30.327  1.00  0.00     0.089 C 
ATOM      7  C   UNL     1     -12.383 -34.029  29.740  1.00  0.00     0.158 C 
ATOM      8  O   UNL     1     -12.247 -34.066  28.488  1.00  0.00    -0.295 OA
ENDROOT
BRANCH   5   9
ATOM      9  C   UNL     1     -15.091 -33.215  32.365  1.00  0.00    -0.077 C 
ATOM     10  C   UNL     1     -15.506 -32.015  31.926  1.00  0.00     0.008 C 
ATOM     11  C   UNL     1     -15.817 -33.848  33.524  1.00  0.00     0.039 C 
ENDBRANCH   5   9
TORSDOF 1
ENDMDL
MODEL 7
REMARK VINA RESULT:    -5.065      1.387      2.075
REMARK INTER + INTRA:          -5.455
REMARK INTER:                  -5.364
REMARK INTRA:                  -0.091
REMARK UNBOUND:                -0.093
REMARK SMILES C=C(C)[C@@H]1CC=C(C)C(=O)C1
REMARK SMILES IDX 8 1 7 2 6 3 5 4 4 5 11 6 9 7 10 8 2 9 1 10 3 11
REMARK H PARENT
REMARK Flexibility Score: inf
ROOT
ATOM      1  C   UNL     1     -11.607 -36.688  32.275  1.00  0.00     0.048 C 
ATOM      2  C   UNL     1     -11.807 -36.265  30.845  1.00  0.00    -0.012 C 
ATOM      3  C   UNL     1     -11.052 -35.281  30.327  1.00  0.00    -0.019 C 
ATOM      4  C   UNL     1     -11.200 -34.831  28.898  1.00  0.00     0.036 C 
ATOM      5  C   UNL     1     -12.658 -34.966  28.421  1.00  0.00     0.025 C 
ATOM      6  C   UNL     1     -13.157 -36.407  28.633  1.00  0.00     0.089 C 
ATOM      7  C   UNL     1     -12.918 -36.847  30.051  1.00  0.00     0.158 C 
ATOM      8  O   UNL     1     -13.651 -37.745  30.548  1.00  0.00    -0.295 OA
ENDROOT
BRANCH   5   9
ATOM      9  C   UNL     1     -12.820 -34.523  26.973  1.00  0.00    -0.077 C 
ATOM     10  C   UNL     1     -13.930 -33.891  26.554  1.00  0.00     0.008 C 
ATOM     11  C   UNL     1     -11.725 -34.792  25.973  1.00  0.00     0.039 C 
ENDBRANCH   5   9
TORSDOF 1
ENDMDL
MODEL 8
REMARK VINA RESULT:    -5.039      1.820      3.327
REMARK INTER + INTRA:          -5.427
REMARK INTER:                  -5.333
REMARK INTRA:                  -0.094
REMARK UNBOUND:                -0.093
REMARK SMILES C=C(C)[C@@H]1CC=C(C)C(=O)C1
REMARK SMILES IDX 8 1 7 2 6 3 5 4 4 5 11 6 9 7 10 8 2 9 1 10 3 11
REMARK H PARENT
REMARK Flexibility Score: inf
ROOT
ATOM      1  C   UNL     1     -14.306 -38.057  28.607  1.00  0.00     0.048 C 
ATOM      2  C   UNL     1     -13.516 -36.914  29.184  1.00  0.00    -0.012 C 
ATOM      3  C   UNL     1     -13.192 -35.866  28.408  1.00  0.00    -0.019 C 
ATOM      4  C   UNL     1     -12.418 -34.689  28.940  1.00  0.00     0.036 C 
ATOM      5  C   UNL     1     -11.428 -35.124  30.036  1.00  0.00     0.025 C 
ATOM      6  C   UNL     1     -12.167 -35.887  31.151  1.00  0.00     0.089 C 
ATOM      7  C   UNL     1     -12.992 -37.004  30.571  1.00  0.00     0.158 C 
ATOM      8  O   UNL     1     -13.265 -38.003  31.289  1.00  0.00    -0.295 OA
ENDROOT
BRANCH   5   9
ATOM      9  C   UNL     1     -10.645 -33.942  30.591  1.00  0.00    -0.077 C 
ATOM     10  C   UNL     1     -10.026 -33.069  29.777  1.00  0.00     0.008 C 
ATOM     11  C   UNL     1     -10.551 -33.729  32.080  1.00  0.00     0.039 C 
ENDBRANCH   5   9
TORSDOF 1
ENDMDL
MODEL 9
REMARK VINA RESULT:    -4.980      2.390      2.569
REMARK INTER + INTRA:          -5.365
REMARK INTER:                  -5.268
REMARK INTRA:                  -0.096
REMARK UNBOUND:                -0.093
REMARK SMILES C=C(C)[C@@H]1CC=C(C)C(=O)C1
REMARK SMILES IDX 8 1 7 2 6 3 5 4 4 5 11 6 9 7 10 8 2 9 1 10 3 11
REMARK H PARENT
REMARK Flexibility Score: inf
ROOT
ATOM      1  C   UNL     1     -11.886 -33.980  32.758  1.00  0.00     0.048 C 
ATOM      2  C   UNL     1     -12.092 -33.958  31.268  1.00  0.00    -0.012 C 
ATOM      3  C   UNL     1     -13.249 -34.400  30.746  1.00  0.00    -0.019 C 
ATOM      4  C   UNL     1     -13.512 -34.384  29.264  1.00  0.00     0.036 C 
ATOM      5  C   UNL     1     -12.214 -34.607  28.466  1.00  0.00     0.025 C 
ATOM      6  C   UNL     1     -11.149 -33.575  28.880  1.00  0.00     0.089 C 
ATOM      7  C   UNL     1     -10.973 -33.565  30.374  1.00  0.00     0.158 C 
ATOM      8  O   UNL     1      -9.875 -33.184  30.861  1.00  0.00    -0.295 OA
ENDROOT
BRANCH   5   9
ATOM      9  C   UNL     1     -12.465 -34.584  26.964  1.00  0.00    -0.077 C 
ATOM     10  C   UNL     1     -13.651 -34.204  26.458  1.00  0.00     0.008 C 
ATOM     11  C   UNL     1     -11.373 -34.992  26.009  1.00  0.00     0.039 C 
ENDBRANCH   5   9
TORSDOF 1
ENDMDL
