MODEL 1
REMARK VINA RESULT:    -4.114      0.000      0.000
REMARK INTER + INTRA:          -6.632
REMARK INTER:                  -6.038
REMARK INTRA:                  -0.593
REMARK UNBOUND:                -0.593
REMARK SMILES CC(C)COC(=O)c1ccccc1C(=O)OCC(C)C
REMARK SMILES IDX 8 1 9 2 10 3 11 4 12 5 13 6 6 7 7 8 5 9 4 10 2 11 1 12 3 13
REMARK SMILES IDX 14 14 15 15 16 16 17 17 18 18 19 19 20 20
REMARK H PARENT
REMARK Flexibility Score: inf
ROOT
ATOM      1  C   UNL     1     134.925 134.451 138.454  1.00  0.00     0.074 A 
ATOM      2  C   UNL     1     134.615 135.610 139.188  1.00  0.00     0.016 A 
ATOM      3  C   UNL     1     133.318 136.125 139.194  1.00  0.00     0.001 A 
ATOM      4  C   UNL     1     132.311 135.490 138.470  1.00  0.00     0.001 A 
ATOM      5  C   UNL     1     132.602 134.352 137.718  1.00  0.00     0.016 A 
ATOM      6  C   UNL     1     133.907 133.828 137.680  1.00  0.00     0.074 A 
ENDROOT
BRANCH   1   7
ATOM      7  C   UNL     1     136.291 133.897 138.580  1.00  0.00     0.339 C 
ATOM      8  O   UNL     1     137.091 133.945 137.606  1.00  0.00    -0.246 OA
BRANCH   7   9
ATOM      9  O   UNL     1     136.670 133.267 139.769  1.00  0.00    -0.462 OA
BRANCH   9  10
ATOM     10  C   UNL     1     137.463 133.909 140.763  1.00  0.00     0.236 C 
BRANCH  10  11
ATOM     11  C   UNL     1     138.940 133.529 140.583  1.00  0.00     0.021 C 
ATOM     12  C   UNL     1     139.131 132.018 140.764  1.00  0.00     0.011 C 
ATOM     13  C   UNL     1     139.832 134.300 141.565  1.00  0.00     0.011 C 
ENDBRANCH  10  11
ENDBRANCH   9  10
ENDBRANCH   7   9
ENDBRANCH   1   7
BRANCH   6  14
ATOM     14  C   UNL     1     134.181 132.694 136.768  1.00  0.00     0.339 C 
ATOM     15  O   UNL     1     134.845 132.886 135.712  1.00  0.00    -0.246 OA
BRANCH  14  16
ATOM     16  O   UNL     1     133.745 131.406 137.102  1.00  0.00    -0.462 OA
BRANCH  16  17
ATOM     17  C   UNL     1     132.420 130.935 136.863  1.00  0.00     0.236 C 
BRANCH  17  18
ATOM     18  C   UNL     1     131.880 130.160 138.078  1.00  0.00     0.021 C 
ATOM     19  C   UNL     1     130.690 130.891 138.713  1.00  0.00     0.011 C 
ATOM     20  C   UNL     1     131.474 128.740 137.667  1.00  0.00     0.011 C 
ENDBRANCH  17  18
ENDBRANCH  16  17
ENDBRANCH  14  16
ENDBRANCH   6  14
TORSDOF 8
ENDMDL
MODEL 2
REMARK VINA RESULT:    -3.794      2.042      3.802
REMARK INTER + INTRA:          -6.161
REMARK INTER:                  -6.158
REMARK INTRA:                  -0.004
REMARK UNBOUND:                -0.593
REMARK SMILES CC(C)COC(=O)c1ccccc1C(=O)OCC(C)C
REMARK SMILES IDX 8 1 9 2 10 3 11 4 12 5 13 6 6 7 7 8 5 9 4 10 2 11 1 12 3 13
REMARK SMILES IDX 14 14 15 15 16 16 17 17 18 18 19 19 20 20
REMARK H PARENT
REMARK Flexibility Score: inf
ROOT
ATOM      1  C   UNL     1     133.634 132.652 136.819  1.00  0.00     0.074 A 
ATOM      2  C   UNL     1     134.633 133.112 135.942  1.00  0.00     0.016 A 
ATOM      3  C   UNL     1     134.917 132.425 134.762  1.00  0.00     0.001 A 
ATOM      4  C   UNL     1     134.209 131.269 134.438  1.00  0.00     0.001 A 
ATOM      5  C   UNL     1     133.230 130.782 135.305  1.00  0.00     0.016 A 
ATOM      6  C   UNL     1     132.942 131.448 136.511  1.00  0.00     0.074 A 
ENDROOT
BRANCH   1   7
ATOM      7  C   UNL     1     133.308 133.488 137.995  1.00  0.00     0.339 C 
ATOM      8  O   UNL     1     132.334 134.289 137.958  1.00  0.00    -0.246 OA
BRANCH   7   9
ATOM      9  O   UNL     1     134.123 133.426 139.129  1.00  0.00    -0.462 OA
BRANCH   9  10
ATOM     10  C   UNL     1     134.720 134.579 139.714  1.00  0.00     0.236 C 
BRANCH  10  11
ATOM     11  C   UNL     1     136.250 134.484 139.620  1.00  0.00     0.021 C 
ATOM     12  C   UNL     1     136.686 134.266 138.166  1.00  0.00     0.011 C 
ATOM     13  C   UNL     1     136.787 133.356 140.512  1.00  0.00     0.011 C 
ENDBRANCH  10  11
ENDBRANCH   9  10
ENDBRANCH   7   9
ENDBRANCH   1   7
BRANCH   6  14
ATOM     14  C   UNL     1     131.982 130.818 137.447  1.00  0.00     0.339 C 
ATOM     15  O   UNL     1     131.195 131.541 138.117  1.00  0.00    -0.246 OA
BRANCH  14  16
ATOM     16  O   UNL     1     131.918 129.423 137.548  1.00  0.00    -0.462 OA
BRANCH  16  17
ATOM     17  C   UNL     1     131.128 128.738 138.519  1.00  0.00     0.236 C 
BRANCH  17  18
ATOM     18  C   UNL     1     130.979 127.249 138.162  1.00  0.00     0.021 C 
ATOM     19  C   UNL     1     129.501 126.864 138.010  1.00  0.00     0.011 C 
ATOM     20  C   UNL     1     131.747 126.931 136.874  1.00  0.00     0.011 C 
ENDBRANCH  17  18
ENDBRANCH  16  17
ENDBRANCH  14  16
ENDBRANCH   6  14
TORSDOF 8
ENDMDL
MODEL 3
REMARK VINA RESULT:    -3.722      2.036      6.698
REMARK INTER + INTRA:          -6.056
REMARK INTER:                  -6.120
REMARK INTRA:                   0.065
REMARK UNBOUND:                -0.593
REMARK SMILES CC(C)COC(=O)c1ccccc1C(=O)OCC(C)C
REMARK SMILES IDX 8 1 9 2 10 3 11 4 12 5 13 6 6 7 7 8 5 9 4 10 2 11 1 12 3 13
REMARK SMILES IDX 14 14 15 15 16 16 17 17 18 18 19 19 20 20
REMARK H PARENT
REMARK Flexibility Score: inf
ROOT
ATOM      1  C   UNL     1     132.926 131.490 136.478  1.00  0.00     0.074 A 
ATOM      2  C   UNL     1     133.199 130.822 135.271  1.00  0.00     0.016 A 
ATOM      3  C   UNL     1     134.199 131.280 134.412  1.00  0.00     0.001 A 
ATOM      4  C   UNL     1     134.942 132.411 134.746  1.00  0.00     0.001 A 
ATOM      5  C   UNL     1     134.673 133.101 135.929  1.00  0.00     0.016 A 
ATOM      6  C   UNL     1     133.655 132.668 136.798  1.00  0.00     0.074 A 
ENDROOT
BRANCH   1   7
ATOM      7  C   UNL     1     131.931 130.888 137.393  1.00  0.00     0.339 C 
ATOM      8  O   UNL     1     131.131 131.620 138.037  1.00  0.00    -0.246 OA
BRANCH   7   9
ATOM      9  O   UNL     1     131.922 129.502 137.582  1.00  0.00    -0.462 OA
BRANCH   9  10
ATOM     10  C   UNL     1     131.135 128.866 138.583  1.00  0.00     0.236 C 
BRANCH  10  11
ATOM     11  C   UNL     1     130.972 127.374 138.255  1.00  0.00     0.021 C 
ATOM     12  C   UNL     1     131.796 127.005 137.016  1.00  0.00     0.011 C 
ATOM     13  C   UNL     1     129.495 127.017 138.038  1.00  0.00     0.011 C 
ENDBRANCH  10  11
ENDBRANCH   9  10
ENDBRANCH   7   9
ENDBRANCH   1   7
BRANCH   6  14
ATOM     14  C   UNL     1     133.334 133.510 137.974  1.00  0.00     0.339 C 
ATOM     15  O   UNL     1     132.327 134.269 137.944  1.00  0.00    -0.246 OA
BRANCH  14  16
ATOM     16  O   UNL     1     134.118 133.425 139.130  1.00  0.00    -0.462 OA
BRANCH  16  17
ATOM     17  C   UNL     1     134.723 134.555 139.758  1.00  0.00     0.236 C 
BRANCH  17  18
ATOM     18  C   UNL     1     136.256 134.502 139.636  1.00  0.00     0.021 C 
ATOM     19  C   UNL     1     136.840 133.376 140.500  1.00  0.00     0.011 C 
ATOM     20  C   UNL     1     136.667 134.317 138.171  1.00  0.00     0.011 C 
ENDBRANCH  17  18
ENDBRANCH  16  17
ENDBRANCH  14  16
ENDBRANCH   6  14
TORSDOF 8
ENDMDL
MODEL 4
REMARK VINA RESULT:    -3.588      1.551      6.424
REMARK INTER + INTRA:          -5.859
REMARK INTER:                  -6.067
REMARK INTRA:                   0.209
REMARK UNBOUND:                -0.593
REMARK SMILES CC(C)COC(=O)c1ccccc1C(=O)OCC(C)C
REMARK SMILES IDX 8 1 9 2 10 3 11 4 12 5 13 6 6 7 7 8 5 9 4 10 2 11 1 12 3 13
REMARK SMILES IDX 14 14 15 15 16 16 17 17 18 18 19 19 20 20
REMARK H PARENT
REMARK Flexibility Score: inf
ROOT
ATOM      1  C   UNL     1     134.121 133.283 137.015  1.00  0.00     0.074 A 
ATOM      2  C   UNL     1     134.126 132.835 135.682  1.00  0.00     0.016 A 
ATOM      3  C   UNL     1     135.320 132.745 134.965  1.00  0.00     0.001 A 
ATOM      4  C   UNL     1     136.525 133.098 135.568  1.00  0.00     0.001 A 
ATOM      5  C   UNL     1     136.540 133.566 136.882  1.00  0.00     0.016 A 
ATOM      6  C   UNL     1     135.345 133.685 137.617  1.00  0.00     0.074 A 
ENDROOT
BRANCH   1   7
ATOM      7  C   UNL     1     132.837 133.249 137.751  1.00  0.00     0.339 C 
ATOM      8  O   UNL     1     132.189 134.312 137.953  1.00  0.00    -0.246 OA
BRANCH   7   9
ATOM      9  O   UNL     1     132.377 132.036 138.273  1.00  0.00    -0.462 OA
BRANCH   9  10
ATOM     10  C   UNL     1     131.805 131.015 137.461  1.00  0.00     0.236 C 
BRANCH  10  11
ATOM     11  C   UNL     1     131.787 129.683 138.227  1.00  0.00     0.021 C 
ATOM     12  C   UNL     1     131.604 128.509 137.258  1.00  0.00     0.011 C 
ATOM     13  C   UNL     1     130.681 129.674 139.290  1.00  0.00     0.011 C 
ENDBRANCH  10  11
ENDBRANCH   9  10
ENDBRANCH   7   9
ENDBRANCH   1   7
BRANCH   6  14
ATOM     14  C   UNL     1     135.408 134.303 138.961  1.00  0.00     0.339 C 
ATOM     15  O   UNL     1     134.590 135.213 139.271  1.00  0.00    -0.246 OA
BRANCH  14  16
ATOM     16  O   UNL     1     136.340 133.843 139.899  1.00  0.00    -0.462 OA
BRANCH  16  17
ATOM     17  C   UNL     1     137.728 134.171 139.858  1.00  0.00     0.236 C 
BRANCH  17  18
ATOM     18  C   UNL     1     138.506 133.427 140.958  1.00  0.00     0.021 C 
ATOM     19  C   UNL     1     138.953 132.040 140.475  1.00  0.00     0.011 C 
ATOM     20  C   UNL     1     139.719 134.252 141.403  1.00  0.00     0.011 C 
ENDBRANCH  17  18
ENDBRANCH  16  17
ENDBRANCH  14  16
ENDBRANCH   6  14
TORSDOF 8
ENDMDL
MODEL 5
REMARK VINA RESULT:    -3.568      1.548      2.497
REMARK INTER + INTRA:          -5.830
REMARK INTER:                  -6.026
REMARK INTRA:                   0.196
REMARK UNBOUND:                -0.593
REMARK SMILES CC(C)COC(=O)c1ccccc1C(=O)OCC(C)C
REMARK SMILES IDX 8 1 9 2 10 3 11 4 12 5 13 6 6 7 7 8 5 9 4 10 2 11 1 12 3 13
REMARK SMILES IDX 14 14 15 15 16 16 17 17 18 18 19 19 20 20
REMARK H PARENT
REMARK Flexibility Score: inf
ROOT
ATOM      1  C   UNL     1     135.283 133.589 137.644  1.00  0.00     0.074 A 
ATOM      2  C   UNL     1     136.510 133.501 136.962  1.00  0.00     0.016 A 
ATOM      3  C   UNL     1     136.555 133.104 135.625  1.00  0.00     0.001 A 
ATOM      4  C   UNL     1     135.377 132.790 134.949  1.00  0.00     0.001 A 
ATOM      5  C   UNL     1     134.152 132.849 135.614  1.00  0.00     0.016 A 
ATOM      6  C   UNL     1     134.086 133.227 136.968  1.00  0.00     0.074 A 
ENDROOT
BRANCH   1   7
ATOM      7  C   UNL     1     135.297 134.123 139.024  1.00  0.00     0.339 C 
ATOM      8  O   UNL     1     134.214 134.362 139.627  1.00  0.00    -0.246 OA
BRANCH   7   9
ATOM      9  O   UNL     1     136.519 134.415 139.636  1.00  0.00    -0.462 OA
BRANCH   9  10
ATOM     10  C   UNL     1     137.094 133.591 140.645  1.00  0.00     0.236 C 
BRANCH  10  11
ATOM     11  C   UNL     1     138.603 133.439 140.405  1.00  0.00     0.021 C 
ATOM     12  C   UNL     1     139.032 131.979 140.593  1.00  0.00     0.011 C 
ATOM     13  C   UNL     1     139.404 134.355 141.339  1.00  0.00     0.011 C 
ENDBRANCH  10  11
ENDBRANCH   9  10
ENDBRANCH   7   9
ENDBRANCH   1   7
BRANCH   6  14
ATOM     14  C   UNL     1     132.774 133.152 137.653  1.00  0.00     0.339 C 
ATOM     15  O   UNL     1     132.044 134.179 137.720  1.00  0.00    -0.246 OA
BRANCH  14  16
ATOM     16  O   UNL     1     132.328 131.934 138.179  1.00  0.00    -0.462 OA
BRANCH  16  17
ATOM     17  C   UNL     1     131.934 130.824 137.374  1.00  0.00     0.236 C 
BRANCH  17  18
ATOM     18  C   UNL     1     131.797 129.546 138.221  1.00  0.00     0.021 C 
ATOM     19  C   UNL     1     130.674 129.690 139.258  1.00  0.00     0.011 C 
ATOM     20  C   UNL     1     131.536 128.335 137.319  1.00  0.00     0.011 C 
ENDBRANCH  17  18
ENDBRANCH  16  17
ENDBRANCH  14  16
ENDBRANCH   6  14
TORSDOF 8
ENDMDL
MODEL 6
REMARK VINA RESULT:    -1.966      0.099      5.916
REMARK INTER + INTRA:          -3.479
REMARK INTER:                  -2.855
REMARK INTRA:                  -0.624
REMARK UNBOUND:                -0.593
REMARK SMILES CC(C)COC(=O)c1ccccc1C(=O)OCC(C)C
REMARK SMILES IDX 8 1 9 2 10 3 11 4 12 5 13 6 6 7 7 8 5 9 4 10 2 11 1 12 3 13
REMARK SMILES IDX 14 14 15 15 16 16 17 17 18 18 19 19 20 20
REMARK H PARENT
REMARK Flexibility Score: inf
ROOT
ATOM      1  C   UNL     1     133.902 133.832 137.739  1.00  0.00     0.074 A 
ATOM      2  C   UNL     1     132.582 134.320 137.755  1.00  0.00     0.016 A 
ATOM      3  C   UNL     1     132.251 135.457 138.492  1.00  0.00     0.001 A 
ATOM      4  C   UNL     1     133.231 136.125 139.224  1.00  0.00     0.001 A 
ATOM      5  C   UNL     1     134.541 135.645 139.241  1.00  0.00     0.016 A 
ATOM      6  C   UNL     1     134.892 134.488 138.521  1.00  0.00     0.074 A 
ENDROOT
BRANCH   1   7
ATOM      7  C   UNL     1     134.206 132.690 136.850  1.00  0.00     0.339 C 
ATOM      8  O   UNL     1     134.840 132.870 135.774  1.00  0.00    -0.246 OA
BRANCH   7   9
ATOM      9  O   UNL     1     133.735 131.416 137.182  1.00  0.00    -0.462 OA
BRANCH   9  10
ATOM     10  C   UNL     1     132.393 131.004 136.943  1.00  0.00     0.236 C 
BRANCH  10  11
ATOM     11  C   UNL     1     131.895 130.134 138.107  1.00  0.00     0.021 C 
ATOM     12  C   UNL     1     131.493 128.743 137.603  1.00  0.00     0.011 C 
ATOM     13  C   UNL     1     130.717 130.801 138.829  1.00  0.00     0.011 C 
ENDBRANCH  10  11
ENDBRANCH   9  10
ENDBRANCH   7   9
ENDBRANCH   1   7
BRANCH   6  14
ATOM     14  C   UNL     1     136.267 133.957 138.676  1.00  0.00     0.339 C 
ATOM     15  O   UNL     1     137.110 134.124 137.752  1.00  0.00    -0.246 OA
BRANCH  14  16
ATOM     16  O   UNL     1     136.639 133.316 139.863  1.00  0.00    -0.462 OA
BRANCH  16  17
ATOM     17  C   UNL     1     137.506 133.898 140.835  1.00  0.00     0.236 C 
BRANCH  17  18
ATOM     18  C   UNL     1     138.971 133.499 140.581  1.00  0.00     0.021 C 
ATOM     19  C   UNL     1     139.919 134.247 141.528  1.00  0.00     0.011 C 
ATOM     20  C   UNL     1     139.146 131.985 140.739  1.00  0.00     0.011 C 
ENDBRANCH  17  18
ENDBRANCH  16  17
ENDBRANCH  14  16
ENDBRANCH   6  14
TORSDOF 8
ENDMDL
