MODEL 1
REMARK VINA RESULT:    -4.009      0.000      0.000
REMARK INTER + INTRA:          -6.526
REMARK INTER:                  -6.118
REMARK INTRA:                  -0.408
REMARK UNBOUND:                -0.408
REMARK SMILES CC1=CCC[C@H](C)C(=O)C[C@@H](C(C)C)C(=O)C1
REMARK SMILES IDX 8 1 9 2 6 3 7 4 5 5 4 6 3 7 2 8 1 9 10 11 11 12 15 13 16 14
REMARK SMILES IDX 17 15 12 17 13 18 14 19
REMARK H PARENT
REMARK Flexibility Score: 70.00
ROOT
ATOM      1  C   UNL     1     100.931 117.792 122.703  1.00  0.00     0.136 C 
ATOM      2  O   UNL     1     101.382 118.882 123.023  1.00  0.00    -0.299 OA
ENDROOT
BRANCH   1   3
ATOM      3  C   UNL     1     100.594 117.548 121.242  1.00  0.00     0.053 C 
ATOM      4  C   UNL     1      99.431 118.439 120.788  1.00  0.00     0.016 C 
BRANCH   3   5
ATOM      5  C   UNL     1     101.818 117.727 120.324  1.00  0.00     0.015 C 
BRANCH   5   6
ATOM      6  C   UNL     1     102.890 116.633 120.542  1.00  0.00     0.028 C 
BRANCH   6   7
ATOM      7  C   UNL     1     102.283 115.256 120.428  1.00  0.00    -0.028 C 
ATOM      8  C   UNL     1     102.440 114.254 121.326  1.00  0.00    -0.070 CG0
ATOM      9  C   UNL     1     101.798 112.925 121.016  1.00  0.00     0.039 C 
ATOM     10  G   UNL     1     103.171 114.426 122.651  1.00  0.00     0.000 G0
ENDBRANCH   6   7
ENDBRANCH   5   6
ENDBRANCH   3   5
ENDBRANCH   1   3
BRANCH   1  11
ATOM     11  C   UNL     1     100.741 116.745 123.785  1.00  0.00     0.087 C 
BRANCH  11  12
ATOM     12  C   UNL     1     102.073 116.187 124.358  1.00  0.00     0.066 C 
BRANCH  12  13
ATOM     13  C   UNL     1     102.359 114.763 123.887  1.00  0.00     0.140 C 
ATOM     14  O   UNL     1     101.888 113.831 124.522  1.00  0.00    -0.299 OA
BRANCH  13  15
ATOM     15  C   UNL     1     103.196 114.422 122.667  1.00  0.00     0.106 CG0
ATOM     16  G   UNL     1     102.440 114.254 121.356  1.00  0.00     0.000 G0
ENDBRANCH  13  15
ENDBRANCH  12  13
BRANCH  12  17
ATOM     17  C   UNL     1     102.131 116.328 125.913  1.00  0.00    -0.006 C 
ATOM     18  C   UNL     1     101.450 117.622 126.379  1.00  0.00     0.008 C 
ATOM     19  C   UNL     1     103.550 116.249 126.508  1.00  0.00     0.008 C 
ENDBRANCH  12  17
ENDBRANCH  11  12
ENDBRANCH   1  11
TORSDOF 1
ENDMDL
MODEL 2
REMARK VINA RESULT:    -3.890      2.318      5.622
REMARK INTER + INTRA:          -6.344
REMARK INTER:                  -6.254
REMARK INTRA:                  -0.090
REMARK UNBOUND:                -0.408
REMARK SMILES CC1=CCC[C@H](C)C(=O)C[C@@H](C(C)C)C(=O)C1
REMARK SMILES IDX 8 1 9 2 6 3 7 4 5 5 4 6 3 7 2 8 1 9 10 11 11 12 15 13 16 14
REMARK SMILES IDX 17 15 12 17 13 18 14 19
REMARK H PARENT
REMARK Flexibility Score: 70.00
ROOT
ATOM      1  C   UNL     1     102.471 115.444 124.480  1.00  0.00     0.136 C 
ATOM      2  O   UNL     1     103.484 114.820 124.200  1.00  0.00    -0.299 OA
ENDROOT
BRANCH   1   3
ATOM      3  C   UNL     1     102.259 115.869 125.923  1.00  0.00     0.053 C 
ATOM      4  C   UNL     1     103.376 115.332 126.826  1.00  0.00     0.016 C 
BRANCH   3   5
ATOM      5  C   UNL     1     102.119 117.396 126.067  1.00  0.00     0.015 C 
BRANCH   5   6
ATOM      6  C   UNL     1     100.643 117.855 126.133  1.00  0.00     0.028 C 
BRANCH   6   7
ATOM      7  C   UNL     1     100.480 119.228 125.529  1.00  0.00    -0.028 C 
ATOM      8  C   UNL     1     100.317 119.489 124.210  1.00  0.00    -0.070 CG0
ATOM      9  C   UNL     1     100.223 120.933 123.785  1.00  0.00     0.039 C 
ATOM     10  G   UNL     1     100.161 118.401 123.156  1.00  0.00     0.000 G0
ENDBRANCH   6   7
ENDBRANCH   5   6
ENDBRANCH   3   5
ENDBRANCH   1   3
BRANCH   1  11
ATOM     11  C   UNL     1     101.491 115.764 123.368  1.00  0.00     0.087 C 
BRANCH  11  12
ATOM     12  C   UNL     1     102.059 116.726 122.288  1.00  0.00     0.066 C 
BRANCH  12  13
ATOM     13  C   UNL     1     101.375 118.091 122.306  1.00  0.00     0.140 C 
ATOM     14  O   UNL     1     101.833 118.984 121.609  1.00  0.00    -0.299 OA
BRANCH  13  15
ATOM     15  C   UNL     1     100.148 118.418 123.139  1.00  0.00     0.106 CG0
ATOM     16  G   UNL     1     100.329 119.475 124.221  1.00  0.00     0.000 G0
ENDBRANCH  13  15
ENDBRANCH  12  13
BRANCH  12  17
ATOM     17  C   UNL     1     102.047 116.068 120.871  1.00  0.00    -0.006 C 
ATOM     18  C   UNL     1     100.612 115.859 120.368  1.00  0.00     0.008 C 
ATOM     19  C   UNL     1     102.823 114.740 120.778  1.00  0.00     0.008 C 
ENDBRANCH  12  17
ENDBRANCH  11  12
ENDBRANCH   1  11
TORSDOF 1
ENDMDL
MODEL 3
REMARK VINA RESULT:    -3.854      1.602      4.129
REMARK INTER + INTRA:          -6.290
REMARK INTER:                  -6.183
REMARK INTRA:                  -0.107
REMARK UNBOUND:                -0.408
REMARK SMILES CC1=CCC[C@H](C)C(=O)C[C@@H](C(C)C)C(=O)C1
REMARK SMILES IDX 8 1 9 2 6 3 7 4 5 5 4 6 3 7 2 8 1 9 10 11 11 12 15 13 16 14
REMARK SMILES IDX 17 15 12 17 13 18 14 19
REMARK H PARENT
REMARK Flexibility Score: 70.00
ROOT
ATOM      1  C   UNL     1     101.090 117.161 123.928  1.00  0.00     0.136 C 
ATOM      2  O   UNL     1      99.916 116.822 123.874  1.00  0.00    -0.299 OA
ENDROOT
BRANCH   1   3
ATOM      3  C   UNL     1     101.660 117.581 125.272  1.00  0.00     0.053 C 
ATOM      4  C   UNL     1     100.642 118.402 126.072  1.00  0.00     0.016 C 
BRANCH   3   5
ATOM      5  C   UNL     1     102.167 116.379 126.092  1.00  0.00     0.015 C 
BRANCH   5   6
ATOM      6  C   UNL     1     103.254 115.568 125.349  1.00  0.00     0.028 C 
BRANCH   6   7
ATOM      7  C   UNL     1     102.747 114.193 124.989  1.00  0.00    -0.028 C 
ATOM      8  C   UNL     1     102.669 113.690 123.733  1.00  0.00    -0.070 CG0
ATOM      9  C   UNL     1     102.084 112.310 123.564  1.00  0.00     0.039 C 
ATOM     10  G   UNL     1     103.200 114.420 122.507  1.00  0.00     0.000 G0
ENDBRANCH   6   7
ENDBRANCH   5   6
ENDBRANCH   3   5
ENDBRANCH   1   3
BRANCH   1  11
ATOM     11  C   UNL     1     101.907 117.136 122.651  1.00  0.00     0.087 C 
BRANCH  11  12
ATOM     12  C   UNL     1     101.354 116.165 121.571  1.00  0.00     0.066 C 
BRANCH  12  13
ATOM     13  C   UNL     1     102.162 114.872 121.481  1.00  0.00     0.140 C 
ATOM     14  O   UNL     1     101.973 114.130 120.529  1.00  0.00    -0.299 OA
BRANCH  13  15
ATOM     15  C   UNL     1     103.198 114.443 122.505  1.00  0.00     0.106 CG0
ATOM     16  G   UNL     1     102.672 113.702 123.727  1.00  0.00     0.000 G0
ENDBRANCH  13  15
ENDBRANCH  12  13
BRANCH  12  17
ATOM     17  C   UNL     1     101.199 116.874 120.188  1.00  0.00    -0.006 C 
ATOM     18  C   UNL     1     101.772 118.298 120.227  1.00  0.00     0.008 C 
ATOM     19  C   UNL     1      99.756 116.914 119.649  1.00  0.00     0.008 C 
ENDBRANCH  12  17
ENDBRANCH  11  12
ENDBRANCH   1  11
TORSDOF 1
ENDMDL
MODEL 4
REMARK VINA RESULT:    -3.693      1.729      2.660
REMARK INTER + INTRA:          -6.044
REMARK INTER:                  -5.817
REMARK INTRA:                  -0.227
REMARK UNBOUND:                -0.408
REMARK SMILES CC1=CCC[C@H](C)C(=O)C[C@@H](C(C)C)C(=O)C1
REMARK SMILES IDX 8 1 9 2 6 3 7 4 5 5 4 6 3 7 2 8 1 9 10 11 11 12 15 13 16 14
REMARK SMILES IDX 17 15 12 17 13 18 14 19
REMARK H PARENT
REMARK Flexibility Score: 70.00
ROOT
ATOM      1  C   UNL     1      99.752 117.974 120.754  1.00  0.00     0.136 C 
ATOM      2  O   UNL     1      99.026 118.947 120.609  1.00  0.00    -0.299 OA
ENDROOT
BRANCH   1   3
ATOM      3  C   UNL     1     100.445 117.400 119.531  1.00  0.00     0.053 C 
ATOM      4  C   UNL     1     101.810 118.063 119.308  1.00  0.00     0.016 C 
BRANCH   3   5
ATOM      5  C   UNL     1     100.580 115.867 119.602  1.00  0.00     0.015 C 
BRANCH   5   6
ATOM      6  C   UNL     1     101.927 115.416 120.214  1.00  0.00     0.028 C 
BRANCH   6   7
ATOM      7  C   UNL     1     101.708 114.373 121.282  1.00  0.00    -0.028 C 
ATOM      8  C   UNL     1     102.132 114.464 122.565  1.00  0.00    -0.070 CG0
ATOM      9  C   UNL     1     101.866 113.294 123.479  1.00  0.00     0.039 C 
ATOM     10  G   UNL     1     102.799 115.707 123.138  1.00  0.00     0.000 G0
ENDBRANCH   6   7
ENDBRANCH   5   6
ENDBRANCH   3   5
ENDBRANCH   1   3
BRANCH   1  11
ATOM     11  C   UNL     1      99.921 117.402 122.149  1.00  0.00     0.087 C 
BRANCH  11  12
ATOM     12  C   UNL     1     101.215 117.874 122.868  1.00  0.00     0.066 C 
BRANCH  12  13
ATOM     13  C   UNL     1     101.857 116.765 123.699  1.00  0.00     0.140 C 
ATOM     14  O   UNL     1     101.606 116.710 124.893  1.00  0.00    -0.299 OA
BRANCH  13  15
ATOM     15  C   UNL     1     102.796 115.713 123.135  1.00  0.00     0.106 CG0
ATOM     16  G   UNL     1     102.142 114.450 122.588  1.00  0.00     0.000 G0
ENDBRANCH  13  15
ENDBRANCH  12  13
BRANCH  12  17
ATOM     17  C   UNL     1     100.970 119.177 123.693  1.00  0.00    -0.006 C 
ATOM     18  C   UNL     1      99.513 119.266 124.170  1.00  0.00     0.008 C 
ATOM     19  C   UNL     1     101.353 120.478 122.961  1.00  0.00     0.008 C 
ENDBRANCH  12  17
ENDBRANCH  11  12
ENDBRANCH   1  11
TORSDOF 1
ENDMDL
MODEL 5
REMARK VINA RESULT:    -3.665      1.813      4.254
REMARK INTER + INTRA:          -6.001
REMARK INTER:                  -5.661
REMARK INTRA:                  -0.340
REMARK UNBOUND:                -0.408
REMARK SMILES CC1=CCC[C@H](C)C(=O)C[C@@H](C(C)C)C(=O)C1
REMARK SMILES IDX 8 1 9 2 6 3 7 4 5 5 4 6 3 7 2 8 1 9 10 11 11 12 15 13 16 14
REMARK SMILES IDX 17 15 12 17 13 18 14 19
REMARK H PARENT
REMARK Flexibility Score: 70.00
ROOT
ATOM      1  C   UNL     1     102.415 116.274 124.012  1.00  0.00     0.136 C 
ATOM      2  O   UNL     1     101.485 116.977 124.380  1.00  0.00    -0.299 OA
ENDROOT
BRANCH   1   3
ATOM      3  C   UNL     1     102.987 115.262 124.989  1.00  0.00     0.053 C 
ATOM      4  C   UNL     1     102.979 115.812 126.421  1.00  0.00     0.016 C 
BRANCH   3   5
ATOM      5  C   UNL     1     102.263 113.904 124.914  1.00  0.00     0.015 C 
BRANCH   5   6
ATOM      6  C   UNL     1     103.131 112.802 124.263  1.00  0.00     0.028 C 
BRANCH   6   7
ATOM      7  C   UNL     1     102.373 112.102 123.162  1.00  0.00    -0.028 C 
ATOM      8  C   UNL     1     102.347 112.485 121.863  1.00  0.00    -0.070 CG0
ATOM      9  C   UNL     1     101.488 111.689 120.912  1.00  0.00     0.039 C 
ATOM     10  G   UNL     1     103.188 113.629 121.312  1.00  0.00     0.000 G0
ENDBRANCH   6   7
ENDBRANCH   5   6
ENDBRANCH   3   5
ENDBRANCH   1   3
BRANCH   1  11
ATOM     11  C   UNL     1     102.936 116.450 122.598  1.00  0.00     0.087 C 
BRANCH  11  12
ATOM     12  C   UNL     1     101.932 116.005 121.499  1.00  0.00     0.066 C 
BRANCH  12  13
ATOM     13  C   UNL     1     102.440 114.810 120.696  1.00  0.00     0.140 C 
ATOM     14  O   UNL     1     102.232 114.784 119.492  1.00  0.00    -0.299 OA
BRANCH  13  15
ATOM     15  C   UNL     1     103.199 113.640 121.297  1.00  0.00     0.106 CG0
ATOM     16  G   UNL     1     102.353 112.507 121.863  1.00  0.00     0.000 G0
ENDBRANCH  13  15
ENDBRANCH  12  13
BRANCH  12  17
ATOM     17  C   UNL     1     101.508 117.203 120.591  1.00  0.00    -0.006 C 
ATOM     18  C   UNL     1     102.497 118.370 120.714  1.00  0.00     0.008 C 
ATOM     19  C   UNL     1     100.075 117.713 120.836  1.00  0.00     0.008 C 
ENDBRANCH  12  17
ENDBRANCH  11  12
ENDBRANCH   1  11
TORSDOF 1
ENDMDL
MODEL 6
REMARK VINA RESULT:    -3.665      1.618      3.731
REMARK INTER + INTRA:          -6.001
REMARK INTER:                  -5.948
REMARK INTRA:                  -0.053
REMARK UNBOUND:                -0.408
REMARK SMILES CC1=CCC[C@H](C)C(=O)C[C@@H](C(C)C)C(=O)C1
REMARK SMILES IDX 8 1 9 2 6 3 7 4 5 5 4 6 3 7 2 8 1 9 10 11 11 12 15 13 16 14
REMARK SMILES IDX 17 15 12 17 13 18 14 19
REMARK H PARENT
REMARK Flexibility Score: 70.00
ROOT
ATOM      1  C   UNL     1     102.759 114.715 124.871  1.00  0.00     0.136 C 
ATOM      2  O   UNL     1     102.847 114.677 126.090  1.00  0.00    -0.299 OA
ENDROOT
BRANCH   1   3
ATOM      3  C   UNL     1     102.487 113.421 124.125  1.00  0.00     0.053 C 
ATOM      4  C   UNL     1     100.987 113.239 123.863  1.00  0.00     0.016 C 
BRANCH   3   5
ATOM      5  C   UNL     1     103.292 113.322 122.815  1.00  0.00     0.015 C 
BRANCH   5   6
ATOM      6  C   UNL     1     102.389 113.130 121.574  1.00  0.00     0.028 C 
BRANCH   6   7
ATOM      7  C   UNL     1     102.775 114.090 120.476  1.00  0.00    -0.028 C 
ATOM      8  C   UNL     1     102.192 115.291 120.244  1.00  0.00    -0.070 CG0
ATOM      9  C   UNL     1     102.679 116.092 119.062  1.00  0.00     0.039 C 
ATOM     10  G   UNL     1     101.126 115.891 121.150  1.00  0.00     0.000 G0
ENDBRANCH   6   7
ENDBRANCH   5   6
ENDBRANCH   3   5
ENDBRANCH   1   3
BRANCH   1  11
ATOM     11  C   UNL     1     102.919 116.055 124.178  1.00  0.00     0.087 C 
BRANCH  11  12
ATOM     12  C   UNL     1     101.580 116.670 123.685  1.00  0.00     0.066 C 
BRANCH  12  13
ATOM     13  C   UNL     1     101.574 116.920 122.179  1.00  0.00     0.140 C 
ATOM     14  O   UNL     1     101.962 118.002 121.764  1.00  0.00    -0.299 OA
BRANCH  13  15
ATOM     15  C   UNL     1     101.116 115.903 121.148  1.00  0.00     0.106 CG0
ATOM     16  G   UNL     1     102.199 115.314 120.254  1.00  0.00     0.000 G0
ENDBRANCH  13  15
ENDBRANCH  12  13
BRANCH  12  17
ATOM     17  C   UNL     1     101.196 117.943 124.506  1.00  0.00    -0.006 C 
ATOM     18  C   UNL     1     101.152 117.640 126.011  1.00  0.00     0.008 C 
ATOM     19  C   UNL     1      99.874 118.606 124.075  1.00  0.00     0.008 C 
ENDBRANCH  12  17
ENDBRANCH  11  12
ENDBRANCH   1  11
TORSDOF 1
ENDMDL
MODEL 7
REMARK VINA RESULT:    -3.606      1.978      2.529
REMARK INTER + INTRA:          -5.911
REMARK INTER:                  -5.538
REMARK INTRA:                  -0.373
REMARK UNBOUND:                -0.408
REMARK SMILES CC1=CCC[C@H](C)C(=O)C[C@@H](C(C)C)C(=O)C1
REMARK SMILES IDX 8 1 9 2 6 3 7 4 5 5 4 6 3 7 2 8 1 9 10 11 11 12 15 13 16 14
REMARK SMILES IDX 17 15 12 17 13 18 14 19
REMARK H PARENT
REMARK Flexibility Score: 70.00
ROOT
ATOM      1  C   UNL     1     100.520 116.952 122.903  1.00  0.00     0.136 C 
ATOM      2  O   UNL     1      99.884 116.912 123.946  1.00  0.00    -0.299 OA
ENDROOT
BRANCH   1   3
ATOM      3  C   UNL     1     100.360 118.166 122.004  1.00  0.00     0.053 C 
ATOM      4  C   UNL     1     101.374 119.258 122.364  1.00  0.00     0.016 C 
BRANCH   3   5
ATOM      5  C   UNL     1     100.448 117.801 120.510  1.00  0.00     0.015 C 
BRANCH   5   6
ATOM      6  C   UNL     1     101.829 118.131 119.897  1.00  0.00     0.028 C 
BRANCH   6   7
ATOM      7  C   UNL     1     102.448 116.903 119.276  1.00  0.00    -0.028 C 
ATOM      8  C   UNL     1     103.538 116.251 119.747  1.00  0.00    -0.070 CG0
ATOM      9  C   UNL     1     104.046 115.069 118.960  1.00  0.00     0.039 C 
ATOM     10  G   UNL     1     104.228 116.614 121.055  1.00  0.00     0.000 G0
ENDBRANCH   6   7
ENDBRANCH   5   6
ENDBRANCH   3   5
ENDBRANCH   1   3
BRANCH   1  11
ATOM     11  C   UNL     1     101.438 115.790 122.574  1.00  0.00     0.087 C 
BRANCH  11  12
ATOM     12  C   UNL     1     102.836 115.884 123.246  1.00  0.00     0.066 C 
BRANCH  12  13
ATOM     13  C   UNL     1     103.976 115.698 122.247  1.00  0.00     0.140 C 
ATOM     14  O   UNL     1     104.737 114.755 122.399  1.00  0.00    -0.299 OA
BRANCH  13  15
ATOM     15  C   UNL     1     104.229 116.614 121.063  1.00  0.00     0.106 CG0
ATOM     16  G   UNL     1     103.530 116.244 119.762  1.00  0.00     0.000 G0
ENDBRANCH  13  15
ENDBRANCH  12  13
BRANCH  12  17
ATOM     17  C   UNL     1     102.948 114.922 124.471  1.00  0.00    -0.006 C 
ATOM     18  C   UNL     1     101.945 113.764 124.362  1.00  0.00     0.008 C 
ATOM     19  C   UNL     1     102.792 115.611 125.840  1.00  0.00     0.008 C 
ENDBRANCH  12  17
ENDBRANCH  11  12
ENDBRANCH   1  11
TORSDOF 1
ENDMDL
MODEL 8
REMARK VINA RESULT:    -3.513      2.024      4.411
REMARK INTER + INTRA:          -5.770
REMARK INTER:                  -5.973
REMARK INTRA:                   0.203
REMARK UNBOUND:                -0.408
REMARK SMILES CC1=CCC[C@H](C)C(=O)C[C@@H](C(C)C)C(=O)C1
REMARK SMILES IDX 8 1 9 2 6 3 7 4 5 5 4 6 3 7 2 8 1 9 10 11 11 12 15 13 16 14
REMARK SMILES IDX 17 15 12 17 13 18 14 19
REMARK H PARENT
REMARK Flexibility Score: 70.00
ROOT
ATOM      1  C   UNL     1     100.483 119.159 122.342  1.00  0.00     0.136 C 
ATOM      2  O   UNL     1      99.470 118.836 121.739  1.00  0.00    -0.299 OA
ENDROOT
BRANCH   1   3
ATOM      3  C   UNL     1     100.348 120.086 123.537  1.00  0.00     0.053 C 
ATOM      4  C   UNL     1      99.242 121.123 123.310  1.00  0.00     0.016 C 
BRANCH   3   5
ATOM      5  C   UNL     1     100.121 119.315 124.851  1.00  0.00     0.015 C 
BRANCH   5   6
ATOM      6  C   UNL     1     100.281 117.786 124.679  1.00  0.00     0.028 C 
BRANCH   6   7
ATOM      7  C   UNL     1     101.473 117.281 125.455  1.00  0.00    -0.028 C 
ATOM      8  C   UNL     1     102.274 116.255 125.080  1.00  0.00    -0.070 CG0
ATOM      9  C   UNL     1     103.390 115.856 126.013  1.00  0.00     0.039 C 
ATOM     10  G   UNL     1     102.142 115.538 123.743  1.00  0.00     0.000 G0
ENDBRANCH   6   7
ENDBRANCH   5   6
ENDBRANCH   3   5
ENDBRANCH   1   3
BRANCH   1  11
ATOM     11  C   UNL     1     101.813 118.608 121.864  1.00  0.00     0.087 C 
BRANCH  11  12
ATOM     12  C   UNL     1     101.790 117.083 121.569  1.00  0.00     0.066 C 
BRANCH  12  13
ATOM     13  C   UNL     1     102.672 116.290 122.531  1.00  0.00     0.140 C 
ATOM     14  O   UNL     1     103.876 116.251 122.324  1.00  0.00    -0.299 OA
BRANCH  13  15
ATOM     15  C   UNL     1     102.150 115.540 123.743  1.00  0.00     0.106 CG0
ATOM     16  G   UNL     1     102.259 116.260 125.081  1.00  0.00     0.000 G0
ENDBRANCH  13  15
ENDBRANCH  12  13
BRANCH  12  17
ATOM     17  C   UNL     1     102.117 116.784 120.070  1.00  0.00    -0.006 C 
ATOM     18  C   UNL     1     101.802 117.996 119.181  1.00  0.00     0.008 C 
ATOM     19  C   UNL     1     101.420 115.533 119.502  1.00  0.00     0.008 C 
ENDBRANCH  12  17
ENDBRANCH  11  12
ENDBRANCH   1  11
TORSDOF 1
ENDMDL
MODEL 9
REMARK VINA RESULT:    -3.460      1.718      3.587
REMARK INTER + INTRA:          -5.688
REMARK INTER:                  -6.152
REMARK INTRA:                   0.464
REMARK UNBOUND:                -0.408
REMARK SMILES CC1=CCC[C@H](C)C(=O)C[C@@H](C(C)C)C(=O)C1
REMARK SMILES IDX 8 1 9 2 6 3 7 4 5 5 4 6 3 7 2 8 1 9 10 11 11 12 15 13 16 14
REMARK SMILES IDX 17 15 12 17 13 18 14 19
REMARK H PARENT
REMARK Flexibility Score: 70.00
ROOT
ATOM      1  C   UNL     1     102.552 116.185 124.916  1.00  0.00     0.136 C 
ATOM      2  O   UNL     1     102.909 115.769 126.008  1.00  0.00    -0.299 OA
ENDROOT
BRANCH   1   3
ATOM      3  C   UNL     1     101.279 117.010 124.837  1.00  0.00     0.053 C 
ATOM      4  C   UNL     1     101.021 117.755 126.152  1.00  0.00     0.016 C 
BRANCH   3   5
ATOM      5  C   UNL     1     101.287 117.984 123.643  1.00  0.00     0.015 C 
BRANCH   5   6
ATOM      6  C   UNL     1     100.300 117.567 122.528  1.00  0.00     0.028 C 
BRANCH   6   7
ATOM      7  C   UNL     1     101.007 117.450 121.200  1.00  0.00    -0.028 C 
ATOM      8  C   UNL     1     101.553 116.315 120.701  1.00  0.00    -0.070 CG0
ATOM      9  C   UNL     1     102.269 116.403 119.376  1.00  0.00     0.039 C 
ATOM     10  G   UNL     1     101.423 114.957 121.377  1.00  0.00     0.000 G0
ENDBRANCH   6   7
ENDBRANCH   5   6
ENDBRANCH   3   5
ENDBRANCH   1   3
BRANCH   1  11
ATOM     11  C   UNL     1     103.406 115.859 123.706  1.00  0.00     0.087 C 
BRANCH  11  12
ATOM     12  C   UNL     1     103.283 114.384 123.231  1.00  0.00     0.066 C 
BRANCH  12  13
ATOM     13  C   UNL     1     102.701 114.272 121.824  1.00  0.00     0.140 C 
ATOM     14  O   UNL     1     103.294 113.593 120.998  1.00  0.00    -0.299 OA
BRANCH  13  15
ATOM     15  C   UNL     1     101.420 114.952 121.375  1.00  0.00     0.106 CG0
ATOM     16  G   UNL     1     101.575 116.312 120.708  1.00  0.00     0.000 G0
ENDBRANCH  13  15
ENDBRANCH  12  13
BRANCH  12  17
ATOM     17  C   UNL     1     102.512 113.509 124.271  1.00  0.00    -0.006 C 
ATOM     18  C   UNL     1     103.275 112.214 124.581  1.00  0.00     0.008 C 
ATOM     19  C   UNL     1     101.063 113.171 123.870  1.00  0.00     0.008 C 
ENDBRANCH  12  17
ENDBRANCH  11  12
ENDBRANCH   1  11
TORSDOF 1
ENDMDL
