MODEL 1
REMARK VINA RESULT:    73.985      0.000      0.000
REMARK INTER + INTRA:         120.993
REMARK INTER:                 117.236
REMARK INTRA:                   3.757
REMARK UNBOUND:                 3.757
REMARK SMILES CC[C@H](C=C[C@@H](C)[C@@H]1CC[C@H]2[C@@H]3CC=C4C[C@@H](O[C@H]5O[C@H](CO)[C@@H](O)[C@H](O)[C@H]5O)CC[C@]4(C)[C@@H]3CC[C@]21C)C(C)C
REMARK SMILES IDX 8 1 9 2 10 3 11 4 37 5 36 6 35 7 34 8 12 9 13 10 14 11 15 12
REMARK SMILES IDX 32 13 31 14 30 15 17 16 16 17 33 18 38 19 6 20 7 21 5 22
REMARK SMILES IDX 4 23 3 24 2 25 1 26 39 27 40 28 41 29 18 30 19 31 28 32
REMARK SMILES IDX 20 33 26 34 21 35 24 36 29 37 27 39 22 41 23 42 25 44
REMARK H PARENT 29 38 27 40 23 43 25 45
REMARK Flexibility Score: inf
ROOT
ATOM      1  C   UNL     1       4.437  14.476  16.996  1.00  0.00     0.002 C 
ATOM      2  C   UNL     1       4.277  13.451  18.133  1.00  0.00     0.005 C 
ATOM      3  C   UNL     1       5.600  12.697  18.250  1.00  0.00     0.005 C 
ATOM      4  C   UNL     1       6.514  13.187  17.111  1.00  0.00    -0.001 C 
ATOM      5  C   UNL     1       5.575  13.887  16.089  1.00  0.00    -0.026 C 
ATOM      6  C   UNL     1       4.948  12.839  15.118  1.00  0.00     0.007 C 
ATOM      7  C   UNL     1       5.967  11.862  14.514  1.00  0.00     0.005 C 
ATOM      8  C   UNL     1       6.686  11.062  15.625  1.00  0.00     0.003 C 
ATOM      9  C   UNL     1       7.426  12.042  16.572  1.00  0.00     0.000 C 
ATOM     10  C   UNL     1       8.725  12.596  15.945  1.00  0.00     0.031 C 
ATOM     11  C   UNL     1       9.491  11.602  15.122  1.00  0.00    -0.027 C 
ATOM     12  C   UNL     1       8.983  10.446  14.646  1.00  0.00    -0.065 C 
ATOM     13  C   UNL     1       7.644   9.910  15.114  1.00  0.00    -0.008 C 
ATOM     14  C   UNL     1       7.004   9.138  13.932  1.00  0.00     0.014 C 
ATOM     15  C   UNL     1       7.836   7.945  13.468  1.00  0.00     0.033 C 
ATOM     16  C   UNL     1       9.312   8.284  13.158  1.00  0.00     0.125 C 
ATOM     17  C   UNL     1       9.878   9.614  13.744  1.00  0.00     0.063 C 
ATOM     18  C   UNL     1       7.916   8.933  16.294  1.00  0.00     0.016 C 
ATOM     19  C   UNL     1       6.276  14.978  15.235  1.00  0.00     0.012 C 
ENDROOT
BRANCH   1  20
ATOM     20  C   UNL     1       4.614  15.948  17.526  1.00  0.00     0.012 C 
ATOM     21  C   UNL     1       3.551  16.422  18.533  1.00  0.00     0.012 C 
BRANCH  20  22
ATOM     22  C   UNL     1       4.641  16.924  16.368  1.00  0.00    -0.028 C 
ATOM     23  C   UNL     1       3.537  17.202  15.651  1.00  0.00    -0.027 C 
BRANCH  23  24
ATOM     24  C   UNL     1       3.546  18.034  14.382  1.00  0.00     0.014 C 
BRANCH  24  25
ATOM     25  C   UNL     1       4.480  17.466  13.280  1.00  0.00     0.004 C 
ATOM     26  C   UNL     1       5.038  18.568  12.378  1.00  0.00     0.004 C 
ENDBRANCH  24  25
BRANCH  24  27
ATOM     27  C   UNL     1       2.091  18.332  13.906  1.00  0.00    -0.011 C 
ATOM     28  C   UNL     1       1.479  19.528  14.653  1.00  0.00     0.008 C 
ATOM     29  C   UNL     1       1.953  18.543  12.389  1.00  0.00     0.008 C 
ENDBRANCH  24  27
ENDBRANCH  23  24
ENDBRANCH  20  22
ENDBRANCH   1  20
BRANCH  16  30
ATOM     30  O   UNL     1      10.122   7.214  13.627  1.00  0.00    -0.346 OA
BRANCH  30  31
ATOM     31  C   UNL     1      10.644   6.433  12.561  1.00  0.00     0.282 C 
ATOM     32  C   UNL     1      10.488   7.184  11.222  1.00  0.00     0.202 C 
ATOM     33  O   UNL     1      10.008   5.163  12.497  1.00  0.00    -0.341 OA
ATOM     34  C   UNL     1       9.001   7.319  10.842  1.00  0.00     0.179 C 
ATOM     35  C   UNL     1       8.609   5.285  12.285  1.00  0.00     0.178 C 
ATOM     36  C   UNL     1       8.323   5.942  10.910  1.00  0.00     0.177 C 
BRANCH  32  37
ATOM     37  O   UNL     1      11.122   8.438  11.272  1.00  0.00    -0.385 OA
ATOM     38  H   UNL     1      11.897   8.417  10.648  1.00  0.00     0.211 HD
ENDBRANCH  32  37
BRANCH  34  39
ATOM     39  O   UNL     1       8.880   7.829   9.540  1.00  0.00    -0.387 OA
ATOM     40  H   UNL     1       8.951   8.818   9.609  1.00  0.00     0.211 HD
ENDBRANCH  34  39
BRANCH  35  41
ATOM     41  C   UNL     1       7.991   3.885  12.383  1.00  0.00     0.191 C 
BRANCH  41  42
ATOM     42  O   UNL     1       6.654   3.912  11.970  1.00  0.00    -0.394 OA
ATOM     43  H   UNL     1       6.119   3.621  12.753  1.00  0.00     0.210 HD
ENDBRANCH  41  42
ENDBRANCH  35  41
BRANCH  36  44
ATOM     44  O   UNL     1       6.941   6.115  10.729  1.00  0.00    -0.387 OA
ATOM     45  H   UNL     1       6.709   5.741   9.841  1.00  0.00     0.211 HD
ENDBRANCH  36  44
ENDBRANCH  30  31
ENDBRANCH  16  30
TORSDOF 12
ENDMDL
