MODEL 1
REMARK VINA RESULT:    -2.915      0.000      0.000
REMARK INTER + INTRA:          -3.468
REMARK INTER:                  -3.256
REMARK INTRA:                  -0.212
REMARK UNBOUND:                -0.212
REMARK SMILES CC(C)c1ccc(C(=O)[O-])cc1
REMARK SMILES IDX 7 1 6 2 11 3 5 4 12 5 4 6 8 7 9 8 10 9 2 10 1 11 3 12
REMARK H PARENT
REMARK Flexibility Score: inf
ROOT
ATOM      1  C   UNL     1     -20.495  -3.141   8.318  1.00  0.00    -0.003 A 
ATOM      2  C   UNL     1     -20.504  -2.544   9.590  1.00  0.00     0.010 A 
ATOM      3  C   UNL     1     -20.723  -2.340   7.187  1.00  0.00     0.010 A 
ATOM      4  C   UNL     1     -20.735  -1.172   9.727  1.00  0.00     0.004 A 
ATOM      5  C   UNL     1     -20.954  -0.968   7.325  1.00  0.00     0.004 A 
ATOM      6  C   UNL     1     -20.962  -0.369   8.595  1.00  0.00    -0.045 A 
ENDROOT
BRANCH   1   7
ATOM      7  C   UNL     1     -20.251  -4.594   8.177  1.00  0.00     0.071 C 
ATOM      8  O   UNL     1     -19.200  -5.016   7.625  1.00  0.00    -0.545 OA
ATOM      9  O   UNL     1     -21.178  -5.514   8.653  1.00  0.00    -0.545 OA
ENDBRANCH   1   7
BRANCH   6  10
ATOM     10  C   UNL     1     -21.215   1.122   8.730  1.00  0.00     0.013 C 
ATOM     11  C   UNL     1     -22.270   1.408   9.806  1.00  0.00     0.012 C 
ATOM     12  C   UNL     1     -21.617   1.738   7.385  1.00  0.00     0.012 C 
ENDBRANCH   6  10
TORSDOF 2
ENDMDL
MODEL 2
REMARK VINA RESULT:    -2.758      4.494      6.077
REMARK INTER + INTRA:          -3.293
REMARK INTER:                  -3.080
REMARK INTRA:                  -0.213
REMARK UNBOUND:                -0.212
REMARK SMILES CC(C)c1ccc(C(=O)[O-])cc1
REMARK SMILES IDX 7 1 6 2 11 3 5 4 12 5 4 6 8 7 9 8 10 9 2 10 1 11 3 12
REMARK H PARENT
REMARK Flexibility Score: inf
ROOT
ATOM      1  C   UNL     1     -21.908   2.935   8.671  1.00  0.00    -0.003 A 
ATOM      2  C   UNL     1     -22.061   2.231   9.877  1.00  0.00     0.010 A 
ATOM      3  C   UNL     1     -21.521   2.233   7.517  1.00  0.00     0.010 A 
ATOM      4  C   UNL     1     -21.834   0.853   9.927  1.00  0.00     0.004 A 
ATOM      5  C   UNL     1     -21.294   0.855   7.567  1.00  0.00     0.004 A 
ATOM      6  C   UNL     1     -21.448   0.149   8.772  1.00  0.00    -0.045 A 
ENDROOT
BRANCH   1   7
ATOM      7  C   UNL     1     -22.149   4.394   8.622  1.00  0.00     0.071 C 
ATOM      8  O   UNL     1     -23.066   4.868   7.901  1.00  0.00    -0.545 OA
ATOM      9  O   UNL     1     -21.366   5.263   9.373  1.00  0.00    -0.545 OA
ENDBRANCH   1   7
BRANCH   6  10
ATOM     10  C   UNL     1     -21.197  -1.348   8.812  1.00  0.00     0.013 C 
ATOM     11  C   UNL     1     -20.288  -1.723   9.989  1.00  0.00     0.012 C 
ATOM     12  C   UNL     1     -20.616  -1.846   7.484  1.00  0.00     0.012 C 
ENDBRANCH   6  10
TORSDOF 2
ENDMDL
MODEL 3
REMARK VINA RESULT:    -2.750      4.516      6.256
REMARK INTER + INTRA:          -3.284
REMARK INTER:                  -3.071
REMARK INTRA:                  -0.212
REMARK UNBOUND:                -0.212
REMARK SMILES CC(C)c1ccc(C(=O)[O-])cc1
REMARK SMILES IDX 7 1 6 2 11 3 5 4 12 5 4 6 8 7 9 8 10 9 2 10 1 11 3 12
REMARK H PARENT
REMARK Flexibility Score: inf
ROOT
ATOM      1  C   UNL     1     -21.957   2.986   8.614  1.00  0.00    -0.003 A 
ATOM      2  C   UNL     1     -21.509   2.282   7.485  1.00  0.00     0.010 A 
ATOM      3  C   UNL     1     -22.164   2.287   9.815  1.00  0.00     0.010 A 
ATOM      4  C   UNL     1     -21.271   0.906   7.555  1.00  0.00     0.004 A 
ATOM      5  C   UNL     1     -21.927   0.912   9.886  1.00  0.00     0.004 A 
ATOM      6  C   UNL     1     -21.478   0.205   8.757  1.00  0.00    -0.045 A 
ENDROOT
BRANCH   1   7
ATOM      7  C   UNL     1     -22.207   4.442   8.535  1.00  0.00     0.071 C 
ATOM      8  O   UNL     1     -23.114   4.897   7.788  1.00  0.00    -0.545 OA
ATOM      9  O   UNL     1     -21.445   5.330   9.286  1.00  0.00    -0.545 OA
ENDBRANCH   1   7
BRANCH   6  10
ATOM     10  C   UNL     1     -21.225  -1.289   8.848  1.00  0.00     0.013 C 
ATOM     11  C   UNL     1     -20.377  -1.631  10.078  1.00  0.00     0.012 C 
ATOM     12  C   UNL     1     -20.576  -1.818   7.565  1.00  0.00     0.012 C 
ENDBRANCH   6  10
TORSDOF 2
ENDMDL
MODEL 4
REMARK VINA RESULT:    -2.712      2.904      4.070
REMARK INTER + INTRA:          -3.241
REMARK INTER:                  -3.021
REMARK INTRA:                  -0.220
REMARK UNBOUND:                -0.212
REMARK SMILES CC(C)c1ccc(C(=O)[O-])cc1
REMARK SMILES IDX 7 1 6 2 11 3 5 4 12 5 4 6 8 7 9 8 10 9 2 10 1 11 3 12
REMARK H PARENT
REMARK Flexibility Score: inf
ROOT
ATOM      1  C   UNL     1     -21.294  -0.654  11.146  1.00  0.00    -0.003 A 
ATOM      2  C   UNL     1     -20.852  -1.539  10.149  1.00  0.00     0.010 A 
ATOM      3  C   UNL     1     -21.738   0.626  10.774  1.00  0.00     0.010 A 
ATOM      4  C   UNL     1     -20.856  -1.153   8.806  1.00  0.00     0.004 A 
ATOM      5  C   UNL     1     -21.742   1.012   9.430  1.00  0.00     0.004 A 
ATOM      6  C   UNL     1     -21.301   0.128   8.431  1.00  0.00    -0.045 A 
ENDROOT
BRANCH   1   7
ATOM      7  C   UNL     1     -21.288  -1.067  12.567  1.00  0.00     0.071 C 
ATOM      8  O   UNL     1     -21.173  -2.281  12.881  1.00  0.00    -0.545 OA
ATOM      9  O   UNL     1     -21.409  -0.119  13.577  1.00  0.00    -0.545 OA
ENDBRANCH   1   7
BRANCH   6  10
ATOM     10  C   UNL     1     -21.310   0.562   6.976  1.00  0.00     0.013 C 
ATOM     11  C   UNL     1     -20.462  -0.382   6.115  1.00  0.00     0.012 C 
ATOM     12  C   UNL     1     -20.841   2.014   6.830  1.00  0.00     0.012 C 
ENDBRANCH   6  10
TORSDOF 2
ENDMDL
MODEL 5
REMARK VINA RESULT:    -2.641      3.087      4.258
REMARK INTER + INTRA:          -3.162
REMARK INTER:                  -2.942
REMARK INTRA:                  -0.220
REMARK UNBOUND:                -0.212
REMARK SMILES CC(C)c1ccc(C(=O)[O-])cc1
REMARK SMILES IDX 7 1 6 2 11 3 5 4 12 5 4 6 8 7 9 8 10 9 2 10 1 11 3 12
REMARK H PARENT
REMARK Flexibility Score: inf
ROOT
ATOM      1  C   UNL     1     -21.349  -0.483  11.388  1.00  0.00    -0.003 A 
ATOM      2  C   UNL     1     -21.804   0.764  10.929  1.00  0.00     0.010 A 
ATOM      3  C   UNL     1     -20.903  -1.433  10.454  1.00  0.00     0.010 A 
ATOM      4  C   UNL     1     -21.811   1.056   9.562  1.00  0.00     0.004 A 
ATOM      5  C   UNL     1     -20.910  -1.141   9.087  1.00  0.00     0.004 A 
ATOM      6  C   UNL     1     -21.364   0.106   8.625  1.00  0.00    -0.045 A 
ENDROOT
BRANCH   1   7
ATOM      7  C   UNL     1     -21.343  -0.788  12.836  1.00  0.00     0.071 C 
ATOM      8  O   UNL     1     -21.283  -1.980  13.239  1.00  0.00    -0.545 OA
ATOM      9  O   UNL     1     -21.403   0.237  13.773  1.00  0.00    -0.545 OA
ENDBRANCH   1   7
BRANCH   6  10
ATOM     10  C   UNL     1     -21.367   0.409   7.137  1.00  0.00     0.013 C 
ATOM     11  C   UNL     1     -20.553  -0.632   6.361  1.00  0.00     0.012 C 
ATOM     12  C   UNL     1     -20.856   1.828   6.862  1.00  0.00     0.012 C 
ENDBRANCH   6  10
TORSDOF 2
ENDMDL
MODEL 6
REMARK VINA RESULT:    -2.470      2.939      4.292
REMARK INTER + INTRA:          -2.971
REMARK INTER:                  -2.750
REMARK INTRA:                  -0.220
REMARK UNBOUND:                -0.212
REMARK SMILES CC(C)c1ccc(C(=O)[O-])cc1
REMARK SMILES IDX 7 1 6 2 11 3 5 4 12 5 4 6 8 7 9 8 10 9 2 10 1 11 3 12
REMARK H PARENT
REMARK Flexibility Score: inf
ROOT
ATOM      1  C   UNL     1     -21.307   0.216   8.117  1.00  0.00    -0.003 A 
ATOM      2  C   UNL     1     -21.827   1.402   8.661  1.00  0.00     0.010 A 
ATOM      3  C   UNL     1     -20.996  -0.849   8.979  1.00  0.00     0.010 A 
ATOM      4  C   UNL     1     -22.032   1.521  10.039  1.00  0.00     0.004 A 
ATOM      5  C   UNL     1     -21.201  -0.731  10.356  1.00  0.00     0.004 A 
ATOM      6  C   UNL     1     -21.721   0.454  10.902  1.00  0.00    -0.045 A 
ENDROOT
BRANCH   1   7
ATOM      7  C   UNL     1     -21.092   0.095   6.658  1.00  0.00     0.071 C 
ATOM      8  O   UNL     1     -20.350  -0.811   6.194  1.00  0.00    -0.545 OA
ATOM      9  O   UNL     1     -21.705   0.980   5.779  1.00  0.00    -0.545 OA
ENDBRANCH   1   7
BRANCH   6  10
ATOM     10  C   UNL     1     -21.937   0.569  12.400  1.00  0.00     0.013 C 
ATOM     11  C   UNL     1     -21.455   1.926  12.925  1.00  0.00     0.012 C 
ATOM     12  C   UNL     1     -21.258  -0.585  13.147  1.00  0.00     0.012 C 
ENDBRANCH   6  10
TORSDOF 2
ENDMDL
MODEL 7
REMARK VINA RESULT:    -2.444      2.956      5.038
REMARK INTER + INTRA:          -2.942
REMARK INTER:                  -2.732
REMARK INTRA:                  -0.210
REMARK UNBOUND:                -0.212
REMARK SMILES CC(C)c1ccc(C(=O)[O-])cc1
REMARK SMILES IDX 7 1 6 2 11 3 5 4 12 5 4 6 8 7 9 8 10 9 2 10 1 11 3 12
REMARK H PARENT
REMARK Flexibility Score: inf
ROOT
ATOM      1  C   UNL     1     -21.106  -0.521   8.256  1.00  0.00    -0.003 A 
ATOM      2  C   UNL     1     -20.836  -1.131   9.492  1.00  0.00     0.010 A 
ATOM      3  C   UNL     1     -21.034  -1.293   7.085  1.00  0.00     0.010 A 
ATOM      4  C   UNL     1     -20.501  -2.487   9.555  1.00  0.00     0.004 A 
ATOM      5  C   UNL     1     -20.700  -2.649   7.148  1.00  0.00     0.004 A 
ATOM      6  C   UNL     1     -20.430  -3.261   8.383  1.00  0.00    -0.045 A 
ENDROOT
BRANCH   1   7
ATOM      7  C   UNL     1     -21.460   0.915   8.193  1.00  0.00     0.071 C 
ATOM      8  O   UNL     1     -21.254   1.579   7.143  1.00  0.00    -0.545 OA
ATOM      9  O   UNL     1     -22.025   1.550   9.293  1.00  0.00    -0.545 OA
ENDBRANCH   1   7
BRANCH   6  10
ATOM     10  C   UNL     1     -20.067  -4.734   8.437  1.00  0.00     0.013 C 
ATOM     11  C   UNL     1     -19.181  -5.128   7.249  1.00  0.00     0.012 C 
ATOM     12  C   UNL     1     -21.323  -5.611   8.504  1.00  0.00     0.012 C 
ENDBRANCH   6  10
TORSDOF 2
ENDMDL
MODEL 8
REMARK VINA RESULT:    -2.393      3.082      4.413
REMARK INTER + INTRA:          -2.885
REMARK INTER:                  -2.666
REMARK INTRA:                  -0.220
REMARK UNBOUND:                -0.212
REMARK SMILES CC(C)c1ccc(C(=O)[O-])cc1
REMARK SMILES IDX 7 1 6 2 11 3 5 4 12 5 4 6 8 7 9 8 10 9 2 10 1 11 3 12
REMARK H PARENT
REMARK Flexibility Score: inf
ROOT
ATOM      1  C   UNL     1     -21.110  -0.158   8.300  1.00  0.00    -0.003 A 
ATOM      2  C   UNL     1     -21.536   0.738   9.294  1.00  0.00     0.010 A 
ATOM      3  C   UNL     1     -20.660  -1.434   8.680  1.00  0.00     0.010 A 
ATOM      4  C   UNL     1     -21.515   0.365  10.641  1.00  0.00     0.004 A 
ATOM      5  C   UNL     1     -20.639  -1.807  10.027  1.00  0.00     0.004 A 
ATOM      6  C   UNL     1     -21.066  -0.913  11.023  1.00  0.00    -0.045 A 
ENDROOT
BRANCH   1   7
ATOM      7  C   UNL     1     -21.134   0.241   6.876  1.00  0.00     0.071 C 
ATOM      8  O   UNL     1     -21.682   1.318   6.521  1.00  0.00    -0.545 OA
ATOM      9  O   UNL     1     -20.549  -0.568   5.908  1.00  0.00    -0.545 OA
ENDBRANCH   1   7
BRANCH   6  10
ATOM     10  C   UNL     1     -21.036  -1.331  12.482  1.00  0.00     0.013 C 
ATOM     11  C   UNL     1     -21.669  -2.714  12.672  1.00  0.00     0.012 C 
ATOM     12  C   UNL     1     -21.719  -0.285  13.370  1.00  0.00     0.012 C 
ENDBRANCH   6  10
TORSDOF 2
ENDMDL
MODEL 9
REMARK VINA RESULT:    -2.341      2.534      3.797
REMARK INTER + INTRA:          -2.827
REMARK INTER:                  -2.616
REMARK INTRA:                  -0.211
REMARK UNBOUND:                -0.212
REMARK SMILES CC(C)c1ccc(C(=O)[O-])cc1
REMARK SMILES IDX 7 1 6 2 11 3 5 4 12 5 4 6 8 7 9 8 10 9 2 10 1 11 3 12
REMARK H PARENT
REMARK Flexibility Score: inf
ROOT
ATOM      1  C   UNL     1     -21.302   0.347   8.532  1.00  0.00    -0.003 A 
ATOM      2  C   UNL     1     -21.762   0.867   9.753  1.00  0.00     0.010 A 
ATOM      3  C   UNL     1     -21.205   1.202   7.421  1.00  0.00     0.010 A 
ATOM      4  C   UNL     1     -22.116   2.215   9.862  1.00  0.00     0.004 A 
ATOM      5  C   UNL     1     -21.559   2.550   7.530  1.00  0.00     0.004 A 
ATOM      6  C   UNL     1     -22.019   3.071   8.751  1.00  0.00    -0.045 A 
ENDROOT
BRANCH   1   7
ATOM      7  C   UNL     1     -20.929  -1.080   8.421  1.00  0.00     0.071 C 
ATOM      8  O   UNL     1     -20.653  -1.752   9.450  1.00  0.00    -0.545 OA
ATOM      9  O   UNL     1     -20.879  -1.701   7.178  1.00  0.00    -0.545 OA
ENDBRANCH   1   7
BRANCH   6  10
ATOM     10  C   UNL     1     -22.401   4.537   8.854  1.00  0.00     0.013 C 
ATOM     11  C   UNL     1     -22.986   5.049   7.533  1.00  0.00     0.012 C 
ATOM     12  C   UNL     1     -21.206   5.390   9.297  1.00  0.00     0.012 C 
ENDBRANCH   6  10
TORSDOF 2
ENDMDL
