MODEL 1
REMARK VINA RESULT:    -2.459      0.000      0.000
REMARK INTER + INTRA:          -7.913
REMARK INTER:                  -4.615
REMARK INTRA:                  -3.298
REMARK UNBOUND:                -3.298
REMARK SMILES CCCCCCCCC=CCCCCCCCC(=O)[O-]
REMARK SMILES IDX 10 1 9 2 11 3 12 4 13 5 14 6 15 7 16 8 17 9 18 10 19 11
REMARK SMILES IDX 20 12 8 13 7 14 6 15 5 16 4 17 3 18 2 19 1 20
REMARK H PARENT
REMARK Flexibility Score: inf
ROOT
ATOM      1  C   UNL     1     147.684 147.237 142.898  1.00  0.00    -0.031 C 
ATOM      2  C   UNL     1     146.787 148.221 143.049  1.00  0.00    -0.031 C 
ENDROOT
BRANCH   1   3
ATOM      3  C   UNL     1     147.337 145.800 143.185  1.00  0.00     0.027 C 
BRANCH   3   4
ATOM      4  C   UNL     1     145.820 145.557 143.192  1.00  0.00     0.004 C 
BRANCH   4   5
ATOM      5  C   UNL     1     145.320 145.050 144.552  1.00  0.00     0.000 C 
BRANCH   5   6
ATOM      6  C   UNL     1     144.227 145.966 145.114  1.00  0.00     0.000 C 
BRANCH   6   7
ATOM      7  C   UNL     1     143.589 146.808 143.998  1.00  0.00     0.000 C 
BRANCH   7   8
ATOM      8  C   UNL     1     143.335 148.266 144.421  1.00  0.00     0.006 C 
BRANCH   8   9
ATOM      9  C   UNL     1     144.115 148.709 145.668  1.00  0.00     0.053 C 
BRANCH   9  10
ATOM     10  C   UNL     1     144.448 150.169 145.631  1.00  0.00     0.041 C 
ATOM     11  O   UNL     1     144.256 150.837 144.580  1.00  0.00    -0.550 OA
ATOM     12  O   UNL     1     144.943 150.799 146.766  1.00  0.00    -0.550 OA
ENDBRANCH   9  10
ENDBRANCH   8   9
ENDBRANCH   7   8
ENDBRANCH   6   7
ENDBRANCH   5   6
ENDBRANCH   4   5
ENDBRANCH   3   4
ENDBRANCH   1   3
BRANCH   2  13
ATOM     13  C   UNL     1     147.158 149.650 142.755  1.00  0.00     0.027 C 
BRANCH  13  14
ATOM     14  C   UNL     1     146.285 150.228 141.631  1.00  0.00     0.004 C 
BRANCH  14  15
ATOM     15  C   UNL     1     144.956 149.474 141.465  1.00  0.00     0.000 C 
BRANCH  15  16
ATOM     16  C   UNL     1     144.345 149.654 140.064  1.00  0.00     0.000 C 
BRANCH  16  17
ATOM     17  C   UNL     1     144.283 148.338 139.273  1.00  0.00    -0.000 C 
BRANCH  17  18
ATOM     18  C   UNL     1     144.720 147.123 140.110  1.00  0.00    -0.000 C 
BRANCH  18  19
ATOM     19  C   UNL     1     145.932 146.397 139.505  1.00  0.00    -0.003 C 
ATOM     20  C   UNL     1     147.117 147.330 139.252  1.00  0.00     0.004 C 
ENDBRANCH  18  19
ENDBRANCH  17  18
ENDBRANCH  16  17
ENDBRANCH  15  16
ENDBRANCH  14  15
ENDBRANCH  13  14
ENDBRANCH   2  13
TORSDOF 15
ENDMDL
MODEL 2
REMARK VINA RESULT:    -2.308      2.222      3.921
REMARK INTER + INTRA:          -7.631
REMARK INTER:                  -5.489
REMARK INTRA:                  -2.142
REMARK UNBOUND:                -3.298
REMARK SMILES CCCCCCCCC=CCCCCCCCC(=O)[O-]
REMARK SMILES IDX 10 1 9 2 11 3 12 4 13 5 14 6 15 7 16 8 17 9 18 10 19 11
REMARK SMILES IDX 20 12 8 13 7 14 6 15 5 16 4 17 3 18 2 19 1 20
REMARK H PARENT
REMARK Flexibility Score: inf
ROOT
ATOM      1  C   UNL     1     147.405 148.474 142.701  1.00  0.00    -0.031 C 
ATOM      2  C   UNL     1     147.237 147.237 143.188  1.00  0.00    -0.031 C 
ENDROOT
BRANCH   1   3
ATOM      3  C   UNL     1     146.449 149.590 143.033  1.00  0.00     0.027 C 
BRANCH   3   4
ATOM      4  C   UNL     1     145.248 149.104 143.859  1.00  0.00     0.004 C 
BRANCH   4   5
ATOM      5  C   UNL     1     144.814 150.134 144.912  1.00  0.00     0.000 C 
BRANCH   5   6
ATOM      6  C   UNL     1     143.793 149.530 145.884  1.00  0.00     0.000 C 
BRANCH   6   7
ATOM      7  C   UNL     1     144.109 149.932 147.333  1.00  0.00     0.000 C 
BRANCH   7   8
ATOM      8  C   UNL     1     144.863 151.270 147.431  1.00  0.00     0.006 C 
BRANCH   8   9
ATOM      9  C   UNL     1     146.105 151.233 148.334  1.00  0.00     0.053 C 
BRANCH   9  10
ATOM     10  C   UNL     1     145.797 150.666 149.686  1.00  0.00     0.041 C 
ATOM     11  O   UNL     1     145.083 151.313 150.498  1.00  0.00    -0.550 OA
ATOM     12  O   UNL     1     146.273 149.409 150.038  1.00  0.00    -0.550 OA
ENDBRANCH   9  10
ENDBRANCH   8   9
ENDBRANCH   7   8
ENDBRANCH   6   7
ENDBRANCH   5   6
ENDBRANCH   4   5
ENDBRANCH   3   4
ENDBRANCH   1   3
BRANCH   2  13
ATOM     13  C   UNL     1     148.206 146.139 142.843  1.00  0.00     0.027 C 
BRANCH  13  14
ATOM     14  C   UNL     1     147.497 144.977 142.132  1.00  0.00     0.004 C 
BRANCH  14  15
ATOM     15  C   UNL     1     146.069 144.745 142.654  1.00  0.00     0.000 C 
BRANCH  15  16
ATOM     16  C   UNL     1     145.036 144.629 141.519  1.00  0.00     0.000 C 
BRANCH  16  17
ATOM     17  C   UNL     1     145.423 145.455 140.281  1.00  0.00    -0.000 C 
BRANCH  17  18
ATOM     18  C   UNL     1     144.850 146.882 140.320  1.00  0.00    -0.000 C 
BRANCH  18  19
ATOM     19  C   UNL     1     145.688 147.875 139.499  1.00  0.00    -0.003 C 
ATOM     20  C   UNL     1     147.079 147.338 139.160  1.00  0.00     0.004 C 
ENDBRANCH  18  19
ENDBRANCH  17  18
ENDBRANCH  16  17
ENDBRANCH  15  16
ENDBRANCH  14  15
ENDBRANCH  13  14
ENDBRANCH   2  13
TORSDOF 15
ENDMDL
MODEL 3
REMARK VINA RESULT:    -2.259      2.683      4.775
REMARK INTER + INTRA:          -7.537
REMARK INTER:                  -4.248
REMARK INTRA:                  -3.289
REMARK UNBOUND:                -3.298
REMARK SMILES CCCCCCCCC=CCCCCCCCC(=O)[O-]
REMARK SMILES IDX 10 1 9 2 11 3 12 4 13 5 14 6 15 7 16 8 17 9 18 10 19 11
REMARK SMILES IDX 20 12 8 13 7 14 6 15 5 16 4 17 3 18 2 19 1 20
REMARK H PARENT
REMARK Flexibility Score: inf
ROOT
ATOM      1  C   UNL     1     146.992 147.446 143.089  1.00  0.00    -0.031 C 
ATOM      2  C   UNL     1     147.217 148.736 142.805  1.00  0.00    -0.031 C 
ENDROOT
BRANCH   1   3
ATOM      3  C   UNL     1     148.031 146.387 142.829  1.00  0.00     0.027 C 
BRANCH   3   4
ATOM      4  C   UNL     1     147.521 145.288 141.885  1.00  0.00     0.004 C 
BRANCH   4   5
ATOM      5  C   UNL     1     147.013 145.858 140.553  1.00  0.00     0.000 C 
BRANCH   5   6
ATOM      6  C   UNL     1     145.618 145.315 140.219  1.00  0.00     0.000 C 
BRANCH   6   7
ATOM      7  C   UNL     1     144.664 146.453 139.827  1.00  0.00     0.000 C 
BRANCH   7   8
ATOM      8  C   UNL     1     145.376 147.812 139.699  1.00  0.00     0.006 C 
BRANCH   8   9
ATOM      9  C   UNL     1     144.443 149.028 139.801  1.00  0.00     0.053 C 
BRANCH   9  10
ATOM     10  C   UNL     1     144.107 149.591 138.454  1.00  0.00     0.041 C 
ATOM     11  O   UNL     1     143.466 150.672 138.360  1.00  0.00    -0.550 OA
ATOM     12  O   UNL     1     144.529 148.939 137.303  1.00  0.00    -0.550 OA
ENDBRANCH   9  10
ENDBRANCH   8   9
ENDBRANCH   7   8
ENDBRANCH   6   7
ENDBRANCH   5   6
ENDBRANCH   4   5
ENDBRANCH   3   4
ENDBRANCH   1   3
BRANCH   2  13
ATOM     13  C   UNL     1     146.162 149.776 143.075  1.00  0.00     0.027 C 
BRANCH  13  14
ATOM     14  C   UNL     1     145.101 149.247 144.051  1.00  0.00     0.004 C 
BRANCH  14  15
ATOM     15  C   UNL     1     143.681 149.287 143.462  1.00  0.00     0.000 C 
BRANCH  15  16
ATOM     16  C   UNL     1     143.195 147.902 142.997  1.00  0.00     0.000 C 
BRANCH  16  17
ATOM     17  C   UNL     1     143.573 146.782 143.980  1.00  0.00    -0.000 C 
BRANCH  17  18
ATOM     18  C   UNL     1     143.734 145.418 143.288  1.00  0.00    -0.000 C 
BRANCH  18  19
ATOM     19  C   UNL     1     144.474 144.397 144.167  1.00  0.00    -0.003 C 
ATOM     20  C   UNL     1     145.338 145.056 145.243  1.00  0.00     0.004 C 
ENDBRANCH  18  19
ENDBRANCH  17  18
ENDBRANCH  16  17
ENDBRANCH  15  16
ENDBRANCH  14  15
ENDBRANCH  13  14
ENDBRANCH   2  13
TORSDOF 15
ENDMDL
MODEL 4
REMARK VINA RESULT:    -2.254      3.208      5.567
REMARK INTER + INTRA:          -7.528
REMARK INTER:                  -4.234
REMARK INTRA:                  -3.295
REMARK UNBOUND:                -3.298
REMARK SMILES CCCCCCCCC=CCCCCCCCC(=O)[O-]
REMARK SMILES IDX 10 1 9 2 11 3 12 4 13 5 14 6 15 7 16 8 17 9 18 10 19 11
REMARK SMILES IDX 20 12 8 13 7 14 6 15 5 16 4 17 3 18 2 19 1 20
REMARK H PARENT
REMARK Flexibility Score: inf
ROOT
ATOM      1  C   UNL     1     147.381 148.276 142.999  1.00  0.00    -0.031 C 
ATOM      2  C   UNL     1     147.435 147.159 142.260  1.00  0.00    -0.031 C 
ENDROOT
BRANCH   1   3
ATOM      3  C   UNL     1     146.676 149.514 142.510  1.00  0.00     0.027 C 
BRANCH   3   4
ATOM      4  C   UNL     1     145.454 149.868 143.371  1.00  0.00     0.004 C 
BRANCH   4   5
ATOM      5  C   UNL     1     144.165 149.957 142.539  1.00  0.00     0.000 C 
BRANCH   5   6
ATOM      6  C   UNL     1     144.482 150.046 141.042  1.00  0.00     0.000 C 
BRANCH   6   7
ATOM      7  C   UNL     1     143.506 149.190 140.221  1.00  0.00     0.000 C 
BRANCH   7   8
ATOM      8  C   UNL     1     144.157 148.578 138.968  1.00  0.00     0.006 C 
BRANCH   8   9
ATOM      9  C   UNL     1     145.545 147.966 139.210  1.00  0.00     0.053 C 
BRANCH   9  10
ATOM     10  C   UNL     1     146.068 147.265 137.993  1.00  0.00     0.041 C 
ATOM     11  O   UNL     1     145.309 147.045 137.013  1.00  0.00    -0.550 OA
ATOM     12  O   UNL     1     147.402 146.882 137.931  1.00  0.00    -0.550 OA
ENDBRANCH   9  10
ENDBRANCH   8   9
ENDBRANCH   7   8
ENDBRANCH   6   7
ENDBRANCH   5   6
ENDBRANCH   4   5
ENDBRANCH   3   4
ENDBRANCH   1   3
BRANCH   2  13
ATOM     13  C   UNL     1     148.144 145.935 142.771  1.00  0.00     0.027 C 
BRANCH  13  14
ATOM     14  C   UNL     1     147.526 144.654 142.190  1.00  0.00     0.004 C 
BRANCH  14  15
ATOM     15  C   UNL     1     146.999 144.846 140.759  1.00  0.00     0.000 C 
BRANCH  15  16
ATOM     16  C   UNL     1     145.510 144.481 140.623  1.00  0.00     0.000 C 
BRANCH  16  17
ATOM     17  C   UNL     1     144.741 144.637 141.946  1.00  0.00    -0.000 C 
BRANCH  17  18
ATOM     18  C   UNL     1     143.974 145.968 142.031  1.00  0.00    -0.000 C 
BRANCH  18  19
ATOM     19  C   UNL     1     143.843 146.479 143.474  1.00  0.00    -0.003 C 
ATOM     20  C   UNL     1     144.777 145.757 144.447  1.00  0.00     0.004 C 
ENDBRANCH  18  19
ENDBRANCH  17  18
ENDBRANCH  16  17
ENDBRANCH  15  16
ENDBRANCH  14  15
ENDBRANCH  13  14
ENDBRANCH   2  13
TORSDOF 15
ENDMDL
MODEL 5
REMARK VINA RESULT:    -2.207      1.779      3.930
REMARK INTER + INTRA:          -7.441
REMARK INTER:                  -4.701
REMARK INTRA:                  -2.740
REMARK UNBOUND:                -3.298
REMARK SMILES CCCCCCCCC=CCCCCCCCC(=O)[O-]
REMARK SMILES IDX 10 1 9 2 11 3 12 4 13 5 14 6 15 7 16 8 17 9 18 10 19 11
REMARK SMILES IDX 20 12 8 13 7 14 6 15 5 16 4 17 3 18 2 19 1 20
REMARK H PARENT
REMARK Flexibility Score: inf
ROOT
ATOM      1  C   UNL     1     147.253 148.577 143.010  1.00  0.00    -0.031 C 
ATOM      2  C   UNL     1     147.465 147.441 142.331  1.00  0.00    -0.031 C 
ENDROOT
BRANCH   1   3
ATOM      3  C   UNL     1     146.638 149.786 142.356  1.00  0.00     0.027 C 
BRANCH   3   4
ATOM      4  C   UNL     1     145.451 149.419 141.451  1.00  0.00     0.004 C 
BRANCH   4   5
ATOM      5  C   UNL     1     144.183 150.208 141.809  1.00  0.00     0.000 C 
BRANCH   5   6
ATOM      6  C   UNL     1     143.571 149.701 143.119  1.00  0.00     0.000 C 
BRANCH   6   7
ATOM      7  C   UNL     1     143.662 150.770 144.219  1.00  0.00     0.000 C 
BRANCH   7   8
ATOM      8  C   UNL     1     144.474 150.302 145.441  1.00  0.00     0.006 C 
BRANCH   8   9
ATOM      9  C   UNL     1     144.411 151.255 146.645  1.00  0.00     0.053 C 
BRANCH   9  10
ATOM     10  C   UNL     1     145.161 150.716 147.824  1.00  0.00     0.041 C 
ATOM     11  O   UNL     1     146.133 151.357 148.306  1.00  0.00    -0.550 OA
ATOM     12  O   UNL     1     144.767 149.519 148.411  1.00  0.00    -0.550 OA
ENDBRANCH   9  10
ENDBRANCH   8   9
ENDBRANCH   7   8
ENDBRANCH   6   7
ENDBRANCH   5   6
ENDBRANCH   4   5
ENDBRANCH   3   4
ENDBRANCH   1   3
BRANCH   2  13
ATOM     13  C   UNL     1     148.081 146.246 143.007  1.00  0.00     0.027 C 
BRANCH  13  14
ATOM     14  C   UNL     1     147.561 144.936 142.397  1.00  0.00     0.004 C 
BRANCH  14  15
ATOM     15  C   UNL     1     146.848 145.150 141.052  1.00  0.00     0.000 C 
BRANCH  15  16
ATOM     16  C   UNL     1     145.376 144.700 141.084  1.00  0.00     0.000 C 
BRANCH  16  17
ATOM     17  C   UNL     1     144.400 145.852 140.793  1.00  0.00    -0.000 C 
BRANCH  17  18
ATOM     18  C   UNL     1     143.574 146.253 142.027  1.00  0.00    -0.000 C 
BRANCH  18  19
ATOM     19  C   UNL     1     143.969 145.460 143.283  1.00  0.00    -0.003 C 
ATOM     20  C   UNL     1     144.549 146.347 144.386  1.00  0.00     0.004 C 
ENDBRANCH  18  19
ENDBRANCH  17  18
ENDBRANCH  16  17
ENDBRANCH  15  16
ENDBRANCH  14  15
ENDBRANCH  13  14
ENDBRANCH   2  13
TORSDOF 15
ENDMDL
MODEL 6
REMARK VINA RESULT:    -2.201      3.146      5.406
REMARK INTER + INTRA:          -7.430
REMARK INTER:                  -4.200
REMARK INTRA:                  -3.230
REMARK UNBOUND:                -3.298
REMARK SMILES CCCCCCCCC=CCCCCCCCC(=O)[O-]
REMARK SMILES IDX 10 1 9 2 11 3 12 4 13 5 14 6 15 7 16 8 17 9 18 10 19 11
REMARK SMILES IDX 20 12 8 13 7 14 6 15 5 16 4 17 3 18 2 19 1 20
REMARK H PARENT
REMARK Flexibility Score: inf
ROOT
ATOM      1  C   UNL     1     146.997 148.559 142.139  1.00  0.00    -0.031 C 
ATOM      2  C   UNL     1     147.380 147.625 143.022  1.00  0.00    -0.031 C 
ENDROOT
BRANCH   1   3
ATOM      3  C   UNL     1     146.414 149.874 142.583  1.00  0.00     0.027 C 
BRANCH   3   4
ATOM      4  C   UNL     1     145.418 149.710 143.741  1.00  0.00     0.004 C 
BRANCH   4   5
ATOM      5  C   UNL     1     143.965 149.625 143.248  1.00  0.00     0.000 C 
BRANCH   5   6
ATOM      6  C   UNL     1     143.779 150.417 141.949  1.00  0.00     0.000 C 
BRANCH   6   7
ATOM      7  C   UNL     1     143.154 149.538 140.854  1.00  0.00     0.000 C 
BRANCH   7   8
ATOM      8  C   UNL     1     143.884 149.658 139.504  1.00  0.00     0.006 C 
BRANCH   8   9
ATOM      9  C   UNL     1     144.850 148.502 139.202  1.00  0.00     0.053 C 
BRANCH   9  10
ATOM     10  C   UNL     1     144.500 147.797 137.928  1.00  0.00     0.041 C 
ATOM     11  O   UNL     1     143.824 146.735 137.955  1.00  0.00    -0.550 OA
ATOM     12  O   UNL     1     144.893 148.332 136.707  1.00  0.00    -0.550 OA
ENDBRANCH   9  10
ENDBRANCH   8   9
ENDBRANCH   7   8
ENDBRANCH   6   7
ENDBRANCH   5   6
ENDBRANCH   4   5
ENDBRANCH   3   4
ENDBRANCH   1   3
BRANCH   2  13
ATOM     13  C   UNL     1     147.961 146.319 142.553  1.00  0.00     0.027 C 
BRANCH  13  14
ATOM     14  C   UNL     1     147.306 145.861 141.242  1.00  0.00     0.004 C 
BRANCH  14  15
ATOM     15  C   UNL     1     146.291 144.725 141.450  1.00  0.00     0.000 C 
BRANCH  15  16
ATOM     16  C   UNL     1     144.874 145.105 140.983  1.00  0.00     0.000 C 
BRANCH  16  17
ATOM     17  C   UNL     1     144.210 146.146 141.900  1.00  0.00    -0.000 C 
BRANCH  17  18
ATOM     18  C   UNL     1     143.682 145.531 143.207  1.00  0.00    -0.000 C 
BRANCH  18  19
ATOM     19  C   UNL     1     144.406 146.076 144.448  1.00  0.00    -0.003 C 
ATOM     20  C   UNL     1     145.400 145.077 145.041  1.00  0.00     0.004 C 
ENDBRANCH  18  19
ENDBRANCH  17  18
ENDBRANCH  16  17
ENDBRANCH  15  16
ENDBRANCH  14  15
ENDBRANCH  13  14
ENDBRANCH   2  13
TORSDOF 15
ENDMDL
MODEL 7
REMARK VINA RESULT:    -2.161      1.210      3.234
REMARK INTER + INTRA:          -7.354
REMARK INTER:                  -4.123
REMARK INTRA:                  -3.231
REMARK UNBOUND:                -3.298
REMARK SMILES CCCCCCCCC=CCCCCCCCC(=O)[O-]
REMARK SMILES IDX 10 1 9 2 11 3 12 4 13 5 14 6 15 7 16 8 17 9 18 10 19 11
REMARK SMILES IDX 20 12 8 13 7 14 6 15 5 16 4 17 3 18 2 19 1 20
REMARK H PARENT
REMARK Flexibility Score: inf
ROOT
ATOM      1  C   UNL     1     147.380 148.107 142.886  1.00  0.00    -0.031 C 
ATOM      2  C   UNL     1     146.542 147.174 143.360  1.00  0.00    -0.031 C 
ENDROOT
BRANCH   1   3
ATOM      3  C   UNL     1     147.017 149.569 142.888  1.00  0.00     0.027 C 
BRANCH   3   4
ATOM      4  C   UNL     1     146.541 150.054 141.510  1.00  0.00     0.004 C 
BRANCH   4   5
ATOM      5  C   UNL     1     145.031 149.849 141.313  1.00  0.00     0.000 C 
BRANCH   5   6
ATOM      6  C   UNL     1     144.255 150.227 142.580  1.00  0.00     0.000 C 
BRANCH   6   7
ATOM      7  C   UNL     1     143.301 149.098 142.998  1.00  0.00     0.000 C 
BRANCH   7   8
ATOM      8  C   UNL     1     143.235 148.905 144.523  1.00  0.00     0.006 C 
BRANCH   8   9
ATOM      9  C   UNL     1     144.363 149.604 145.299  1.00  0.00     0.053 C 
BRANCH   9  10
ATOM     10  C   UNL     1     143.840 150.687 146.192  1.00  0.00     0.041 C 
ATOM     11  O   UNL     1     143.971 151.897 145.865  1.00  0.00    -0.550 OA
ATOM     12  O   UNL     1     143.180 150.360 147.370  1.00  0.00    -0.550 OA
ENDBRANCH   9  10
ENDBRANCH   8   9
ENDBRANCH   7   8
ENDBRANCH   6   7
ENDBRANCH   5   6
ENDBRANCH   4   5
ENDBRANCH   3   4
ENDBRANCH   1   3
BRANCH   2  13
ATOM     13  C   UNL     1     146.928 145.720 143.348  1.00  0.00     0.027 C 
BRANCH  13  14
ATOM     14  C   UNL     1     145.696 144.822 143.167  1.00  0.00     0.004 C 
BRANCH  14  15
ATOM     15  C   UNL     1     144.393 145.624 143.021  1.00  0.00     0.000 C 
BRANCH  15  16
ATOM     16  C   UNL     1     143.728 145.427 141.647  1.00  0.00     0.000 C 
BRANCH  16  17
ATOM     17  C   UNL     1     144.333 146.333 140.562  1.00  0.00    -0.000 C 
BRANCH  17  18
ATOM     18  C   UNL     1     145.193 145.554 139.553  1.00  0.00    -0.000 C 
BRANCH  18  19
ATOM     19  C   UNL     1     146.690 145.879 139.681  1.00  0.00    -0.003 C 
ATOM     20  C   UNL     1     147.030 147.297 139.221  1.00  0.00     0.004 C 
ENDBRANCH  18  19
ENDBRANCH  17  18
ENDBRANCH  16  17
ENDBRANCH  15  16
ENDBRANCH  14  15
ENDBRANCH  13  14
ENDBRANCH   2  13
TORSDOF 15
ENDMDL
MODEL 8
REMARK VINA RESULT:    -2.149      1.617      2.305
REMARK INTER + INTRA:          -7.333
REMARK INTER:                  -4.990
REMARK INTRA:                  -2.342
REMARK UNBOUND:                -3.298
REMARK SMILES CCCCCCCCC=CCCCCCCCC(=O)[O-]
REMARK SMILES IDX 10 1 9 2 11 3 12 4 13 5 14 6 15 7 16 8 17 9 18 10 19 11
REMARK SMILES IDX 20 12 8 13 7 14 6 15 5 16 4 17 3 18 2 19 1 20
REMARK H PARENT
REMARK Flexibility Score: inf
ROOT
ATOM      1  C   UNL     1     146.628 145.985 143.330  1.00  0.00    -0.031 C 
ATOM      2  C   UNL     1     146.334 147.293 143.316  1.00  0.00    -0.031 C 
ENDROOT
BRANCH   1   3
ATOM      3  C   UNL     1     145.625 144.955 143.776  1.00  0.00     0.027 C 
BRANCH   3   4
ATOM      4  C   UNL     1     144.485 145.570 144.603  1.00  0.00     0.004 C 
BRANCH   4   5
ATOM      5  C   UNL     1     144.656 145.313 146.108  1.00  0.00     0.000 C 
BRANCH   5   6
ATOM      6  C   UNL     1     143.928 146.380 146.934  1.00  0.00     0.000 C 
BRANCH   6   7
ATOM      7  C   UNL     1     143.552 147.588 146.063  1.00  0.00     0.000 C 
BRANCH   7   8
ATOM      8  C   UNL     1     143.930 148.932 146.710  1.00  0.00     0.006 C 
BRANCH   8   9
ATOM      9  C   UNL     1     144.026 148.892 148.243  1.00  0.00     0.053 C 
BRANCH   9  10
ATOM     10  C   UNL     1     145.133 149.761 148.758  1.00  0.00     0.041 C 
ATOM     11  O   UNL     1     145.145 150.993 148.499  1.00  0.00    -0.550 OA
ATOM     12  O   UNL     1     146.135 149.214 149.550  1.00  0.00    -0.550 OA
ENDBRANCH   9  10
ENDBRANCH   8   9
ENDBRANCH   7   8
ENDBRANCH   6   7
ENDBRANCH   5   6
ENDBRANCH   4   5
ENDBRANCH   3   4
ENDBRANCH   1   3
BRANCH   2  13
ATOM     13  C   UNL     1     147.354 148.304 142.864  1.00  0.00     0.027 C 
BRANCH  13  14
ATOM     14  C   UNL     1     146.708 149.679 142.640  1.00  0.00     0.004 C 
BRANCH  14  15
ATOM     15  C   UNL     1     145.361 149.827 143.365  1.00  0.00     0.000 C 
BRANCH  15  16
ATOM     16  C   UNL     1     144.184 150.024 142.393  1.00  0.00     0.000 C 
BRANCH  16  17
ATOM     17  C   UNL     1     144.646 150.354 140.965  1.00  0.00    -0.000 C 
BRANCH  17  18
ATOM     18  C   UNL     1     144.063 149.390 139.917  1.00  0.00    -0.000 C 
BRANCH  18  19
ATOM     19  C   UNL     1     144.492 147.933 140.156  1.00  0.00    -0.003 C 
ATOM     20  C   UNL     1     145.858 147.610 139.549  1.00  0.00     0.004 C 
ENDBRANCH  18  19
ENDBRANCH  17  18
ENDBRANCH  16  17
ENDBRANCH  15  16
ENDBRANCH  14  15
ENDBRANCH  13  14
ENDBRANCH   2  13
TORSDOF 15
ENDMDL
MODEL 9
REMARK VINA RESULT:    -2.138      2.823      4.810
REMARK INTER + INTRA:          -7.312
REMARK INTER:                  -3.961
REMARK INTRA:                  -3.350
REMARK UNBOUND:                -3.298
REMARK SMILES CCCCCCCCC=CCCCCCCCC(=O)[O-]
REMARK SMILES IDX 10 1 9 2 11 3 12 4 13 5 14 6 15 7 16 8 17 9 18 10 19 11
REMARK SMILES IDX 20 12 8 13 7 14 6 15 5 16 4 17 3 18 2 19 1 20
REMARK H PARENT
REMARK Flexibility Score: inf
ROOT
ATOM      1  C   UNL     1     147.360 147.451 142.349  1.00  0.00    -0.031 C 
ATOM      2  C   UNL     1     147.341 148.616 143.012  1.00  0.00    -0.031 C 
ENDROOT
BRANCH   1   3
ATOM      3  C   UNL     1     147.849 146.182 142.996  1.00  0.00     0.027 C 
BRANCH   3   4
ATOM      4  C   UNL     1     146.702 145.214 143.322  1.00  0.00     0.004 C 
BRANCH   4   5
ATOM      5  C   UNL     1     146.045 144.645 142.055  1.00  0.00     0.000 C 
BRANCH   5   6
ATOM      6  C   UNL     1     147.102 144.128 141.073  1.00  0.00     0.000 C 
BRANCH   6   7
ATOM      7  C   UNL     1     146.782 144.571 139.637  1.00  0.00     0.000 C 
BRANCH   7   8
ATOM      8  C   UNL     1     145.631 145.590 139.569  1.00  0.00     0.006 C 
BRANCH   8   9
ATOM      9  C   UNL     1     145.952 146.855 138.758  1.00  0.00     0.053 C 
BRANCH   9  10
ATOM     10  C   UNL     1     144.712 147.516 138.238  1.00  0.00     0.041 C 
ATOM     11  O   UNL     1     144.749 148.712 137.843  1.00  0.00    -0.550 OA
ATOM     12  O   UNL     1     143.523 146.801 138.160  1.00  0.00    -0.550 OA
ENDBRANCH   9  10
ENDBRANCH   8   9
ENDBRANCH   7   8
ENDBRANCH   6   7
ENDBRANCH   5   6
ENDBRANCH   4   5
ENDBRANCH   3   4
ENDBRANCH   1   3
BRANCH   2  13
ATOM     13  C   UNL     1     146.847 149.870 142.345  1.00  0.00     0.027 C 
BRANCH  13  14
ATOM     14  C   UNL     1     145.904 149.542 141.178  1.00  0.00     0.004 C 
BRANCH  14  15
ATOM     15  C   UNL     1     144.523 150.200 141.328  1.00  0.00     0.000 C 
BRANCH  15  16
ATOM     16  C   UNL     1     143.375 149.174 141.320  1.00  0.00     0.000 C 
BRANCH  16  17
ATOM     17  C   UNL     1     143.801 147.807 141.880  1.00  0.00    -0.000 C 
BRANCH  17  18
ATOM     18  C   UNL     1     143.133 147.487 143.229  1.00  0.00    -0.000 C 
BRANCH  18  19
ATOM     19  C   UNL     1     144.107 147.611 144.411  1.00  0.00    -0.003 C 
ATOM     20  C   UNL     1     144.215 149.040 144.943  1.00  0.00     0.004 C 
ENDBRANCH  18  19
ENDBRANCH  17  18
ENDBRANCH  16  17
ENDBRANCH  15  16
ENDBRANCH  14  15
ENDBRANCH  13  14
ENDBRANCH   2  13
TORSDOF 15
ENDMDL
