MODEL 1
REMARK VINA RESULT:    -3.824      0.000      0.000
REMARK INTER + INTRA:          -4.522
REMARK INTER:                  -4.495
REMARK INTRA:                  -0.027
REMARK UNBOUND:                -0.027
REMARK SMILES O=C([O-])CCC(=O)[O-]
REMARK SMILES IDX 4 1 2 2 1 3 3 4 5 5 6 6 7 7 8 8
REMARK H PARENT
REMARK Flexibility Score: inf
ROOT
ATOM      1  C   UNL     1      12.137   2.076  -2.103  1.00  0.00     0.059 C 
ENDROOT
BRANCH   1   2
ATOM      2  C   UNL     1      11.905   1.616  -0.695  1.00  0.00     0.042 C 
ATOM      3  O   UNL     1      10.979   2.122  -0.008  1.00  0.00    -0.550 OA
ATOM      4  O   UNL     1      12.687   0.602  -0.158  1.00  0.00    -0.550 OA
ENDBRANCH   1   2
BRANCH   1   5
ATOM      5  C   UNL     1      11.007   1.627  -3.035  1.00  0.00     0.059 C 
BRANCH   5   6
ATOM      6  C   UNL     1      11.461   1.565  -4.462  1.00  0.00     0.042 C 
ATOM      7  O   UNL     1      11.829   0.471  -4.964  1.00  0.00    -0.550 OA
ATOM      8  O   UNL     1      11.438   2.710  -5.248  1.00  0.00    -0.550 OA
ENDBRANCH   5   6
ENDBRANCH   1   5
TORSDOF 3
ENDMDL
MODEL 2
REMARK VINA RESULT:    -3.820      0.070      4.378
REMARK INTER + INTRA:          -4.517
REMARK INTER:                  -4.489
REMARK INTRA:                  -0.027
REMARK UNBOUND:                -0.027
REMARK SMILES O=C([O-])CCC(=O)[O-]
REMARK SMILES IDX 4 1 2 2 1 3 3 4 5 5 6 6 7 7 8 8
REMARK H PARENT
REMARK Flexibility Score: inf
ROOT
ATOM      1  C   UNL     1      11.006   1.675  -3.074  1.00  0.00     0.059 C 
ENDROOT
BRANCH   1   2
ATOM      2  C   UNL     1      11.435   1.586  -4.507  1.00  0.00     0.042 C 
ATOM      3  O   UNL     1      11.817   0.486  -4.987  1.00  0.00    -0.550 OA
ATOM      4  O   UNL     1      11.376   2.709  -5.322  1.00  0.00    -0.550 OA
ENDBRANCH   1   2
BRANCH   1   5
ATOM      5  C   UNL     1      12.171   2.072  -2.162  1.00  0.00     0.059 C 
BRANCH   5   6
ATOM      6  C   UNL     1      11.949   1.613  -0.753  1.00  0.00     0.042 C 
ATOM      7  O   UNL     1      11.037   2.128  -0.054  1.00  0.00    -0.550 OA
ATOM      8  O   UNL     1      12.725   0.588  -0.226  1.00  0.00    -0.550 OA
ENDBRANCH   5   6
ENDBRANCH   1   5
TORSDOF 3
ENDMDL
MODEL 3
REMARK VINA RESULT:    -3.811      0.616      4.178
REMARK INTER + INTRA:          -4.506
REMARK INTER:                  -4.472
REMARK INTRA:                  -0.034
REMARK UNBOUND:                -0.027
REMARK SMILES O=C([O-])CCC(=O)[O-]
REMARK SMILES IDX 4 1 2 2 1 3 3 4 5 5 6 6 7 7 8 8
REMARK H PARENT
REMARK Flexibility Score: inf
ROOT
ATOM      1  C   UNL     1      11.566   1.275  -3.344  1.00  0.00     0.059 C 
ENDROOT
BRANCH   1   2
ATOM      2  C   UNL     1      11.393   1.961  -4.665  1.00  0.00     0.042 C 
ATOM      3  O   UNL     1      11.199   3.204  -4.713  1.00  0.00    -0.550 OA
ATOM      4  O   UNL     1      11.485   1.232  -5.844  1.00  0.00    -0.550 OA
ENDBRANCH   1   2
BRANCH   1   5
ATOM      5  C   UNL     1      12.125   2.228  -2.283  1.00  0.00     0.059 C 
BRANCH   5   6
ATOM      6  C   UNL     1      11.941   1.683  -0.900  1.00  0.00     0.042 C 
ATOM      7  O   UNL     1      12.698   0.773  -0.471  1.00  0.00    -0.550 OA
ATOM      8  O   UNL     1      10.960   2.210  -0.070  1.00  0.00    -0.550 OA
ENDBRANCH   5   6
ENDBRANCH   1   5
TORSDOF 3
ENDMDL
MODEL 4
REMARK VINA RESULT:    -3.807      0.101      4.269
REMARK INTER + INTRA:          -4.502
REMARK INTER:                  -4.475
REMARK INTRA:                  -0.027
REMARK UNBOUND:                -0.027
REMARK SMILES O=C([O-])CCC(=O)[O-]
REMARK SMILES IDX 4 1 2 2 1 3 3 4 5 5 6 6 7 7 8 8
REMARK H PARENT
REMARK Flexibility Score: inf
ROOT
ATOM      1  C   UNL     1      11.029   1.664  -3.103  1.00  0.00     0.059 C 
ENDROOT
BRANCH   1   2
ATOM      2  C   UNL     1      11.491   1.588  -4.527  1.00  0.00     0.042 C 
ATOM      3  O   UNL     1      11.853   0.487  -5.017  1.00  0.00    -0.550 OA
ATOM      4  O   UNL     1      11.483   2.727  -5.321  1.00  0.00    -0.550 OA
ENDBRANCH   1   2
BRANCH   1   5
ATOM      5  C   UNL     1      12.169   2.066  -2.162  1.00  0.00     0.059 C 
BRANCH   5   6
ATOM      6  C   UNL     1      11.902   1.630  -0.754  1.00  0.00     0.042 C 
ATOM      7  O   UNL     1      12.625   0.751  -0.215  1.00  0.00    -0.550 OA
ATOM      8  O   UNL     1      10.881   2.223  -0.023  1.00  0.00    -0.550 OA
ENDBRANCH   5   6
ENDBRANCH   1   5
TORSDOF 3
ENDMDL
MODEL 5
REMARK VINA RESULT:    -3.782      0.297      4.270
REMARK INTER + INTRA:          -4.473
REMARK INTER:                  -4.445
REMARK INTRA:                  -0.027
REMARK UNBOUND:                -0.027
REMARK SMILES O=C([O-])CCC(=O)[O-]
REMARK SMILES IDX 4 1 2 2 1 3 3 4 5 5 6 6 7 7 8 8
REMARK H PARENT
REMARK Flexibility Score: inf
ROOT
ATOM      1  C   UNL     1      11.123   1.320  -3.231  1.00  0.00     0.059 C 
ENDROOT
BRANCH   1   2
ATOM      2  C   UNL     1      11.502   1.473  -4.673  1.00  0.00     0.042 C 
ATOM      3  O   UNL     1      11.563   2.618  -5.194  1.00  0.00    -0.550 OA
ATOM      4  O   UNL     1      11.824   0.353  -5.430  1.00  0.00    -0.550 OA
ENDBRANCH   1   2
BRANCH   1   5
ATOM      5  C   UNL     1      12.017   2.168  -2.321  1.00  0.00     0.059 C 
BRANCH   5   6
ATOM      6  C   UNL     1      11.923   1.730  -0.892  1.00  0.00     0.042 C 
ATOM      7  O   UNL     1      11.044   2.221  -0.135  1.00  0.00    -0.550 OA
ATOM      8  O   UNL     1      12.779   0.749  -0.407  1.00  0.00    -0.550 OA
ENDBRANCH   5   6
ENDBRANCH   1   5
TORSDOF 3
ENDMDL
MODEL 6
REMARK VINA RESULT:    -3.753      1.401      4.054
REMARK INTER + INTRA:          -4.438
REMARK INTER:                  -4.380
REMARK INTRA:                  -0.058
REMARK UNBOUND:                -0.027
REMARK SMILES O=C([O-])CCC(=O)[O-]
REMARK SMILES IDX 4 1 2 2 1 3 3 4 5 5 6 6 7 7 8 8
REMARK H PARENT
REMARK Flexibility Score: inf
ROOT
ATOM      1  C   UNL     1      12.274   2.498  -2.302  1.00  0.00     0.059 C 
ENDROOT
BRANCH   1   2
ATOM      2  C   UNL     1      11.713   2.084  -3.629  1.00  0.00     0.042 C 
ATOM      3  O   UNL     1      11.710   0.871  -3.966  1.00  0.00    -0.550 OA
ATOM      4  O   UNL     1      11.160   3.036  -4.476  1.00  0.00    -0.550 OA
ENDBRANCH   1   2
BRANCH   1   5
ATOM      5  C   UNL     1      11.758   1.604  -1.170  1.00  0.00     0.059 C 
BRANCH   5   6
ATOM      6  C   UNL     1      10.462   2.109  -0.614  1.00  0.00     0.042 C 
ATOM      7  O   UNL     1       9.396   1.976  -1.271  1.00  0.00    -0.550 OA
ATOM      8  O   UNL     1      10.426   2.690   0.647  1.00  0.00    -0.550 OA
ENDBRANCH   5   6
ENDBRANCH   1   5
TORSDOF 3
ENDMDL
MODEL 7
REMARK VINA RESULT:    -3.725      0.730      1.700
REMARK INTER + INTRA:          -4.405
REMARK INTER:                  -4.321
REMARK INTRA:                  -0.084
REMARK UNBOUND:                -0.027
REMARK SMILES O=C([O-])CCC(=O)[O-]
REMARK SMILES IDX 4 1 2 2 1 3 3 4 5 5 6 6 7 7 8 8
REMARK H PARENT
REMARK Flexibility Score: inf
ROOT
ATOM      1  C   UNL     1      12.241   2.377  -2.041  1.00  0.00     0.059 C 
ENDROOT
BRANCH   1   2
ATOM      2  C   UNL     1      11.547   1.665  -0.919  1.00  0.00     0.042 C 
ATOM      3  O   UNL     1      12.212   0.993  -0.088  1.00  0.00    -0.550 OA
ATOM      4  O   UNL     1      10.170   1.778  -0.771  1.00  0.00    -0.550 OA
ENDBRANCH   1   2
BRANCH   1   5
ATOM      5  C   UNL     1      11.252   2.816  -3.125  1.00  0.00     0.059 C 
BRANCH   5   6
ATOM      6  C   UNL     1      11.490   2.093  -4.416  1.00  0.00     0.042 C 
ATOM      7  O   UNL     1      11.376   2.699  -5.513  1.00  0.00    -0.550 OA
ATOM      8  O   UNL     1      11.878   0.759  -4.404  1.00  0.00    -0.550 OA
ENDBRANCH   5   6
ENDBRANCH   1   5
TORSDOF 3
ENDMDL
MODEL 8
REMARK VINA RESULT:    -3.446      1.639      2.278
REMARK INTER + INTRA:          -4.078
REMARK INTER:                  -3.956
REMARK INTRA:                  -0.122
REMARK UNBOUND:                -0.027
REMARK SMILES O=C([O-])CCC(=O)[O-]
REMARK SMILES IDX 4 1 2 2 1 3 3 4 5 5 6 6 7 7 8 8
REMARK H PARENT
REMARK Flexibility Score: inf
ROOT
ATOM      1  C   UNL     1      11.944   1.641  -2.002  1.00  0.00     0.059 C 
ENDROOT
BRANCH   1   2
ATOM      2  C   UNL     1      11.785   1.466  -0.522  1.00  0.00     0.042 C 
ATOM      3  O   UNL     1      12.494   0.630   0.097  1.00  0.00    -0.550 OA
ATOM      4  O   UNL     1      10.881   2.255   0.178  1.00  0.00    -0.550 OA
ENDBRANCH   1   2
BRANCH   1   5
ATOM      5  C   UNL     1      11.922   3.120  -2.400  1.00  0.00     0.059 C 
BRANCH   5   6
ATOM      6  C   UNL     1      10.715   3.453  -3.223  1.00  0.00     0.042 C 
ATOM      7  O   UNL     1       9.581   3.532  -2.682  1.00  0.00    -0.550 OA
ATOM      8  O   UNL     1      10.850   3.714  -4.580  1.00  0.00    -0.550 OA
ENDBRANCH   5   6
ENDBRANCH   1   5
TORSDOF 3
ENDMDL
MODEL 9
REMARK VINA RESULT:    -3.437      1.673      4.157
REMARK INTER + INTRA:          -4.066
REMARK INTER:                  -3.945
REMARK INTRA:                  -0.122
REMARK UNBOUND:                -0.027
REMARK SMILES O=C([O-])CCC(=O)[O-]
REMARK SMILES IDX 4 1 2 2 1 3 3 4 5 5 6 6 7 7 8 8
REMARK H PARENT
REMARK Flexibility Score: inf
ROOT
ATOM      1  C   UNL     1      11.909   3.022  -2.487  1.00  0.00     0.059 C 
ENDROOT
BRANCH   1   2
ATOM      2  C   UNL     1      10.690   3.481  -3.228  1.00  0.00     0.042 C 
ATOM      3  O   UNL     1       9.592   3.609  -2.624  1.00  0.00    -0.550 OA
ATOM      4  O   UNL     1      10.776   3.804  -4.576  1.00  0.00    -0.550 OA
ENDBRANCH   1   2
BRANCH   1   5
ATOM      5  C   UNL     1      11.775   1.566  -2.030  1.00  0.00     0.059 C 
BRANCH   5   6
ATOM      6  C   UNL     1      11.798   1.453  -0.536  1.00  0.00     0.042 C 
ATOM      7  O   UNL     1      11.003   2.133   0.164  1.00  0.00    -0.550 OA
ATOM      8  O   UNL     1      12.671   0.566   0.081  1.00  0.00    -0.550 OA
ENDBRANCH   5   6
ENDBRANCH   1   5
TORSDOF 3
ENDMDL
