MODEL 1
REMARK VINA RESULT:    -5.364      0.000      0.000
REMARK INTER + INTRA:          -6.605
REMARK INTER:                  -6.305
REMARK INTRA:                  -0.300
REMARK UNBOUND:                -0.300
REMARK SMILES O=c1c(O)c(-c2ccc(O)cc2)oc2cc(O)cc(O)c12
REMARK SMILES IDX 5 1 3 2 2 3 1 4 21 5 19 6 18 7 16 8 15 9 14 10 13 11 6 12
REMARK SMILES IDX 7 13 8 14 9 15 12 16 11 17 10 18 4 20 20 22 17 24
REMARK H PARENT 10 19 4 21 20 23 17 25
REMARK Flexibility Score: inf
ROOT
ATOM      1  C   UNL     1      42.948  18.619  -2.947  1.00  0.00     0.180 A 
ATOM      2  C   UNL     1      43.400  19.122  -4.179  1.00  0.00     0.208 A 
ATOM      3  C   UNL     1      44.386  18.412  -4.885  1.00  0.00     0.238 A 
ATOM      4  O   UNL     1      44.747  18.838  -6.012  1.00  0.00    -0.285 OA
ATOM      5  C   UNL     1      44.918  17.219  -4.341  1.00  0.00     0.111 A 
ATOM      6  C   UNL     1      45.948  16.440  -4.949  1.00  0.00     0.134 A 
ATOM      7  C   UNL     1      46.307  15.209  -4.388  1.00  0.00     0.093 A 
ATOM      8  C   UNL     1      45.720  14.757  -3.207  1.00  0.00     0.123 A 
ATOM      9  C   UNL     1      44.753  15.539  -2.570  1.00  0.00     0.094 A 
ATOM     10  C   UNL     1      44.349  16.755  -3.126  1.00  0.00     0.146 A 
ATOM     11  O   UNL     1      43.420  17.463  -2.496  1.00  0.00    -0.452 OA
ENDROOT
BRANCH   1  12
ATOM     12  C   UNL     1      41.930  19.323  -2.135  1.00  0.00     0.021 A 
ATOM     13  C   UNL     1      40.575  18.976  -2.271  1.00  0.00     0.016 A 
ATOM     14  C   UNL     1      39.600  19.613  -1.497  1.00  0.00     0.047 A 
ATOM     15  C   UNL     1      39.968  20.593  -0.568  1.00  0.00     0.115 A 
ATOM     16  C   UNL     1      42.294  20.294  -1.184  1.00  0.00     0.016 A 
ATOM     17  C   UNL     1      41.316  20.929  -0.411  1.00  0.00     0.047 A 
BRANCH  15  18
ATOM     18  O   UNL     1      39.005  21.234   0.208  1.00  0.00    -0.508 OA
ATOM     19  H   UNL     1      39.168  22.153   0.603  1.00  0.00     0.293 HD
ENDBRANCH  15  18
ENDBRANCH   1  12
BRANCH   2  20
ATOM     20  O   UNL     1      42.845  20.291  -4.708  1.00  0.00    -0.502 OA
ATOM     21  H   UNL     1      43.120  20.664  -5.608  1.00  0.00     0.293 HD
ENDBRANCH   2  20
BRANCH   6  22
ATOM     22  O   UNL     1      46.665  16.842  -6.081  1.00  0.00    -0.507 OA
ATOM     23  H   UNL     1      47.180  17.705  -6.158  1.00  0.00     0.293 HD
ENDBRANCH   6  22
BRANCH   8  24
ATOM     24  O   UNL     1      46.111  13.534  -2.667  1.00  0.00    -0.508 OA
ATOM     25  H   UNL     1      45.486  12.736  -2.654  1.00  0.00     0.293 HD
ENDBRANCH   8  24
TORSDOF 5
ENDMDL
MODEL 2
REMARK VINA RESULT:    -5.065      2.441      4.769
REMARK INTER + INTRA:          -6.254
REMARK INTER:                  -6.282
REMARK INTRA:                   0.028
REMARK UNBOUND:                -0.300
REMARK SMILES O=c1c(O)c(-c2ccc(O)cc2)oc2cc(O)cc(O)c12
REMARK SMILES IDX 5 1 3 2 2 3 1 4 21 5 19 6 18 7 16 8 15 9 14 10 13 11 6 12
REMARK SMILES IDX 7 13 8 14 9 15 12 16 11 17 10 18 4 20 20 22 17 24
REMARK H PARENT 10 19 4 21 20 23 17 25
REMARK Flexibility Score: inf
ROOT
ATOM      1  C   UNL     1      45.185  15.857  -3.472  1.00  0.00     0.180 A 
ATOM      2  C   UNL     1      44.575  14.666  -3.042  1.00  0.00     0.208 A 
ATOM      3  C   UNL     1      45.357  13.506  -2.920  1.00  0.00     0.238 A 
ATOM      4  O   UNL     1      44.817  12.457  -2.483  1.00  0.00    -0.285 OA
ATOM      5  C   UNL     1      46.733  13.547  -3.247  1.00  0.00     0.111 A 
ATOM      6  C   UNL     1      47.612  12.423  -3.200  1.00  0.00     0.134 A 
ATOM      7  C   UNL     1      48.982  12.607  -3.418  1.00  0.00     0.093 A 
ATOM      8  C   UNL     1      49.497  13.860  -3.745  1.00  0.00     0.123 A 
ATOM      9  C   UNL     1      48.639  14.956  -3.852  1.00  0.00     0.094 A 
ATOM     10  C   UNL     1      47.272  14.811  -3.604  1.00  0.00     0.146 A 
ATOM     11  O   UNL     1      46.492  15.879  -3.707  1.00  0.00    -0.452 OA
ENDROOT
BRANCH   1  12
ATOM     12  C   UNL     1      44.422  17.114  -3.647  1.00  0.00     0.021 A 
ATOM     13  C   UNL     1      43.659  17.615  -2.578  1.00  0.00     0.016 A 
ATOM     14  C   UNL     1      42.949  18.812  -2.715  1.00  0.00     0.047 A 
ATOM     15  C   UNL     1      43.005  19.530  -3.916  1.00  0.00     0.115 A 
ATOM     16  C   UNL     1      44.489  17.852  -4.843  1.00  0.00     0.016 A 
ATOM     17  C   UNL     1      43.778  19.049  -4.976  1.00  0.00     0.047 A 
BRANCH  15  18
ATOM     18  O   UNL     1      42.301  20.723  -4.063  1.00  0.00    -0.508 OA
ATOM     19  H   UNL     1      42.280  21.220  -4.946  1.00  0.00     0.293 HD
ENDBRANCH  15  18
ENDBRANCH   1  12
BRANCH   2  20
ATOM     20  O   UNL     1      43.219  14.653  -2.704  1.00  0.00    -0.502 OA
ATOM     21  H   UNL     1      42.897  14.559  -1.748  1.00  0.00     0.293 HD
ENDBRANCH   2  20
BRANCH   6  22
ATOM     22  O   UNL     1      47.187  11.110  -2.973  1.00  0.00    -0.507 OA
ATOM     23  H   UNL     1      47.800  10.333  -2.776  1.00  0.00     0.293 HD
ENDBRANCH   6  22
BRANCH   8  24
ATOM     24  O   UNL     1      50.864  14.005  -3.971  1.00  0.00    -0.508 OA
ATOM     25  H   UNL     1      51.261  13.915  -4.899  1.00  0.00     0.293 HD
ENDBRANCH   8  24
TORSDOF 5
ENDMDL
MODEL 3
REMARK VINA RESULT:    -4.943      2.531      5.107
REMARK INTER + INTRA:          -6.111
REMARK INTER:                  -6.199
REMARK INTRA:                   0.089
REMARK UNBOUND:                -0.300
REMARK SMILES O=c1c(O)c(-c2ccc(O)cc2)oc2cc(O)cc(O)c12
REMARK SMILES IDX 5 1 3 2 2 3 1 4 21 5 19 6 18 7 16 8 15 9 14 10 13 11 6 12
REMARK SMILES IDX 7 13 8 14 9 15 12 16 11 17 10 18 4 20 20 22 17 24
REMARK H PARENT 10 19 4 21 20 23 17 25
REMARK Flexibility Score: inf
ROOT
ATOM      1  C   UNL     1      45.964  16.009  -3.781  1.00  0.00     0.180 A 
ATOM      2  C   UNL     1      45.722  14.699  -3.330  1.00  0.00     0.208 A 
ATOM      3  C   UNL     1      46.781  13.778  -3.311  1.00  0.00     0.238 A 
ATOM      4  O   UNL     1      46.571  12.624  -2.856  1.00  0.00    -0.285 OA
ATOM      5  C   UNL     1      48.065  14.172  -3.759  1.00  0.00     0.111 A 
ATOM      6  C   UNL     1      49.201  13.310  -3.821  1.00  0.00     0.134 A 
ATOM      7  C   UNL     1      50.453  13.840  -4.157  1.00  0.00     0.093 A 
ATOM      8  C   UNL     1      50.598  15.185  -4.494  1.00  0.00     0.123 A 
ATOM      9  C   UNL     1      49.483  16.024  -4.494  1.00  0.00     0.094 A 
ATOM     10  C   UNL     1      48.228  15.533  -4.128  1.00  0.00     0.146 A 
ATOM     11  O   UNL     1      47.194  16.366  -4.131  1.00  0.00    -0.452 OA
ENDROOT
BRANCH   1  12
ATOM     12  C   UNL     1      44.893  17.028  -3.853  1.00  0.00     0.021 A 
ATOM     13  C   UNL     1      44.070  17.247  -2.734  1.00  0.00     0.016 A 
ATOM     14  C   UNL     1      43.067  18.220  -2.773  1.00  0.00     0.047 A 
ATOM     15  C   UNL     1      42.885  18.997  -3.923  1.00  0.00     0.115 A 
ATOM     16  C   UNL     1      44.717  17.827  -4.997  1.00  0.00     0.016 A 
ATOM     17  C   UNL     1      43.713  18.801  -5.032  1.00  0.00     0.047 A 
BRANCH  15  18
ATOM     18  O   UNL     1      41.889  19.970  -3.973  1.00  0.00    -0.508 OA
ATOM     19  H   UNL     1      42.091  20.921  -4.259  1.00  0.00     0.293 HD
ENDBRANCH  15  18
ENDBRANCH   1  12
BRANCH   2  20
ATOM     20  O   UNL     1      44.451  14.338  -2.872  1.00  0.00    -0.502 OA
ATOM     21  H   UNL     1      44.310  13.621  -2.171  1.00  0.00     0.293 HD
ENDBRANCH   2  20
BRANCH   6  22
ATOM     22  O   UNL     1      49.149  11.932  -3.593  1.00  0.00    -0.507 OA
ATOM     23  H   UNL     1      49.438  11.228  -4.255  1.00  0.00     0.293 HD
ENDBRANCH   6  22
BRANCH   8  24
ATOM     24  O   UNL     1      51.856  15.676  -4.838  1.00  0.00    -0.508 OA
ATOM     25  H   UNL     1      52.057  16.670  -4.834  1.00  0.00     0.293 HD
ENDBRANCH   8  24
TORSDOF 5
ENDMDL
MODEL 4
REMARK VINA RESULT:    -4.816      2.177      7.082
REMARK INTER + INTRA:          -5.961
REMARK INTER:                  -5.871
REMARK INTRA:                  -0.090
REMARK UNBOUND:                -0.300
REMARK SMILES O=c1c(O)c(-c2ccc(O)cc2)oc2cc(O)cc(O)c12
REMARK SMILES IDX 5 1 3 2 2 3 1 4 21 5 19 6 18 7 16 8 15 9 14 10 13 11 6 12
REMARK SMILES IDX 7 13 8 14 9 15 12 16 11 17 10 18 4 20 20 22 17 24
REMARK H PARENT 10 19 4 21 20 23 17 25
REMARK Flexibility Score: inf
ROOT
ATOM      1  C   UNL     1      45.297  16.449  -3.700  1.00  0.00     0.180 A 
ATOM      2  C   UNL     1      44.563  15.266  -3.505  1.00  0.00     0.208 A 
ATOM      3  C   UNL     1      43.285  15.344  -2.930  1.00  0.00     0.238 A 
ATOM      4  O   UNL     1      42.610  14.289  -2.808  1.00  0.00    -0.285 OA
ATOM      5  C   UNL     1      42.764  16.602  -2.541  1.00  0.00     0.111 A 
ATOM      6  C   UNL     1      41.497  16.795  -1.913  1.00  0.00     0.134 A 
ATOM      7  C   UNL     1      41.026  18.094  -1.690  1.00  0.00     0.093 A 
ATOM      8  C   UNL     1      41.802  19.206  -2.015  1.00  0.00     0.123 A 
ATOM      9  C   UNL     1      43.068  19.029  -2.575  1.00  0.00     0.094 A 
ATOM     10  C   UNL     1      43.550  17.745  -2.842  1.00  0.00     0.146 A 
ATOM     11  O   UNL     1      44.754  17.619  -3.385  1.00  0.00    -0.452 OA
ENDROOT
BRANCH   1  12
ATOM     12  C   UNL     1      46.661  16.443  -4.277  1.00  0.00     0.021 A 
ATOM     13  C   UNL     1      46.935  17.228  -5.410  1.00  0.00     0.016 A 
ATOM     14  C   UNL     1      48.221  17.255  -5.958  1.00  0.00     0.047 A 
ATOM     15  C   UNL     1      49.252  16.511  -5.371  1.00  0.00     0.115 A 
ATOM     16  C   UNL     1      47.707  15.715  -3.681  1.00  0.00     0.016 A 
ATOM     17  C   UNL     1      48.992  15.745  -4.231  1.00  0.00     0.047 A 
BRANCH  15  18
ATOM     18  O   UNL     1      50.537  16.531  -5.908  1.00  0.00    -0.508 OA
ATOM     19  H   UNL     1      51.200  17.260  -5.669  1.00  0.00     0.293 HD
ENDBRANCH  15  18
ENDBRANCH   1  12
BRANCH   2  20
ATOM     20  O   UNL     1      45.088  14.037  -3.916  1.00  0.00    -0.502 OA
ATOM     21  H   UNL     1      46.029  13.941  -4.277  1.00  0.00     0.293 HD
ENDBRANCH   2  20
BRANCH   6  22
ATOM     22  O   UNL     1      40.681  15.752  -1.465  1.00  0.00    -0.507 OA
ATOM     23  H   UNL     1      39.684  15.699  -1.607  1.00  0.00     0.293 HD
ENDBRANCH   6  22
BRANCH   8  24
ATOM     24  O   UNL     1      41.310  20.485  -1.766  1.00  0.00    -0.508 OA
ATOM     25  H   UNL     1      40.315  20.682  -1.773  1.00  0.00     0.293 HD
ENDBRANCH   8  24
TORSDOF 5
ENDMDL
MODEL 5
REMARK VINA RESULT:    -4.810      2.186      3.393
REMARK INTER + INTRA:          -5.954
REMARK INTER:                  -6.008
REMARK INTRA:                   0.054
REMARK UNBOUND:                -0.300
REMARK SMILES O=c1c(O)c(-c2ccc(O)cc2)oc2cc(O)cc(O)c12
REMARK SMILES IDX 5 1 3 2 2 3 1 4 21 5 19 6 18 7 16 8 15 9 14 10 13 11 6 12
REMARK SMILES IDX 7 13 8 14 9 15 12 16 11 17 10 18 4 20 20 22 17 24
REMARK H PARENT 10 19 4 21 20 23 17 25
REMARK Flexibility Score: inf
ROOT
ATOM      1  C   UNL     1      45.056  16.343  -3.492  1.00  0.00     0.180 A 
ATOM      2  C   UNL     1      45.763  17.078  -4.459  1.00  0.00     0.208 A 
ATOM      3  C   UNL     1      47.065  16.677  -4.803  1.00  0.00     0.238 A 
ATOM      4  O   UNL     1      47.672  17.305  -5.708  1.00  0.00    -0.285 OA
ATOM      5  C   UNL     1      47.648  15.557  -4.163  1.00  0.00     0.111 A 
ATOM      6  C   UNL     1      48.973  15.086  -4.404  1.00  0.00     0.134 A 
ATOM      7  C   UNL     1      49.401  13.892  -3.811  1.00  0.00     0.093 A 
ATOM      8  C   UNL     1      48.576  13.186  -2.937  1.00  0.00     0.123 A 
ATOM      9  C   UNL     1      47.298  13.669  -2.647  1.00  0.00     0.094 A 
ATOM     10  C   UNL     1      46.830  14.838  -3.252  1.00  0.00     0.146 A 
ATOM     11  O   UNL     1      45.606  15.259  -2.958  1.00  0.00    -0.452 OA
ENDROOT
BRANCH   1  12
ATOM     12  C   UNL     1      43.691  16.719  -3.060  1.00  0.00     0.021 A 
ATOM     13  C   UNL     1      42.712  15.721  -2.914  1.00  0.00     0.016 A 
ATOM     14  C   UNL     1      41.423  16.051  -2.486  1.00  0.00     0.047 A 
ATOM     15  C   UNL     1      41.100  17.380  -2.183  1.00  0.00     0.115 A 
ATOM     16  C   UNL     1      43.365  18.048  -2.734  1.00  0.00     0.016 A 
ATOM     17  C   UNL     1      42.074  18.375  -2.304  1.00  0.00     0.047 A 
BRANCH  15  18
ATOM     18  O   UNL     1      39.819  17.720  -1.755  1.00  0.00    -0.508 OA
ATOM     19  H   UNL     1      39.635  17.987  -0.795  1.00  0.00     0.293 HD
ENDBRANCH  15  18
ENDBRANCH   1  12
BRANCH   2  20
ATOM     20  O   UNL     1      45.160  18.168  -5.094  1.00  0.00    -0.502 OA
ATOM     21  H   UNL     1      44.528  18.059  -5.878  1.00  0.00     0.293 HD
ENDBRANCH   2  20
BRANCH   6  22
ATOM     22  O   UNL     1      49.912  15.763  -5.188  1.00  0.00    -0.507 OA
ATOM     23  H   UNL     1      49.956  16.765  -5.296  1.00  0.00     0.293 HD
ENDBRANCH   6  22
BRANCH   8  24
ATOM     24  O   UNL     1      49.038  12.009  -2.353  1.00  0.00    -0.508 OA
ATOM     25  H   UNL     1      49.816  12.010  -1.702  1.00  0.00     0.293 HD
ENDBRANCH   8  24
TORSDOF 5
ENDMDL
MODEL 6
REMARK VINA RESULT:    -4.807      2.142      7.100
REMARK INTER + INTRA:          -5.950
REMARK INTER:                  -5.937
REMARK INTRA:                  -0.014
REMARK UNBOUND:                -0.300
REMARK SMILES O=c1c(O)c(-c2ccc(O)cc2)oc2cc(O)cc(O)c12
REMARK SMILES IDX 5 1 3 2 2 3 1 4 21 5 19 6 18 7 16 8 15 9 14 10 13 11 6 12
REMARK SMILES IDX 7 13 8 14 9 15 12 16 11 17 10 18 4 20 20 22 17 24
REMARK H PARENT 10 19 4 21 20 23 17 25
REMARK Flexibility Score: inf
ROOT
ATOM      1  C   UNL     1      44.270  15.889  -2.877  1.00  0.00     0.180 A 
ATOM      2  C   UNL     1      43.094  15.121  -2.828  1.00  0.00     0.208 A 
ATOM      3  C   UNL     1      41.860  15.772  -2.674  1.00  0.00     0.238 A 
ATOM      4  O   UNL     1      40.807  15.084  -2.686  1.00  0.00    -0.285 OA
ATOM      5  C   UNL     1      41.819  17.182  -2.554  1.00  0.00     0.111 A 
ATOM      6  C   UNL     1      40.628  17.944  -2.355  1.00  0.00     0.134 A 
ATOM      7  C   UNL     1      40.689  19.342  -2.381  1.00  0.00     0.093 A 
ATOM      8  C   UNL     1      41.905  20.007  -2.535  1.00  0.00     0.123 A 
ATOM      9  C   UNL     1      43.085  19.272  -2.672  1.00  0.00     0.094 A 
ATOM     10  C   UNL     1      43.050  17.875  -2.686  1.00  0.00     0.146 A 
ATOM     11  O   UNL     1      44.192  17.214  -2.828  1.00  0.00    -0.452 OA
ENDROOT
BRANCH   1  12
ATOM     12  C   UNL     1      45.609  15.273  -3.013  1.00  0.00     0.021 A 
ATOM     13  C   UNL     1      46.502  15.763  -3.981  1.00  0.00     0.016 A 
ATOM     14  C   UNL     1      47.780  15.211  -4.111  1.00  0.00     0.047 A 
ATOM     15  C   UNL     1      48.186  14.171  -3.265  1.00  0.00     0.115 A 
ATOM     16  C   UNL     1      46.033  14.243  -2.153  1.00  0.00     0.016 A 
ATOM     17  C   UNL     1      47.312  13.692  -2.285  1.00  0.00     0.047 A 
BRANCH  15  18
ATOM     18  O   UNL     1      49.457  13.613  -3.385  1.00  0.00    -0.508 OA
ATOM     19  H   UNL     1      50.043  13.799  -4.191  1.00  0.00     0.293 HD
ENDBRANCH  15  18
ENDBRANCH   1  12
BRANCH   2  20
ATOM     20  O   UNL     1      43.156  13.731  -2.970  1.00  0.00    -0.502 OA
ATOM     21  H   UNL     1      43.018  13.269  -3.860  1.00  0.00     0.293 HD
ENDBRANCH   2  20
BRANCH   6  22
ATOM     22  O   UNL     1      39.374  17.380  -2.100  1.00  0.00    -0.507 OA
ATOM     23  H   UNL     1      39.076  16.472  -2.421  1.00  0.00     0.293 HD
ENDBRANCH   6  22
BRANCH   8  24
ATOM     24  O   UNL     1      41.933  21.399  -2.542  1.00  0.00    -0.508 OA
ATOM     25  H   UNL     1      42.308  21.926  -1.761  1.00  0.00     0.293 HD
ENDBRANCH   8  24
TORSDOF 5
ENDMDL
MODEL 7
REMARK VINA RESULT:    -4.770      2.991      7.757
REMARK INTER + INTRA:          -5.908
REMARK INTER:                  -5.769
REMARK INTRA:                  -0.138
REMARK UNBOUND:                -0.300
REMARK SMILES O=c1c(O)c(-c2ccc(O)cc2)oc2cc(O)cc(O)c12
REMARK SMILES IDX 5 1 3 2 2 3 1 4 21 5 19 6 18 7 16 8 15 9 14 10 13 11 6 12
REMARK SMILES IDX 7 13 8 14 9 15 12 16 11 17 10 18 4 20 20 22 17 24
REMARK H PARENT 10 19 4 21 20 23 17 25
REMARK Flexibility Score: inf
ROOT
ATOM      1  C   UNL     1      47.049  15.337  -4.393  1.00  0.00     0.180 A 
ATOM      2  C   UNL     1      46.482  14.078  -4.658  1.00  0.00     0.208 A 
ATOM      3  C   UNL     1      45.163  13.825  -4.249  1.00  0.00     0.238 A 
ATOM      4  O   UNL     1      44.642  12.717  -4.537  1.00  0.00    -0.285 OA
ATOM      5  C   UNL     1      44.433  14.829  -3.567  1.00  0.00     0.111 A 
ATOM      6  C   UNL     1      43.104  14.669  -3.072  1.00  0.00     0.134 A 
ATOM      7  C   UNL     1      42.432  15.770  -2.528  1.00  0.00     0.093 A 
ATOM      8  C   UNL     1      43.061  17.008  -2.403  1.00  0.00     0.123 A 
ATOM      9  C   UNL     1      44.382  17.160  -2.829  1.00  0.00     0.094 A 
ATOM     10  C   UNL     1      45.066  16.089  -3.409  1.00  0.00     0.146 A 
ATOM     11  O   UNL     1      46.317  16.278  -3.811  1.00  0.00    -0.452 OA
ENDROOT
BRANCH   1  12
ATOM     12  C   UNL     1      48.442  15.668  -4.771  1.00  0.00     0.021 A 
ATOM     13  C   UNL     1      49.506  14.976  -4.168  1.00  0.00     0.016 A 
ATOM     14  C   UNL     1      50.828  15.257  -4.526  1.00  0.00     0.047 A 
ATOM     15  C   UNL     1      51.102  16.222  -5.503  1.00  0.00     0.115 A 
ATOM     16  C   UNL     1      48.725  16.621  -5.766  1.00  0.00     0.016 A 
ATOM     17  C   UNL     1      50.048  16.900  -6.123  1.00  0.00     0.047 A 
BRANCH  15  18
ATOM     18  O   UNL     1      52.415  16.511  -5.868  1.00  0.00    -0.508 OA
ATOM     19  H   UNL     1      52.819  16.145  -6.722  1.00  0.00     0.293 HD
ENDBRANCH  15  18
ENDBRANCH   1  12
BRANCH   2  20
ATOM     20  O   UNL     1      47.213  13.109  -5.352  1.00  0.00    -0.502 OA
ATOM     21  H   UNL     1      48.125  12.792  -5.045  1.00  0.00     0.293 HD
ENDBRANCH   2  20
BRANCH   6  22
ATOM     22  O   UNL     1      42.415  13.452  -3.065  1.00  0.00    -0.507 OA
ATOM     23  H   UNL     1      42.831  12.555  -3.263  1.00  0.00     0.293 HD
ENDBRANCH   6  22
BRANCH   8  24
ATOM     24  O   UNL     1      42.368  18.078  -1.843  1.00  0.00    -0.508 OA
ATOM     25  H   UNL     1      41.387  18.239  -2.044  1.00  0.00     0.293 HD
ENDBRANCH   8  24
TORSDOF 5
ENDMDL
MODEL 8
REMARK VINA RESULT:    -4.742      2.052      6.766
REMARK INTER + INTRA:          -5.874
REMARK INTER:                  -5.585
REMARK INTRA:                  -0.289
REMARK UNBOUND:                -0.300
REMARK SMILES O=c1c(O)c(-c2ccc(O)cc2)oc2cc(O)cc(O)c12
REMARK SMILES IDX 5 1 3 2 2 3 1 4 21 5 19 6 18 7 16 8 15 9 14 10 13 11 6 12
REMARK SMILES IDX 7 13 8 14 9 15 12 16 11 17 10 18 4 20 20 22 17 24
REMARK H PARENT 10 19 4 21 20 23 17 25
REMARK Flexibility Score: inf
ROOT
ATOM      1  C   UNL     1      43.836  17.501  -4.039  1.00  0.00     0.180 A 
ATOM      2  C   UNL     1      42.729  16.769  -4.504  1.00  0.00     0.208 A 
ATOM      3  C   UNL     1      41.454  17.065  -3.993  1.00  0.00     0.238 A 
ATOM      4  O   UNL     1      40.461  16.444  -4.452  1.00  0.00    -0.285 OA
ATOM      5  C   UNL     1      41.306  18.075  -3.013  1.00  0.00     0.111 A 
ATOM      6  C   UNL     1      40.068  18.431  -2.396  1.00  0.00     0.134 A 
ATOM      7  C   UNL     1      40.016  19.533  -1.535  1.00  0.00     0.093 A 
ATOM      8  C   UNL     1      41.167  20.254  -1.218  1.00  0.00     0.123 A 
ATOM      9  C   UNL     1      42.394  19.878  -1.768  1.00  0.00     0.094 A 
ATOM     10  C   UNL     1      42.470  18.805  -2.659  1.00  0.00     0.146 A 
ATOM     11  O   UNL     1      43.654  18.487  -3.169  1.00  0.00    -0.452 OA
ENDROOT
BRANCH   1  12
ATOM     12  C   UNL     1      45.212  17.231  -4.512  1.00  0.00     0.021 A 
ATOM     13  C   UNL     1      45.694  17.893  -5.655  1.00  0.00     0.016 A 
ATOM     14  C   UNL     1      46.998  17.670  -6.105  1.00  0.00     0.047 A 
ATOM     15  C   UNL     1      47.843  16.794  -5.412  1.00  0.00     0.115 A 
ATOM     16  C   UNL     1      46.073  16.369  -3.809  1.00  0.00     0.016 A 
ATOM     17  C   UNL     1      47.378  16.148  -4.262  1.00  0.00     0.047 A 
BRANCH  15  18
ATOM     18  O   UNL     1      49.144  16.564  -5.852  1.00  0.00    -0.508 OA
ATOM     19  H   UNL     1      49.593  15.664  -5.730  1.00  0.00     0.293 HD
ENDBRANCH  15  18
ENDBRANCH   1  12
BRANCH   2  20
ATOM     20  O   UNL     1      42.895  15.790  -5.488  1.00  0.00    -0.502 OA
ATOM     21  H   UNL     1      43.112  14.827  -5.264  1.00  0.00     0.293 HD
ENDBRANCH   2  20
BRANCH   6  22
ATOM     22  O   UNL     1      38.876  17.721  -2.573  1.00  0.00    -0.507 OA
ATOM     23  H   UNL     1      38.223  17.501  -1.836  1.00  0.00     0.293 HD
ENDBRANCH   6  22
BRANCH   8  24
ATOM     24  O   UNL     1      41.082  21.336  -0.346  1.00  0.00    -0.508 OA
ATOM     25  H   UNL     1      41.513  21.314   0.571  1.00  0.00     0.293 HD
ENDBRANCH   8  24
TORSDOF 5
ENDMDL
MODEL 9
REMARK VINA RESULT:    -4.711      2.703      4.806
REMARK INTER + INTRA:          -5.838
REMARK INTER:                  -5.641
REMARK INTRA:                  -0.197
REMARK UNBOUND:                -0.300
REMARK SMILES O=c1c(O)c(-c2ccc(O)cc2)oc2cc(O)cc(O)c12
REMARK SMILES IDX 5 1 3 2 2 3 1 4 21 5 19 6 18 7 16 8 15 9 14 10 13 11 6 12
REMARK SMILES IDX 7 13 8 14 9 15 12 16 11 17 10 18 4 20 20 22 17 24
REMARK H PARENT 10 19 4 21 20 23 17 25
REMARK Flexibility Score: inf
ROOT
ATOM      1  C   UNL     1      45.359  14.871  -3.196  1.00  0.00     0.180 A 
ATOM      2  C   UNL     1      45.975  14.763  -4.455  1.00  0.00     0.208 A 
ATOM      3  C   UNL     1      47.074  13.901  -4.604  1.00  0.00     0.238 A 
ATOM      4  O   UNL     1      47.586  13.767  -5.745  1.00  0.00    -0.285 OA
ATOM      5  C   UNL     1      47.553  13.172  -3.489  1.00  0.00     0.111 A 
ATOM      6  C   UNL     1      48.683  12.301  -3.516  1.00  0.00     0.134 A 
ATOM      7  C   UNL     1      48.989  11.530  -2.388  1.00  0.00     0.093 A 
ATOM      8  C   UNL     1      48.246  11.646  -1.214  1.00  0.00     0.123 A 
ATOM      9  C   UNL     1      47.174  12.539  -1.157  1.00  0.00     0.094 A 
ATOM     10  C   UNL     1      46.822  13.294  -2.278  1.00  0.00     0.146 A 
ATOM     11  O   UNL     1      45.791  14.124  -2.186  1.00  0.00    -0.452 OA
ENDROOT
BRANCH   1  12
ATOM     12  C   UNL     1      44.212  15.776  -2.955  1.00  0.00     0.021 A 
ATOM     13  C   UNL     1      44.418  17.166  -2.951  1.00  0.00     0.016 A 
ATOM     14  C   UNL     1      43.345  18.040  -2.748  1.00  0.00     0.047 A 
ATOM     15  C   UNL     1      42.052  17.535  -2.563  1.00  0.00     0.115 A 
ATOM     16  C   UNL     1      42.907  15.278  -2.789  1.00  0.00     0.016 A 
ATOM     17  C   UNL     1      41.836  16.155  -2.588  1.00  0.00     0.047 A 
BRANCH  15  18
ATOM     18  O   UNL     1      40.976  18.397  -2.360  1.00  0.00    -0.508 OA
ATOM     19  H   UNL     1      40.018  18.078  -2.452  1.00  0.00     0.293 HD
ENDBRANCH  15  18
ENDBRANCH   1  12
BRANCH   2  20
ATOM     20  O   UNL     1      45.472  15.475  -5.547  1.00  0.00    -0.502 OA
ATOM     21  H   UNL     1      44.935  16.327  -5.440  1.00  0.00     0.293 HD
ENDBRANCH   2  20
BRANCH   6  22
ATOM     22  O   UNL     1      49.549  12.179  -4.607  1.00  0.00    -0.507 OA
ATOM     23  H   UNL     1      49.653  11.347  -5.169  1.00  0.00     0.293 HD
ENDBRANCH   6  22
BRANCH   8  24
ATOM     24  O   UNL     1      48.586  10.875  -0.105  1.00  0.00    -0.508 OA
ATOM     25  H   UNL     1      48.092  10.018   0.118  1.00  0.00     0.293 HD
ENDBRANCH   8  24
TORSDOF 5
ENDMDL
