MODEL 1
REMARK VINA RESULT:    -3.481      0.000      0.000
REMARK INTER + INTRA:          -5.323
REMARK INTER:                  -4.703
REMARK INTRA:                  -0.620
REMARK UNBOUND:                -0.620
REMARK SMILES C=C[C@@](C)(CCC=C(C)C)OC(C)=O
REMARK SMILES IDX 3 1 4 2 5 3 6 4 7 5 9 6 8 7 10 8 2 9 1 10 11 11 12 12 14 13
REMARK SMILES IDX 13 14
REMARK H PARENT
REMARK Flexibility Score: inf
ROOT
ATOM      1  C   UNL     1      21.034  33.342  39.746  1.00  0.00     0.127 C 
ATOM      2  C   UNL     1      20.786  31.897  39.261  1.00  0.00     0.061 C 
ENDROOT
BRANCH   1   3
ATOM      3  C   UNL     1      22.547  33.509  40.063  1.00  0.00     0.057 C 
BRANCH   3   4
ATOM      4  C   UNL     1      22.863  33.971  41.502  1.00  0.00     0.032 C 
BRANCH   4   5
ATOM      5  C   UNL     1      23.376  35.389  41.566  1.00  0.00    -0.028 C 
ATOM      6  C   UNL     1      23.702  37.642  42.485  1.00  0.00     0.039 C 
ATOM      7  C   UNL     1      23.075  36.273  42.542  1.00  0.00    -0.080 C 
ATOM      8  C   UNL     1      22.118  35.939  43.663  1.00  0.00     0.039 C 
ENDBRANCH   4   5
ENDBRANCH   3   4
ENDBRANCH   1   3
BRANCH   1   9
ATOM      9  C   UNL     1      20.589  34.340  38.686  1.00  0.00     0.013 C 
ATOM     10  C   UNL     1      21.160  35.542  38.526  1.00  0.00     0.008 C 
ENDBRANCH   1   9
BRANCH   1  11
ATOM     11  O   UNL     1      20.303  33.560  40.964  1.00  0.00    -0.455 OA
BRANCH  11  12
ATOM     12  C   UNL     1      19.158  32.857  41.371  1.00  0.00     0.303 C 
ATOM     13  O   UNL     1      19.228  31.934  42.227  1.00  0.00    -0.253 OA
ATOM     14  C   UNL     1      17.847  33.171  40.735  1.00  0.00     0.139 C 
ENDBRANCH  11  12
ENDBRANCH   1  11
TORSDOF 6
ENDMDL
MODEL 2
REMARK VINA RESULT:    -3.353      2.471      5.282
REMARK INTER + INTRA:          -5.148
REMARK INTER:                  -4.627
REMARK INTRA:                  -0.521
REMARK UNBOUND:                -0.620
REMARK SMILES C=C[C@@](C)(CCC=C(C)C)OC(C)=O
REMARK SMILES IDX 3 1 4 2 5 3 6 4 7 5 9 6 8 7 10 8 2 9 1 10 11 11 12 12 14 13
REMARK SMILES IDX 13 14
REMARK H PARENT
REMARK Flexibility Score: inf
ROOT
ATOM      1  C   UNL     1      23.546  34.530  41.741  1.00  0.00     0.127 C 
ATOM      2  C   UNL     1      24.024  33.694  40.533  1.00  0.00     0.061 C 
ENDROOT
BRANCH   1   3
ATOM      3  C   UNL     1      22.002  34.401  41.856  1.00  0.00     0.057 C 
BRANCH   3   4
ATOM      4  C   UNL     1      21.432  33.026  41.450  1.00  0.00     0.032 C 
BRANCH   4   5
ATOM      5  C   UNL     1      19.931  32.945  41.590  1.00  0.00    -0.028 C 
ATOM      6  C   UNL     1      17.584  32.942  40.868  1.00  0.00     0.039 C 
ATOM      7  C   UNL     1      19.054  33.092  40.572  1.00  0.00    -0.080 C 
ATOM      8  C   UNL     1      19.500  33.424  39.167  1.00  0.00     0.039 C 
ENDBRANCH   4   5
ENDBRANCH   3   4
ENDBRANCH   1   3
BRANCH   1   9
ATOM      9  C   UNL     1      24.227  34.051  43.016  1.00  0.00     0.013 C 
ATOM     10  C   UNL     1      24.534  34.869  44.032  1.00  0.00     0.008 C 
ENDBRANCH   1   9
BRANCH   1  11
ATOM     11  O   UNL     1      23.857  35.913  41.506  1.00  0.00    -0.455 OA
BRANCH  11  12
ATOM     12  C   UNL     1      22.924  36.954  41.385  1.00  0.00     0.303 C 
ATOM     13  O   UNL     1      22.420  37.253  40.269  1.00  0.00    -0.253 OA
ATOM     14  C   UNL     1      22.569  37.758  42.589  1.00  0.00     0.139 C 
ENDBRANCH  11  12
ENDBRANCH   1  11
TORSDOF 6
ENDMDL
MODEL 3
REMARK VINA RESULT:    -3.344      1.314      1.524
REMARK INTER + INTRA:          -5.137
REMARK INTER:                  -4.558
REMARK INTRA:                  -0.579
REMARK UNBOUND:                -0.620
REMARK SMILES C=C[C@@](C)(CCC=C(C)C)OC(C)=O
REMARK SMILES IDX 3 1 4 2 5 3 6 4 7 5 9 6 8 7 10 8 2 9 1 10 11 11 12 12 14 13
REMARK SMILES IDX 13 14
REMARK H PARENT
REMARK Flexibility Score: inf
ROOT
ATOM      1  C   UNL     1      21.287  33.242  39.470  1.00  0.00     0.127 C 
ATOM      2  C   UNL     1      22.570  32.418  39.226  1.00  0.00     0.061 C 
ENDROOT
BRANCH   1   3
ATOM      3  C   UNL     1      21.389  33.922  40.864  1.00  0.00     0.057 C 
BRANCH   3   4
ATOM      4  C   UNL     1      22.814  33.987  41.453  1.00  0.00     0.032 C 
BRANCH   4   5
ATOM      5  C   UNL     1      23.365  35.391  41.508  1.00  0.00    -0.028 C 
ATOM      6  C   UNL     1      23.786  37.627  42.431  1.00  0.00     0.039 C 
ATOM      7  C   UNL     1      23.126  36.274  42.501  1.00  0.00    -0.080 C 
ATOM      8  C   UNL     1      22.205  35.955  43.656  1.00  0.00     0.039 C 
ENDBRANCH   4   5
ENDBRANCH   3   4
ENDBRANCH   1   3
BRANCH   1   9
ATOM      9  C   UNL     1      21.109  34.282  38.371  1.00  0.00     0.013 C 
ATOM     10  C   UNL     1      21.047  35.598  38.613  1.00  0.00     0.008 C 
ENDBRANCH   1   9
BRANCH   1  11
ATOM     11  O   UNL     1      20.157  32.355  39.494  1.00  0.00    -0.455 OA
BRANCH  11  12
ATOM     12  C   UNL     1      18.819  32.722  39.279  1.00  0.00     0.303 C 
ATOM     13  O   UNL     1      18.288  32.617  38.141  1.00  0.00    -0.253 OA
ATOM     14  C   UNL     1      18.033  33.303  40.405  1.00  0.00     0.139 C 
ENDBRANCH  11  12
ENDBRANCH   1  11
TORSDOF 6
ENDMDL
MODEL 4
REMARK VINA RESULT:    -3.209      2.159      4.999
REMARK INTER + INTRA:          -4.955
REMARK INTER:                  -4.176
REMARK INTRA:                  -0.779
REMARK UNBOUND:                -0.620
REMARK SMILES C=C[C@@](C)(CCC=C(C)C)OC(C)=O
REMARK SMILES IDX 3 1 4 2 5 3 6 4 7 5 9 6 8 7 10 8 2 9 1 10 11 11 12 12 14 13
REMARK SMILES IDX 13 14
REMARK H PARENT
REMARK Flexibility Score: inf
ROOT
ATOM      1  C   UNL     1      22.439  34.369  40.535  1.00  0.00     0.127 C 
ATOM      2  C   UNL     1      21.730  35.303  39.530  1.00  0.00     0.061 C 
ENDROOT
BRANCH   1   3
ATOM      3  C   UNL     1      21.420  33.950  41.631  1.00  0.00     0.057 C 
BRANCH   3   4
ATOM      4  C   UNL     1      20.767  32.568  41.418  1.00  0.00     0.032 C 
BRANCH   4   5
ATOM      5  C   UNL     1      19.269  32.589  41.601  1.00  0.00    -0.028 C 
ATOM      6  C   UNL     1      16.905  32.687  40.943  1.00  0.00     0.039 C 
ATOM      7  C   UNL     1      18.372  32.727  40.600  1.00  0.00    -0.080 C 
ATOM      8  C   UNL     1      18.795  32.944  39.165  1.00  0.00     0.039 C 
ENDBRANCH   4   5
ENDBRANCH   3   4
ENDBRANCH   1   3
BRANCH   1   9
ATOM      9  C   UNL     1      22.998  33.147  39.818  1.00  0.00     0.013 C 
ATOM     10  C   UNL     1      23.000  33.018  38.485  1.00  0.00     0.008 C 
ENDBRANCH   1   9
BRANCH   1  11
ATOM     11  O   UNL     1      23.503  35.091  41.177  1.00  0.00    -0.455 OA
BRANCH  11  12
ATOM     12  C   UNL     1      23.413  35.767  42.404  1.00  0.00     0.303 C 
ATOM     13  O   UNL     1      22.890  36.911  42.483  1.00  0.00    -0.253 OA
ATOM     14  C   UNL     1      24.000  35.143  43.624  1.00  0.00     0.139 C 
ENDBRANCH  11  12
ENDBRANCH   1  11
TORSDOF 6
ENDMDL
MODEL 5
REMARK VINA RESULT:    -3.058      1.773      2.943
REMARK INTER + INTRA:          -4.750
REMARK INTER:                  -4.179
REMARK INTRA:                  -0.571
REMARK UNBOUND:                -0.620
REMARK SMILES C=C[C@@](C)(CCC=C(C)C)OC(C)=O
REMARK SMILES IDX 3 1 4 2 5 3 6 4 7 5 9 6 8 7 10 8 2 9 1 10 11 11 12 12 14 13
REMARK SMILES IDX 13 14
REMARK H PARENT
REMARK Flexibility Score: inf
ROOT
ATOM      1  C   UNL     1      20.774  33.577  39.432  1.00  0.00     0.127 C 
ATOM      2  C   UNL     1      20.616  35.000  38.853  1.00  0.00     0.061 C 
ENDROOT
BRANCH   1   3
ATOM      3  C   UNL     1      22.236  33.403  39.932  1.00  0.00     0.057 C 
BRANCH   3   4
ATOM      4  C   UNL     1      22.493  33.892  41.373  1.00  0.00     0.032 C 
BRANCH   4   5
ATOM      5  C   UNL     1      23.182  35.234  41.426  1.00  0.00    -0.028 C 
ATOM      6  C   UNL     1      23.818  37.421  42.343  1.00  0.00     0.039 C 
ATOM      7  C   UNL     1      23.024  36.142  42.413  1.00  0.00    -0.080 C 
ATOM      8  C   UNL     1      22.065  35.924  43.561  1.00  0.00     0.039 C 
ENDBRANCH   4   5
ENDBRANCH   3   4
ENDBRANCH   1   3
BRANCH   1   9
ATOM      9  C   UNL     1      19.783  33.354  40.566  1.00  0.00     0.013 C 
ATOM     10  C   UNL     1      18.457  33.317  40.383  1.00  0.00     0.008 C 
ENDBRANCH   1   9
BRANCH   1  11
ATOM     11  O   UNL     1      20.550  32.618  38.387  1.00  0.00    -0.455 OA
BRANCH  11  12
ATOM     12  C   UNL     1      20.083  32.905  37.095  1.00  0.00     0.303 C 
ATOM     13  O   UNL     1      18.850  32.994  36.850  1.00  0.00    -0.253 OA
ATOM     14  C   UNL     1      21.064  33.049  35.981  1.00  0.00     0.139 C 
ENDBRANCH  11  12
ENDBRANCH   1  11
TORSDOF 6
ENDMDL
MODEL 6
REMARK VINA RESULT:    -3.011      2.084      4.880
REMARK INTER + INTRA:          -4.686
REMARK INTER:                  -3.754
REMARK INTRA:                  -0.932
REMARK UNBOUND:                -0.620
REMARK SMILES C=C[C@@](C)(CCC=C(C)C)OC(C)=O
REMARK SMILES IDX 3 1 4 2 5 3 6 4 7 5 9 6 8 7 10 8 2 9 1 10 11 11 12 12 14 13
REMARK SMILES IDX 13 14
REMARK H PARENT
REMARK Flexibility Score: inf
ROOT
ATOM      1  C   UNL     1      22.751  33.481  41.158  1.00  0.00     0.127 C 
ATOM      2  C   UNL     1      23.528  32.819  42.318  1.00  0.00     0.061 C 
ENDROOT
BRANCH   1   3
ATOM      3  C   UNL     1      22.829  32.553  39.913  1.00  0.00     0.057 C 
BRANCH   3   4
ATOM      4  C   UNL     1      23.021  33.285  38.568  1.00  0.00     0.032 C 
BRANCH   4   5
ATOM      5  C   UNL     1      21.858  33.096  37.624  1.00  0.00    -0.028 C 
ATOM      6  C   UNL     1      19.806  33.681  36.409  1.00  0.00     0.039 C 
ATOM      7  C   UNL     1      20.877  34.002  37.419  1.00  0.00    -0.080 C 
ATOM      8  C   UNL     1      20.811  35.303  38.185  1.00  0.00     0.039 C 
ENDBRANCH   4   5
ENDBRANCH   3   4
ENDBRANCH   1   3
BRANCH   1   9
ATOM      9  C   UNL     1      21.303  33.724  41.563  1.00  0.00     0.013 C 
ATOM     10  C   UNL     1      20.281  32.991  41.102  1.00  0.00     0.008 C 
ENDBRANCH   1   9
BRANCH   1  11
ATOM     11  O   UNL     1      23.383  34.725  40.820  1.00  0.00    -0.455 OA
BRANCH  11  12
ATOM     12  C   UNL     1      23.059  35.983  41.354  1.00  0.00     0.303 C 
ATOM     13  O   UNL     1      22.549  36.886  40.637  1.00  0.00    -0.253 OA
ATOM     14  C   UNL     1      23.380  36.272  42.780  1.00  0.00     0.139 C 
ENDBRANCH  11  12
ENDBRANCH   1  11
TORSDOF 6
ENDMDL
MODEL 7
REMARK VINA RESULT:    -2.982      1.491      2.009
REMARK INTER + INTRA:          -4.648
REMARK INTER:                  -4.073
REMARK INTRA:                  -0.575
REMARK UNBOUND:                -0.620
REMARK SMILES C=C[C@@](C)(CCC=C(C)C)OC(C)=O
REMARK SMILES IDX 3 1 4 2 5 3 6 4 7 5 9 6 8 7 10 8 2 9 1 10 11 11 12 12 14 13
REMARK SMILES IDX 13 14
REMARK H PARENT
REMARK Flexibility Score: inf
ROOT
ATOM      1  C   UNL     1      20.372  32.937  38.743  1.00  0.00     0.127 C 
ATOM      2  C   UNL     1      21.588  31.989  38.833  1.00  0.00     0.061 C 
ENDROOT
BRANCH   1   3
ATOM      3  C   UNL     1      20.723  34.267  39.468  1.00  0.00     0.057 C 
BRANCH   3   4
ATOM      4  C   UNL     1      22.191  34.389  39.926  1.00  0.00     0.032 C 
BRANCH   4   5
ATOM      5  C   UNL     1      22.331  34.549  41.420  1.00  0.00    -0.028 C 
ATOM      6  C   UNL     1      22.704  35.712  43.551  1.00  0.00     0.039 C 
ATOM      7  C   UNL     1      22.643  35.706  42.045  1.00  0.00    -0.080 C 
ATOM      8  C   UNL     1      22.954  36.973  41.283  1.00  0.00     0.039 C 
ENDBRANCH   4   5
ENDBRANCH   3   4
ENDBRANCH   1   3
BRANCH   1   9
ATOM      9  C   UNL     1      20.007  33.193  37.287  1.00  0.00     0.013 C 
ATOM     10  C   UNL     1      20.920  33.308  36.313  1.00  0.00     0.008 C 
ENDBRANCH   1   9
BRANCH   1  11
ATOM     11  O   UNL     1      19.260  32.341  39.431  1.00  0.00    -0.455 OA
BRANCH  11  12
ATOM     12  C   UNL     1      18.723  32.774  40.653  1.00  0.00     0.303 C 
ATOM     13  O   UNL     1      17.737  33.559  40.693  1.00  0.00    -0.253 OA
ATOM     14  C   UNL     1      19.369  32.344  41.926  1.00  0.00     0.139 C 
ENDBRANCH  11  12
ENDBRANCH   1  11
TORSDOF 6
ENDMDL
MODEL 8
REMARK VINA RESULT:    -2.944      1.738      2.558
REMARK INTER + INTRA:          -4.597
REMARK INTER:                  -3.739
REMARK INTRA:                  -0.858
REMARK UNBOUND:                -0.620
REMARK SMILES C=C[C@@](C)(CCC=C(C)C)OC(C)=O
REMARK SMILES IDX 3 1 4 2 5 3 6 4 7 5 9 6 8 7 10 8 2 9 1 10 11 11 12 12 14 13
REMARK SMILES IDX 13 14
REMARK H PARENT
REMARK Flexibility Score: inf
ROOT
ATOM      1  C   UNL     1      22.649  32.884  40.442  1.00  0.00     0.127 C 
ATOM      2  C   UNL     1      22.724  32.032  41.728  1.00  0.00     0.061 C 
ENDROOT
BRANCH   1   3
ATOM      3  C   UNL     1      23.906  33.796  40.374  1.00  0.00     0.057 C 
BRANCH   3   4
ATOM      4  C   UNL     1      24.262  34.511  41.695  1.00  0.00     0.032 C 
BRANCH   4   5
ATOM      5  C   UNL     1      23.813  35.952  41.724  1.00  0.00    -0.028 C 
ATOM      6  C   UNL     1      22.606  37.935  42.524  1.00  0.00     0.039 C 
ATOM      7  C   UNL     1      22.918  36.462  42.598  1.00  0.00    -0.080 C 
ATOM      8  C   UNL     1      22.212  35.602  43.620  1.00  0.00     0.039 C 
ENDBRANCH   4   5
ENDBRANCH   3   4
ENDBRANCH   1   3
BRANCH   1   9
ATOM      9  C   UNL     1      22.565  31.984  39.216  1.00  0.00     0.013 C 
ATOM     10  C   UNL     1      23.464  32.014  38.223  1.00  0.00     0.008 C 
ENDBRANCH   1   9
BRANCH   1  11
ATOM     11  O   UNL     1      21.493  33.733  40.509  1.00  0.00    -0.455 OA
BRANCH  11  12
ATOM     12  C   UNL     1      20.770  34.225  39.410  1.00  0.00     0.303 C 
ATOM     13  O   UNL     1      19.751  33.624  38.976  1.00  0.00    -0.253 OA
ATOM     14  C   UNL     1      21.254  35.449  38.710  1.00  0.00     0.139 C 
ENDBRANCH  11  12
ENDBRANCH   1  11
TORSDOF 6
ENDMDL
MODEL 9
REMARK VINA RESULT:    -2.830      2.519      5.815
REMARK INTER + INTRA:          -4.443
REMARK INTER:                  -3.585
REMARK INTRA:                  -0.857
REMARK UNBOUND:                -0.620
REMARK SMILES C=C[C@@](C)(CCC=C(C)C)OC(C)=O
REMARK SMILES IDX 3 1 4 2 5 3 6 4 7 5 9 6 8 7 10 8 2 9 1 10 11 11 12 12 14 13
REMARK SMILES IDX 13 14
REMARK H PARENT
REMARK Flexibility Score: inf
ROOT
ATOM      1  C   UNL     1      20.750  33.820  39.359  1.00  0.00     0.127 C 
ATOM      2  C   UNL     1      20.811  35.056  38.435  1.00  0.00     0.061 C 
ENDROOT
BRANCH   1   3
ATOM      3  C   UNL     1      19.262  33.520  39.692  1.00  0.00     0.057 C 
BRANCH   3   4
ATOM      4  C   UNL     1      18.722  32.192  39.119  1.00  0.00     0.032 C 
BRANCH   4   5
ATOM      5  C   UNL     1      17.462  32.369  38.308  1.00  0.00    -0.028 C 
ATOM      6  C   UNL     1      16.081  32.652  36.298  1.00  0.00     0.039 C 
ATOM      7  C   UNL     1      17.425  32.530  36.967  1.00  0.00    -0.080 C 
ATOM      8  C   UNL     1      18.682  32.615  36.133  1.00  0.00     0.039 C 
ENDBRANCH   4   5
ENDBRANCH   3   4
ENDBRANCH   1   3
BRANCH   1   9
ATOM      9  C   UNL     1      21.407  32.623  38.686  1.00  0.00     0.013 C 
ATOM     10  C   UNL     1      22.122  32.720  37.557  1.00  0.00     0.008 C 
ENDBRANCH   1   9
BRANCH   1  11
ATOM     11  O   UNL     1      21.424  34.123  40.592  1.00  0.00    -0.455 OA
BRANCH  11  12
ATOM     12  C   UNL     1      22.696  34.703  40.711  1.00  0.00     0.303 C 
ATOM     13  O   UNL     1      23.741  34.040  40.472  1.00  0.00    -0.253 OA
ATOM     14  C   UNL     1      22.813  36.111  41.186  1.00  0.00     0.139 C 
ENDBRANCH  11  12
ENDBRANCH   1  11
TORSDOF 6
ENDMDL
