MODEL 1
REMARK VINA RESULT:    -7.282      0.000      0.000
REMARK INTER + INTRA:         -11.588
REMARK INTER:                 -10.050
REMARK INTRA:                  -1.538
REMARK UNBOUND:                -1.538
REMARK SMILES O=C([O-])[C@H]1O[C@@H](Oc2cc3oc(-c4ccccc4)cc(=O)c3c(O)c2O)[C@H](O)[C@@H](O)[C@@H]1O
REMARK SMILES IDX 7 1 6 2 4 3 31 4 5 5 29 6 27 7 2 8 1 9 3 10 32 11 30 13
REMARK SMILES IDX 28 15 8 17 25 18 9 19 23 20 10 21 22 22 11 23 20 24 12 25
REMARK SMILES IDX 19 26 21 27 26 28 24 30 13 32 14 33 18 34 15 35 17 36 16 37
REMARK H PARENT 32 12 30 14 28 16 26 29 24 31
REMARK Flexibility Score: inf
ROOT
ATOM      1  O   UNL     1     172.679 169.384 166.855  1.00  0.00    -0.458 OA
ENDROOT
BRANCH   1   2
ATOM      2  C   UNL     1     171.954 170.234 165.958  1.00  0.00     0.339 C 
ATOM      3  C   UNL     1     170.650 168.680 164.705  1.00  0.00     0.199 C 
ATOM      4  C   UNL     1     171.033 169.260 163.312  1.00  0.00     0.180 C 
ATOM      5  O   UNL     1     170.666 169.673 165.721  1.00  0.00    -0.328 OA
ATOM      6  C   UNL     1     171.824 170.579 163.452  1.00  0.00     0.181 C 
ATOM      7  C   UNL     1     172.768 170.513 164.662  1.00  0.00     0.214 C 
BRANCH   3   8
ATOM      8  C   UNL     1     171.437 167.451 165.108  1.00  0.00     0.073 C 
ATOM      9  O   UNL     1     172.423 167.088 164.412  1.00  0.00    -0.547 OA
ATOM     10  O   UNL     1     171.063 166.681 166.205  1.00  0.00    -0.547 OA
ENDBRANCH   3   8
BRANCH   4  11
ATOM     11  O   UNL     1     169.863 169.501 162.570  1.00  0.00    -0.387 OA
ATOM     12  H   UNL     1     169.575 170.429 162.775  1.00  0.00     0.211 HD
ENDBRANCH   4  11
BRANCH   6  13
ATOM     13  O   UNL     1     172.529 170.867 162.269  1.00  0.00    -0.387 OA
ATOM     14  H   UNL     1     172.991 170.035 161.983  1.00  0.00     0.211 HD
ENDBRANCH   6  13
BRANCH   7  15
ATOM     15  O   UNL     1     173.458 171.730 164.795  1.00  0.00    -0.384 OA
ATOM     16  H   UNL     1     174.058 171.811 164.008  1.00  0.00     0.211 HD
ENDBRANCH   7  15
ENDBRANCH   1   2
BRANCH   1  17
ATOM     17  C   UNL     1     172.700 169.489 168.257  1.00  0.00     0.172 A 
ATOM     18  C   UNL     1     171.653 169.022 169.082  1.00  0.00     0.201 A 
ATOM     19  C   UNL     1     173.835 170.058 168.834  1.00  0.00     0.098 A 
ATOM     20  C   UNL     1     171.717 169.230 170.484  1.00  0.00     0.176 A 
ATOM     21  C   UNL     1     173.932 170.225 170.214  1.00  0.00     0.146 A 
ATOM     22  C   UNL     1     172.872 169.821 171.054  1.00  0.00     0.111 A 
ATOM     23  O   UNL     1     175.029 170.777 170.722  1.00  0.00    -0.456 OA
ATOM     24  C   UNL     1     173.023 170.042 172.441  1.00  0.00     0.197 A 
ATOM     25  C   UNL     1     175.209 170.985 172.024  1.00  0.00     0.138 A 
ATOM     26  C   UNL     1     174.193 170.626 172.924  1.00  0.00     0.100 A 
ATOM     27  O   UNL     1     172.118 169.725 173.260  1.00  0.00    -0.289 OA
BRANCH  18  28
ATOM     28  O   UNL     1     170.598 168.318 168.500  1.00  0.00    -0.502 OA
ATOM     29  H   UNL     1     170.014 168.675 167.758  1.00  0.00     0.293 HD
ENDBRANCH  18  28
BRANCH  20  30
ATOM     30  O   UNL     1     170.655 168.865 171.319  1.00  0.00    -0.504 OA
ATOM     31  H   UNL     1     170.289 167.927 171.398  1.00  0.00     0.293 HD
ENDBRANCH  20  30
BRANCH  25  32
ATOM     32  C   UNL     1     176.478 171.608 172.480  1.00  0.00     0.017 A 
ATOM     33  C   UNL     1     176.458 172.505 173.566  1.00  0.00     0.012 A 
ATOM     34  C   UNL     1     177.706 171.349 171.837  1.00  0.00     0.012 A 
ATOM     35  C   UNL     1     177.638 173.109 174.010  1.00  0.00     0.001 A 
ATOM     36  C   UNL     1     178.882 171.955 172.286  1.00  0.00     0.001 A 
ATOM     37  C   UNL     1     178.850 172.832 173.373  1.00  0.00     0.000 A 
ENDBRANCH  25  32
ENDBRANCH   1  17
TORSDOF 9
ENDMDL
MODEL 2
REMARK VINA RESULT:    -7.165      4.559      8.319
REMARK INTER + INTRA:         -11.426
REMARK INTER:                 -10.252
REMARK INTRA:                  -1.174
REMARK UNBOUND:                -1.538
REMARK SMILES O=C([O-])[C@H]1O[C@@H](Oc2cc3oc(-c4ccccc4)cc(=O)c3c(O)c2O)[C@H](O)[C@@H](O)[C@@H]1O
REMARK SMILES IDX 7 1 6 2 4 3 31 4 5 5 29 6 27 7 2 8 1 9 3 10 32 11 30 13
REMARK SMILES IDX 28 15 8 17 25 18 9 19 23 20 10 21 22 22 11 23 20 24 12 25
REMARK SMILES IDX 19 26 21 27 26 28 24 30 13 32 14 33 18 34 15 35 17 36 16 37
REMARK H PARENT 32 12 30 14 28 16 26 29 24 31
REMARK Flexibility Score: inf
ROOT
ATOM      1  O   UNL     1     172.488 165.712 174.056  1.00  0.00    -0.458 OA
ENDROOT
BRANCH   1   2
ATOM      2  C   UNL     1     171.849 165.681 175.339  1.00  0.00     0.339 C 
ATOM      3  C   UNL     1     172.600 163.609 176.247  1.00  0.00     0.199 C 
ATOM      4  C   UNL     1     171.186 163.117 176.673  1.00  0.00     0.180 C 
ATOM      5  O   UNL     1     172.704 165.025 176.271  1.00  0.00    -0.328 OA
ATOM      6  C   UNL     1     170.130 164.231 176.504  1.00  0.00     0.181 C 
ATOM      7  C   UNL     1     170.425 165.063 175.246  1.00  0.00     0.214 C 
BRANCH   3   8
ATOM      8  C   UNL     1     173.093 163.031 174.937  1.00  0.00     0.073 C 
ATOM      9  O   UNL     1     172.310 162.347 174.225  1.00  0.00    -0.547 OA
ATOM     10  O   UNL     1     174.413 163.196 174.526  1.00  0.00    -0.547 OA
ENDBRANCH   3   8
BRANCH   4  11
ATOM     11  O   UNL     1     171.219 162.715 178.020  1.00  0.00    -0.387 OA
ATOM     12  H   UNL     1     171.811 161.919 178.071  1.00  0.00     0.211 HD
ENDBRANCH   4  11
BRANCH   6  13
ATOM     13  O   UNL     1     168.833 163.688 176.465  1.00  0.00    -0.387 OA
ATOM     14  H   UNL     1     168.193 164.441 176.356  1.00  0.00     0.211 HD
ENDBRANCH   6  13
BRANCH   7  15
ATOM     15  O   UNL     1     169.475 166.091 175.121  1.00  0.00    -0.384 OA
ATOM     16  H   UNL     1     168.872 166.027 175.907  1.00  0.00     0.211 HD
ENDBRANCH   7  15
ENDBRANCH   1   2
BRANCH   1  17
ATOM     17  C   UNL     1     172.615 166.837 173.224  1.00  0.00     0.172 A 
ATOM     18  C   UNL     1     171.672 167.171 172.226  1.00  0.00     0.201 A 
ATOM     19  C   UNL     1     173.720 167.662 173.435  1.00  0.00     0.098 A 
ATOM     20  C   UNL     1     171.908 168.284 171.379  1.00  0.00     0.176 A 
ATOM     21  C   UNL     1     173.940 168.785 172.640  1.00  0.00     0.146 A 
ATOM     22  C   UNL     1     173.043 169.105 171.598  1.00  0.00     0.111 A 
ATOM     23  O   UNL     1     175.009 169.541 172.873  1.00  0.00    -0.456 OA
ATOM     24  C   UNL     1     173.337 170.242 170.814  1.00  0.00     0.197 A 
ATOM     25  C   UNL     1     175.306 170.626 172.163  1.00  0.00     0.138 A 
ATOM     26  C   UNL     1     174.472 171.002 171.098  1.00  0.00     0.100 A 
ATOM     27  O   UNL     1     172.598 170.590 169.855  1.00  0.00    -0.289 OA
BRANCH  18  28
ATOM     28  O   UNL     1     170.497 166.424 172.131  1.00  0.00    -0.502 OA
ATOM     29  H   UNL     1     170.414 165.453 172.397  1.00  0.00     0.293 HD
ENDBRANCH  18  28
BRANCH  20  30
ATOM     30  O   UNL     1     171.044 168.586 170.321  1.00  0.00    -0.504 OA
ATOM     31  H   UNL     1     170.723 167.913 169.639  1.00  0.00     0.293 HD
ENDBRANCH  20  30
BRANCH  25  32
ATOM     32  C   UNL     1     176.527 171.397 172.514  1.00  0.00     0.017 A 
ATOM     33  C   UNL     1     176.456 172.395 173.505  1.00  0.00     0.012 A 
ATOM     34  C   UNL     1     177.757 171.178 171.859  1.00  0.00     0.012 A 
ATOM     35  C   UNL     1     177.589 173.138 173.849  1.00  0.00     0.001 A 
ATOM     36  C   UNL     1     178.887 171.923 172.208  1.00  0.00     0.001 A 
ATOM     37  C   UNL     1     178.805 172.900 173.203  1.00  0.00     0.000 A 
ENDBRANCH  25  32
ENDBRANCH   1  17
TORSDOF 9
ENDMDL
MODEL 3
REMARK VINA RESULT:    -7.162      1.043      2.313
REMARK INTER + INTRA:         -11.421
REMARK INTER:                 -10.183
REMARK INTRA:                  -1.238
REMARK UNBOUND:                -1.538
REMARK SMILES O=C([O-])[C@H]1O[C@@H](Oc2cc3oc(-c4ccccc4)cc(=O)c3c(O)c2O)[C@H](O)[C@@H](O)[C@@H]1O
REMARK SMILES IDX 7 1 6 2 4 3 31 4 5 5 29 6 27 7 2 8 1 9 3 10 32 11 30 13
REMARK SMILES IDX 28 15 8 17 25 18 9 19 23 20 10 21 22 22 11 23 20 24 12 25
REMARK SMILES IDX 19 26 21 27 26 28 24 30 13 32 14 33 18 34 15 35 17 36 16 37
REMARK H PARENT 32 12 30 14 28 16 26 29 24 31
REMARK Flexibility Score: inf
ROOT
ATOM      1  O   UNL     1     171.862 169.772 167.413  1.00  0.00    -0.458 OA
ENDROOT
BRANCH   1   2
ATOM      2  C   UNL     1     172.068 168.733 166.448  1.00  0.00     0.339 C 
ATOM      3  C   UNL     1     172.845 169.935 164.541  1.00  0.00     0.199 C 
ATOM      4  C   UNL     1     171.863 169.263 163.537  1.00  0.00     0.180 C 
ATOM      5  O   UNL     1     173.177 169.074 165.622  1.00  0.00    -0.328 OA
ATOM      6  C   UNL     1     171.099 168.094 164.196  1.00  0.00     0.181 C 
ATOM      7  C   UNL     1     170.763 168.429 165.657  1.00  0.00     0.214 C 
BRANCH   3   8
ATOM      8  C   UNL     1     172.405 171.301 165.025  1.00  0.00     0.073 C 
ATOM      9  O   UNL     1     171.264 171.733 164.714  1.00  0.00    -0.547 OA
ATOM     10  O   UNL     1     173.259 172.114 165.765  1.00  0.00    -0.547 OA
ENDBRANCH   3   8
BRANCH   4  11
ATOM     11  O   UNL     1     172.586 168.777 162.434  1.00  0.00    -0.387 OA
ATOM     12  H   UNL     1     171.950 168.715 161.674  1.00  0.00     0.211 HD
ENDBRANCH   4  11
BRANCH   6  13
ATOM     13  O   UNL     1     169.940 167.779 163.465  1.00  0.00    -0.387 OA
ATOM     14  H   UNL     1     169.480 167.033 163.933  1.00  0.00     0.211 HD
ENDBRANCH   6  13
BRANCH   7  15
ATOM     15  O   UNL     1     170.095 167.345 166.254  1.00  0.00    -0.384 OA
ATOM     16  H   UNL     1     170.767 166.625 166.381  1.00  0.00     0.211 HD
ENDBRANCH   7  15
ENDBRANCH   1   2
BRANCH   1  17
ATOM     17  C   UNL     1     172.129 169.686 168.790  1.00  0.00     0.172 A 
ATOM     18  C   UNL     1     171.285 169.011 169.699  1.00  0.00     0.201 A 
ATOM     19  C   UNL     1     173.305 170.279 169.247  1.00  0.00     0.098 A 
ATOM     20  C   UNL     1     171.586 169.029 171.086  1.00  0.00     0.176 A 
ATOM     21  C   UNL     1     173.638 170.265 170.600  1.00  0.00     0.146 A 
ATOM     22  C   UNL     1     172.780 169.648 171.536  1.00  0.00     0.111 A 
ATOM     23  O   UNL     1     174.767 170.847 170.993  1.00  0.00    -0.456 OA
ATOM     24  C   UNL     1     173.163 169.690 172.894  1.00  0.00     0.197 A 
ATOM     25  C   UNL     1     175.164 170.891 172.263  1.00  0.00     0.138 A 
ATOM     26  C   UNL     1     174.357 170.314 173.256  1.00  0.00     0.100 A 
ATOM     27  O   UNL     1     172.448 169.177 173.797  1.00  0.00    -0.289 OA
BRANCH  18  28
ATOM     28  O   UNL     1     170.195 168.292 169.204  1.00  0.00    -0.502 OA
ATOM     29  H   UNL     1     169.336 168.711 168.879  1.00  0.00     0.293 HD
ENDBRANCH  18  28
BRANCH  20  30
ATOM     30  O   UNL     1     170.723 168.452 172.023  1.00  0.00    -0.504 OA
ATOM     31  H   UNL     1     169.958 167.836 171.787  1.00  0.00     0.293 HD
ENDBRANCH  20  30
BRANCH  25  32
ATOM     32  C   UNL     1     176.446 171.567 172.587  1.00  0.00     0.017 A 
ATOM     33  C   UNL     1     176.481 172.529 173.615  1.00  0.00     0.012 A 
ATOM     34  C   UNL     1     177.631 171.294 171.874  1.00  0.00     0.012 A 
ATOM     35  C   UNL     1     177.674 173.184 173.936  1.00  0.00     0.001 A 
ATOM     36  C   UNL     1     178.821 171.951 172.199  1.00  0.00     0.001 A 
ATOM     37  C   UNL     1     178.844 172.893 173.231  1.00  0.00     0.000 A 
ENDBRANCH  25  32
ENDBRANCH   1  17
TORSDOF 9
ENDMDL
MODEL 4
REMARK VINA RESULT:    -7.136      5.051      6.291
REMARK INTER + INTRA:         -11.385
REMARK INTER:                  -9.873
REMARK INTRA:                  -1.512
REMARK UNBOUND:                -1.538
REMARK SMILES O=C([O-])[C@H]1O[C@@H](Oc2cc3oc(-c4ccccc4)cc(=O)c3c(O)c2O)[C@H](O)[C@@H](O)[C@@H]1O
REMARK SMILES IDX 7 1 6 2 4 3 31 4 5 5 29 6 27 7 2 8 1 9 3 10 32 11 30 13
REMARK SMILES IDX 28 15 8 17 25 18 9 19 23 20 10 21 22 22 11 23 20 24 12 25
REMARK SMILES IDX 19 26 21 27 26 28 24 30 13 32 14 33 18 34 15 35 17 36 16 37
REMARK H PARENT 32 12 30 14 28 16 26 29 24 31
REMARK Flexibility Score: inf
ROOT
ATOM      1  O   UNL     1     176.125 164.907 169.231  1.00  0.00    -0.458 OA
ENDROOT
BRANCH   1   2
ATOM      2  C   UNL     1     176.917 164.469 168.120  1.00  0.00     0.339 C 
ATOM      3  C   UNL     1     175.784 162.493 167.417  1.00  0.00     0.199 C 
ATOM      4  C   UNL     1     177.062 161.606 167.360  1.00  0.00     0.180 C 
ATOM      5  O   UNL     1     176.068 163.859 167.152  1.00  0.00    -0.328 OA
ATOM      6  C   UNL     1     178.339 162.450 167.558  1.00  0.00     0.181 C 
ATOM      7  C   UNL     1     178.092 163.564 168.587  1.00  0.00     0.214 C 
BRANCH   3   8
ATOM      8  C   UNL     1     174.962 162.324 168.678  1.00  0.00     0.073 C 
ATOM      9  O   UNL     1     175.432 161.662 169.642  1.00  0.00    -0.547 OA
ATOM     10  O   UNL     1     173.674 162.841 168.775  1.00  0.00    -0.547 OA
ENDBRANCH   3   8
BRANCH   4  11
ATOM     11  O   UNL     1     177.125 160.960 166.112  1.00  0.00    -0.387 OA
ATOM     12  H   UNL     1     177.196 159.986 166.293  1.00  0.00     0.211 HD
ENDBRANCH   4  11
BRANCH   6  13
ATOM     13  O   UNL     1     179.423 161.636 167.936  1.00  0.00    -0.387 OA
ATOM     14  H   UNL     1     180.026 162.182 168.507  1.00  0.00     0.211 HD
ENDBRANCH   6  13
BRANCH   7  15
ATOM     15  O   UNL     1     179.253 164.343 168.735  1.00  0.00    -0.384 OA
ATOM     16  H   UNL     1     179.084 164.977 169.480  1.00  0.00     0.211 HD
ENDBRANCH   7  15
ENDBRANCH   1   2
BRANCH   1  17
ATOM     17  C   UNL     1     175.528 166.172 169.372  1.00  0.00     0.172 A 
ATOM     18  C   UNL     1     174.296 166.516 168.772  1.00  0.00     0.201 A 
ATOM     19  C   UNL     1     176.192 167.102 170.171  1.00  0.00     0.098 A 
ATOM     20  C   UNL     1     173.794 167.837 168.903  1.00  0.00     0.176 A 
ATOM     21  C   UNL     1     175.687 168.389 170.346  1.00  0.00     0.146 A 
ATOM     22  C   UNL     1     174.488 168.774 169.709  1.00  0.00     0.111 A 
ATOM     23  O   UNL     1     176.355 169.245 171.113  1.00  0.00    -0.456 OA
ATOM     24  C   UNL     1     174.044 170.100 169.908  1.00  0.00     0.197 A 
ATOM     25  C   UNL     1     175.956 170.496 171.333  1.00  0.00     0.138 A 
ATOM     26  C   UNL     1     174.782 170.961 170.721  1.00  0.00     0.100 A 
ATOM     27  O   UNL     1     172.992 170.531 169.364  1.00  0.00    -0.289 OA
BRANCH  18  28
ATOM     28  O   UNL     1     173.571 165.528 168.105  1.00  0.00    -0.502 OA
ATOM     29  H   UNL     1     172.627 165.644 167.765  1.00  0.00     0.293 HD
ENDBRANCH  18  28
BRANCH  20  30
ATOM     30  O   UNL     1     172.626 168.237 168.245  1.00  0.00    -0.504 OA
ATOM     31  H   UNL     1     172.071 169.037 168.509  1.00  0.00     0.293 HD
ENDBRANCH  20  30
BRANCH  25  32
ATOM     32  C   UNL     1     176.782 171.365 172.210  1.00  0.00     0.017 A 
ATOM     33  C   UNL     1     176.931 172.729 171.891  1.00  0.00     0.012 A 
ATOM     34  C   UNL     1     177.449 170.858 173.345  1.00  0.00     0.012 A 
ATOM     35  C   UNL     1     177.707 173.567 172.697  1.00  0.00     0.001 A 
ATOM     36  C   UNL     1     178.223 171.700 174.147  1.00  0.00     0.001 A 
ATOM     37  C   UNL     1     178.350 173.054 173.826  1.00  0.00     0.000 A 
ENDBRANCH  25  32
ENDBRANCH   1  17
TORSDOF 9
ENDMDL
MODEL 5
REMARK VINA RESULT:    -7.123      5.416      8.896
REMARK INTER + INTRA:         -11.368
REMARK INTER:                  -9.924
REMARK INTRA:                  -1.444
REMARK UNBOUND:                -1.538
REMARK SMILES O=C([O-])[C@H]1O[C@@H](Oc2cc3oc(-c4ccccc4)cc(=O)c3c(O)c2O)[C@H](O)[C@@H](O)[C@@H]1O
REMARK SMILES IDX 7 1 6 2 4 3 31 4 5 5 29 6 27 7 2 8 1 9 3 10 32 11 30 13
REMARK SMILES IDX 28 15 8 17 25 18 9 19 23 20 10 21 22 22 11 23 20 24 12 25
REMARK SMILES IDX 19 26 21 27 26 28 24 30 13 32 14 33 18 34 15 35 17 36 16 37
REMARK H PARENT 32 12 30 14 28 16 26 29 24 31
REMARK Flexibility Score: inf
ROOT
ATOM      1  O   UNL     1     173.189 165.077 174.251  1.00  0.00    -0.458 OA
ENDROOT
BRANCH   1   2
ATOM      2  C   UNL     1     173.700 164.053 175.113  1.00  0.00     0.339 C 
ATOM      3  C   UNL     1     172.227 162.227 174.687  1.00  0.00     0.199 C 
ATOM      4  C   UNL     1     171.944 161.917 176.187  1.00  0.00     0.180 C 
ATOM      5  O   UNL     1     173.519 162.784 174.491  1.00  0.00    -0.328 OA
ATOM      6  C   UNL     1     172.862 162.744 177.113  1.00  0.00     0.181 C 
ATOM      7  C   UNL     1     173.080 164.151 176.536  1.00  0.00     0.214 C 
BRANCH   3   8
ATOM      8  C   UNL     1     171.152 163.046 174.005  1.00  0.00     0.073 C 
ATOM      9  O   UNL     1     171.120 163.105 172.747  1.00  0.00    -0.547 OA
ATOM     10  O   UNL     1     170.228 163.782 174.741  1.00  0.00    -0.547 OA
ENDBRANCH   3   8
BRANCH   4  11
ATOM     11  O   UNL     1     172.158 160.548 176.427  1.00  0.00    -0.387 OA
ATOM     12  H   UNL     1     171.675 160.322 177.265  1.00  0.00     0.211 HD
ENDBRANCH   4  11
BRANCH   6  13
ATOM     13  O   UNL     1     172.335 162.802 178.416  1.00  0.00    -0.387 OA
ATOM     14  H   UNL     1     172.876 162.195 178.988  1.00  0.00     0.211 HD
ENDBRANCH   6  13
BRANCH   7  15
ATOM     15  O   UNL     1     173.941 164.881 177.373  1.00  0.00    -0.384 OA
ATOM     16  H   UNL     1     173.412 165.634 177.748  1.00  0.00     0.211 HD
ENDBRANCH   7  15
ENDBRANCH   1   2
BRANCH   1  17
ATOM     17  C   UNL     1     173.899 165.725 173.226  1.00  0.00     0.172 A 
ATOM     18  C   UNL     1     174.070 165.174 171.937  1.00  0.00     0.201 A 
ATOM     19  C   UNL     1     174.424 166.984 173.516  1.00  0.00     0.098 A 
ATOM     20  C   UNL     1     174.862 165.858 170.979  1.00  0.00     0.176 A 
ATOM     21  C   UNL     1     175.165 167.688 172.568  1.00  0.00     0.146 A 
ATOM     22  C   UNL     1     175.399 167.131 171.293  1.00  0.00     0.111 A 
ATOM     23  O   UNL     1     175.651 168.884 172.888  1.00  0.00    -0.456 OA
ATOM     24  C   UNL     1     176.178 167.886 170.388  1.00  0.00     0.197 A 
ATOM     25  C   UNL     1     176.375 169.627 172.054  1.00  0.00     0.138 A 
ATOM     26  C   UNL     1     176.667 169.135 170.772  1.00  0.00     0.100 A 
ATOM     27  O   UNL     1     176.448 167.456 169.234  1.00  0.00    -0.289 OA
BRANCH  18  28
ATOM     28  O   UNL     1     173.409 163.987 171.617  1.00  0.00    -0.502 OA
ATOM     29  H   UNL     1     173.066 163.324 172.297  1.00  0.00     0.293 HD
ENDBRANCH  18  28
BRANCH  20  30
ATOM     30  O   UNL     1     175.130 165.296 169.726  1.00  0.00    -0.504 OA
ATOM     31  H   UNL     1     175.950 165.502 169.173  1.00  0.00     0.293 HD
ENDBRANCH  20  30
BRANCH  25  32
ATOM     32  C   UNL     1     176.866 170.949 172.518  1.00  0.00     0.017 A 
ATOM     33  C   UNL     1     178.143 171.393 172.121  1.00  0.00     0.012 A 
ATOM     34  C   UNL     1     176.100 171.768 173.374  1.00  0.00     0.012 A 
ATOM     35  C   UNL     1     178.630 172.632 172.549  1.00  0.00     0.001 A 
ATOM     36  C   UNL     1     176.592 173.006 173.797  1.00  0.00     0.001 A 
ATOM     37  C   UNL     1     177.854 173.439 173.383  1.00  0.00     0.000 A 
ENDBRANCH  25  32
ENDBRANCH   1  17
TORSDOF 9
ENDMDL
MODEL 6
REMARK VINA RESULT:    -7.122      2.302      2.932
REMARK INTER + INTRA:         -11.366
REMARK INTER:                 -10.162
REMARK INTRA:                  -1.205
REMARK UNBOUND:                -1.538
REMARK SMILES O=C([O-])[C@H]1O[C@@H](Oc2cc3oc(-c4ccccc4)cc(=O)c3c(O)c2O)[C@H](O)[C@@H](O)[C@@H]1O
REMARK SMILES IDX 7 1 6 2 4 3 31 4 5 5 29 6 27 7 2 8 1 9 3 10 32 11 30 13
REMARK SMILES IDX 28 15 8 17 25 18 9 19 23 20 10 21 22 22 11 23 20 24 12 25
REMARK SMILES IDX 19 26 21 27 26 28 24 30 13 32 14 33 18 34 15 35 17 36 16 37
REMARK H PARENT 32 12 30 14 28 16 26 29 24 31
REMARK Flexibility Score: inf
ROOT
ATOM      1  O   UNL     1     173.165 168.342 166.979  1.00  0.00    -0.458 OA
ENDROOT
BRANCH   1   2
ATOM      2  C   UNL     1     173.823 168.300 165.707  1.00  0.00     0.339 C 
ATOM      3  C   UNL     1     172.293 169.452 164.288  1.00  0.00     0.199 C 
ATOM      4  C   UNL     1     172.289 168.368 163.170  1.00  0.00     0.180 C 
ATOM      5  O   UNL     1     173.528 169.494 164.987  1.00  0.00    -0.328 OA
ATOM      6  C   UNL     1     173.363 167.290 163.430  1.00  0.00     0.181 C 
ATOM      7  C   UNL     1     173.475 166.996 164.933  1.00  0.00     0.214 C 
BRANCH   3   8
ATOM      8  C   UNL     1     171.113 169.378 165.233  1.00  0.00     0.073 C 
ATOM      9  O   UNL     1     170.317 168.404 165.160  1.00  0.00    -0.547 OA
ATOM     10  O   UNL     1     170.858 170.394 166.150  1.00  0.00    -0.547 OA
ENDBRANCH   3   8
BRANCH   4  11
ATOM     11  O   UNL     1     172.540 168.979 161.928  1.00  0.00    -0.387 OA
ATOM     12  H   UNL     1     171.988 169.804 161.894  1.00  0.00     0.211 HD
ENDBRANCH   4  11
BRANCH   6  13
ATOM     13  O   UNL     1     173.084 166.121 162.700  1.00  0.00    -0.387 OA
ATOM     14  H   UNL     1     173.950 165.747 162.385  1.00  0.00     0.211 HD
ENDBRANCH   6  13
BRANCH   7  15
ATOM     15  O   UNL     1     174.477 166.036 165.158  1.00  0.00    -0.384 OA
ATOM     16  H   UNL     1     175.349 166.485 165.005  1.00  0.00     0.211 HD
ENDBRANCH   7  15
ENDBRANCH   1   2
BRANCH   1  17
ATOM     17  C   UNL     1     173.754 168.059 168.223  1.00  0.00     0.172 A 
ATOM     18  C   UNL     1     173.709 166.783 168.826  1.00  0.00     0.201 A 
ATOM     19  C   UNL     1     174.432 169.101 168.856  1.00  0.00     0.098 A 
ATOM     20  C   UNL     1     174.266 166.595 170.118  1.00  0.00     0.176 A 
ATOM     21  C   UNL     1     175.024 168.918 170.104  1.00  0.00     0.146 A 
ATOM     22  C   UNL     1     174.942 167.667 170.753  1.00  0.00     0.111 A 
ATOM     23  O   UNL     1     175.657 169.940 170.673  1.00  0.00    -0.456 OA
ATOM     24  C   UNL     1     175.542 167.556 172.027  1.00  0.00     0.197 A 
ATOM     25  C   UNL     1     176.246 169.863 171.865  1.00  0.00     0.138 A 
ATOM     26  C   UNL     1     176.193 168.658 172.583  1.00  0.00     0.100 A 
ATOM     27  O   UNL     1     175.501 166.480 172.683  1.00  0.00    -0.289 OA
BRANCH  18  28
ATOM     28  O   UNL     1     173.162 165.717 168.111  1.00  0.00    -0.502 OA
ATOM     29  H   UNL     1     173.685 164.914 167.795  1.00  0.00     0.293 HD
ENDBRANCH  18  28
BRANCH  20  30
ATOM     30  O   UNL     1     174.157 165.370 170.783  1.00  0.00    -0.504 OA
ATOM     31  H   UNL     1     174.602 164.516 170.479  1.00  0.00     0.293 HD
ENDBRANCH  20  30
BRANCH  25  32
ATOM     32  C   UNL     1     176.926 171.068 172.404  1.00  0.00     0.017 A 
ATOM     33  C   UNL     1     177.724 170.955 173.559  1.00  0.00     0.012 A 
ATOM     34  C   UNL     1     176.773 172.338 171.807  1.00  0.00     0.012 A 
ATOM     35  C   UNL     1     178.370 172.076 174.089  1.00  0.00     0.001 A 
ATOM     36  C   UNL     1     177.423 173.454 172.341  1.00  0.00     0.001 A 
ATOM     37  C   UNL     1     178.223 173.324 173.479  1.00  0.00     0.000 A 
ENDBRANCH  25  32
ENDBRANCH   1  17
TORSDOF 9
ENDMDL
MODEL 7
REMARK VINA RESULT:    -7.084      5.544      6.964
REMARK INTER + INTRA:         -11.315
REMARK INTER:                 -10.150
REMARK INTRA:                  -1.165
REMARK UNBOUND:                -1.538
REMARK SMILES O=C([O-])[C@H]1O[C@@H](Oc2cc3oc(-c4ccccc4)cc(=O)c3c(O)c2O)[C@H](O)[C@@H](O)[C@@H]1O
REMARK SMILES IDX 7 1 6 2 4 3 31 4 5 5 29 6 27 7 2 8 1 9 3 10 32 11 30 13
REMARK SMILES IDX 28 15 8 17 25 18 9 19 23 20 10 21 22 22 11 23 20 24 12 25
REMARK SMILES IDX 19 26 21 27 26 28 24 30 13 32 14 33 18 34 15 35 17 36 16 37
REMARK H PARENT 32 12 30 14 28 16 26 29 24 31
REMARK Flexibility Score: inf
ROOT
ATOM      1  O   UNL     1     175.729 164.566 169.883  1.00  0.00    -0.458 OA
ENDROOT
BRANCH   1   2
ATOM      2  C   UNL     1     176.623 163.539 170.328  1.00  0.00     0.339 C 
ATOM      3  C   UNL     1     177.541 162.723 168.285  1.00  0.00     0.199 C 
ATOM      4  C   UNL     1     177.293 161.220 168.605  1.00  0.00     0.180 C 
ATOM      5  O   UNL     1     177.752 163.493 169.460  1.00  0.00    -0.328 OA
ATOM      6  C   UNL     1     176.819 161.028 170.062  1.00  0.00     0.181 C 
ATOM      7  C   UNL     1     175.889 162.176 170.480  1.00  0.00     0.214 C 
BRANCH   3   8
ATOM      8  C   UNL     1     176.499 163.349 167.382  1.00  0.00     0.073 C 
ATOM      9  O   UNL     1     175.475 162.688 167.062  1.00  0.00    -0.547 OA
ATOM     10  O   UNL     1     176.674 164.625 166.854  1.00  0.00    -0.547 OA
ENDBRANCH   3   8
BRANCH   4  11
ATOM     11  O   UNL     1     178.484 160.499 168.409  1.00  0.00    -0.387 OA
ATOM     12  H   UNL     1     178.884 160.824 167.560  1.00  0.00     0.211 HD
ENDBRANCH   4  11
BRANCH   6  13
ATOM     13  O   UNL     1     176.193 159.778 170.223  1.00  0.00    -0.387 OA
ATOM     14  H   UNL     1     176.637 159.313 170.980  1.00  0.00     0.211 HD
ENDBRANCH   6  13
BRANCH   7  15
ATOM     15  O   UNL     1     175.489 162.005 171.816  1.00  0.00    -0.384 OA
ATOM     16  H   UNL     1     174.499 161.935 171.817  1.00  0.00     0.211 HD
ENDBRANCH   7  15
ENDBRANCH   1   2
BRANCH   1  17
ATOM     17  C   UNL     1     175.153 165.565 170.687  1.00  0.00     0.172 A 
ATOM     18  C   UNL     1     173.887 165.430 171.299  1.00  0.00     0.201 A 
ATOM     19  C   UNL     1     175.904 166.722 170.897  1.00  0.00     0.098 A 
ATOM     20  C   UNL     1     173.344 166.513 172.037  1.00  0.00     0.176 A 
ATOM     21  C   UNL     1     175.401 167.775 171.658  1.00  0.00     0.146 A 
ATOM     22  C   UNL     1     174.114 167.687 172.231  1.00  0.00     0.111 A 
ATOM     23  O   UNL     1     176.148 168.862 171.829  1.00  0.00    -0.456 OA
ATOM     24  C   UNL     1     173.655 168.799 172.970  1.00  0.00     0.197 A 
ATOM     25  C   UNL     1     175.752 169.920 172.532  1.00  0.00     0.138 A 
ATOM     26  C   UNL     1     174.476 169.917 173.119  1.00  0.00     0.100 A 
ATOM     27  O   UNL     1     172.512 168.810 173.502  1.00  0.00    -0.289 OA
BRANCH  18  28
ATOM     28  O   UNL     1     173.219 164.208 171.206  1.00  0.00    -0.502 OA
ATOM     29  H   UNL     1     172.607 163.837 171.918  1.00  0.00     0.293 HD
ENDBRANCH  18  28
BRANCH  20  30
ATOM     30  O   UNL     1     172.054 166.448 172.576  1.00  0.00    -0.504 OA
ATOM     31  H   UNL     1     171.664 165.628 173.018  1.00  0.00     0.293 HD
ENDBRANCH  20  30
BRANCH  25  32
ATOM     32  C   UNL     1     176.671 171.080 172.658  1.00  0.00     0.017 A 
ATOM     33  C   UNL     1     177.704 171.045 173.614  1.00  0.00     0.012 A 
ATOM     34  C   UNL     1     176.522 172.235 171.862  1.00  0.00     0.012 A 
ATOM     35  C   UNL     1     178.579 172.127 173.755  1.00  0.00     0.001 A 
ATOM     36  C   UNL     1     177.399 173.313 172.007  1.00  0.00     0.001 A 
ATOM     37  C   UNL     1     178.429 173.259 172.950  1.00  0.00     0.000 A 
ENDBRANCH  25  32
ENDBRANCH   1  17
TORSDOF 9
ENDMDL
MODEL 8
REMARK VINA RESULT:    -7.042      3.474      5.555
REMARK INTER + INTRA:         -11.256
REMARK INTER:                 -10.050
REMARK INTRA:                  -1.206
REMARK UNBOUND:                -1.538
REMARK SMILES O=C([O-])[C@H]1O[C@@H](Oc2cc3oc(-c4ccccc4)cc(=O)c3c(O)c2O)[C@H](O)[C@@H](O)[C@@H]1O
REMARK SMILES IDX 7 1 6 2 4 3 31 4 5 5 29 6 27 7 2 8 1 9 3 10 32 11 30 13
REMARK SMILES IDX 28 15 8 17 25 18 9 19 23 20 10 21 22 22 11 23 20 24 12 25
REMARK SMILES IDX 19 26 21 27 26 28 24 30 13 32 14 33 18 34 15 35 17 36 16 37
REMARK H PARENT 32 12 30 14 28 16 26 29 24 31
REMARK Flexibility Score: inf
ROOT
ATOM      1  O   UNL     1     169.930 169.281 171.232  1.00  0.00    -0.458 OA
ENDROOT
BRANCH   1   2
ATOM      2  C   UNL     1     169.014 170.266 170.738  1.00  0.00     0.339 C 
ATOM      3  C   UNL     1     167.222 170.148 172.306  1.00  0.00     0.199 C 
ATOM      4  C   UNL     1     166.098 170.052 171.233  1.00  0.00     0.180 C 
ATOM      5  O   UNL     1     168.347 170.879 171.838  1.00  0.00    -0.328 OA
ATOM      6  C   UNL     1     166.656 170.286 169.813  1.00  0.00     0.181 C 
ATOM      7  C   UNL     1     168.053 169.662 169.676  1.00  0.00     0.214 C 
BRANCH   3   8
ATOM      8  C   UNL     1     167.626 168.819 172.909  1.00  0.00     0.073 C 
ATOM      9  O   UNL     1     167.142 167.753 172.444  1.00  0.00    -0.547 OA
ATOM     10  O   UNL     1     168.484 168.753 174.003  1.00  0.00    -0.547 OA
ENDBRANCH   3   8
BRANCH   4  11
ATOM     11  O   UNL     1     165.111 171.016 171.506  1.00  0.00    -0.387 OA
ATOM     12  H   UNL     1     164.834 170.889 172.451  1.00  0.00     0.211 HD
ENDBRANCH   4  11
BRANCH   6  13
ATOM     13  O   UNL     1     165.773 169.784 168.840  1.00  0.00    -0.387 OA
ATOM     14  H   UNL     1     164.906 170.256 168.947  1.00  0.00     0.211 HD
ENDBRANCH   6  13
BRANCH   7  15
ATOM     15  O   UNL     1     168.561 169.908 168.389  1.00  0.00    -0.384 OA
ATOM     16  H   UNL     1     167.946 170.554 167.952  1.00  0.00     0.211 HD
ENDBRANCH   7  15
ENDBRANCH   1   2
BRANCH   1  17
ATOM     17  C   UNL     1     171.257 169.100 170.806  1.00  0.00     0.172 A 
ATOM     18  C   UNL     1     171.623 168.196 169.784  1.00  0.00     0.201 A 
ATOM     19  C   UNL     1     172.234 169.884 171.420  1.00  0.00     0.098 A 
ATOM     20  C   UNL     1     172.993 168.018 169.461  1.00  0.00     0.176 A 
ATOM     21  C   UNL     1     173.578 169.753 171.079  1.00  0.00     0.146 A 
ATOM     22  C   UNL     1     173.975 168.814 170.102  1.00  0.00     0.111 A 
ATOM     23  O   UNL     1     174.477 170.517 171.692  1.00  0.00    -0.456 OA
ATOM     24  C   UNL     1     175.356 168.714 169.821  1.00  0.00     0.197 A 
ATOM     25  C   UNL     1     175.782 170.458 171.440  1.00  0.00     0.138 A 
ATOM     26  C   UNL     1     176.259 169.537 170.493  1.00  0.00     0.100 A 
ATOM     27  O   UNL     1     175.797 167.890 168.974  1.00  0.00    -0.289 OA
BRANCH  18  28
ATOM     28  O   UNL     1     170.619 167.534 169.077  1.00  0.00    -0.502 OA
ATOM     29  H   UNL     1     170.689 167.263 168.107  1.00  0.00     0.293 HD
ENDBRANCH  18  28
BRANCH  20  30
ATOM     30  O   UNL     1     173.398 167.064 168.521  1.00  0.00    -0.504 OA
ATOM     31  H   UNL     1     172.815 166.307 168.193  1.00  0.00     0.293 HD
ENDBRANCH  20  30
BRANCH  25  32
ATOM     32  C   UNL     1     176.696 171.361 172.185  1.00  0.00     0.017 A 
ATOM     33  C   UNL     1     178.066 171.385 171.858  1.00  0.00     0.012 A 
ATOM     34  C   UNL     1     176.235 172.181 173.236  1.00  0.00     0.012 A 
ATOM     35  C   UNL     1     178.947 172.223 172.549  1.00  0.00     0.001 A 
ATOM     36  C   UNL     1     177.121 173.017 173.922  1.00  0.00     0.001 A 
ATOM     37  C   UNL     1     178.475 173.041 173.578  1.00  0.00     0.000 A 
ENDBRANCH  25  32
ENDBRANCH   1  17
TORSDOF 9
ENDMDL
MODEL 9
REMARK VINA RESULT:    -7.007      5.202      8.515
REMARK INTER + INTRA:         -11.208
REMARK INTER:                 -10.112
REMARK INTRA:                  -1.096
REMARK UNBOUND:                -1.538
REMARK SMILES O=C([O-])[C@H]1O[C@@H](Oc2cc3oc(-c4ccccc4)cc(=O)c3c(O)c2O)[C@H](O)[C@@H](O)[C@@H]1O
REMARK SMILES IDX 7 1 6 2 4 3 31 4 5 5 29 6 27 7 2 8 1 9 3 10 32 11 30 13
REMARK SMILES IDX 28 15 8 17 25 18 9 19 23 20 10 21 22 22 11 23 20 24 12 25
REMARK SMILES IDX 19 26 21 27 26 28 24 30 13 32 14 33 18 34 15 35 17 36 16 37
REMARK H PARENT 32 12 30 14 28 16 26 29 24 31
REMARK Flexibility Score: inf
ROOT
ATOM      1  O   UNL     1     173.902 165.129 174.538  1.00  0.00    -0.458 OA
ENDROOT
BRANCH   1   2
ATOM      2  C   UNL     1     172.828 165.556 175.386  1.00  0.00     0.339 C 
ATOM      3  C   UNL     1     172.316 163.580 176.616  1.00  0.00     0.199 C 
ATOM      4  C   UNL     1     170.781 163.648 176.367  1.00  0.00     0.180 C 
ATOM      5  O   UNL     1     172.913 164.868 176.631  1.00  0.00    -0.328 OA
ATOM      6  C   UNL     1     170.381 164.977 175.690  1.00  0.00     0.181 C 
ATOM      7  C   UNL     1     171.453 165.406 174.676  1.00  0.00     0.214 C 
BRANCH   3   8
ATOM      8  C   UNL     1     173.056 162.627 175.701  1.00  0.00     0.073 C 
ATOM      9  O   UNL     1     174.268 162.365 175.926  1.00  0.00    -0.547 OA
ATOM     10  O   UNL     1     172.439 162.074 174.583  1.00  0.00    -0.547 OA
ENDBRANCH   3   8
BRANCH   4  11
ATOM     11  O   UNL     1     170.104 163.534 177.594  1.00  0.00    -0.387 OA
ATOM     12  H   UNL     1     170.399 162.682 178.011  1.00  0.00     0.211 HD
ENDBRANCH   4  11
BRANCH   6  13
ATOM     13  O   UNL     1     169.117 164.868 175.082  1.00  0.00    -0.387 OA
ATOM     14  H   UNL     1     169.241 164.415 174.206  1.00  0.00     0.211 HD
ENDBRANCH   6  13
BRANCH   7  15
ATOM     15  O   UNL     1     171.091 166.631 174.090  1.00  0.00    -0.384 OA
ATOM     16  H   UNL     1     171.173 167.326 174.795  1.00  0.00     0.211 HD
ENDBRANCH   7  15
ENDBRANCH   1   2
BRANCH   1  17
ATOM     17  C   UNL     1     174.412 165.834 173.434  1.00  0.00     0.172 A 
ATOM     18  C   UNL     1     174.364 165.339 172.112  1.00  0.00     0.201 A 
ATOM     19  C   UNL     1     174.960 167.092 173.683  1.00  0.00     0.098 A 
ATOM     20  C   UNL     1     174.965 166.078 171.062  1.00  0.00     0.176 A 
ATOM     21  C   UNL     1     175.513 167.850 172.653  1.00  0.00     0.146 A 
ATOM     22  C   UNL     1     175.530 167.350 171.333  1.00  0.00     0.111 A 
ATOM     23  O   UNL     1     176.030 169.042 172.935  1.00  0.00    -0.456 OA
ATOM     24  C   UNL     1     176.127 168.158 170.340  1.00  0.00     0.197 A 
ATOM     25  C   UNL     1     176.586 169.834 172.020  1.00  0.00     0.138 A 
ATOM     26  C   UNL     1     176.657 169.401 170.687  1.00  0.00     0.100 A 
ATOM     27  O   UNL     1     176.198 167.781 169.139  1.00  0.00    -0.289 OA
BRANCH  18  28
ATOM     28  O   UNL     1     173.675 164.151 171.861  1.00  0.00    -0.502 OA
ATOM     29  H   UNL     1     172.670 164.062 171.867  1.00  0.00     0.293 HD
ENDBRANCH  18  28
BRANCH  20  30
ATOM     30  O   UNL     1     175.019 165.573 169.758  1.00  0.00    -0.504 OA
ATOM     31  H   UNL     1     174.348 164.924 169.372  1.00  0.00     0.293 HD
ENDBRANCH  20  30
BRANCH  25  32
ATOM     32  C   UNL     1     177.131 171.148 172.449  1.00  0.00     0.017 A 
ATOM     33  C   UNL     1     177.910 171.226 173.619  1.00  0.00     0.012 A 
ATOM     34  C   UNL     1     176.866 172.332 171.730  1.00  0.00     0.012 A 
ATOM     35  C   UNL     1     178.429 172.452 174.046  1.00  0.00     0.001 A 
ATOM     36  C   UNL     1     177.388 173.554 172.161  1.00  0.00     0.001 A 
ATOM     37  C   UNL     1     178.172 173.615 173.316  1.00  0.00     0.000 A 
ENDBRANCH  25  32
ENDBRANCH   1  17
TORSDOF 9
ENDMDL
