MODEL 1
REMARK VINA RESULT:    -1.937      0.000      0.000
REMARK INTER + INTRA:          -4.499
REMARK INTER:                  -4.202
REMARK INTRA:                  -0.297
REMARK UNBOUND:                -0.297
REMARK SMILES CCCCCCCCCCCCCCCCCCCCCC(=O)[O-]
REMARK SMILES IDX 12 1 11 2 10 3 9 4 8 5 7 6 6 7 5 8 4 9 3 10 2 11 1 12 13 13
REMARK SMILES IDX 14 14 15 15 16 16 17 17 18 18 19 19 20 20 21 21 22 22 23 23
REMARK SMILES IDX 24 24
REMARK H PARENT
REMARK Flexibility Score: inf
ROOT
ATOM      1  C   UNL     1       6.627  -7.719 -10.053  1.00  0.00     0.000 C 
ENDROOT
BRANCH   1   2
ATOM      2  C   UNL     1       6.322  -9.194  -9.748  1.00  0.00     0.000 C 
BRANCH   2   3
ATOM      3  C   UNL     1       7.547  -9.992  -9.250  1.00  0.00     0.000 C 
BRANCH   3   4
ATOM      4  C   UNL     1       8.824  -9.652 -10.039  1.00  0.00    -0.000 C 
BRANCH   4   5
ATOM      5  C   UNL     1      10.101 -10.123  -9.310  1.00  0.00    -0.000 C 
BRANCH   5   6
ATOM      6  C   UNL     1      10.104  -9.802  -7.805  1.00  0.00    -0.000 C 
BRANCH   6   7
ATOM      7  C   UNL     1       9.890  -8.307  -7.512  1.00  0.00    -0.000 C 
BRANCH   7   8
ATOM      8  C   UNL     1       9.997  -7.983  -6.006  1.00  0.00    -0.000 C 
BRANCH   8   9
ATOM      9  C   UNL     1       9.969  -6.475  -5.694  1.00  0.00    -0.000 C 
BRANCH   9  10
ATOM     10  C   UNL     1       8.714  -5.990  -4.944  1.00  0.00    -0.000 C 
BRANCH  10  11
ATOM     11  C   UNL     1       8.693  -6.318  -3.440  1.00  0.00    -0.003 C 
ATOM     12  C   UNL     1       9.899  -5.756  -2.689  1.00  0.00     0.004 C 
ENDBRANCH  10  11
ENDBRANCH   9  10
ENDBRANCH   8   9
ENDBRANCH   7   8
ENDBRANCH   6   7
ENDBRANCH   5   6
ENDBRANCH   4   5
ENDBRANCH   3   4
ENDBRANCH   2   3
ENDBRANCH   1   2
BRANCH   1  13
ATOM     13  C   UNL     1       5.890  -6.748  -9.114  1.00  0.00     0.000 C 
BRANCH  13  14
ATOM     14  C   UNL     1       6.548  -6.655  -7.719  1.00  0.00     0.000 C 
BRANCH  14  15
ATOM     15  C   UNL     1       7.136  -7.985  -7.213  1.00  0.00     0.000 C 
BRANCH  15  16
ATOM     16  C   UNL     1       6.453  -8.569  -5.962  1.00  0.00     0.000 C 
BRANCH  16  17
ATOM     17  C   UNL     1       6.900  -9.996  -5.580  1.00  0.00     0.000 C 
BRANCH  17  18
ATOM     18  C   UNL     1       7.569 -10.124  -4.196  1.00  0.00     0.000 C 
BRANCH  18  19
ATOM     19  C   UNL     1       6.649  -9.826  -2.999  1.00  0.00     0.000 C 
BRANCH  19  20
ATOM     20  C   UNL     1       7.425  -9.469  -1.723  1.00  0.00     0.006 C 
BRANCH  20  21
ATOM     21  C   UNL     1       8.817 -10.109  -1.731  1.00  0.00     0.053 C 
BRANCH  21  22
ATOM     22  C   UNL     1       9.729  -9.400  -0.780  1.00  0.00     0.041 C 
ATOM     23  O   UNL     1      10.125  -8.233  -1.034  1.00  0.00    -0.550 OA
ATOM     24  O   UNL     1      10.107 -10.015   0.408  1.00  0.00    -0.550 OA
ENDBRANCH  21  22
ENDBRANCH  20  21
ENDBRANCH  19  20
ENDBRANCH  18  19
ENDBRANCH  17  18
ENDBRANCH  16  17
ENDBRANCH  15  16
ENDBRANCH  14  15
ENDBRANCH  13  14
ENDBRANCH   1  13
TORSDOF 20
ENDMDL
MODEL 2
REMARK VINA RESULT:    -0.962      3.680      6.198
REMARK INTER + INTRA:          -2.383
REMARK INTER:                  -1.960
REMARK INTRA:                  -0.422
REMARK UNBOUND:                -0.297
REMARK SMILES CCCCCCCCCCCCCCCCCCCCCC(=O)[O-]
REMARK SMILES IDX 12 1 11 2 10 3 9 4 8 5 7 6 6 7 5 8 4 9 3 10 2 11 1 12 13 13
REMARK SMILES IDX 14 14 15 15 16 16 17 17 18 18 19 19 20 20 21 21 22 22 23 23
REMARK SMILES IDX 24 24
REMARK H PARENT
REMARK Flexibility Score: inf
ROOT
ATOM      1  C   UNL     1       9.813  -9.129  -2.818  1.00  0.00     0.000 C 
ENDROOT
BRANCH   1   2
ATOM      2  C   UNL     1       9.185 -10.054  -3.873  1.00  0.00     0.000 C 
BRANCH   2   3
ATOM      3  C   UNL     1       9.987 -10.125  -5.191  1.00  0.00     0.000 C 
BRANCH   3   4
ATOM      4  C   UNL     1       9.360  -9.267  -6.303  1.00  0.00    -0.000 C 
BRANCH   4   5
ATOM      5  C   UNL     1       9.265 -10.028  -7.643  1.00  0.00    -0.000 C 
BRANCH   5   6
ATOM      6  C   UNL     1      10.125  -9.414  -8.761  1.00  0.00    -0.000 C 
BRANCH   6   7
ATOM      7  C   UNL     1      10.105  -7.877  -8.755  1.00  0.00    -0.000 C 
BRANCH   7   8
ATOM      8  C   UNL     1       9.389  -7.294  -9.994  1.00  0.00    -0.000 C 
BRANCH   8   9
ATOM      9  C   UNL     1       9.311  -5.756  -9.996  1.00  0.00    -0.000 C 
BRANCH   9  10
ATOM     10  C   UNL     1       9.736  -5.082  -8.678  1.00  0.00    -0.000 C 
BRANCH  10  11
ATOM     11  C   UNL     1       8.894  -5.474  -7.451  1.00  0.00    -0.003 C 
ATOM     12  C   UNL     1       9.738  -6.009  -6.294  1.00  0.00     0.004 C 
ENDBRANCH  10  11
ENDBRANCH   9  10
ENDBRANCH   8   9
ENDBRANCH   7   8
ENDBRANCH   6   7
ENDBRANCH   5   6
ENDBRANCH   4   5
ENDBRANCH   3   4
ENDBRANCH   2   3
ENDBRANCH   1   2
BRANCH   1  13
ATOM     13  C   UNL     1       8.796  -8.161  -2.189  1.00  0.00     0.000 C 
BRANCH  13  14
ATOM     14  C   UNL     1       7.929  -7.440  -3.245  1.00  0.00     0.000 C 
BRANCH  14  15
ATOM     15  C   UNL     1       6.608  -8.161  -3.569  1.00  0.00     0.000 C 
BRANCH  15  16
ATOM     16  C   UNL     1       6.486  -8.688  -5.012  1.00  0.00     0.000 C 
BRANCH  16  17
ATOM     17  C   UNL     1       5.545  -7.876  -5.927  1.00  0.00     0.000 C 
BRANCH  17  18
ATOM     18  C   UNL     1       5.823  -8.011  -7.437  1.00  0.00     0.000 C 
BRANCH  18  19
ATOM     19  C   UNL     1       6.021  -9.454  -7.936  1.00  0.00     0.000 C 
BRANCH  19  20
ATOM     20  C   UNL     1       5.831  -9.592  -9.455  1.00  0.00     0.006 C 
BRANCH  20  21
ATOM     21  C   UNL     1       4.936  -8.474  -9.999  1.00  0.00     0.053 C 
BRANCH  21  22
ATOM     22  C   UNL     1       3.521  -8.670  -9.555  1.00  0.00     0.041 C 
ATOM     23  O   UNL     1       3.237  -9.572  -8.724  1.00  0.00    -0.550 OA
ATOM     24  O   UNL     1       2.522  -7.828 -10.029  1.00  0.00    -0.550 OA
ENDBRANCH  21  22
ENDBRANCH  20  21
ENDBRANCH  19  20
ENDBRANCH  18  19
ENDBRANCH  17  18
ENDBRANCH  16  17
ENDBRANCH  15  16
ENDBRANCH  14  15
ENDBRANCH  13  14
ENDBRANCH   1  13
TORSDOF 20
ENDMDL
MODEL 3
REMARK VINA RESULT:    -0.478      2.080      4.023
REMARK INTER + INTRA:          -1.334
REMARK INTER:                  -0.424
REMARK INTRA:                  -0.910
REMARK UNBOUND:                -0.297
REMARK SMILES CCCCCCCCCCCCCCCCCCCCCC(=O)[O-]
REMARK SMILES IDX 12 1 11 2 10 3 9 4 8 5 7 6 6 7 5 8 4 9 3 10 2 11 1 12 13 13
REMARK SMILES IDX 14 14 15 15 16 16 17 17 18 18 19 19 20 20 21 21 22 22 23 23
REMARK SMILES IDX 24 24
REMARK H PARENT
REMARK Flexibility Score: inf
ROOT
ATOM      1  C   UNL     1       7.931  -7.175  -7.485  1.00  0.00     0.000 C 
ENDROOT
BRANCH   1   2
ATOM      2  C   UNL     1       9.290  -7.002  -8.183  1.00  0.00     0.000 C 
BRANCH   2   3
ATOM      3  C   UNL     1      10.125  -8.300  -8.246  1.00  0.00     0.000 C 
BRANCH   3   4
ATOM      4  C   UNL     1       9.347  -9.520  -7.723  1.00  0.00    -0.000 C 
BRANCH   4   5
ATOM      5  C   UNL     1       9.995 -10.124  -6.458  1.00  0.00    -0.000 C 
BRANCH   5   6
ATOM      6  C   UNL     1       9.470  -9.512  -5.147  1.00  0.00    -0.000 C 
BRANCH   6   7
ATOM      7  C   UNL     1      10.124 -10.124  -3.897  1.00  0.00    -0.000 C 
BRANCH   7   8
ATOM      8  C   UNL     1      10.078  -9.169  -2.684  1.00  0.00    -0.000 C 
BRANCH   8   9
ATOM      9  C   UNL     1       9.136  -7.966  -2.879  1.00  0.00    -0.000 C 
BRANCH   9  10
ATOM     10  C   UNL     1       9.790  -6.588  -2.665  1.00  0.00    -0.000 C 
BRANCH  10  11
ATOM     11  C   UNL     1       9.177  -5.446  -3.497  1.00  0.00    -0.003 C 
ATOM     12  C   UNL     1       9.126  -5.757  -4.992  1.00  0.00     0.004 C 
ENDBRANCH  10  11
ENDBRANCH   9  10
ENDBRANCH   8   9
ENDBRANCH   7   8
ENDBRANCH   6   7
ENDBRANCH   5   6
ENDBRANCH   4   5
ENDBRANCH   3   4
ENDBRANCH   2   3
ENDBRANCH   1   2
BRANCH   1  13
ATOM     13  C   UNL     1       6.969  -6.004  -7.745  1.00  0.00     0.000 C 
BRANCH  13  14
ATOM     14  C   UNL     1       6.615  -5.846  -9.240  1.00  0.00     0.000 C 
BRANCH  14  15
ATOM     15  C   UNL     1       7.040  -7.040 -10.115  1.00  0.00     0.000 C 
BRANCH  15  16
ATOM     16  C   UNL     1       6.059  -8.228 -10.124  1.00  0.00     0.000 C 
BRANCH  16  17
ATOM     17  C   UNL     1       4.620  -7.890  -9.681  1.00  0.00     0.000 C 
BRANCH  17  18
ATOM     18  C   UNL     1       3.848  -9.050  -9.023  1.00  0.00     0.000 C 
BRANCH  18  19
ATOM     19  C   UNL     1       4.725 -10.092  -8.306  1.00  0.00     0.000 C 
BRANCH  19  20
ATOM     20  C   UNL     1       4.781  -9.881  -6.785  1.00  0.00     0.006 C 
BRANCH  20  21
ATOM     21  C   UNL     1       6.200 -10.102  -6.253  1.00  0.00     0.053 C 
BRANCH  21  22
ATOM     22  C   UNL     1       6.409  -9.343  -4.980  1.00  0.00     0.041 C 
ATOM     23  O   UNL     1       6.208  -8.101  -4.944  1.00  0.00    -0.550 OA
ATOM     24  O   UNL     1       6.788 -10.015  -3.825  1.00  0.00    -0.550 OA
ENDBRANCH  21  22
ENDBRANCH  20  21
ENDBRANCH  19  20
ENDBRANCH  18  19
ENDBRANCH  17  18
ENDBRANCH  16  17
ENDBRANCH  15  16
ENDBRANCH  14  15
ENDBRANCH  13  14
ENDBRANCH   1  13
TORSDOF 20
ENDMDL
MODEL 4
REMARK VINA RESULT:    -0.369      1.182      2.142
REMARK INTER + INTRA:          -1.097
REMARK INTER:                  -3.979
REMARK INTRA:                   2.882
REMARK UNBOUND:                -0.297
REMARK SMILES CCCCCCCCCCCCCCCCCCCCCC(=O)[O-]
REMARK SMILES IDX 12 1 11 2 10 3 9 4 8 5 7 6 6 7 5 8 4 9 3 10 2 11 1 12 13 13
REMARK SMILES IDX 14 14 15 15 16 16 17 17 18 18 19 19 20 20 21 21 22 22 23 23
REMARK SMILES IDX 24 24
REMARK H PARENT
REMARK Flexibility Score: inf
ROOT
ATOM      1  C   UNL     1       6.627  -7.729 -10.046  1.00  0.00     0.000 C 
ENDROOT
BRANCH   1   2
ATOM      2  C   UNL     1       6.338  -9.215  -9.783  1.00  0.00     0.000 C 
BRANCH   2   3
ATOM      3  C   UNL     1       7.560 -10.000  -9.256  1.00  0.00     0.000 C 
BRANCH   3   4
ATOM      4  C   UNL     1       8.812  -9.782 -10.124  1.00  0.00    -0.000 C 
BRANCH   4   5
ATOM      5  C   UNL     1      10.114 -10.099  -9.357  1.00  0.00    -0.000 C 
BRANCH   5   6
ATOM      6  C   UNL     1      10.121  -9.569  -7.912  1.00  0.00    -0.000 C 
BRANCH   6   7
ATOM      7  C   UNL     1       9.687  -8.097  -7.813  1.00  0.00    -0.000 C 
BRANCH   7   8
ATOM      8  C   UNL     1       9.712  -7.575  -6.360  1.00  0.00    -0.000 C 
BRANCH   8   9
ATOM      9  C   UNL     1      10.124  -6.095  -6.241  1.00  0.00    -0.000 C 
BRANCH   9  10
ATOM     10  C   UNL     1      10.076  -5.300  -7.560  1.00  0.00    -0.000 C 
BRANCH  10  11
ATOM     11  C   UNL     1       9.511  -6.078  -8.763  1.00  0.00    -0.003 C 
ATOM     12  C   UNL     1       9.323  -5.205 -10.003  1.00  0.00     0.004 C 
ENDBRANCH  10  11
ENDBRANCH   9  10
ENDBRANCH   8   9
ENDBRANCH   7   8
ENDBRANCH   6   7
ENDBRANCH   5   6
ENDBRANCH   4   5
ENDBRANCH   3   4
ENDBRANCH   2   3
ENDBRANCH   1   2
BRANCH   1  13
ATOM     13  C   UNL     1       5.813  -6.790  -9.139  1.00  0.00     0.000 C 
BRANCH  13  14
ATOM     14  C   UNL     1       6.422  -6.651  -7.727  1.00  0.00     0.000 C 
BRANCH  14  15
ATOM     15  C   UNL     1       7.074  -7.940  -7.195  1.00  0.00     0.000 C 
BRANCH  15  16
ATOM     16  C   UNL     1       6.383  -8.565  -5.968  1.00  0.00     0.000 C 
BRANCH  16  17
ATOM     17  C   UNL     1       6.926  -9.946  -5.545  1.00  0.00     0.000 C 
BRANCH  17  18
ATOM     18  C   UNL     1       7.515 -10.011  -4.122  1.00  0.00     0.000 C 
BRANCH  18  19
ATOM     19  C   UNL     1       6.476 -10.002  -2.987  1.00  0.00     0.000 C 
BRANCH  19  20
ATOM     20  C   UNL     1       7.067  -9.560  -1.639  1.00  0.00     0.006 C 
BRANCH  20  21
ATOM     21  C   UNL     1       8.522 -10.019  -1.502  1.00  0.00     0.053 C 
BRANCH  21  22
ATOM     22  C   UNL     1       9.459  -8.926  -1.910  1.00  0.00     0.041 C 
ATOM     23  O   UNL     1       9.876  -8.099  -1.058  1.00  0.00    -0.550 OA
ATOM     24  O   UNL     1       9.904  -8.847  -3.224  1.00  0.00    -0.550 OA
ENDBRANCH  21  22
ENDBRANCH  20  21
ENDBRANCH  19  20
ENDBRANCH  18  19
ENDBRANCH  17  18
ENDBRANCH  16  17
ENDBRANCH  15  16
ENDBRANCH  14  15
ENDBRANCH  13  14
ENDBRANCH   1  13
TORSDOF 20
ENDMDL
MODEL 5
REMARK VINA RESULT:     0.169      2.924      6.899
REMARK INTER + INTRA:           0.071
REMARK INTER:                   0.805
REMARK INTRA:                  -0.734
REMARK UNBOUND:                -0.297
REMARK SMILES CCCCCCCCCCCCCCCCCCCCCC(=O)[O-]
REMARK SMILES IDX 12 1 11 2 10 3 9 4 8 5 7 6 6 7 5 8 4 9 3 10 2 11 1 12 13 13
REMARK SMILES IDX 14 14 15 15 16 16 17 17 18 18 19 19 20 20 21 21 22 22 23 23
REMARK SMILES IDX 24 24
REMARK H PARENT
REMARK Flexibility Score: inf
ROOT
ATOM      1  C   UNL     1       8.084  -8.883  -3.560  1.00  0.00     0.000 C 
ENDROOT
BRANCH   1   2
ATOM      2  C   UNL     1       8.361  -7.545  -4.266  1.00  0.00     0.000 C 
BRANCH   2   3
ATOM      3  C   UNL     1       9.774  -6.983  -3.996  1.00  0.00     0.000 C 
BRANCH   3   4
ATOM      4  C   UNL     1       9.770  -5.888  -2.916  1.00  0.00    -0.000 C 
BRANCH   4   5
ATOM      5  C   UNL     1       9.820  -6.477  -1.489  1.00  0.00    -0.000 C 
BRANCH   5   6
ATOM      6  C   UNL     1       9.989  -8.007  -1.462  1.00  0.00    -0.000 C 
BRANCH   6   7
ATOM      7  C   UNL     1       8.992  -8.702  -0.519  1.00  0.00    -0.000 C 
BRANCH   7   8
ATOM      8  C   UNL     1       9.496 -10.084  -0.049  1.00  0.00    -0.000 C 
BRANCH   8   9
ATOM      9  C   UNL     1      10.102 -10.073   1.367  1.00  0.00    -0.000 C 
BRANCH   9  10
ATOM     10  C   UNL     1       9.092  -9.826   2.504  1.00  0.00    -0.000 C 
BRANCH  10  11
ATOM     11  C   UNL     1       9.699  -9.824   3.919  1.00  0.00    -0.003 C 
ATOM     12  C   UNL     1       8.643  -9.769   5.022  1.00  0.00     0.004 C 
ENDBRANCH  10  11
ENDBRANCH   9  10
ENDBRANCH   8   9
ENDBRANCH   7   8
ENDBRANCH   6   7
ENDBRANCH   5   6
ENDBRANCH   4   5
ENDBRANCH   3   4
ENDBRANCH   2   3
ENDBRANCH   1   2
BRANCH   1  13
ATOM     13  C   UNL     1       7.106  -9.780  -4.338  1.00  0.00     0.000 C 
BRANCH  13  14
ATOM     14  C   UNL     1       7.594 -10.092  -5.770  1.00  0.00     0.000 C 
BRANCH  14  15
ATOM     15  C   UNL     1       6.540  -9.833  -6.862  1.00  0.00     0.000 C 
BRANCH  15  16
ATOM     16  C   UNL     1       7.031 -10.040  -8.308  1.00  0.00     0.000 C 
BRANCH  16  17
ATOM     17  C   UNL     1       6.317  -9.179  -9.370  1.00  0.00     0.000 C 
BRANCH  17  18
ATOM     18  C   UNL     1       5.297  -8.165  -8.814  1.00  0.00     0.000 C 
BRANCH  18  19
ATOM     19  C   UNL     1       5.730  -6.691  -8.903  1.00  0.00     0.000 C 
BRANCH  19  20
ATOM     20  C   UNL     1       6.986  -6.386  -8.072  1.00  0.00     0.006 C 
BRANCH  20  21
ATOM     21  C   UNL     1       8.211  -6.211  -8.975  1.00  0.00     0.053 C 
BRANCH  21  22
ATOM     22  C   UNL     1       9.433  -6.774  -8.319  1.00  0.00     0.041 C 
ATOM     23  O   UNL     1      10.057  -6.101  -7.459  1.00  0.00    -0.550 OA
ATOM     24  O   UNL     1       9.857  -8.061  -8.631  1.00  0.00    -0.550 OA
ENDBRANCH  21  22
ENDBRANCH  20  21
ENDBRANCH  19  20
ENDBRANCH  18  19
ENDBRANCH  17  18
ENDBRANCH  16  17
ENDBRANCH  15  16
ENDBRANCH  14  15
ENDBRANCH  13  14
ENDBRANCH   1  13
TORSDOF 20
ENDMDL
