MODEL 1
REMARK VINA RESULT:    -2.470      0.000      0.000
REMARK INTER + INTRA:          -2.797
REMARK INTER:                  -2.759
REMARK INTRA:                  -0.038
REMARK UNBOUND:                -0.038
REMARK SMILES CCCC(=O)[O-]
REMARK SMILES IDX 3 1 4 2 5 3 6 4 2 5 1 6
REMARK H PARENT
REMARK Flexibility Score: inf
ROOT
ATOM      1  C   UNL     1       5.386  -1.714  17.804  1.00  0.00     0.052 C 
ENDROOT
BRANCH   1   2
ATOM      2  C   UNL     1       5.787  -1.909  16.374  1.00  0.00     0.041 C 
ATOM      3  O   UNL     1       4.969  -1.661  15.448  1.00  0.00    -0.550 OA
ATOM      4  O   UNL     1       7.051  -2.393  16.064  1.00  0.00    -0.550 OA
ENDBRANCH   1   2
BRANCH   1   5
ATOM      5  C   UNL     1       6.197  -2.610  18.749  1.00  0.00     0.003 C 
ATOM      6  C   UNL     1       7.079  -1.803  19.701  1.00  0.00     0.004 C 
ENDBRANCH   1   5
TORSDOF 2
ENDMDL
MODEL 2
REMARK VINA RESULT:    -2.467      6.834      7.564
REMARK INTER + INTRA:          -2.793
REMARK INTER:                  -2.765
REMARK INTRA:                  -0.028
REMARK UNBOUND:                -0.038
REMARK SMILES CCCC(=O)[O-]
REMARK SMILES IDX 3 1 4 2 5 3 6 4 2 5 1 6
REMARK H PARENT
REMARK Flexibility Score: inf
ROOT
ATOM      1  C   UNL     1       2.381  -5.047  12.055  1.00  0.00     0.052 C 
ENDROOT
BRANCH   1   2
ATOM      2  C   UNL     1       2.373  -3.549  12.055  1.00  0.00     0.041 C 
ATOM      3  O   UNL     1       3.173  -2.912  11.320  1.00  0.00    -0.550 OA
ATOM      4  O   UNL     1       1.506  -2.857  12.890  1.00  0.00    -0.550 OA
ENDBRANCH   1   2
BRANCH   1   5
ATOM      5  C   UNL     1       0.970  -5.623  11.886  1.00  0.00     0.003 C 
ATOM      6  C   UNL     1       0.636  -6.667  12.951  1.00  0.00     0.004 C 
ENDBRANCH   1   5
TORSDOF 2
ENDMDL
MODEL 3
REMARK VINA RESULT:    -2.410      6.288      7.220
REMARK INTER + INTRA:          -2.730
REMARK INTER:                  -2.693
REMARK INTRA:                  -0.036
REMARK UNBOUND:                -0.038
REMARK SMILES CCCC(=O)[O-]
REMARK SMILES IDX 3 1 4 2 5 3 6 4 2 5 1 6
REMARK H PARENT
REMARK Flexibility Score: inf
ROOT
ATOM      1  C   UNL     1       1.473  -2.651  11.514  1.00  0.00     0.052 C 
ENDROOT
BRANCH   1   2
ATOM      2  C   UNL     1       2.654  -3.274  12.194  1.00  0.00     0.041 C 
ATOM      3  O   UNL     1       3.361  -2.593  12.983  1.00  0.00    -0.550 OA
ATOM      4  O   UNL     1       2.992  -4.595  11.931  1.00  0.00    -0.550 OA
ENDBRANCH   1   2
BRANCH   1   5
ATOM      5  C   UNL     1       1.235  -1.213  11.992  1.00  0.00     0.003 C 
ATOM      6  C   UNL     1       1.704  -0.176  10.972  1.00  0.00     0.004 C 
ENDBRANCH   1   5
TORSDOF 2
ENDMDL
MODEL 4
REMARK VINA RESULT:    -2.372      5.650      6.783
REMARK INTER + INTRA:          -2.687
REMARK INTER:                  -2.620
REMARK INTRA:                  -0.067
REMARK UNBOUND:                -0.038
REMARK SMILES CCCC(=O)[O-]
REMARK SMILES IDX 3 1 4 2 5 3 6 4 2 5 1 6
REMARK H PARENT
REMARK Flexibility Score: inf
ROOT
ATOM      1  C   UNL     1       2.635  -0.208  12.068  1.00  0.00     0.052 C 
ENDROOT
BRANCH   1   2
ATOM      2  C   UNL     1       3.803  -1.115  12.302  1.00  0.00     0.041 C 
ATOM      3  O   UNL     1       4.678  -1.264  11.408  1.00  0.00    -0.550 OA
ATOM      4  O   UNL     1       3.910  -1.821  13.493  1.00  0.00    -0.550 OA
ENDBRANCH   1   2
BRANCH   1   5
ATOM      5  C   UNL     1       1.300  -0.934  12.277  1.00  0.00     0.003 C 
ATOM      6  C   UNL     1       0.993  -1.922  11.153  1.00  0.00     0.004 C 
ENDBRANCH   1   5
TORSDOF 2
ENDMDL
MODEL 5
REMARK VINA RESULT:    -2.327      8.947      9.486
REMARK INTER + INTRA:          -2.636
REMARK INTER:                  -2.631
REMARK INTRA:                  -0.005
REMARK UNBOUND:                -0.038
REMARK SMILES CCCC(=O)[O-]
REMARK SMILES IDX 3 1 4 2 5 3 6 4 2 5 1 6
REMARK H PARENT
REMARK Flexibility Score: inf
ROOT
ATOM      1  C   UNL     1       0.286  -5.139  24.711  1.00  0.00     0.052 C 
ENDROOT
BRANCH   1   2
ATOM      2  C   UNL     1       0.909  -3.941  24.063  1.00  0.00     0.041 C 
ATOM      3  O   UNL     1       1.961  -3.440  24.540  1.00  0.00    -0.550 OA
ATOM      4  O   UNL     1       0.311  -3.360  22.953  1.00  0.00    -0.550 OA
ENDBRANCH   1   2
BRANCH   1   5
ATOM      5  C   UNL     1       0.755  -6.447  24.060  1.00  0.00     0.003 C 
ATOM      6  C   UNL     1       0.390  -7.675  24.893  1.00  0.00     0.004 C 
ENDBRANCH   1   5
TORSDOF 2
ENDMDL
MODEL 6
REMARK VINA RESULT:    -2.291      5.932      7.170
REMARK INTER + INTRA:          -2.596
REMARK INTER:                  -2.538
REMARK INTRA:                  -0.058
REMARK UNBOUND:                -0.038
REMARK SMILES CCCC(=O)[O-]
REMARK SMILES IDX 3 1 4 2 5 3 6 4 2 5 1 6
REMARK H PARENT
REMARK Flexibility Score: inf
ROOT
ATOM      1  C   UNL     1       1.705  -1.387  12.118  1.00  0.00     0.052 C 
ENDROOT
BRANCH   1   2
ATOM      2  C   UNL     1       3.148  -1.781  12.202  1.00  0.00     0.041 C 
ATOM      3  O   UNL     1       3.647  -2.124  13.306  1.00  0.00    -0.550 OA
ATOM      4  O   UNL     1       3.949  -1.736  11.069  1.00  0.00    -0.550 OA
ENDBRANCH   1   2
BRANCH   1   5
ATOM      5  C   UNL     1       0.948  -2.217  11.074  1.00  0.00     0.003 C 
ATOM      6  C   UNL     1       1.100  -3.720  11.305  1.00  0.00     0.004 C 
ENDBRANCH   1   5
TORSDOF 2
ENDMDL
MODEL 7
REMARK VINA RESULT:    -2.290      8.907      9.374
REMARK INTER + INTRA:          -2.595
REMARK INTER:                  -2.525
REMARK INTRA:                  -0.071
REMARK UNBOUND:                -0.038
REMARK SMILES CCCC(=O)[O-]
REMARK SMILES IDX 3 1 4 2 5 3 6 4 2 5 1 6
REMARK H PARENT
REMARK Flexibility Score: inf
ROOT
ATOM      1  C   UNL     1       1.432  -3.873  24.352  1.00  0.00     0.052 C 
ENDROOT
BRANCH   1   2
ATOM      2  C   UNL     1       0.659  -5.155  24.377  1.00  0.00     0.041 C 
ATOM      3  O   UNL     1      -0.289  -5.307  25.192  1.00  0.00    -0.550 OA
ATOM      4  O   UNL     1       1.006  -6.194  23.523  1.00  0.00    -0.550 OA
ENDBRANCH   1   2
BRANCH   1   5
ATOM      5  C   UNL     1       0.532  -2.673  24.030  1.00  0.00     0.003 C 
ATOM      6  C   UNL     1      -0.074  -2.759  22.630  1.00  0.00     0.004 C 
ENDBRANCH   1   5
TORSDOF 2
ENDMDL
MODEL 8
REMARK VINA RESULT:    -2.259      9.862     10.295
REMARK INTER + INTRA:          -2.561
REMARK INTER:                  -2.525
REMARK INTRA:                  -0.036
REMARK UNBOUND:                -0.038
REMARK SMILES CCCC(=O)[O-]
REMARK SMILES IDX 3 1 4 2 5 3 6 4 2 5 1 6
REMARK H PARENT
REMARK Flexibility Score: inf
ROOT
ATOM      1  C   UNL     1       0.833  -5.982  23.802  1.00  0.00     0.052 C 
ENDROOT
BRANCH   1   2
ATOM      2  C   UNL     1       0.267  -6.792  24.928  1.00  0.00     0.041 C 
ATOM      3  O   UNL     1      -0.694  -6.344  25.608  1.00  0.00    -0.550 OA
ATOM      4  O   UNL     1       0.820  -8.024  25.247  1.00  0.00    -0.550 OA
ENDBRANCH   1   2
BRANCH   1   5
ATOM      5  C   UNL     1       1.115  -4.535  24.227  1.00  0.00     0.003 C 
ATOM      6  C   UNL     1       0.343  -3.521  23.385  1.00  0.00     0.004 C 
ENDBRANCH   1   5
TORSDOF 2
ENDMDL
MODEL 9
REMARK VINA RESULT:    -2.157      5.424      6.451
REMARK INTER + INTRA:          -2.447
REMARK INTER:                  -2.441
REMARK INTRA:                  -0.006
REMARK UNBOUND:                -0.038
REMARK SMILES CCCC(=O)[O-]
REMARK SMILES IDX 3 1 4 2 5 3 6 4 2 5 1 6
REMARK H PARENT
REMARK Flexibility Score: inf
ROOT
ATOM      1  C   UNL     1       9.513  -6.715  18.370  1.00  0.00     0.052 C 
ENDROOT
BRANCH   1   2
ATOM      2  C   UNL     1       9.597  -5.960  19.661  1.00  0.00     0.041 C 
ATOM      3  O   UNL     1       9.956  -6.548  20.716  1.00  0.00    -0.550 OA
ATOM      4  O   UNL     1       9.246  -4.617  19.707  1.00  0.00    -0.550 OA
ENDBRANCH   1   2
BRANCH   1   5
ATOM      5  C   UNL     1       8.106  -6.647  17.762  1.00  0.00     0.003 C 
ATOM      6  C   UNL     1       7.759  -7.901  16.960  1.00  0.00     0.004 C 
ENDBRANCH   1   5
TORSDOF 2
ENDMDL
