MODEL 1
REMARK VINA RESULT:    -4.597      0.000      0.000
REMARK INTER + INTRA:          -9.809
REMARK INTER:                  -8.359
REMARK INTRA:                  -1.451
REMARK UNBOUND:                -1.451
REMARK SMILES CCCCCCCCCCCCCCCC(=O)[O-]
REMARK SMILES IDX 9 1 10 2 11 3 12 4 13 5 14 6 15 7 16 8 17 9 18 10 8 11 7 12
REMARK SMILES IDX 6 13 5 14 4 15 3 16 2 17 1 18
REMARK H PARENT
REMARK Flexibility Score: inf
ROOT
ATOM      1  C   UNL     1     126.565 143.619 140.072  1.00  0.00     0.000 C 
ENDROOT
BRANCH   1   2
ATOM      2  C   UNL     1     127.499 142.405 140.130  1.00  0.00     0.000 C 
BRANCH   2   3
ATOM      3  C   UNL     1     128.415 142.472 141.359  1.00  0.00     0.000 C 
BRANCH   3   4
ATOM      4  C   UNL     1     129.829 141.979 141.018  1.00  0.00     0.000 C 
BRANCH   4   5
ATOM      5  C   UNL     1     129.950 141.480 139.569  1.00  0.00     0.000 C 
BRANCH   5   6
ATOM      6  C   UNL     1     131.412 141.281 139.132  1.00  0.00     0.006 C 
BRANCH   6   7
ATOM      7  C   UNL     1     131.764 139.799 138.946  1.00  0.00     0.053 C 
BRANCH   7   8
ATOM      8  C   UNL     1     133.116 139.473 139.504  1.00  0.00     0.041 C 
ATOM      9  O   UNL     1     133.614 140.187 140.415  1.00  0.00    -0.550 OA
ATOM     10  O   UNL     1     133.838 138.400 139.000  1.00  0.00    -0.550 OA
ENDBRANCH   7   8
ENDBRANCH   6   7
ENDBRANCH   5   6
ENDBRANCH   4   5
ENDBRANCH   3   4
ENDBRANCH   2   3
ENDBRANCH   1   2
BRANCH   1  11
ATOM     11  C   UNL     1     126.253 144.004 138.618  1.00  0.00     0.000 C 
BRANCH  11  12
ATOM     12  C   UNL     1     126.522 142.858 137.626  1.00  0.00    -0.000 C 
BRANCH  12  13
ATOM     13  C   UNL     1     125.793 142.978 136.271  1.00  0.00    -0.000 C 
BRANCH  13  14
ATOM     14  C   UNL     1     125.197 141.668 135.726  1.00  0.00    -0.000 C 
BRANCH  14  15
ATOM     15  C   UNL     1     125.200 140.532 136.764  1.00  0.00    -0.000 C 
BRANCH  15  16
ATOM     16  C   UNL     1     126.276 139.467 136.483  1.00  0.00    -0.000 C 
BRANCH  16  17
ATOM     17  C   UNL     1     127.300 139.260 137.614  1.00  0.00    -0.003 C 
ATOM     18  C   UNL     1     128.688 138.875 137.103  1.00  0.00     0.004 C 
ENDBRANCH  16  17
ENDBRANCH  15  16
ENDBRANCH  14  15
ENDBRANCH  13  14
ENDBRANCH  12  13
ENDBRANCH  11  12
ENDBRANCH   1  11
TORSDOF 14
ENDMDL
MODEL 2
REMARK VINA RESULT:    -4.573      1.554      2.719
REMARK INTER + INTRA:          -9.766
REMARK INTER:                  -8.057
REMARK INTRA:                  -1.709
REMARK UNBOUND:                -1.451
REMARK SMILES CCCCCCCCCCCCCCCC(=O)[O-]
REMARK SMILES IDX 9 1 10 2 11 3 12 4 13 5 14 6 15 7 16 8 17 9 18 10 8 11 7 12
REMARK SMILES IDX 6 13 5 14 4 15 3 16 2 17 1 18
REMARK H PARENT
REMARK Flexibility Score: inf
ROOT
ATOM      1  C   UNL     1     126.488 142.767 137.676  1.00  0.00     0.000 C 
ENDROOT
BRANCH   1   2
ATOM      2  C   UNL     1     126.236 143.954 138.613  1.00  0.00     0.000 C 
BRANCH   2   3
ATOM      3  C   UNL     1     126.386 143.538 140.082  1.00  0.00     0.000 C 
BRANCH   3   4
ATOM      4  C   UNL     1     127.667 142.717 140.293  1.00  0.00     0.000 C 
BRANCH   4   5
ATOM      5  C   UNL     1     127.668 141.951 141.626  1.00  0.00     0.000 C 
BRANCH   5   6
ATOM      6  C   UNL     1     129.077 141.495 142.044  1.00  0.00     0.006 C 
BRANCH   6   7
ATOM      7  C   UNL     1     130.144 141.891 141.014  1.00  0.00     0.053 C 
BRANCH   7   8
ATOM      8  C   UNL     1     131.398 141.086 141.173  1.00  0.00     0.041 C 
ATOM      9  O   UNL     1     131.337 139.892 141.572  1.00  0.00    -0.550 OA
ATOM     10  O   UNL     1     132.633 141.661 140.908  1.00  0.00    -0.550 OA
ENDBRANCH   7   8
ENDBRANCH   6   7
ENDBRANCH   5   6
ENDBRANCH   4   5
ENDBRANCH   3   4
ENDBRANCH   2   3
ENDBRANCH   1   2
BRANCH   1  11
ATOM     11  C   UNL     1     125.903 143.035 136.281  1.00  0.00     0.000 C 
BRANCH  11  12
ATOM     12  C   UNL     1     125.079 141.852 135.742  1.00  0.00    -0.000 C 
BRANCH  12  13
ATOM     13  C   UNL     1     125.068 140.597 136.639  1.00  0.00    -0.000 C 
BRANCH  13  14
ATOM     14  C   UNL     1     125.638 139.321 135.993  1.00  0.00    -0.000 C 
BRANCH  14  15
ATOM     15  C   UNL     1     126.437 138.456 136.982  1.00  0.00    -0.000 C 
BRANCH  15  16
ATOM     16  C   UNL     1     127.922 138.854 137.062  1.00  0.00    -0.000 C 
BRANCH  16  17
ATOM     17  C   UNL     1     128.315 139.660 138.313  1.00  0.00    -0.003 C 
ATOM     18  C   UNL     1     128.659 138.776 139.511  1.00  0.00     0.004 C 
ENDBRANCH  16  17
ENDBRANCH  15  16
ENDBRANCH  14  15
ENDBRANCH  13  14
ENDBRANCH  12  13
ENDBRANCH  11  12
ENDBRANCH   1  11
TORSDOF 14
ENDMDL
MODEL 3
REMARK VINA RESULT:    -4.552      3.515      6.215
REMARK INTER + INTRA:          -9.727
REMARK INTER:                  -8.327
REMARK INTRA:                  -1.400
REMARK UNBOUND:                -1.451
REMARK SMILES CCCCCCCCCCCCCCCC(=O)[O-]
REMARK SMILES IDX 9 1 10 2 11 3 12 4 13 5 14 6 15 7 16 8 17 9 18 10 8 11 7 12
REMARK SMILES IDX 6 13 5 14 4 15 3 16 2 17 1 18
REMARK H PARENT
REMARK Flexibility Score: inf
ROOT
ATOM      1  C   UNL     1     126.865 143.082 140.533  1.00  0.00     0.000 C 
ENDROOT
BRANCH   1   2
ATOM      2  C   UNL     1     126.420 143.756 139.230  1.00  0.00     0.000 C 
BRANCH   2   3
ATOM      3  C   UNL     1     126.427 142.760 138.064  1.00  0.00     0.000 C 
BRANCH   3   4
ATOM      4  C   UNL     1     126.034 143.450 136.749  1.00  0.00     0.000 C 
BRANCH   4   5
ATOM      5  C   UNL     1     125.354 142.493 135.756  1.00  0.00     0.000 C 
BRANCH   5   6
ATOM      6  C   UNL     1     125.319 141.041 136.265  1.00  0.00     0.006 C 
BRANCH   6   7
ATOM      7  C   UNL     1     124.165 140.239 135.648  1.00  0.00     0.053 C 
BRANCH   7   8
ATOM      8  C   UNL     1     124.662 139.093 134.821  1.00  0.00     0.041 C 
ATOM      9  O   UNL     1     124.287 138.967 133.624  1.00  0.00    -0.550 OA
ATOM     10  O   UNL     1     125.514 138.149 135.377  1.00  0.00    -0.550 OA
ENDBRANCH   7   8
ENDBRANCH   6   7
ENDBRANCH   5   6
ENDBRANCH   4   5
ENDBRANCH   3   4
ENDBRANCH   2   3
ENDBRANCH   1   2
BRANCH   1  11
ATOM     11  C   UNL     1     127.946 142.024 140.264  1.00  0.00     0.000 C 
BRANCH  11  12
ATOM     12  C   UNL     1     129.203 142.222 141.129  1.00  0.00    -0.000 C 
BRANCH  12  13
ATOM     13  C   UNL     1     130.505 141.640 140.539  1.00  0.00    -0.000 C 
BRANCH  13  14
ATOM     14  C   UNL     1     130.529 141.504 139.005  1.00  0.00    -0.000 C 
BRANCH  14  15
ATOM     15  C   UNL     1     131.445 140.367 138.520  1.00  0.00    -0.000 C 
BRANCH  15  16
ATOM     16  C   UNL     1     130.667 139.207 137.871  1.00  0.00    -0.000 C 
BRANCH  16  17
ATOM     17  C   UNL     1     129.296 138.907 138.504  1.00  0.00    -0.003 C 
ATOM     18  C   UNL     1     128.126 139.204 137.567  1.00  0.00     0.004 C 
ENDBRANCH  16  17
ENDBRANCH  15  16
ENDBRANCH  14  15
ENDBRANCH  13  14
ENDBRANCH  12  13
ENDBRANCH  11  12
ENDBRANCH   1  11
TORSDOF 14
ENDMDL
MODEL 4
REMARK VINA RESULT:    -4.526      3.293      5.993
REMARK INTER + INTRA:          -9.680
REMARK INTER:                  -7.838
REMARK INTRA:                  -1.842
REMARK UNBOUND:                -1.451
REMARK SMILES CCCCCCCCCCCCCCCC(=O)[O-]
REMARK SMILES IDX 9 1 10 2 11 3 12 4 13 5 14 6 15 7 16 8 17 9 18 10 8 11 7 12
REMARK SMILES IDX 6 13 5 14 4 15 3 16 2 17 1 18
REMARK H PARENT
REMARK Flexibility Score: inf
ROOT
ATOM      1  C   UNL     1     131.494 140.144 141.087  1.00  0.00     0.000 C 
ENDROOT
BRANCH   1   2
ATOM      2  C   UNL     1     131.294 139.296 139.826  1.00  0.00     0.000 C 
BRANCH   2   3
ATOM      3  C   UNL     1     131.274 140.173 138.568  1.00  0.00     0.000 C 
BRANCH   3   4
ATOM      4  C   UNL     1     130.244 139.655 137.553  1.00  0.00     0.000 C 
BRANCH   4   5
ATOM      5  C   UNL     1     129.240 138.672 138.176  1.00  0.00     0.000 C 
BRANCH   5   6
ATOM      6  C   UNL     1     127.782 139.138 138.020  1.00  0.00     0.006 C 
BRANCH   6   7
ATOM      7  C   UNL     1     127.242 138.886 136.605  1.00  0.00     0.053 C 
BRANCH   7   8
ATOM      8  C   UNL     1     125.817 139.329 136.465  1.00  0.00     0.041 C 
ATOM      9  O   UNL     1     124.903 138.477 136.305  1.00  0.00    -0.550 OA
ATOM     10  O   UNL     1     125.502 140.681 136.484  1.00  0.00    -0.550 OA
ENDBRANCH   7   8
ENDBRANCH   6   7
ENDBRANCH   5   6
ENDBRANCH   4   5
ENDBRANCH   3   4
ENDBRANCH   2   3
ENDBRANCH   1   2
BRANCH   1  11
ATOM     11  C   UNL     1     130.154 140.400 141.794  1.00  0.00     0.000 C 
BRANCH  11  12
ATOM     12  C   UNL     1     129.570 141.789 141.483  1.00  0.00    -0.000 C 
BRANCH  12  13
ATOM     13  C   UNL     1     128.285 141.785 140.628  1.00  0.00    -0.000 C 
BRANCH  13  14
ATOM     14  C   UNL     1     128.403 142.476 139.258  1.00  0.00    -0.000 C 
BRANCH  14  15
ATOM     15  C   UNL     1     127.042 142.916 138.692  1.00  0.00    -0.000 C 
BRANCH  15  16
ATOM     16  C   UNL     1     126.135 143.569 139.751  1.00  0.00    -0.000 C 
BRANCH  16  17
ATOM     17  C   UNL     1     126.146 145.108 139.760  1.00  0.00    -0.003 C 
ATOM     18  C   UNL     1     125.815 145.718 138.398  1.00  0.00     0.004 C 
ENDBRANCH  16  17
ENDBRANCH  15  16
ENDBRANCH  14  15
ENDBRANCH  13  14
ENDBRANCH  12  13
ENDBRANCH  11  12
ENDBRANCH   1  11
TORSDOF 14
ENDMDL
MODEL 5
REMARK VINA RESULT:    -4.510      2.740      6.089
REMARK INTER + INTRA:          -9.651
REMARK INTER:                  -8.292
REMARK INTRA:                  -1.359
REMARK UNBOUND:                -1.451
REMARK SMILES CCCCCCCCCCCCCCCC(=O)[O-]
REMARK SMILES IDX 9 1 10 2 11 3 12 4 13 5 14 6 15 7 16 8 17 9 18 10 8 11 7 12
REMARK SMILES IDX 6 13 5 14 4 15 3 16 2 17 1 18
REMARK H PARENT
REMARK Flexibility Score: inf
ROOT
ATOM      1  C   UNL     1     126.577 142.299 137.951  1.00  0.00     0.000 C 
ENDROOT
BRANCH   1   2
ATOM      2  C   UNL     1     126.098 143.267 136.864  1.00  0.00     0.000 C 
BRANCH   2   3
ATOM      3  C   UNL     1     125.322 142.526 135.768  1.00  0.00     0.000 C 
BRANCH   3   4
ATOM      4  C   UNL     1     125.036 141.075 136.183  1.00  0.00     0.000 C 
BRANCH   4   5
ATOM      5  C   UNL     1     124.409 140.247 135.050  1.00  0.00     0.000 C 
BRANCH   5   6
ATOM      6  C   UNL     1     124.527 138.731 135.290  1.00  0.00     0.006 C 
BRANCH   6   7
ATOM      7  C   UNL     1     125.197 138.409 136.633  1.00  0.00     0.053 C 
BRANCH   7   8
ATOM      8  C   UNL     1     126.515 137.720 136.447  1.00  0.00     0.041 C 
ATOM      9  O   UNL     1     127.589 138.361 136.590  1.00  0.00    -0.550 OA
ATOM     10  O   UNL     1     126.556 136.379 136.088  1.00  0.00    -0.550 OA
ENDBRANCH   7   8
ENDBRANCH   6   7
ENDBRANCH   5   6
ENDBRANCH   4   5
ENDBRANCH   3   4
ENDBRANCH   2   3
ENDBRANCH   1   2
BRANCH   1  11
ATOM     11  C   UNL     1     127.604 142.973 138.874  1.00  0.00     0.000 C 
BRANCH  11  12
ATOM     12  C   UNL     1     127.120 143.077 140.331  1.00  0.00    -0.000 C 
BRANCH  12  13
ATOM     13  C   UNL     1     127.858 142.167 141.335  1.00  0.00    -0.000 C 
BRANCH  13  14
ATOM     14  C   UNL     1     129.351 142.485 141.538  1.00  0.00    -0.000 C 
BRANCH  14  15
ATOM     15  C   UNL     1     130.249 141.243 141.413  1.00  0.00    -0.000 C 
BRANCH  15  16
ATOM     16  C   UNL     1     131.402 141.436 140.411  1.00  0.00    -0.000 C 
BRANCH  16  17
ATOM     17  C   UNL     1     130.984 141.440 138.930  1.00  0.00    -0.003 C 
ATOM     18  C   UNL     1     130.071 140.272 138.561  1.00  0.00     0.004 C 
ENDBRANCH  16  17
ENDBRANCH  15  16
ENDBRANCH  14  15
ENDBRANCH  13  14
ENDBRANCH  12  13
ENDBRANCH  11  12
ENDBRANCH   1  11
TORSDOF 14
ENDMDL
MODEL 6
REMARK VINA RESULT:    -4.432      8.616     11.888
REMARK INTER + INTRA:          -9.510
REMARK INTER:                  -7.991
REMARK INTRA:                  -1.520
REMARK UNBOUND:                -1.451
REMARK SMILES CCCCCCCCCCCCCCCC(=O)[O-]
REMARK SMILES IDX 9 1 10 2 11 3 12 4 13 5 14 6 15 7 16 8 17 9 18 10 8 11 7 12
REMARK SMILES IDX 6 13 5 14 4 15 3 16 2 17 1 18
REMARK H PARENT
REMARK Flexibility Score: inf
ROOT
ATOM      1  C   UNL     1     138.280 136.890 139.649  1.00  0.00     0.000 C 
ENDROOT
BRANCH   1   2
ATOM      2  C   UNL     1     136.764 137.116 139.697  1.00  0.00     0.000 C 
BRANCH   2   3
ATOM      3  C   UNL     1     136.301 137.443 141.122  1.00  0.00     0.000 C 
BRANCH   3   4
ATOM      4  C   UNL     1     135.441 138.716 141.142  1.00  0.00     0.000 C 
BRANCH   4   5
ATOM      5  C   UNL     1     136.109 139.894 140.415  1.00  0.00     0.000 C 
BRANCH   5   6
ATOM      6  C   UNL     1     136.481 141.043 141.369  1.00  0.00     0.006 C 
BRANCH   6   7
ATOM      7  C   UNL     1     136.663 142.375 140.628  1.00  0.00     0.053 C 
BRANCH   7   8
ATOM      8  C   UNL     1     138.110 142.737 140.479  1.00  0.00     0.041 C 
ATOM      9  O   UNL     1     138.957 142.311 141.309  1.00  0.00    -0.550 OA
ATOM     10  O   UNL     1     138.518 143.565 139.443  1.00  0.00    -0.550 OA
ENDBRANCH   7   8
ENDBRANCH   6   7
ENDBRANCH   5   6
ENDBRANCH   4   5
ENDBRANCH   3   4
ENDBRANCH   2   3
ENDBRANCH   1   2
BRANCH   1  11
ATOM     11  C   UNL     1     138.915 137.120 141.029  1.00  0.00     0.000 C 
BRANCH  11  12
ATOM     12  C   UNL     1     139.536 135.843 141.621  1.00  0.00    -0.000 C 
BRANCH  12  13
ATOM     13  C   UNL     1     141.058 135.696 141.414  1.00  0.00    -0.000 C 
BRANCH  13  14
ATOM     14  C   UNL     1     141.479 134.890 140.172  1.00  0.00    -0.000 C 
BRANCH  14  15
ATOM     15  C   UNL     1     140.454 133.811 139.784  1.00  0.00    -0.000 C 
BRANCH  15  16
ATOM     16  C   UNL     1     140.244 133.704 138.262  1.00  0.00    -0.000 C 
BRANCH  16  17
ATOM     17  C   UNL     1     138.776 133.594 137.813  1.00  0.00    -0.003 C 
ATOM     18  C   UNL     1     137.832 133.190 138.944  1.00  0.00     0.004 C 
ENDBRANCH  16  17
ENDBRANCH  15  16
ENDBRANCH  14  15
ENDBRANCH  13  14
ENDBRANCH  12  13
ENDBRANCH  11  12
ENDBRANCH   1  11
TORSDOF 14
ENDMDL
MODEL 7
REMARK VINA RESULT:    -4.418      3.798      7.631
REMARK INTER + INTRA:          -9.485
REMARK INTER:                  -8.085
REMARK INTRA:                  -1.400
REMARK UNBOUND:                -1.451
REMARK SMILES CCCCCCCCCCCCCCCC(=O)[O-]
REMARK SMILES IDX 9 1 10 2 11 3 12 4 13 5 14 6 15 7 16 8 17 9 18 10 8 11 7 12
REMARK SMILES IDX 6 13 5 14 4 15 3 16 2 17 1 18
REMARK H PARENT
REMARK Flexibility Score: inf
ROOT
ATOM      1  C   UNL     1     130.220 140.279 138.436  1.00  0.00     0.000 C 
ENDROOT
BRANCH   1   2
ATOM      2  C   UNL     1     129.783 139.430 139.635  1.00  0.00     0.000 C 
BRANCH   2   3
ATOM      3  C   UNL     1     128.585 140.065 140.353  1.00  0.00     0.000 C 
BRANCH   3   4
ATOM      4  C   UNL     1     129.047 140.904 141.554  1.00  0.00     0.000 C 
BRANCH   4   5
ATOM      5  C   UNL     1     128.556 142.359 141.484  1.00  0.00     0.000 C 
BRANCH   5   6
ATOM      6  C   UNL     1     127.954 142.715 140.113  1.00  0.00     0.006 C 
BRANCH   6   7
ATOM      7  C   UNL     1     126.595 143.416 140.242  1.00  0.00     0.053 C 
BRANCH   7   8
ATOM      8  C   UNL     1     126.274 144.237 139.030  1.00  0.00     0.041 C 
ATOM      9  O   UNL     1     126.090 145.479 139.138  1.00  0.00    -0.550 OA
ATOM     10  O   UNL     1     126.149 143.629 137.789  1.00  0.00    -0.550 OA
ENDBRANCH   7   8
ENDBRANCH   6   7
ENDBRANCH   5   6
ENDBRANCH   4   5
ENDBRANCH   3   4
ENDBRANCH   2   3
ENDBRANCH   1   2
BRANCH   1  11
ATOM     11  C   UNL     1     131.366 141.226 138.822  1.00  0.00     0.000 C 
BRANCH  11  12
ATOM     12  C   UNL     1     132.312 140.622 139.874  1.00  0.00    -0.000 C 
BRANCH  12  13
ATOM     13  C   UNL     1     132.735 141.584 141.005  1.00  0.00    -0.000 C 
BRANCH  13  14
ATOM     14  C   UNL     1     133.868 141.073 141.913  1.00  0.00    -0.000 C 
BRANCH  14  15
ATOM     15  C   UNL     1     135.185 141.845 141.717  1.00  0.00    -0.000 C 
BRANCH  15  16
ATOM     16  C   UNL     1     136.341 140.945 141.242  1.00  0.00    -0.000 C 
BRANCH  16  17
ATOM     17  C   UNL     1     135.975 139.462 141.048  1.00  0.00    -0.003 C 
ATOM     18  C   UNL     1     137.195 138.541 141.036  1.00  0.00     0.004 C 
ENDBRANCH  16  17
ENDBRANCH  15  16
ENDBRANCH  14  15
ENDBRANCH  13  14
ENDBRANCH  12  13
ENDBRANCH  11  12
ENDBRANCH   1  11
TORSDOF 14
ENDMDL
MODEL 8
REMARK VINA RESULT:    -4.373      1.949      4.807
REMARK INTER + INTRA:          -9.403
REMARK INTER:                  -7.325
REMARK INTRA:                  -2.078
REMARK UNBOUND:                -1.451
REMARK SMILES CCCCCCCCCCCCCCCC(=O)[O-]
REMARK SMILES IDX 9 1 10 2 11 3 12 4 13 5 14 6 15 7 16 8 17 9 18 10 8 11 7 12
REMARK SMILES IDX 6 13 5 14 4 15 3 16 2 17 1 18
REMARK H PARENT
REMARK Flexibility Score: inf
ROOT
ATOM      1  C   UNL     1     129.316 139.140 137.601  1.00  0.00     0.000 C 
ENDROOT
BRANCH   1   2
ATOM      2  C   UNL     1     130.725 139.679 137.873  1.00  0.00     0.000 C 
BRANCH   2   3
ATOM      3  C   UNL     1     131.709 138.535 138.150  1.00  0.00     0.000 C 
BRANCH   3   4
ATOM      4  C   UNL     1     132.680 138.908 139.280  1.00  0.00     0.000 C 
BRANCH   4   5
ATOM      5  C   UNL     1     132.063 138.726 140.676  1.00  0.00     0.000 C 
BRANCH   5   6
ATOM      6  C   UNL     1     132.496 139.827 141.661  1.00  0.00     0.006 C 
BRANCH   6   7
ATOM      7  C   UNL     1     133.034 141.070 140.940  1.00  0.00     0.053 C 
BRANCH   7   8
ATOM      8  C   UNL     1     134.273 141.601 141.594  1.00  0.00     0.041 C 
ATOM      9  O   UNL     1     134.462 142.845 141.675  1.00  0.00    -0.550 OA
ATOM     10  O   UNL     1     135.230 140.726 142.089  1.00  0.00    -0.550 OA
ENDBRANCH   7   8
ENDBRANCH   6   7
ENDBRANCH   5   6
ENDBRANCH   4   5
ENDBRANCH   3   4
ENDBRANCH   2   3
ENDBRANCH   1   2
BRANCH   1  11
ATOM     11  C   UNL     1     128.299 139.739 138.586  1.00  0.00     0.000 C 
BRANCH  11  12
ATOM     12  C   UNL     1     128.476 139.211 140.021  1.00  0.00    -0.000 C 
BRANCH  12  13
ATOM     13  C   UNL     1     128.432 140.288 141.125  1.00  0.00    -0.000 C 
BRANCH  13  14
ATOM     14  C   UNL     1     129.357 141.498 140.903  1.00  0.00    -0.000 C 
BRANCH  14  15
ATOM     15  C   UNL     1     128.613 142.842 140.985  1.00  0.00    -0.000 C 
BRANCH  15  16
ATOM     16  C   UNL     1     127.139 142.739 140.554  1.00  0.00    -0.000 C 
BRANCH  16  17
ATOM     17  C   UNL     1     126.725 143.687 139.413  1.00  0.00    -0.003 C 
ATOM     18  C   UNL     1     126.554 142.973 138.073  1.00  0.00     0.004 C 
ENDBRANCH  16  17
ENDBRANCH  15  16
ENDBRANCH  14  15
ENDBRANCH  13  14
ENDBRANCH  12  13
ENDBRANCH  11  12
ENDBRANCH   1  11
TORSDOF 14
ENDMDL
MODEL 9
REMARK VINA RESULT:    -4.339      8.618     11.981
REMARK INTER + INTRA:          -9.341
REMARK INTER:                  -7.712
REMARK INTRA:                  -1.629
REMARK UNBOUND:                -1.451
REMARK SMILES CCCCCCCCCCCCCCCC(=O)[O-]
REMARK SMILES IDX 9 1 10 2 11 3 12 4 13 5 14 6 15 7 16 8 17 9 18 10 8 11 7 12
REMARK SMILES IDX 6 13 5 14 4 15 3 16 2 17 1 18
REMARK H PARENT
REMARK Flexibility Score: inf
ROOT
ATOM      1  C   UNL     1     137.622 136.804 139.378  1.00  0.00     0.000 C 
ENDROOT
BRANCH   1   2
ATOM      2  C   UNL     1     136.573 136.043 140.197  1.00  0.00     0.000 C 
BRANCH   2   3
ATOM      3  C   UNL     1     135.160 136.560 139.900  1.00  0.00     0.000 C 
BRANCH   3   4
ATOM      4  C   UNL     1     134.145 135.993 140.905  1.00  0.00     0.000 C 
BRANCH   4   5
ATOM      5  C   UNL     1     133.664 134.582 140.530  1.00  0.00     0.000 C 
BRANCH   5   6
ATOM      6  C   UNL     1     133.151 134.498 139.081  1.00  0.00     0.006 C 
BRANCH   6   7
ATOM      7  C   UNL     1     132.420 133.178 138.802  1.00  0.00     0.053 C 
BRANCH   7   8
ATOM      8  C   UNL     1     131.401 132.871 139.857  1.00  0.00     0.041 C 
ATOM      9  O   UNL     1     131.544 131.865 140.602  1.00  0.00    -0.550 OA
ATOM     10  O   UNL     1     130.280 133.677 139.998  1.00  0.00    -0.550 OA
ENDBRANCH   7   8
ENDBRANCH   6   7
ENDBRANCH   5   6
ENDBRANCH   4   5
ENDBRANCH   3   4
ENDBRANCH   2   3
ENDBRANCH   1   2
BRANCH   1  11
ATOM     11  C   UNL     1     138.861 137.121 140.229  1.00  0.00     0.000 C 
BRANCH  11  12
ATOM     12  C   UNL     1     138.887 136.344 141.557  1.00  0.00    -0.000 C 
BRANCH  12  13
ATOM     13  C   UNL     1     139.923 135.203 141.630  1.00  0.00    -0.000 C 
BRANCH  13  14
ATOM     14  C   UNL     1     140.997 135.216 140.527  1.00  0.00    -0.000 C 
BRANCH  14  15
ATOM     15  C   UNL     1     140.871 134.030 139.556  1.00  0.00    -0.000 C 
BRANCH  15  16
ATOM     16  C   UNL     1     139.560 133.243 139.738  1.00  0.00    -0.000 C 
BRANCH  16  17
ATOM     17  C   UNL     1     138.570 133.346 138.565  1.00  0.00    -0.003 C 
ATOM     18  C   UNL     1     139.213 133.872 137.282  1.00  0.00     0.004 C 
ENDBRANCH  16  17
ENDBRANCH  15  16
ENDBRANCH  14  15
ENDBRANCH  13  14
ENDBRANCH  12  13
ENDBRANCH  11  12
ENDBRANCH   1  11
TORSDOF 14
ENDMDL
