MODEL 1
REMARK VINA RESULT:    -3.867      0.000      0.000
REMARK INTER + INTRA:          -4.892
REMARK INTER:                  -4.771
REMARK INTRA:                  -0.121
REMARK UNBOUND:                -0.121
REMARK SMILES CCCCCC(=O)[O-]
REMARK SMILES IDX 4 1 5 2 6 3 7 4 8 5 3 6 2 7 1 8
REMARK H PARENT
REMARK Flexibility Score: inf
ROOT
ATOM      1  C   UNL     1       7.683   7.932  79.346  1.00  0.00     0.006 C 
ENDROOT
BRANCH   1   2
ATOM      2  C   UNL     1       8.918   7.025  79.274  1.00  0.00     0.053 C 
BRANCH   2   3
ATOM      3  C   UNL     1       8.561   5.624  79.662  1.00  0.00     0.041 C 
ATOM      4  O   UNL     1       7.355   5.299  79.821  1.00  0.00    -0.550 OA
ATOM      5  O   UNL     1       9.557   4.666  79.800  1.00  0.00    -0.550 OA
ENDBRANCH   2   3
ENDBRANCH   1   2
BRANCH   1   6
ATOM      6  C   UNL     1       7.561   8.658  80.695  1.00  0.00     0.000 C 
BRANCH   6   7
ATOM      7  C   UNL     1       6.270   8.300  81.444  1.00  0.00    -0.003 C 
ATOM      8  C   UNL     1       5.564   9.554  81.951  1.00  0.00     0.004 C 
ENDBRANCH   6   7
ENDBRANCH   1   6
TORSDOF 4
ENDMDL
MODEL 2
REMARK VINA RESULT:    -3.795      0.972      1.216
REMARK INTER + INTRA:          -4.803
REMARK INTER:                  -4.711
REMARK INTRA:                  -0.092
REMARK UNBOUND:                -0.121
REMARK SMILES CCCCCC(=O)[O-]
REMARK SMILES IDX 4 1 5 2 6 3 7 4 8 5 3 6 2 7 1 8
REMARK H PARENT
REMARK Flexibility Score: inf
ROOT
ATOM      1  C   UNL     1       7.301   7.607  79.534  1.00  0.00     0.006 C 
ENDROOT
BRANCH   1   2
ATOM      2  C   UNL     1       7.552   6.138  79.897  1.00  0.00     0.053 C 
BRANCH   2   3
ATOM      3  C   UNL     1       8.958   5.750  79.562  1.00  0.00     0.041 C 
ATOM      4  O   UNL     1       9.727   6.577  79.004  1.00  0.00    -0.550 OA
ATOM      5  O   UNL     1       9.435   4.493  79.910  1.00  0.00    -0.550 OA
ENDBRANCH   2   3
ENDBRANCH   1   2
BRANCH   1   6
ATOM      6  C   UNL     1       7.222   8.516  80.770  1.00  0.00     0.000 C 
BRANCH   6   7
ATOM      7  C   UNL     1       5.928   8.315  81.571  1.00  0.00    -0.003 C 
ATOM      8  C   UNL     1       5.411   9.641  82.121  1.00  0.00     0.004 C 
ENDBRANCH   6   7
ENDBRANCH   1   6
TORSDOF 4
ENDMDL
MODEL 3
REMARK VINA RESULT:    -3.791      1.515      2.234
REMARK INTER + INTRA:          -4.798
REMARK INTER:                  -4.658
REMARK INTRA:                  -0.140
REMARK UNBOUND:                -0.121
REMARK SMILES CCCCCC(=O)[O-]
REMARK SMILES IDX 4 1 5 2 6 3 7 4 8 5 3 6 2 7 1 8
REMARK H PARENT
REMARK Flexibility Score: inf
ROOT
ATOM      1  C   UNL     1       8.008   7.656  79.253  1.00  0.00     0.006 C 
ENDROOT
BRANCH   1   2
ATOM      2  C   UNL     1       9.100   6.598  79.041  1.00  0.00     0.053 C 
BRANCH   2   3
ATOM      3  C   UNL     1       8.727   5.320  79.723  1.00  0.00     0.041 C 
ATOM      4  O   UNL     1       7.523   5.077  79.999  1.00  0.00    -0.550 OA
ATOM      5  O   UNL     1       9.703   4.373  80.007  1.00  0.00    -0.550 OA
ENDBRANCH   2   3
ENDBRANCH   1   2
BRANCH   1   6
ATOM      6  C   UNL     1       8.359   8.653  80.369  1.00  0.00     0.000 C 
BRANCH   6   7
ATOM      7  C   UNL     1       9.760   9.257  80.201  1.00  0.00    -0.003 C 
ATOM      8  C   UNL     1       9.686  10.660  79.608  1.00  0.00     0.004 C 
ENDBRANCH   6   7
ENDBRANCH   1   6
TORSDOF 4
ENDMDL
MODEL 4
REMARK VINA RESULT:    -3.706      1.278      1.486
REMARK INTER + INTRA:          -4.694
REMARK INTER:                  -4.611
REMARK INTRA:                  -0.083
REMARK UNBOUND:                -0.121
REMARK SMILES CCCCCC(=O)[O-]
REMARK SMILES IDX 4 1 5 2 6 3 7 4 8 5 3 6 2 7 1 8
REMARK H PARENT
REMARK Flexibility Score: inf
ROOT
ATOM      1  C   UNL     1       7.248   8.358  80.296  1.00  0.00     0.006 C 
ENDROOT
BRANCH   1   2
ATOM      2  C   UNL     1       7.029   6.872  79.982  1.00  0.00     0.053 C 
BRANCH   2   3
ATOM      3  C   UNL     1       8.323   6.220  79.611  1.00  0.00     0.041 C 
ATOM      4  O   UNL     1       8.543   5.022  79.931  1.00  0.00    -0.550 OA
ATOM      5  O   UNL     1       9.266   6.919  78.869  1.00  0.00    -0.550 OA
ENDBRANCH   2   3
ENDBRANCH   1   2
BRANCH   1   6
ATOM      6  C   UNL     1       6.732   8.750  81.690  1.00  0.00     0.000 C 
BRANCH   6   7
ATOM      7  C   UNL     1       5.268   8.347  81.913  1.00  0.00    -0.003 C 
ATOM      8  C   UNL     1       4.434   9.540  82.369  1.00  0.00     0.004 C 
ENDBRANCH   6   7
ENDBRANCH   1   6
TORSDOF 4
ENDMDL
MODEL 5
REMARK VINA RESULT:    -3.691      2.842      4.522
REMARK INTER + INTRA:          -4.674
REMARK INTER:                  -4.584
REMARK INTRA:                  -0.090
REMARK UNBOUND:                -0.121
REMARK SMILES CCCCCC(=O)[O-]
REMARK SMILES IDX 4 1 5 2 6 3 7 4 8 5 3 6 2 7 1 8
REMARK H PARENT
REMARK Flexibility Score: inf
ROOT
ATOM      1  C   UNL     1       6.923   7.536  80.359  1.00  0.00     0.006 C 
ENDROOT
BRANCH   1   2
ATOM      2  C   UNL     1       6.989   8.691  81.366  1.00  0.00     0.053 C 
BRANCH   2   3
ATOM      3  C   UNL     1       5.611   9.100  81.783  1.00  0.00     0.041 C 
ATOM      4  O   UNL     1       5.238  10.296  81.649  1.00  0.00    -0.550 OA
ATOM      5  O   UNL     1       4.722   8.152  82.270  1.00  0.00    -0.550 OA
ENDBRANCH   2   3
ENDBRANCH   1   2
BRANCH   1   6
ATOM      6  C   UNL     1       7.830   7.762  79.139  1.00  0.00     0.000 C 
BRANCH   6   7
ATOM      7  C   UNL     1       9.080   6.872  79.158  1.00  0.00    -0.003 C 
ATOM      8  C   UNL     1       8.726   5.437  79.534  1.00  0.00     0.004 C 
ENDBRANCH   6   7
ENDBRANCH   1   6
TORSDOF 4
ENDMDL
MODEL 6
REMARK VINA RESULT:    -3.600      2.859      4.114
REMARK INTER + INTRA:          -4.563
REMARK INTER:                  -4.389
REMARK INTRA:                  -0.174
REMARK UNBOUND:                -0.121
REMARK SMILES CCCCCC(=O)[O-]
REMARK SMILES IDX 4 1 5 2 6 3 7 4 8 5 3 6 2 7 1 8
REMARK H PARENT
REMARK Flexibility Score: inf
ROOT
ATOM      1  C   UNL     1       7.591   8.041  80.644  1.00  0.00     0.006 C 
ENDROOT
BRANCH   1   2
ATOM      2  C   UNL     1       7.766   9.344  79.853  1.00  0.00     0.053 C 
BRANCH   2   3
ATOM      3  C   UNL     1       9.211   9.726  79.789  1.00  0.00     0.041 C 
ATOM      4  O   UNL     1      10.103   8.876  80.049  1.00  0.00    -0.550 OA
ATOM      5  O   UNL     1       9.575  11.007  79.393  1.00  0.00    -0.550 OA
ENDBRANCH   2   3
ENDBRANCH   1   2
BRANCH   1   6
ATOM      6  C   UNL     1       6.822   6.969  79.855  1.00  0.00     0.000 C 
BRANCH   6   7
ATOM      7  C   UNL     1       7.527   5.606  79.869  1.00  0.00    -0.003 C 
ATOM      8  C   UNL     1       8.939   5.711  79.301  1.00  0.00     0.004 C 
ENDBRANCH   6   7
ENDBRANCH   1   6
TORSDOF 4
ENDMDL
MODEL 7
REMARK VINA RESULT:    -3.562      2.538      4.020
REMARK INTER + INTRA:          -4.516
REMARK INTER:                  -4.379
REMARK INTRA:                  -0.137
REMARK UNBOUND:                -0.121
REMARK SMILES CCCCCC(=O)[O-]
REMARK SMILES IDX 4 1 5 2 6 3 7 4 8 5 3 6 2 7 1 8
REMARK H PARENT
REMARK Flexibility Score: inf
ROOT
ATOM      1  C   UNL     1       8.865   7.642  78.969  1.00  0.00     0.006 C 
ENDROOT
BRANCH   1   2
ATOM      2  C   UNL     1       8.863   8.773  80.006  1.00  0.00     0.053 C 
BRANCH   2   3
ATOM      3  C   UNL     1       7.465   9.236  80.270  1.00  0.00     0.041 C 
ATOM      4  O   UNL     1       6.998  10.227  79.650  1.00  0.00    -0.550 OA
ATOM      5  O   UNL     1       6.661   8.543  81.166  1.00  0.00    -0.550 OA
ENDBRANCH   2   3
ENDBRANCH   1   2
BRANCH   1   6
ATOM      6  C   UNL     1       9.854   6.519  79.322  1.00  0.00     0.000 C 
BRANCH   6   7
ATOM      7  C   UNL     1       9.156   5.176  79.576  1.00  0.00    -0.003 C 
ATOM      8  C   UNL     1       7.665   5.371  79.833  1.00  0.00     0.004 C 
ENDBRANCH   6   7
ENDBRANCH   1   6
TORSDOF 4
ENDMDL
MODEL 8
REMARK VINA RESULT:    -3.428      3.559      5.016
REMARK INTER + INTRA:          -4.350
REMARK INTER:                  -4.295
REMARK INTRA:                  -0.055
REMARK UNBOUND:                -0.121
REMARK SMILES CCCCCC(=O)[O-]
REMARK SMILES IDX 4 1 5 2 6 3 7 4 8 5 3 6 2 7 1 8
REMARK H PARENT
REMARK Flexibility Score: inf
ROOT
ATOM      1  C   UNL     1       7.002   8.764  80.719  1.00  0.00     0.006 C 
ENDROOT
BRANCH   1   2
ATOM      2  C   UNL     1       6.147   8.933  81.983  1.00  0.00     0.053 C 
BRANCH   2   3
ATOM      3  C   UNL     1       5.181  10.062  81.812  1.00  0.00     0.041 C 
ATOM      4  O   UNL     1       4.122  10.099  82.493  1.00  0.00    -0.550 OA
ATOM      5  O   UNL     1       5.472  11.101  80.937  1.00  0.00    -0.550 OA
ENDBRANCH   2   3
ENDBRANCH   1   2
BRANCH   1   6
ATOM      6  C   UNL     1       7.049   7.308  80.228  1.00  0.00     0.000 C 
BRANCH   6   7
ATOM      7  C   UNL     1       8.422   6.920  79.662  1.00  0.00    -0.003 C 
ATOM      8  C   UNL     1       8.586   5.404  79.613  1.00  0.00     0.004 C 
ENDBRANCH   6   7
ENDBRANCH   1   6
TORSDOF 4
ENDMDL
MODEL 9
REMARK VINA RESULT:    -3.316      7.454      8.412
REMARK INTER + INTRA:          -4.213
REMARK INTER:                  -4.072
REMARK INTRA:                  -0.141
REMARK UNBOUND:                -0.121
REMARK SMILES CCCCCC(=O)[O-]
REMARK SMILES IDX 4 1 5 2 6 3 7 4 8 5 3 6 2 7 1 8
REMARK H PARENT
REMARK Flexibility Score: inf
ROOT
ATOM      1  C   UNL     1       2.141   7.790  85.487  1.00  0.00     0.006 C 
ENDROOT
BRANCH   1   2
ATOM      2  C   UNL     1       2.934   6.491  85.287  1.00  0.00     0.053 C 
BRANCH   2   3
ATOM      3  C   UNL     1       2.243   5.348  85.962  1.00  0.00     0.041 C 
ATOM      4  O   UNL     1       1.074   5.490  86.409  1.00  0.00    -0.550 OA
ATOM      5  O   UNL     1       2.870   4.112  86.054  1.00  0.00    -0.550 OA
ENDBRANCH   2   3
ENDBRANCH   1   2
BRANCH   1   6
ATOM      6  C   UNL     1       2.706   8.659  86.621  1.00  0.00     0.000 C 
BRANCH   6   7
ATOM      7  C   UNL     1       1.788   8.696  87.850  1.00  0.00    -0.003 C 
ATOM      8  C   UNL     1       2.282   9.714  88.874  1.00  0.00     0.004 C 
ENDBRANCH   6   7
ENDBRANCH   1   6
TORSDOF 4
ENDMDL
