MODEL 1
REMARK VINA RESULT:     7.978      0.000      0.000
REMARK INTER + INTRA:           9.515
REMARK INTER:                   9.610
REMARK INTRA:                  -0.095
REMARK UNBOUND:                -0.095
REMARK SMILES O=c1c(O)c(-c2ccc(O)cc2O)oc2cc(O)cc(O)c12
REMARK SMILES IDX 5 1 3 2 2 3 1 4 22 5 20 6 19 7 17 8 16 9 15 10 14 11 6 12
REMARK SMILES IDX 8 13 7 14 9 15 11 16 12 17 10 18 13 20 4 22 21 24 18 26
REMARK H PARENT 10 19 13 21 4 23 21 25 18 27
REMARK Flexibility Score: inf
ROOT
ATOM      1  C   UNL     1     141.983 173.936 174.215  1.00  0.00     0.184 A 
ATOM      2  C   UNL     1     142.018 174.722 175.381  1.00  0.00     0.208 A 
ATOM      3  C   UNL     1     141.833 174.099 176.626  1.00  0.00     0.238 A 
ATOM      4  O   UNL     1     141.853 174.796 177.678  1.00  0.00    -0.285 OA
ATOM      5  C   UNL     1     141.633 172.705 176.684  1.00  0.00     0.111 A 
ATOM      6  C   UNL     1     141.442 171.999 177.895  1.00  0.00     0.134 A 
ATOM      7  C   UNL     1     141.257 170.609 177.869  1.00  0.00     0.093 A 
ATOM      8  C   UNL     1     141.260 169.912 176.659  1.00  0.00     0.123 A 
ATOM      9  C   UNL     1     141.446 170.604 175.458  1.00  0.00     0.094 A 
ATOM     10  C   UNL     1     141.632 171.989 175.463  1.00  0.00     0.146 A 
ATOM     11  O   UNL     1     141.803 172.622 174.308  1.00  0.00    -0.451 OA
ENDROOT
BRANCH   1  12
ATOM     12  C   UNL     1     142.154 174.530 172.869  1.00  0.00     0.063 A 
ATOM     13  C   UNL     1     141.334 174.899 170.606  1.00  0.00     0.047 A 
ATOM     14  C   UNL     1     141.161 174.363 171.886  1.00  0.00     0.020 A 
ATOM     15  C   UNL     1     142.501 175.598 170.287  1.00  0.00     0.119 A 
ATOM     16  C   UNL     1     143.501 175.757 171.254  1.00  0.00     0.093 A 
ATOM     17  C   UNL     1     143.335 175.224 172.541  1.00  0.00     0.130 A 
BRANCH  15  18
ATOM     18  O   UNL     1     142.657 176.125 169.008  1.00  0.00    -0.508 OA
ATOM     19  H   UNL     1     142.918 175.540 168.223  1.00  0.00     0.293 HD
ENDBRANCH  15  18
BRANCH  17  20
ATOM     20  O   UNL     1     144.337 175.395 173.497  1.00  0.00    -0.507 OA
ATOM     21  H   UNL     1     145.319 175.326 173.256  1.00  0.00     0.293 HD
ENDBRANCH  17  20
ENDBRANCH   1  12
BRANCH   2  22
ATOM     22  O   UNL     1     142.259 176.097 175.298  1.00  0.00    -0.502 OA
ATOM     23  H   UNL     1     141.574 176.745 174.929  1.00  0.00     0.293 HD
ENDBRANCH   2  22
BRANCH   6  24
ATOM     24  O   UNL     1     141.436 172.666 179.121  1.00  0.00    -0.507 OA
ATOM     25  H   UNL     1     142.062 173.439 179.312  1.00  0.00     0.293 HD
ENDBRANCH   6  24
BRANCH   8  26
ATOM     26  O   UNL     1     141.075 168.531 176.662  1.00  0.00    -0.508 OA
ATOM     27  H   UNL     1     141.543 167.933 175.992  1.00  0.00     0.293 HD
ENDBRANCH   8  26
TORSDOF 6
ENDMDL
