MODEL 1
REMARK VINA RESULT:    -4.925      0.000      0.000
REMARK INTER + INTRA:          -6.382
REMARK INTER:                  -6.940
REMARK INTRA:                   0.558
REMARK UNBOUND:                 0.558
REMARK SMILES CC1=CCC(=C(C)C)C(=O)CC(C)=CCC1
REMARK SMILES IDX 12 1 14 2 13 3 15 4 16 5 2 6 1 7 3 8 11 10 9 11 10 12 5 13
REMARK SMILES IDX 6 14 7 15 8 16 4 17
REMARK H PARENT
REMARK Flexibility Score: 60.00
ROOT
ATOM      1  C   UNL     1      17.490 -31.808  21.813  1.00  0.00    -0.070 C 
ATOM      2  C   UNL     1      18.076 -32.089  20.626  1.00  0.00    -0.027 C 
ATOM      3  C   UNL     1      17.067 -30.386  22.075  1.00  0.00     0.039 C 
ENDROOT
BRANCH   2   4
ATOM      4  C   UNL     1      18.632 -33.427  20.200  1.00  0.00     0.032 C 
BRANCH   4   5
ATOM      5  C   UNL     1      17.697 -34.189  19.244  1.00  0.00     0.034 C 
BRANCH   5   6
ATOM      6  C   UNL     1      16.841 -35.218  19.960  1.00  0.00    -0.077 C 
ATOM      7  C   UNL     1      17.385 -36.616  20.115  1.00  0.00     0.039 C 
ATOM      8  C   UNL     1      15.624 -34.951  20.487  1.00  0.00    -0.023 CG0
ATOM      9  G   UNL     1      14.935 -33.607  20.488  1.00  0.00     0.000 G0
ENDBRANCH   5   6
ENDBRANCH   4   5
ENDBRANCH   2   4
BRANCH   1  10
ATOM     10  C   UNL     1      17.251 -32.840  22.901  1.00  0.00     0.111 C 
BRANCH  10  11
ATOM     11  C   UNL     1      15.837 -33.370  22.891  1.00  0.00     0.163 C 
ATOM     12  O   UNL     1      15.520 -34.234  23.752  1.00  0.00    -0.294 OA
BRANCH  11  13
ATOM     13  C   UNL     1      14.839 -32.967  21.854  1.00  0.00    -0.002 C 
ATOM     14  C   UNL     1      13.939 -31.974  22.111  1.00  0.00    -0.069 C 
ATOM     15  C   UNL     1      13.885 -31.290  23.460  1.00  0.00     0.039 C 
ATOM     16  C   UNL     1      12.991 -31.476  21.044  1.00  0.00     0.039 C 
BRANCH  13  17
ATOM     17  C   UNL     1      14.950 -33.583  20.465  1.00  0.00     0.066 CG0
ATOM     18  G   UNL     1      15.612 -34.940  20.506  1.00  0.00     0.000 G0
ENDBRANCH  13  17
ENDBRANCH  11  13
ENDBRANCH  10  11
ENDBRANCH   1  10
TORSDOF 0
ENDMDL
MODEL 2
REMARK VINA RESULT:    -4.684      2.088      4.859
REMARK INTER + INTRA:          -6.043
REMARK INTER:                  -6.593
REMARK INTRA:                   0.549
REMARK UNBOUND:                 0.558
REMARK SMILES CC1=CCC(=C(C)C)C(=O)CC(C)=CCC1
REMARK SMILES IDX 12 1 14 2 13 3 15 4 16 5 2 6 1 7 3 8 11 10 9 11 10 12 5 13
REMARK SMILES IDX 6 14 7 15 8 16 4 17
REMARK H PARENT
REMARK Flexibility Score: 60.00
ROOT
ATOM      1  C   UNL     1      15.885 -33.920  23.712  1.00  0.00    -0.070 C 
ATOM      2  C   UNL     1      15.059 -33.198  24.505  1.00  0.00    -0.027 C 
ATOM      3  C   UNL     1      17.260 -34.248  24.235  1.00  0.00     0.039 C 
ENDROOT
BRANCH   2   4
ATOM      4  C   UNL     1      13.677 -32.708  24.141  1.00  0.00     0.032 C 
BRANCH   4   5
ATOM      5  C   UNL     1      13.601 -31.178  24.002  1.00  0.00     0.034 C 
BRANCH   5   6
ATOM      6  C   UNL     1      13.396 -30.732  22.565  1.00  0.00    -0.077 C 
ATOM      7  C   UNL     1      11.994 -30.410  22.110  1.00  0.00     0.039 C 
ATOM      8  C   UNL     1      14.400 -30.588  21.669  1.00  0.00    -0.023 CG0
ATOM      9  G   UNL     1      15.869 -30.803  21.945  1.00  0.00     0.000 G0
ENDBRANCH   5   6
ENDBRANCH   4   5
ENDBRANCH   2   4
BRANCH   1  10
ATOM     10  C   UNL     1      15.512 -34.402  22.322  1.00  0.00     0.111 C 
BRANCH  10  11
ATOM     11  C   UNL     1      15.452 -33.275  21.319  1.00  0.00     0.163 C 
ATOM     12  O   UNL     1      14.630 -33.367  20.369  1.00  0.00    -0.294 OA
BRANCH  11  13
ATOM     13  C   UNL     1      16.383 -32.106  21.373  1.00  0.00    -0.002 C 
ATOM     14  C   UNL     1      17.622 -32.183  20.805  1.00  0.00    -0.069 C 
ATOM     15  C   UNL     1      18.112 -33.459  20.155  1.00  0.00     0.039 C 
ATOM     16  C   UNL     1      18.539 -30.982  20.752  1.00  0.00     0.039 C 
BRANCH  13  17
ATOM     17  C   UNL     1      15.862 -30.791  21.938  1.00  0.00     0.066 CG0
ATOM     18  G   UNL     1      14.390 -30.603  21.651  1.00  0.00     0.000 G0
ENDBRANCH  13  17
ENDBRANCH  11  13
ENDBRANCH  10  11
ENDBRANCH   1  10
TORSDOF 0
ENDMDL
MODEL 3
REMARK VINA RESULT:    -4.647      2.018      4.108
REMARK INTER + INTRA:          -5.991
REMARK INTER:                  -6.167
REMARK INTRA:                   0.176
REMARK UNBOUND:                 0.558
REMARK SMILES CC1=CCC(=C(C)C)C(=O)CC(C)=CCC1
REMARK SMILES IDX 12 1 14 2 13 3 15 4 16 5 2 6 1 7 3 8 11 10 9 11 10 12 5 13
REMARK SMILES IDX 6 14 7 15 8 16 4 17
REMARK H PARENT
REMARK Flexibility Score: 60.00
ROOT
ATOM      1  C   UNL     1      14.256 -30.565  22.267  1.00  0.00    -0.070 C 
ATOM      2  C   UNL     1      13.678 -31.765  22.030  1.00  0.00    -0.027 C 
ATOM      3  C   UNL     1      13.550 -29.610  23.196  1.00  0.00     0.039 C 
ENDROOT
BRANCH   2   4
ATOM      4  C   UNL     1      14.184 -32.827  21.083  1.00  0.00     0.032 C 
BRANCH   4   5
ATOM      5  C   UNL     1      15.357 -33.638  21.662  1.00  0.00     0.034 C 
BRANCH   5   6
ATOM      6  C   UNL     1      16.497 -33.801  20.673  1.00  0.00    -0.077 C 
ATOM      7  C   UNL     1      16.215 -34.494  19.364  1.00  0.00     0.039 C 
ATOM      8  C   UNL     1      17.753 -33.344  20.888  1.00  0.00    -0.023 CG0
ATOM      9  G   UNL     1      18.220 -32.577  22.103  1.00  0.00     0.000 G0
ENDBRANCH   5   6
ENDBRANCH   4   5
ENDBRANCH   2   4
BRANCH   1  10
ATOM     10  C   UNL     1      15.564 -30.119  21.637  1.00  0.00     0.111 C 
BRANCH  10  11
ATOM     11  C   UNL     1      16.759 -30.456  22.496  1.00  0.00     0.163 C 
ATOM     12  O   UNL     1      16.722 -30.142  23.715  1.00  0.00    -0.294 OA
BRANCH  11  13
ATOM     13  C   UNL     1      18.002 -31.068  21.933  1.00  0.00    -0.002 C 
ATOM     14  C   UNL     1      18.978 -30.280  21.396  1.00  0.00    -0.069 C 
ATOM     15  C   UNL     1      18.814 -28.778  21.303  1.00  0.00     0.039 C 
ATOM     16  C   UNL     1      20.287 -30.865  20.918  1.00  0.00     0.039 C 
BRANCH  13  17
ATOM     17  C   UNL     1      18.214 -32.566  22.111  1.00  0.00     0.066 CG0
ATOM     18  G   UNL     1      17.769 -33.343  20.894  1.00  0.00     0.000 G0
ENDBRANCH  13  17
ENDBRANCH  11  13
ENDBRANCH  10  11
ENDBRANCH   1  10
TORSDOF 0
ENDMDL
MODEL 4
REMARK VINA RESULT:    -4.584      1.605      2.100
REMARK INTER + INTRA:          -5.902
REMARK INTER:                  -6.427
REMARK INTRA:                   0.525
REMARK UNBOUND:                 0.558
REMARK SMILES CC1=CCC(=C(C)C)C(=O)CC(C)=CCC1
REMARK SMILES IDX 12 1 14 2 13 3 15 4 16 5 2 6 1 7 3 8 11 10 9 11 10 12 5 13
REMARK SMILES IDX 6 14 7 15 8 16 4 17
REMARK H PARENT
REMARK Flexibility Score: 60.00
ROOT
ATOM      1  C   UNL     1      18.779 -32.219  20.737  1.00  0.00    -0.070 C 
ATOM      2  C   UNL     1      18.582 -33.381  20.071  1.00  0.00    -0.027 C 
ATOM      3  C   UNL     1      20.156 -31.941  21.282  1.00  0.00     0.039 C 
ENDROOT
BRANCH   2   4
ATOM      4  C   UNL     1      17.269 -33.878  19.514  1.00  0.00     0.032 C 
BRANCH   4   5
ATOM      5  C   UNL     1      16.774 -35.164  20.199  1.00  0.00     0.034 C 
BRANCH   5   6
ATOM      6  C   UNL     1      16.814 -35.071  21.714  1.00  0.00    -0.077 C 
ATOM      7  C   UNL     1      17.794 -35.943  22.458  1.00  0.00     0.039 C 
ATOM      8  C   UNL     1      16.034 -34.235  22.439  1.00  0.00    -0.023 CG0
ATOM      9  G   UNL     1      15.038 -33.246  21.880  1.00  0.00     0.000 G0
ENDBRANCH   5   6
ENDBRANCH   4   5
ENDBRANCH   2   4
BRANCH   1  10
ATOM     10  C   UNL     1      17.688 -31.192  20.982  1.00  0.00     0.111 C 
BRANCH  10  11
ATOM     11  C   UNL     1      16.905 -31.474  22.241  1.00  0.00     0.163 C 
ATOM     12  O   UNL     1      17.528 -31.496  23.337  1.00  0.00    -0.294 OA
BRANCH  11  13
ATOM     13  C   UNL     1      15.447 -31.806  22.220  1.00  0.00    -0.002 C 
ATOM     14  C   UNL     1      14.513 -30.821  22.357  1.00  0.00    -0.069 C 
ATOM     15  C   UNL     1      14.916 -29.380  22.588  1.00  0.00     0.039 C 
ATOM     16  C   UNL     1      13.036 -31.115  22.232  1.00  0.00     0.039 C 
BRANCH  13  17
ATOM     17  C   UNL     1      15.035 -33.235  21.892  1.00  0.00     0.066 CG0
ATOM     18  G   UNL     1      16.024 -34.241  22.435  1.00  0.00     0.000 G0
ENDBRANCH  13  17
ENDBRANCH  11  13
ENDBRANCH  10  11
ENDBRANCH   1  10
TORSDOF 0
ENDMDL
MODEL 5
REMARK VINA RESULT:    -4.498      2.208      4.892
REMARK INTER + INTRA:          -5.781
REMARK INTER:                  -5.989
REMARK INTRA:                   0.207
REMARK UNBOUND:                 0.558
REMARK SMILES CC1=CCC(=C(C)C)C(=O)CC(C)=CCC1
REMARK SMILES IDX 12 1 14 2 13 3 15 4 16 5 2 6 1 7 3 8 11 10 9 11 10 12 5 13
REMARK SMILES IDX 6 14 7 15 8 16 4 17
REMARK H PARENT
REMARK Flexibility Score: 60.00
ROOT
ATOM      1  C   UNL     1      15.617 -34.439  20.835  1.00  0.00    -0.070 C 
ATOM      2  C   UNL     1      14.699 -33.594  20.310  1.00  0.00    -0.027 C 
ATOM      3  C   UNL     1      16.199 -35.499  19.935  1.00  0.00     0.039 C 
ENDROOT
BRANCH   2   4
ATOM      4  C   UNL     1      13.949 -32.517  21.057  1.00  0.00     0.032 C 
BRANCH   4   5
ATOM      5  C   UNL     1      14.815 -31.280  21.357  1.00  0.00     0.034 C 
BRANCH   5   6
ATOM      6  C   UNL     1      14.790 -30.893  22.824  1.00  0.00    -0.077 C 
ATOM      7  C   UNL     1      13.458 -30.568  23.455  1.00  0.00     0.039 C 
ATOM      8  C   UNL     1      15.890 -30.839  23.610  1.00  0.00    -0.023 CG0
ATOM      9  G   UNL     1      17.299 -31.182  23.184  1.00  0.00     0.000 G0
ENDBRANCH   5   6
ENDBRANCH   4   5
ENDBRANCH   2   4
BRANCH   1  10
ATOM     10  C   UNL     1      16.079 -34.390  22.280  1.00  0.00     0.111 C 
BRANCH  10  11
ATOM     11  C   UNL     1      17.404 -33.685  22.437  1.00  0.00     0.163 C 
ATOM     12  O   UNL     1      18.356 -34.036  21.689  1.00  0.00    -0.294 OA
BRANCH  11  13
ATOM     13  C   UNL     1      17.643 -32.655  23.494  1.00  0.00    -0.002 C 
ATOM     14  C   UNL     1      18.270 -32.992  24.658  1.00  0.00    -0.069 C 
ATOM     15  C   UNL     1      18.692 -34.418  24.940  1.00  0.00     0.039 C 
ATOM     16  C   UNL     1      18.618 -31.949  25.695  1.00  0.00     0.039 C 
BRANCH  13  17
ATOM     17  C   UNL     1      17.309 -31.203  23.177  1.00  0.00     0.066 CG0
ATOM     18  G   UNL     1      15.900 -30.849  23.595  1.00  0.00     0.000 G0
ENDBRANCH  13  17
ENDBRANCH  11  13
ENDBRANCH  10  11
ENDBRANCH   1  10
TORSDOF 0
ENDMDL
MODEL 6
REMARK VINA RESULT:    -4.468      2.006      3.884
REMARK INTER + INTRA:          -5.738
REMARK INTER:                  -5.902
REMARK INTRA:                   0.164
REMARK UNBOUND:                 0.558
REMARK SMILES CC1=CCC(=C(C)C)C(=O)CC(C)=CCC1
REMARK SMILES IDX 12 1 14 2 13 3 15 4 16 5 2 6 1 7 3 8 11 10 9 11 10 12 5 13
REMARK SMILES IDX 6 14 7 15 8 16 4 17
REMARK H PARENT
REMARK Flexibility Score: 60.00
ROOT
ATOM      1  C   UNL     1      15.794 -30.505  22.876  1.00  0.00    -0.070 C 
ATOM      2  C   UNL     1      16.579 -29.761  22.062  1.00  0.00    -0.027 C 
ATOM      3  C   UNL     1      14.350 -30.102  23.031  1.00  0.00     0.039 C 
ENDROOT
BRANCH   2   4
ATOM      4  C   UNL     1      18.058 -29.954  21.829  1.00  0.00     0.032 C 
BRANCH   4   5
ATOM      5  C   UNL     1      18.362 -30.935  20.683  1.00  0.00     0.034 C 
BRANCH   5   6
ATOM      6  C   UNL     1      19.396 -31.978  21.066  1.00  0.00    -0.077 C 
ATOM      7  C   UNL     1      20.828 -31.536  21.237  1.00  0.00     0.039 C 
ATOM      8  C   UNL     1      19.108 -33.283  21.283  1.00  0.00    -0.023 CG0
ATOM      9  G   UNL     1      17.733 -33.908  21.221  1.00  0.00     0.000 G0
ENDBRANCH   5   6
ENDBRANCH   4   5
ENDBRANCH   2   4
BRANCH   1  10
ATOM     10  C   UNL     1      16.290 -31.711  23.655  1.00  0.00     0.111 C 
BRANCH  10  11
ATOM     11  C   UNL     1      16.014 -33.011  22.939  1.00  0.00     0.163 C 
ATOM     12  O   UNL     1      14.816 -33.303  22.678  1.00  0.00    -0.294 OA
BRANCH  11  13
ATOM     13  C   UNL     1      17.096 -33.988  22.608  1.00  0.00    -0.002 C 
ATOM     14  C   UNL     1      17.406 -34.995  23.474  1.00  0.00    -0.069 C 
ATOM     15  C   UNL     1      16.710 -35.125  24.812  1.00  0.00     0.039 C 
ATOM     16  C   UNL     1      18.421 -36.056  23.116  1.00  0.00     0.039 C 
BRANCH  13  17
ATOM     17  C   UNL     1      17.733 -33.921  21.226  1.00  0.00     0.066 CG0
ATOM     18  G   UNL     1      19.110 -33.301  21.273  1.00  0.00     0.000 G0
ENDBRANCH  13  17
ENDBRANCH  11  13
ENDBRANCH  10  11
ENDBRANCH   1  10
TORSDOF 0
ENDMDL
MODEL 7
REMARK VINA RESULT:    -4.410      2.279      3.889
REMARK INTER + INTRA:          -5.656
REMARK INTER:                  -6.107
REMARK INTRA:                   0.450
REMARK UNBOUND:                 0.558
REMARK SMILES CC1=CCC(=C(C)C)C(=O)CC(C)=CCC1
REMARK SMILES IDX 12 1 14 2 13 3 15 4 16 5 2 6 1 7 3 8 11 10 9 11 10 12 5 13
REMARK SMILES IDX 6 14 7 15 8 16 4 17
REMARK H PARENT
REMARK Flexibility Score: 60.00
ROOT
ATOM      1  C   UNL     1      14.785 -32.895  22.303  1.00  0.00    -0.070 C 
ATOM      2  C   UNL     1      14.719 -33.026  20.958  1.00  0.00    -0.027 C 
ATOM      3  C   UNL     1      14.289 -31.611  22.915  1.00  0.00     0.039 C 
ENDROOT
BRANCH   2   4
ATOM      4  C   UNL     1      15.227 -34.197  20.150  1.00  0.00     0.032 C 
BRANCH   4   5
ATOM      5  C   UNL     1      16.759 -34.211  20.011  1.00  0.00     0.034 C 
BRANCH   5   6
ATOM      6  C   UNL     1      17.359 -35.575  20.296  1.00  0.00    -0.077 C 
ATOM      7  C   UNL     1      17.020 -36.714  19.367  1.00  0.00     0.039 C 
ATOM      8  C   UNL     1      18.197 -35.831  21.327  1.00  0.00    -0.023 CG0
ATOM      9  G   UNL     1      18.702 -34.818  22.329  1.00  0.00     0.000 G0
ENDBRANCH   5   6
ENDBRANCH   4   5
ENDBRANCH   2   4
BRANCH   1  10
ATOM     10  C   UNL     1      15.348 -33.960  23.228  1.00  0.00     0.111 C 
BRANCH  10  11
ATOM     11  C   UNL     1      16.781 -33.687  23.615  1.00  0.00     0.163 C 
ATOM     12  O   UNL     1      17.100 -32.506  23.918  1.00  0.00    -0.294 OA
BRANCH  11  13
ATOM     13  C   UNL     1      17.838 -34.744  23.570  1.00  0.00    -0.002 C 
ATOM     14  C   UNL     1      17.914 -35.686  24.554  1.00  0.00    -0.069 C 
ATOM     15  C   UNL     1      16.974 -35.663  25.741  1.00  0.00     0.039 C 
ATOM     16  C   UNL     1      18.903 -36.826  24.477  1.00  0.00     0.039 C 
BRANCH  13  17
ATOM     17  C   UNL     1      18.722 -34.831  22.333  1.00  0.00     0.066 CG0
ATOM     18  G   UNL     1      18.191 -35.833  21.335  1.00  0.00     0.000 G0
ENDBRANCH  13  17
ENDBRANCH  11  13
ENDBRANCH  10  11
ENDBRANCH   1  10
TORSDOF 0
ENDMDL
MODEL 8
REMARK VINA RESULT:    -4.274      2.227      4.498
REMARK INTER + INTRA:          -5.466
REMARK INTER:                  -6.010
REMARK INTRA:                   0.544
REMARK UNBOUND:                 0.558
REMARK SMILES CC1=CCC(=C(C)C)C(=O)CC(C)=CCC1
REMARK SMILES IDX 12 1 14 2 13 3 15 4 16 5 2 6 1 7 3 8 11 10 9 11 10 12 5 13
REMARK SMILES IDX 6 14 7 15 8 16 4 17
REMARK H PARENT
REMARK Flexibility Score: 60.00
ROOT
ATOM      1  C   UNL     1      17.485 -31.069  22.041  1.00  0.00    -0.070 C 
ATOM      2  C   UNL     1      16.805 -29.966  22.432  1.00  0.00    -0.027 C 
ATOM      3  C   UNL     1      18.848 -31.309  22.636  1.00  0.00     0.039 C 
ENDROOT
BRANCH   2   4
ATOM      4  C   UNL     1      15.465 -29.510  21.905  1.00  0.00     0.032 C 
BRANCH   4   5
ATOM      5  C   UNL     1      14.354 -29.560  22.969  1.00  0.00     0.034 C 
BRANCH   5   6
ATOM      6  C   UNL     1      13.432 -30.753  22.795  1.00  0.00    -0.077 C 
ATOM      7  C   UNL     1      12.134 -30.551  22.054  1.00  0.00     0.039 C 
ATOM      8  C   UNL     1      13.714 -31.996  23.248  1.00  0.00    -0.023 CG0
ATOM      9  G   UNL     1      14.981 -32.414  23.958  1.00  0.00     0.000 G0
ENDBRANCH   5   6
ENDBRANCH   4   5
ENDBRANCH   2   4
BRANCH   1  10
ATOM     10  C   UNL     1      16.960 -32.066  21.023  1.00  0.00     0.111 C 
BRANCH  10  11
ATOM     11  C   UNL     1      15.922 -32.992  21.608  1.00  0.00     0.163 C 
ATOM     12  O   UNL     1      15.046 -33.466  20.836  1.00  0.00    -0.294 OA
BRANCH  11  13
ATOM     13  C   UNL     1      15.852 -33.295  23.071  1.00  0.00    -0.002 C 
ATOM     14  C   UNL     1      16.662 -34.247  23.618  1.00  0.00    -0.069 C 
ATOM     15  C   UNL     1      17.611 -35.060  22.763  1.00  0.00     0.039 C 
ATOM     16  C   UNL     1      16.686 -34.497  25.108  1.00  0.00     0.039 C 
BRANCH  13  17
ATOM     17  C   UNL     1      14.972 -32.416  23.950  1.00  0.00     0.066 CG0
ATOM     18  G   UNL     1      13.704 -32.005  23.239  1.00  0.00     0.000 G0
ENDBRANCH  13  17
ENDBRANCH  11  13
ENDBRANCH  10  11
ENDBRANCH   1  10
TORSDOF 0
ENDMDL
MODEL 9
REMARK VINA RESULT:    -4.250      1.324      3.970
REMARK INTER + INTRA:          -5.432
REMARK INTER:                  -6.025
REMARK INTRA:                   0.593
REMARK UNBOUND:                 0.558
REMARK SMILES CC1=CCC(=C(C)C)C(=O)CC(C)=CCC1
REMARK SMILES IDX 12 1 14 2 13 3 15 4 16 5 2 6 1 7 3 8 11 10 9 11 10 12 5 13
REMARK SMILES IDX 6 14 7 15 8 16 4 17
REMARK H PARENT
REMARK Flexibility Score: 60.00
ROOT
ATOM      1  C   UNL     1      18.309 -31.460  22.109  1.00  0.00    -0.070 C 
ATOM      2  C   UNL     1      17.627 -30.319  21.853  1.00  0.00    -0.027 C 
ATOM      3  C   UNL     1      19.377 -31.881  21.132  1.00  0.00     0.039 C 
ENDROOT
BRANCH   2   4
ATOM      4  C   UNL     1      16.479 -29.765  22.663  1.00  0.00     0.032 C 
BRANCH   4   5
ATOM      5  C   UNL     1      15.130 -29.849  21.926  1.00  0.00     0.034 C 
BRANCH   5   6
ATOM      6  C   UNL     1      14.177 -30.842  22.566  1.00  0.00    -0.077 C 
ATOM      7  C   UNL     1      13.173 -30.326  23.566  1.00  0.00     0.039 C 
ATOM      8  C   UNL     1      14.160 -32.164  22.278  1.00  0.00    -0.023 CG0
ATOM      9  G   UNL     1      15.039 -32.861  21.267  1.00  0.00     0.000 G0
ENDBRANCH   5   6
ENDBRANCH   4   5
ENDBRANCH   2   4
BRANCH   1  10
ATOM     10  C   UNL     1      18.046 -32.348  23.312  1.00  0.00     0.111 C 
BRANCH  10  11
ATOM     11  C   UNL     1      16.735 -33.089  23.204  1.00  0.00     0.163 C 
ATOM     12  O   UNL     1      16.105 -33.339  24.266  1.00  0.00    -0.294 OA
BRANCH  11  13
ATOM     13  C   UNL     1      16.209 -33.599  21.901  1.00  0.00    -0.002 C 
ATOM     14  C   UNL     1      16.675 -34.771  21.379  1.00  0.00    -0.069 C 
ATOM     15  C   UNL     1      17.769 -35.558  22.067  1.00  0.00     0.039 C 
ATOM     16  C   UNL     1      16.084 -35.361  20.120  1.00  0.00     0.039 C 
BRANCH  13  17
ATOM     17  C   UNL     1      15.042 -32.863  21.254  1.00  0.00     0.066 CG0
ATOM     18  G   UNL     1      14.171 -32.181  22.283  1.00  0.00     0.000 G0
ENDBRANCH  13  17
ENDBRANCH  11  13
ENDBRANCH  10  11
ENDBRANCH   1  10
TORSDOF 0
ENDMDL
