MODEL 1
REMARK VINA RESULT:    -2.969      0.000      0.000
REMARK INTER + INTRA:          -4.548
REMARK INTER:                  -4.011
REMARK INTRA:                  -0.536
REMARK UNBOUND:                -0.536
REMARK SMILES [NH3+]CCCC[C@H]([NH3+])C(=O)[O-]
REMARK SMILES IDX 4 1 3 2 2 3 1 4 5 8 6 9 7 10 8 14 9 15 10 16
REMARK H PARENT 1 5 1 6 1 7 7 11 7 12 7 13
REMARK Flexibility Score: inf
ROOT
ATOM      1  C   UNL     1     140.680 101.053 108.639  1.00  0.00     0.012 C 
ENDROOT
BRANCH   1   2
ATOM      2  C   UNL     1     139.525 102.044 108.885  1.00  0.00     0.061 C 
BRANCH   2   3
ATOM      3  C   UNL     1     139.586 103.329 108.039  1.00  0.00     0.258 C 
BRANCH   3   4
ATOM      4  N   UNL     1     138.657 103.292 106.907  1.00  0.00    -0.358 N 
ATOM      5  H   UNL     1     139.071 102.706 106.148  1.00  0.00     0.344 HD
ATOM      6  H   UNL     1     138.503 104.256 106.532  1.00  0.00     0.344 HD
ATOM      7  H   UNL     1     137.745 102.872 107.197  1.00  0.00     0.344 HD
ENDBRANCH   3   4
ENDBRANCH   2   3
ENDBRANCH   1   2
BRANCH   1   8
ATOM      8  C   UNL     1     140.596 100.263 107.318  1.00  0.00     0.072 C 
BRANCH   8   9
ATOM      9  C   UNL     1     141.631 100.677 106.245  1.00  0.00     0.227 C 
BRANCH   9  10
ATOM     10  N   UNL     1     142.504 101.761 106.717  1.00  0.00    -0.350 N 
ATOM     11  H   UNL     1     142.151 102.691 106.391  1.00  0.00     0.345 HD
ATOM     12  H   UNL     1     143.475 101.619 106.355  1.00  0.00     0.345 HD
ATOM     13  H   UNL     1     142.553 101.754 107.760  1.00  0.00     0.345 HD
ENDBRANCH   9  10
BRANCH   9  14
ATOM     14  C   UNL     1     140.911 101.095 104.990  1.00  0.00     0.099 C 
ATOM     15  O   UNL     1     140.611 102.303 104.799  1.00  0.00    -0.544 OA
ATOM     16  O   UNL     1     140.545 100.141 104.050  1.00  0.00    -0.544 OA
ENDBRANCH   9  14
ENDBRANCH   8   9
ENDBRANCH   1   8
TORSDOF 7
ENDMDL
MODEL 2
REMARK VINA RESULT:    -2.917      2.004      3.578
REMARK INTER + INTRA:          -4.476
REMARK INTER:                  -3.928
REMARK INTRA:                  -0.548
REMARK UNBOUND:                -0.536
REMARK SMILES [NH3+]CCCC[C@H]([NH3+])C(=O)[O-]
REMARK SMILES IDX 4 1 3 2 2 3 1 4 5 8 6 9 7 10 8 14 9 15 10 16
REMARK H PARENT 1 5 1 6 1 7 7 11 7 12 7 13
REMARK Flexibility Score: inf
ROOT
ATOM      1  C   UNL     1     140.638 100.350 107.577  1.00  0.00     0.012 C 
ENDROOT
BRANCH   1   2
ATOM      2  C   UNL     1     141.188 100.105 106.158  1.00  0.00     0.061 C 
BRANCH   2   3
ATOM      3  C   UNL     1     142.503 100.841 105.839  1.00  0.00     0.258 C 
BRANCH   3   4
ATOM      4  N   UNL     1     142.333 101.852 104.793  1.00  0.00    -0.358 N 
ATOM      5  H   UNL     1     142.124 101.372 103.888  1.00  0.00     0.344 HD
ATOM      6  H   UNL     1     143.213 102.405 104.677  1.00  0.00     0.344 HD
ATOM      7  H   UNL     1     141.538 102.489 105.027  1.00  0.00     0.344 HD
ENDBRANCH   3   4
ENDBRANCH   2   3
ENDBRANCH   1   2
BRANCH   1   8
ATOM      8  C   UNL     1     141.138 101.639 108.260  1.00  0.00     0.072 C 
BRANCH   8   9
ATOM      9  C   UNL     1     140.069 102.747 108.421  1.00  0.00     0.227 C 
BRANCH   9  10
ATOM     10  N   UNL     1     138.808 102.216 108.956  1.00  0.00    -0.350 N 
ATOM     11  H   UNL     1     138.956 101.786 109.898  1.00  0.00     0.345 HD
ATOM     12  H   UNL     1     138.422 101.492 108.306  1.00  0.00     0.345 HD
ATOM     13  H   UNL     1     138.099 102.980 109.030  1.00  0.00     0.345 HD
ENDBRANCH   9  10
BRANCH   9  14
ATOM     14  C   UNL     1     139.833 103.411 107.090  1.00  0.00     0.099 C 
ATOM     15  O   UNL     1     138.678 103.446 106.590  1.00  0.00    -0.544 OA
ATOM     16  O   UNL     1     140.899 103.963 106.392  1.00  0.00    -0.544 OA
ENDBRANCH   9  14
ENDBRANCH   8   9
ENDBRANCH   1   8
TORSDOF 7
ENDMDL
MODEL 3
REMARK VINA RESULT:    -2.887     16.701     18.002
REMARK INTER + INTRA:          -4.437
REMARK INTER:                  -4.302
REMARK INTRA:                  -0.135
REMARK UNBOUND:                -0.536
REMARK SMILES [NH3+]CCCC[C@H]([NH3+])C(=O)[O-]
REMARK SMILES IDX 4 1 3 2 2 3 1 4 5 8 6 9 7 10 8 14 9 15 10 16
REMARK H PARENT 1 5 1 6 1 7 7 11 7 12 7 13
REMARK Flexibility Score: inf
ROOT
ATOM      1  C   UNL     1     128.414 113.345 110.526  1.00  0.00     0.012 C 
ENDROOT
BRANCH   1   2
ATOM      2  C   UNL     1     127.204 113.725 109.650  1.00  0.00     0.061 C 
BRANCH   2   3
ATOM      3  C   UNL     1     125.943 114.135 110.433  1.00  0.00     0.258 C 
BRANCH   3   4
ATOM      4  N   UNL     1     125.479 115.477 110.074  1.00  0.00    -0.358 N 
ATOM      5  H   UNL     1     124.434 115.494 110.102  1.00  0.00     0.344 HD
ATOM      6  H   UNL     1     125.786 115.720 109.104  1.00  0.00     0.344 HD
ATOM      7  H   UNL     1     125.845 116.183 110.753  1.00  0.00     0.344 HD
ENDBRANCH   3   4
ENDBRANCH   2   3
ENDBRANCH   1   2
BRANCH   1   8
ATOM      8  C   UNL     1     128.656 114.262 111.742  1.00  0.00     0.072 C 
BRANCH   8   9
ATOM      9  C   UNL     1     129.739 113.762 112.728  1.00  0.00     0.227 C 
BRANCH   9  10
ATOM     10  N   UNL     1     129.707 114.503 113.996  1.00  0.00    -0.350 N 
ATOM     11  H   UNL     1     128.723 114.627 114.330  1.00  0.00     0.345 HD
ATOM     12  H   UNL     1     130.146 115.445 113.870  1.00  0.00     0.345 HD
ATOM     13  H   UNL     1     130.259 113.995 114.723  1.00  0.00     0.345 HD
ENDBRANCH   9  10
BRANCH   9  14
ATOM     14  C   UNL     1     131.095 113.884 112.086  1.00  0.00     0.099 C 
ATOM     15  O   UNL     1     131.683 112.865 111.636  1.00  0.00    -0.544 OA
ATOM     16  O   UNL     1     131.720 115.122 112.016  1.00  0.00    -0.544 OA
ENDBRANCH   9  14
ENDBRANCH   8   9
ENDBRANCH   1   8
TORSDOF 7
ENDMDL
MODEL 4
REMARK VINA RESULT:    -2.851     16.957     17.841
REMARK INTER + INTRA:          -4.387
REMARK INTER:                  -4.277
REMARK INTRA:                  -0.110
REMARK UNBOUND:                -0.536
REMARK SMILES [NH3+]CCCC[C@H]([NH3+])C(=O)[O-]
REMARK SMILES IDX 4 1 3 2 2 3 1 4 5 8 6 9 7 10 8 14 9 15 10 16
REMARK H PARENT 1 5 1 6 1 7 7 11 7 12 7 13
REMARK Flexibility Score: inf
ROOT
ATOM      1  C   UNL     1     131.625 114.101 111.976  1.00  0.00     0.012 C 
ENDROOT
BRANCH   1   2
ATOM      2  C   UNL     1     131.463 115.579 112.385  1.00  0.00     0.061 C 
BRANCH   2   3
ATOM      3  C   UNL     1     132.643 116.489 111.996  1.00  0.00     0.258 C 
BRANCH   3   4
ATOM      4  N   UNL     1     133.154 117.253 113.137  1.00  0.00    -0.358 N 
ATOM      5  H   UNL     1     134.179 117.411 113.008  1.00  0.00     0.344 HD
ATOM      6  H   UNL     1     133.012 116.718 114.024  1.00  0.00     0.344 HD
ATOM      7  H   UNL     1     132.676 118.181 113.198  1.00  0.00     0.344 HD
ENDBRANCH   3   4
ENDBRANCH   2   3
ENDBRANCH   1   2
BRANCH   1   8
ATOM      8  C   UNL     1     130.320 113.386 111.573  1.00  0.00     0.072 C 
BRANCH   8   9
ATOM      9  C   UNL     1     129.022 114.138 111.951  1.00  0.00     0.227 C 
BRANCH   9  10
ATOM     10  N   UNL     1     128.525 113.737 113.275  1.00  0.00    -0.350 N 
ATOM     11  H   UNL     1     129.248 113.186 113.792  1.00  0.00     0.345 HD
ATOM     12  H   UNL     1     127.662 113.154 113.170  1.00  0.00     0.345 HD
ATOM     13  H   UNL     1     128.266 114.582 113.832  1.00  0.00     0.345 HD
ENDBRANCH   9  10
BRANCH   9  14
ATOM     14  C   UNL     1     127.972 113.886 110.901  1.00  0.00     0.099 C 
ATOM     15  O   UNL     1     127.777 112.723 110.460  1.00  0.00    -0.544 OA
ATOM     16  O   UNL     1     127.234 114.945 110.390  1.00  0.00    -0.544 OA
ENDBRANCH   9  14
ENDBRANCH   8   9
ENDBRANCH   1   8
TORSDOF 7
ENDMDL
MODEL 5
REMARK VINA RESULT:    -2.839      7.599      9.013
REMARK INTER + INTRA:          -4.371
REMARK INTER:                  -3.891
REMARK INTRA:                  -0.480
REMARK UNBOUND:                -0.536
REMARK SMILES [NH3+]CCCC[C@H]([NH3+])C(=O)[O-]
REMARK SMILES IDX 4 1 3 2 2 3 1 4 5 8 6 9 7 10 8 14 9 15 10 16
REMARK H PARENT 1 5 1 6 1 7 7 11 7 12 7 13
REMARK Flexibility Score: inf
ROOT
ATOM      1  C   UNL     1     135.723 106.979 100.067  1.00  0.00     0.012 C 
ENDROOT
BRANCH   1   2
ATOM      2  C   UNL     1     136.222 106.099  98.904  1.00  0.00     0.061 C 
BRANCH   2   3
ATOM      3  C   UNL     1     137.342 105.110  99.278  1.00  0.00     0.258 C 
BRANCH   3   4
ATOM      4  N   UNL     1     138.676 105.690  99.102  1.00  0.00    -0.358 N 
ATOM      5  H   UNL     1     138.799 106.470  99.787  1.00  0.00     0.344 HD
ATOM      6  H   UNL     1     138.779 106.079  98.137  1.00  0.00     0.344 HD
ATOM      7  H   UNL     1     139.413 104.969  99.278  1.00  0.00     0.344 HD
ENDBRANCH   3   4
ENDBRANCH   2   3
ENDBRANCH   1   2
BRANCH   1   8
ATOM      8  C   UNL     1     136.268 106.599 101.459  1.00  0.00     0.072 C 
BRANCH   8   9
ATOM      9  C   UNL     1     137.237 107.630 102.083  1.00  0.00     0.227 C 
BRANCH   9  10
ATOM     10  N   UNL     1     137.796 108.537 101.071  1.00  0.00    -0.350 N 
ATOM     11  H   UNL     1     137.974 109.485 101.479  1.00  0.00     0.345 HD
ATOM     12  H   UNL     1     137.130 108.631 100.269  1.00  0.00     0.345 HD
ATOM     13  H   UNL     1     138.688 108.148 100.693  1.00  0.00     0.345 HD
ENDBRANCH   9  10
BRANCH   9  14
ATOM     14  C   UNL     1     138.344 106.906 102.803  1.00  0.00     0.099 C 
ATOM     15  O   UNL     1     138.864 105.875 102.301  1.00  0.00    -0.544 OA
ATOM     16  O   UNL     1     138.775 107.357 104.044  1.00  0.00    -0.544 OA
ENDBRANCH   9  14
ENDBRANCH   8   9
ENDBRANCH   1   8
TORSDOF 7
ENDMDL
MODEL 6
REMARK VINA RESULT:    -2.798     18.033     18.980
REMARK INTER + INTRA:          -4.316
REMARK INTER:                  -3.872
REMARK INTRA:                  -0.444
REMARK UNBOUND:                -0.536
REMARK SMILES [NH3+]CCCC[C@H]([NH3+])C(=O)[O-]
REMARK SMILES IDX 4 1 3 2 2 3 1 4 5 8 6 9 7 10 8 14 9 15 10 16
REMARK H PARENT 1 5 1 6 1 7 7 11 7 12 7 13
REMARK Flexibility Score: inf
ROOT
ATOM      1  C   UNL     1     128.317 113.272 110.381  1.00  0.00     0.012 C 
ENDROOT
BRANCH   1   2
ATOM      2  C   UNL     1     127.135 113.762 109.520  1.00  0.00     0.061 C 
BRANCH   2   3
ATOM      3  C   UNL     1     125.946 114.328 110.318  1.00  0.00     0.258 C 
BRANCH   3   4
ATOM      4  N   UNL     1     125.844 115.784 110.203  1.00  0.00    -0.358 N 
ATOM      5  H   UNL     1     126.288 116.086 109.306  1.00  0.00     0.344 HD
ATOM      6  H   UNL     1     126.350 116.247 110.993  1.00  0.00     0.344 HD
ATOM      7  H   UNL     1     124.841 116.081 110.198  1.00  0.00     0.344 HD
ENDBRANCH   3   4
ENDBRANCH   2   3
ENDBRANCH   1   2
BRANCH   1   8
ATOM      8  C   UNL     1     128.275 113.707 111.860  1.00  0.00     0.072 C 
BRANCH   8   9
ATOM      9  C   UNL     1     129.544 114.436 112.360  1.00  0.00     0.227 C 
BRANCH   9  10
ATOM     10  N   UNL     1     130.125 113.777 113.538  1.00  0.00    -0.350 N 
ATOM     11  H   UNL     1     130.000 112.739 113.483  1.00  0.00     0.345 HD
ATOM     12  H   UNL     1     129.664 114.131 114.408  1.00  0.00     0.345 HD
ATOM     13  H   UNL     1     131.143 114.000 113.609  1.00  0.00     0.345 HD
ENDBRANCH   9  10
BRANCH   9  14
ATOM     14  C   UNL     1     129.207 115.869 112.678  1.00  0.00     0.099 C 
ATOM     15  O   UNL     1     129.730 116.444 113.668  1.00  0.00    -0.544 OA
ATOM     16  O   UNL     1     128.287 116.554 111.895  1.00  0.00    -0.544 OA
ENDBRANCH   9  14
ENDBRANCH   8   9
ENDBRANCH   1   8
TORSDOF 7
ENDMDL
MODEL 7
REMARK VINA RESULT:    -2.766      7.623      8.754
REMARK INTER + INTRA:          -4.272
REMARK INTER:                  -3.774
REMARK INTRA:                  -0.498
REMARK UNBOUND:                -0.536
REMARK SMILES [NH3+]CCCC[C@H]([NH3+])C(=O)[O-]
REMARK SMILES IDX 4 1 3 2 2 3 1 4 5 8 6 9 7 10 8 14 9 15 10 16
REMARK H PARENT 1 5 1 6 1 7 7 11 7 12 7 13
REMARK Flexibility Score: inf
ROOT
ATOM      1  C   UNL     1     136.126 106.784 101.384  1.00  0.00     0.012 C 
ENDROOT
BRANCH   1   2
ATOM      2  C   UNL     1     135.762 107.174  99.938  1.00  0.00     0.061 C 
BRANCH   2   3
ATOM      3  C   UNL     1     136.124 106.120  98.875  1.00  0.00     0.258 C 
BRANCH   3   4
ATOM      4  N   UNL     1     137.203 105.234  99.317  1.00  0.00    -0.358 N 
ATOM      5  H   UNL     1     137.961 105.811  99.746  1.00  0.00     0.344 HD
ATOM      6  H   UNL     1     137.604 104.716  98.502  1.00  0.00     0.344 HD
ATOM      7  H   UNL     1     136.849 104.557 100.032  1.00  0.00     0.344 HD
ENDBRANCH   3   4
ENDBRANCH   2   3
ENDBRANCH   1   2
BRANCH   1   8
ATOM      8  C   UNL     1     137.170 107.692 102.066  1.00  0.00     0.072 C 
BRANCH   8   9
ATOM      9  C   UNL     1     138.501 106.994 102.431  1.00  0.00     0.227 C 
BRANCH   9  10
ATOM     10  N   UNL     1     138.922 107.302 103.804  1.00  0.00    -0.350 N 
ATOM     11  H   UNL     1     138.340 106.776 104.498  1.00  0.00     0.345 HD
ATOM     12  H   UNL     1     138.824 108.328 103.985  1.00  0.00     0.345 HD
ATOM     13  H   UNL     1     139.928 107.055 103.936  1.00  0.00     0.345 HD
ENDBRANCH   9  10
BRANCH   9  14
ATOM     14  C   UNL     1     139.568 107.407 101.453  1.00  0.00     0.099 C 
ATOM     15  O   UNL     1     140.598 108.014 101.850  1.00  0.00    -0.544 OA
ATOM     16  O   UNL     1     139.405 107.150 100.098  1.00  0.00    -0.544 OA
ENDBRANCH   9  14
ENDBRANCH   8   9
ENDBRANCH   1   8
TORSDOF 7
ENDMDL
MODEL 8
REMARK VINA RESULT:    -2.738      2.074      2.540
REMARK INTER + INTRA:          -4.235
REMARK INTER:                  -3.722
REMARK INTRA:                  -0.513
REMARK UNBOUND:                -0.536
REMARK SMILES [NH3+]CCCC[C@H]([NH3+])C(=O)[O-]
REMARK SMILES IDX 4 1 3 2 2 3 1 4 5 8 6 9 7 10 8 14 9 15 10 16
REMARK H PARENT 1 5 1 6 1 7 7 11 7 12 7 13
REMARK Flexibility Score: inf
ROOT
ATOM      1  C   UNL     1     140.604 100.598 107.148  1.00  0.00     0.012 C 
ENDROOT
BRANCH   1   2
ATOM      2  C   UNL     1     140.604 101.042 108.625  1.00  0.00     0.061 C 
BRANCH   2   3
ATOM      3  C   UNL     1     139.543 102.100 108.981  1.00  0.00     0.258 C 
BRANCH   3   4
ATOM      4  N   UNL     1     139.014 102.776 107.794  1.00  0.00    -0.358 N 
ATOM      5  H   UNL     1     139.516 103.685 107.670  1.00  0.00     0.344 HD
ATOM      6  H   UNL     1     137.995 102.977 107.915  1.00  0.00     0.344 HD
ATOM      7  H   UNL     1     139.165 102.189 106.942  1.00  0.00     0.344 HD
ENDBRANCH   3   4
ENDBRANCH   2   3
ENDBRANCH   1   2
BRANCH   1   8
ATOM      8  C   UNL     1     141.963 100.711 106.429  1.00  0.00     0.072 C 
BRANCH   8   9
ATOM      9  C   UNL     1     142.088 101.909 105.458  1.00  0.00     0.227 C 
BRANCH   9  10
ATOM     10  N   UNL     1     143.016 101.624 104.355  1.00  0.00    -0.350 N 
ATOM     11  H   UNL     1     144.009 101.708 104.674  1.00  0.00     0.345 HD
ATOM     12  H   UNL     1     142.851 102.294 103.568  1.00  0.00     0.345 HD
ATOM     13  H   UNL     1     142.850 100.661 103.986  1.00  0.00     0.345 HD
ENDBRANCH   9  10
BRANCH   9  14
ATOM     14  C   UNL     1     142.541 103.127 106.219  1.00  0.00     0.099 C 
ATOM     15  O   UNL     1     143.767 103.345 106.403  1.00  0.00    -0.544 OA
ATOM     16  O   UNL     1     141.602 104.001 106.751  1.00  0.00    -0.544 OA
ENDBRANCH   9  14
ENDBRANCH   8   9
ENDBRANCH   1   8
TORSDOF 7
ENDMDL
