MODEL 1
REMARK VINA RESULT:    -6.212      0.000      0.000
REMARK INTER + INTRA:         -10.278
REMARK INTER:                  -9.299
REMARK INTRA:                  -0.979
REMARK UNBOUND:                -0.979
REMARK SMILES COC(=O)C1=CO[C@H](O[C@@H]2O[C@@H](CO)[C@@H](O)[C@@H](O)[C@@H]2O)[C@@H]2C(CO)=CC[C@@H]12
REMARK SMILES IDX 9 1 8 2 5 3 6 4 27 5 7 6 21 7 26 8 22 9 25 10 3 11 4 12 2 13
REMARK SMILES IDX 1 14 23 15 24 16 10 18 19 19 11 20 17 21 12 22 15 23 20 24
REMARK SMILES IDX 18 26 13 28 14 29 16 31
REMARK H PARENT 24 17 20 25 18 27 14 30 16 32
REMARK Flexibility Score: inf
ROOT
ATOM      1  O   UNL     1      -1.165   5.957   7.711  1.00  0.00    -0.310 OA
ENDROOT
BRANCH   1   2
ATOM      2  C   UNL     1      -2.538   5.620   7.790  1.00  0.00     0.316 C 
ATOM      3  C   UNL     1      -3.899   7.879   9.081  1.00  0.00     0.076 C 
ATOM      4  C   UNL     1      -3.666   6.733   9.761  1.00  0.00     0.202 C 
ATOM      5  C   UNL     1      -3.262   7.986   7.716  1.00  0.00     0.047 C 
ATOM      6  O   UNL     1      -2.996   5.640   9.160  1.00  0.00    -0.471 OA
ATOM      7  C   UNL     1      -3.367   6.641   7.009  1.00  0.00     0.094 C 
ATOM      8  C   UNL     1      -3.776   8.959   6.655  1.00  0.00     0.037 C 
ATOM      9  C   UNL     1      -3.011   7.003   5.608  1.00  0.00    -0.039 C 
ATOM     10  C   UNL     1      -3.304   8.289   5.395  1.00  0.00    -0.024 C 
BRANCH   3  11
ATOM     11  C   UNL     1      -4.571   9.023   9.739  1.00  0.00     0.337 C 
ATOM     12  O   UNL     1      -3.899  10.016  10.125  1.00  0.00    -0.246 OA
BRANCH  11  13
ATOM     13  O   UNL     1      -5.955   9.003   9.932  1.00  0.00    -0.466 OA
ATOM     14  C   UNL     1      -6.885   9.185   8.871  1.00  0.00     0.282 C 
ENDBRANCH  11  13
ENDBRANCH   3  11
BRANCH   9  15
ATOM     15  C   UNL     1      -2.596   6.041   4.531  1.00  0.00     0.187 C 
BRANCH  15  16
ATOM     16  O   UNL     1      -2.318   4.781   5.082  1.00  0.00    -0.392 OA
ATOM     17  H   UNL     1      -1.694   4.936   5.839  1.00  0.00     0.211 HD
ENDBRANCH  15  16
ENDBRANCH   9  15
ENDBRANCH   1   2
BRANCH   1  18
ATOM     18  C   UNL     1      -0.368   5.046   8.456  1.00  0.00     0.286 C 
ATOM     19  C   UNL     1       0.253   3.987   7.519  1.00  0.00     0.202 C 
ATOM     20  O   UNL     1       0.644   5.728   9.188  1.00  0.00    -0.341 OA
ATOM     21  C   UNL     1       1.315   4.627   6.598  1.00  0.00     0.179 C 
ATOM     22  C   UNL     1       1.532   6.428   8.328  1.00  0.00     0.178 C 
ATOM     23  C   UNL     1       2.319   5.446   7.430  1.00  0.00     0.177 C 
BRANCH  19  24
ATOM     24  O   UNL     1      -0.737   3.326   6.773  1.00  0.00    -0.385 OA
ATOM     25  H   UNL     1      -1.557   3.885   6.785  1.00  0.00     0.211 HD
ENDBRANCH  19  24
BRANCH  21  26
ATOM     26  O   UNL     1       1.970   3.659   5.816  1.00  0.00    -0.387 OA
ATOM     27  H   UNL     1       2.282   4.097   4.981  1.00  0.00     0.211 HD
ENDBRANCH  21  26
BRANCH  22  28
ATOM     28  C   UNL     1       2.461   7.311   9.172  1.00  0.00     0.191 C 
BRANCH  28  29
ATOM     29  O   UNL     1       3.739   7.377   8.598  1.00  0.00    -0.394 OA
ATOM     30  H   UNL     1       4.056   6.440   8.527  1.00  0.00     0.210 HD
ENDBRANCH  28  29
ENDBRANCH  22  28
BRANCH  23  31
ATOM     31  O   UNL     1       3.100   4.581   8.220  1.00  0.00    -0.387 OA
ATOM     32  H   UNL     1       3.130   3.703   7.754  1.00  0.00     0.211 HD
ENDBRANCH  23  31
ENDBRANCH   1  18
TORSDOF 11
ENDMDL
MODEL 2
REMARK VINA RESULT:    -5.635      1.813      6.830
REMARK INTER + INTRA:          -9.413
REMARK INTER:                  -8.051
REMARK INTRA:                  -1.363
REMARK UNBOUND:                -0.979
REMARK SMILES COC(=O)C1=CO[C@H](O[C@@H]2O[C@@H](CO)[C@@H](O)[C@@H](O)[C@@H]2O)[C@@H]2C(CO)=CC[C@@H]12
REMARK SMILES IDX 9 1 8 2 5 3 6 4 27 5 7 6 21 7 26 8 22 9 25 10 3 11 4 12 2 13
REMARK SMILES IDX 1 14 23 15 24 16 10 18 19 19 11 20 17 21 12 22 15 23 20 24
REMARK SMILES IDX 18 26 13 28 14 29 16 31
REMARK H PARENT 24 17 20 25 18 27 14 30 16 32
REMARK Flexibility Score: inf
ROOT
ATOM      1  O   UNL     1      -1.422   7.120   8.246  1.00  0.00    -0.310 OA
ENDROOT
BRANCH   1   2
ATOM      2  C   UNL     1      -0.830   6.328   9.260  1.00  0.00     0.316 C 
ATOM      3  C   UNL     1       1.022   4.480   7.928  1.00  0.00     0.076 C 
ATOM      4  C   UNL     1      -0.168   4.044   8.400  1.00  0.00     0.202 C 
ATOM      5  C   UNL     1       1.246   5.973   7.959  1.00  0.00     0.047 C 
ATOM      6  O   UNL     1      -1.081   4.924   9.031  1.00  0.00    -0.471 OA
ATOM      7  C   UNL     1       0.685   6.535   9.260  1.00  0.00     0.094 C 
ATOM      8  C   UNL     1       2.646   6.584   7.910  1.00  0.00     0.037 C 
ATOM      9  C   UNL     1       1.270   7.906   9.278  1.00  0.00    -0.039 C 
ATOM     10  C   UNL     1       2.405   7.912   8.572  1.00  0.00    -0.024 C 
BRANCH   3  11
ATOM     11  C   UNL     1       1.948   3.550   7.242  1.00  0.00     0.337 C 
ATOM     12  O   UNL     1       1.873   3.385   5.995  1.00  0.00    -0.246 OA
BRANCH  11  13
ATOM     13  O   UNL     1       2.909   2.852   7.979  1.00  0.00    -0.466 OA
ATOM     14  C   UNL     1       2.682   1.550   8.505  1.00  0.00     0.282 C 
ENDBRANCH  11  13
ENDBRANCH   3  11
BRANCH   9  15
ATOM     15  C   UNL     1       0.794   9.052  10.125  1.00  0.00     0.187 C 
BRANCH  15  16
ATOM     16  O   UNL     1      -0.357   9.627   9.566  1.00  0.00    -0.392 OA
ATOM     17  H   UNL     1      -0.224   9.624   8.581  1.00  0.00     0.211 HD
ENDBRANCH  15  16
ENDBRANCH   9  15
ENDBRANCH   1   2
BRANCH   1  18
ATOM     18  C   UNL     1      -2.800   6.812   8.092  1.00  0.00     0.286 C 
ATOM     19  C   UNL     1      -3.633   8.109   8.007  1.00  0.00     0.202 C 
ATOM     20  O   UNL     1      -3.020   5.995   6.948  1.00  0.00    -0.341 OA
ATOM     21  C   UNL     1      -3.346   8.858   6.687  1.00  0.00     0.179 C 
ATOM     22  C   UNL     1      -2.618   6.649   5.752  1.00  0.00     0.178 C 
ATOM     23  C   UNL     1      -3.487   7.901   5.489  1.00  0.00     0.177 C 
BRANCH  19  24
ATOM     24  O   UNL     1      -3.404   8.934   9.121  1.00  0.00    -0.385 OA
ATOM     25  H   UNL     1      -2.531   8.680   9.519  1.00  0.00     0.211 HD
ENDBRANCH  19  24
BRANCH  21  26
ATOM     26  O   UNL     1      -4.178   9.984   6.541  1.00  0.00    -0.387 OA
ATOM     27  H   UNL     1      -3.619  10.796   6.658  1.00  0.00     0.211 HD
ENDBRANCH  21  26
BRANCH  22  28
ATOM     28  C   UNL     1      -2.674   5.652   4.587  1.00  0.00     0.191 C 
BRANCH  28  29
ATOM     29  O   UNL     1      -2.255   4.380   5.002  1.00  0.00    -0.394 OA
ATOM     30  H   UNL     1      -2.233   3.818   4.185  1.00  0.00     0.210 HD
ENDBRANCH  28  29
ENDBRANCH  22  28
BRANCH  23  31
ATOM     31  O   UNL     1      -4.837   7.533   5.330  1.00  0.00    -0.387 OA
ATOM     32  H   UNL     1      -5.312   7.786   6.166  1.00  0.00     0.211 HD
ENDBRANCH  23  31
ENDBRANCH   1  18
TORSDOF 11
ENDMDL
MODEL 3
REMARK VINA RESULT:    -5.446     10.332     13.436
REMARK INTER + INTRA:          -9.132
REMARK INTER:                  -8.442
REMARK INTRA:                  -0.689
REMARK UNBOUND:                -0.979
REMARK SMILES COC(=O)C1=CO[C@H](O[C@@H]2O[C@@H](CO)[C@@H](O)[C@@H](O)[C@@H]2O)[C@@H]2C(CO)=CC[C@@H]12
REMARK SMILES IDX 9 1 8 2 5 3 6 4 27 5 7 6 21 7 26 8 22 9 25 10 3 11 4 12 2 13
REMARK SMILES IDX 1 14 23 15 24 16 10 18 19 19 11 20 17 21 12 22 15 23 20 24
REMARK SMILES IDX 18 26 13 28 14 29 16 31
REMARK H PARENT 24 17 20 25 18 27 14 30 16 32
REMARK Flexibility Score: inf
ROOT
ATOM      1  O   UNL     1      -5.864  -4.319   7.218  1.00  0.00    -0.310 OA
ENDROOT
BRANCH   1   2
ATOM      2  C   UNL     1      -5.135  -5.262   6.454  1.00  0.00     0.316 C 
ATOM      3  C   UNL     1      -2.597  -5.722   7.859  1.00  0.00     0.076 C 
ATOM      4  C   UNL     1      -2.638  -4.970   6.736  1.00  0.00     0.202 C 
ATOM      5  C   UNL     1      -3.931  -6.138   8.432  1.00  0.00     0.047 C 
ATOM      6  O   UNL     1      -3.856  -4.724   6.054  1.00  0.00    -0.471 OA
ATOM      7  C   UNL     1      -4.870  -6.514   7.293  1.00  0.00     0.094 C 
ATOM      8  C   UNL     1      -4.070  -7.327   9.382  1.00  0.00     0.037 C 
ATOM      9  C   UNL     1      -5.977  -7.196   8.020  1.00  0.00    -0.039 C 
ATOM     10  C   UNL     1      -5.508  -7.707   9.162  1.00  0.00    -0.024 C 
BRANCH   3  11
ATOM     11  C   UNL     1      -1.320  -5.939   8.575  1.00  0.00     0.337 C 
ATOM     12  O   UNL     1      -1.182  -5.539   9.762  1.00  0.00    -0.246 OA
BRANCH  11  13
ATOM     13  O   UNL     1      -0.261  -6.588   7.934  1.00  0.00    -0.466 OA
ATOM     14  C   UNL     1       1.095  -6.188   8.086  1.00  0.00     0.282 C 
ENDBRANCH  11  13
ENDBRANCH   3  11
BRANCH   9  15
ATOM     15  C   UNL     1      -7.351  -7.465   7.475  1.00  0.00     0.187 C 
BRANCH  15  16
ATOM     16  O   UNL     1      -7.445  -8.788   7.019  1.00  0.00    -0.392 OA
ATOM     17  H   UNL     1      -7.319  -9.370   7.815  1.00  0.00     0.211 HD
ENDBRANCH  15  16
ENDBRANCH   9  15
ENDBRANCH   1   2
BRANCH   1  18
ATOM     18  C   UNL     1      -5.730  -3.010   6.684  1.00  0.00     0.286 C 
ATOM     19  C   UNL     1      -6.754  -2.787   5.549  1.00  0.00     0.202 C 
ATOM     20  O   UNL     1      -5.877  -2.023   7.697  1.00  0.00    -0.341 OA
ATOM     21  C   UNL     1      -8.192  -2.733   6.113  1.00  0.00     0.179 C 
ATOM     22  C   UNL     1      -7.161  -2.080   8.303  1.00  0.00     0.178 C 
ATOM     23  C   UNL     1      -8.269  -1.734   7.281  1.00  0.00     0.177 C 
BRANCH  19  24
ATOM     24  O   UNL     1      -6.634  -3.772   4.555  1.00  0.00    -0.385 OA
ATOM     25  H   UNL     1      -6.512  -4.650   5.003  1.00  0.00     0.211 HD
ENDBRANCH  19  24
BRANCH  21  26
ATOM     26  O   UNL     1      -9.127  -2.419   5.110  1.00  0.00    -0.387 OA
ATOM     27  H   UNL     1      -9.649  -1.631   5.413  1.00  0.00     0.211 HD
ENDBRANCH  21  26
BRANCH  22  28
ATOM     28  C   UNL     1      -7.187  -1.149   9.522  1.00  0.00     0.191 C 
BRANCH  28  29
ATOM     29  O   UNL     1      -8.380  -0.413   9.559  1.00  0.00    -0.394 OA
ATOM     30  H   UNL     1      -8.452   0.036   8.677  1.00  0.00     0.210 HD
ENDBRANCH  28  29
ENDBRANCH  22  28
BRANCH  23  31
ATOM     31  O   UNL     1      -8.094  -0.422   6.798  1.00  0.00    -0.387 OA
ATOM     32  H   UNL     1      -8.113  -0.469   5.805  1.00  0.00     0.211 HD
ENDBRANCH  23  31
ENDBRANCH   1  18
TORSDOF 11
ENDMDL
MODEL 4
REMARK VINA RESULT:    -5.340     19.150     21.610
REMARK INTER + INTRA:          -8.973
REMARK INTER:                  -7.566
REMARK INTRA:                  -1.407
REMARK UNBOUND:                -0.979
REMARK SMILES COC(=O)C1=CO[C@H](O[C@@H]2O[C@@H](CO)[C@@H](O)[C@@H](O)[C@@H]2O)[C@@H]2C(CO)=CC[C@@H]12
REMARK SMILES IDX 9 1 8 2 5 3 6 4 27 5 7 6 21 7 26 8 22 9 25 10 3 11 4 12 2 13
REMARK SMILES IDX 1 14 23 15 24 16 10 18 19 19 11 20 17 21 12 22 15 23 20 24
REMARK SMILES IDX 18 26 13 28 14 29 16 31
REMARK H PARENT 24 17 20 25 18 27 14 30 16 32
REMARK Flexibility Score: inf
ROOT
ATOM      1  O   UNL     1       2.896  -6.745  -7.608  1.00  0.00    -0.310 OA
ENDROOT
BRANCH   1   2
ATOM      2  C   UNL     1       3.821  -6.721  -8.680  1.00  0.00     0.316 C 
ATOM      3  C   UNL     1       5.748  -4.584  -8.098  1.00  0.00     0.076 C 
ATOM      4  C   UNL     1       4.788  -4.412  -9.034  1.00  0.00     0.202 C 
ATOM      5  C   UNL     1       5.647  -5.837  -7.262  1.00  0.00     0.047 C 
ATOM      6  O   UNL     1       3.840  -5.425  -9.317  1.00  0.00    -0.471 OA
ATOM      7  C   UNL     1       5.230  -7.000  -8.153  1.00  0.00     0.094 C 
ATOM      8  C   UNL     1       6.850  -6.410  -6.511  1.00  0.00     0.037 C 
ATOM      9  C   UNL     1       5.500  -8.172  -7.273  1.00  0.00    -0.039 C 
ATOM     10  C   UNL     1       6.456  -7.856  -6.395  1.00  0.00    -0.024 C 
BRANCH   3  11
ATOM     11  C   UNL     1       6.709  -3.499  -7.794  1.00  0.00     0.337 C 
ATOM     12  O   UNL     1       6.294  -2.373  -7.408  1.00  0.00    -0.246 OA
BRANCH  11  13
ATOM     13  O   UNL     1       8.082  -3.722  -7.935  1.00  0.00    -0.466 OA
ATOM     14  C   UNL     1       8.670  -4.158  -9.154  1.00  0.00     0.282 C 
ENDBRANCH  11  13
ENDBRANCH   3  11
BRANCH   9  15
ATOM     15  C   UNL     1       4.953  -9.559  -7.467  1.00  0.00     0.187 C 
BRANCH  15  16
ATOM     16  O   UNL     1       3.832  -9.761  -6.649  1.00  0.00    -0.392 OA
ATOM     17  H   UNL     1       3.394 -10.592  -6.972  1.00  0.00     0.211 HD
ENDBRANCH  15  16
ENDBRANCH   9  15
ENDBRANCH   1   2
BRANCH   1  18
ATOM     18  C   UNL     1       1.700  -7.418  -7.975  1.00  0.00     0.286 C 
ATOM     19  C   UNL     1       0.862  -7.746  -6.720  1.00  0.00     0.202 C 
ATOM     20  O   UNL     1       0.942  -6.651  -8.903  1.00  0.00    -0.341 OA
ATOM     21  C   UNL     1       0.295  -6.455  -6.089  1.00  0.00     0.179 C 
ATOM     22  C   UNL     1       0.546  -5.403  -8.351  1.00  0.00     0.178 C 
ATOM     23  C   UNL     1      -0.418  -5.607  -7.159  1.00  0.00     0.177 C 
BRANCH  19  24
ATOM     24  O   UNL     1       1.611  -8.482  -5.787  1.00  0.00    -0.385 OA
ATOM     25  H   UNL     1       1.156  -9.354  -5.646  1.00  0.00     0.211 HD
ENDBRANCH  19  24
BRANCH  21  26
ATOM     26  O   UNL     1      -0.562  -6.742  -5.011  1.00  0.00    -0.387 OA
ATOM     27  H   UNL     1      -1.473  -6.899  -5.376  1.00  0.00     0.211 HD
ENDBRANCH  21  26
BRANCH  22  28
ATOM     28  C   UNL     1      -0.075  -4.536  -9.454  1.00  0.00     0.191 C 
BRANCH  28  29
ATOM     29  O   UNL     1      -1.089  -5.236 -10.124  1.00  0.00    -0.394 OA
ATOM     30  H   UNL     1      -1.914  -5.097  -9.591  1.00  0.00     0.210 HD
ENDBRANCH  28  29
ENDBRANCH  22  28
BRANCH  23  31
ATOM     31  O   UNL     1      -1.588  -6.264  -7.585  1.00  0.00    -0.387 OA
ATOM     32  H   UNL     1      -2.105  -6.505  -6.770  1.00  0.00     0.211 HD
ENDBRANCH  23  31
ENDBRANCH   1  18
TORSDOF 11
ENDMDL
MODEL 5
REMARK VINA RESULT:    -5.168     15.081     17.980
REMARK INTER + INTRA:          -8.715
REMARK INTER:                  -7.757
REMARK INTRA:                  -0.958
REMARK UNBOUND:                -0.979
REMARK SMILES COC(=O)C1=CO[C@H](O[C@@H]2O[C@@H](CO)[C@@H](O)[C@@H](O)[C@@H]2O)[C@@H]2C(CO)=CC[C@@H]12
REMARK SMILES IDX 9 1 8 2 5 3 6 4 27 5 7 6 21 7 26 8 22 9 25 10 3 11 4 12 2 13
REMARK SMILES IDX 1 14 23 15 24 16 10 18 19 19 11 20 17 21 12 22 15 23 20 24
REMARK SMILES IDX 18 26 13 28 14 29 16 31
REMARK H PARENT 24 17 20 25 18 27 14 30 16 32
REMARK Flexibility Score: inf
ROOT
ATOM      1  O   UNL     1      -7.273   0.613  -8.967  1.00  0.00    -0.310 OA
ENDROOT
BRANCH   1   2
ATOM      2  C   UNL     1      -7.537   1.609  -9.938  1.00  0.00     0.316 C 
ATOM      3  C   UNL     1      -8.685   3.907  -8.515  1.00  0.00     0.076 C 
ATOM      4  C   UNL     1      -9.469   3.094  -9.259  1.00  0.00     0.202 C 
ATOM      5  C   UNL     1      -7.257   3.457  -8.315  1.00  0.00     0.047 C 
ATOM      6  O   UNL     1      -8.935   1.971  -9.939  1.00  0.00    -0.471 OA
ATOM      7  C   UNL     1      -6.731   2.870  -9.618  1.00  0.00     0.094 C 
ATOM      8  C   UNL     1      -6.148   4.432  -7.919  1.00  0.00     0.037 C 
ATOM      9  C   UNL     1      -5.267   2.795  -9.352  1.00  0.00    -0.039 C 
ATOM     10  C   UNL     1      -4.934   3.718  -8.445  1.00  0.00    -0.024 C 
BRANCH   3  11
ATOM     11  C   UNL     1      -9.269   5.055  -7.784  1.00  0.00     0.337 C 
ATOM     12  O   UNL     1      -9.479   6.145  -8.379  1.00  0.00    -0.246 OA
BRANCH  11  13
ATOM     13  O   UNL     1      -9.587   4.930  -6.429  1.00  0.00    -0.466 OA
ATOM     14  C   UNL     1      -8.800   5.508  -5.395  1.00  0.00     0.282 C 
ENDBRANCH  11  13
ENDBRANCH   3  11
BRANCH   9  15
ATOM     15  C   UNL     1      -4.275   1.972 -10.125  1.00  0.00     0.187 C 
BRANCH  15  16
ATOM     16  O   UNL     1      -3.095   1.807  -9.385  1.00  0.00    -0.392 OA
ATOM     17  H   UNL     1      -3.272   2.186  -8.483  1.00  0.00     0.211 HD
ENDBRANCH  15  16
ENDBRANCH   9  15
ENDBRANCH   1   2
BRANCH   1  18
ATOM     18  C   UNL     1      -8.477   0.100  -8.416  1.00  0.00     0.286 C 
ATOM     19  C   UNL     1      -8.545  -1.431  -8.607  1.00  0.00     0.202 C 
ATOM     20  O   UNL     1      -8.600   0.443  -7.041  1.00  0.00    -0.341 OA
ATOM     21  C   UNL     1      -7.491  -2.139  -7.728  1.00  0.00     0.179 C 
ATOM     22  C   UNL     1      -7.541  -0.103  -6.267  1.00  0.00     0.178 C 
ATOM     23  C   UNL     1      -7.593  -1.648  -6.273  1.00  0.00     0.177 C 
BRANCH  19  24
ATOM     24  O   UNL     1      -8.400  -1.781  -9.960  1.00  0.00    -0.385 OA
ATOM     25  H   UNL     1      -7.439  -1.961 -10.130  1.00  0.00     0.211 HD
ENDBRANCH  19  24
BRANCH  21  26
ATOM     26  O   UNL     1      -7.613  -3.538  -7.805  1.00  0.00    -0.387 OA
ATOM     27  H   UNL     1      -8.560  -3.754  -8.009  1.00  0.00     0.211 HD
ENDBRANCH  21  26
BRANCH  22  28
ATOM     28  C   UNL     1      -7.603   0.473  -4.846  1.00  0.00     0.191 C 
BRANCH  28  29
ATOM     29  O   UNL     1      -6.469   0.100  -4.110  1.00  0.00    -0.394 OA
ATOM     30  H   UNL     1      -6.808  -0.369  -3.304  1.00  0.00     0.210 HD
ENDBRANCH  28  29
ENDBRANCH  22  28
BRANCH  23  31
ATOM     31  O   UNL     1      -8.799  -2.097  -5.702  1.00  0.00    -0.387 OA
ATOM     32  H   UNL     1      -8.662  -3.044  -5.430  1.00  0.00     0.211 HD
ENDBRANCH  23  31
ENDBRANCH   1  18
TORSDOF 11
ENDMDL
MODEL 6
REMARK VINA RESULT:    -5.152     19.345     21.272
REMARK INTER + INTRA:          -8.691
REMARK INTER:                  -7.533
REMARK INTRA:                  -1.159
REMARK UNBOUND:                -0.979
REMARK SMILES COC(=O)C1=CO[C@H](O[C@@H]2O[C@@H](CO)[C@@H](O)[C@@H](O)[C@@H]2O)[C@@H]2C(CO)=CC[C@@H]12
REMARK SMILES IDX 9 1 8 2 5 3 6 4 27 5 7 6 21 7 26 8 22 9 25 10 3 11 4 12 2 13
REMARK SMILES IDX 1 14 23 15 24 16 10 18 19 19 11 20 17 21 12 22 15 23 20 24
REMARK SMILES IDX 18 26 13 28 14 29 16 31
REMARK H PARENT 24 17 20 25 18 27 14 30 16 32
REMARK Flexibility Score: inf
ROOT
ATOM      1  O   UNL     1       2.055  -7.710  -6.840  1.00  0.00    -0.310 OA
ENDROOT
BRANCH   1   2
ATOM      2  C   UNL     1       2.658  -7.506  -8.105  1.00  0.00     0.316 C 
ATOM      3  C   UNL     1       3.586  -4.720  -8.169  1.00  0.00     0.076 C 
ATOM      4  C   UNL     1       2.480  -5.096  -8.851  1.00  0.00     0.202 C 
ATOM      5  C   UNL     1       4.183  -5.755  -7.245  1.00  0.00     0.047 C 
ATOM      6  O   UNL     1       2.009  -6.431  -8.819  1.00  0.00    -0.471 OA
ATOM      7  C   UNL     1       4.127  -7.119  -7.921  1.00  0.00     0.094 C 
ATOM      8  C   UNL     1       5.635  -5.679  -6.773  1.00  0.00     0.037 C 
ATOM      9  C   UNL     1       5.028  -7.929  -7.052  1.00  0.00    -0.039 C 
ATOM     10  C   UNL     1       5.914  -7.122  -6.460  1.00  0.00    -0.024 C 
BRANCH   3  11
ATOM     11  C   UNL     1       4.042  -3.312  -8.188  1.00  0.00     0.337 C 
ATOM     12  O   UNL     1       4.071  -2.639  -7.123  1.00  0.00    -0.246 OA
BRANCH  11  13
ATOM     13  O   UNL     1       4.443  -2.725  -9.392  1.00  0.00    -0.466 OA
ATOM     14  C   UNL     1       5.380  -1.657  -9.455  1.00  0.00     0.282 C 
ENDBRANCH  11  13
ENDBRANCH   3  11
BRANCH   9  15
ATOM     15  C   UNL     1       5.086  -9.429  -7.006  1.00  0.00     0.187 C 
BRANCH  15  16
ATOM     16  O   UNL     1       6.396  -9.860  -6.748  1.00  0.00    -0.392 OA
ATOM     17  H   UNL     1       7.000  -9.159  -7.113  1.00  0.00     0.211 HD
ENDBRANCH  15  16
ENDBRANCH   9  15
ENDBRANCH   1   2
BRANCH   1  18
ATOM     18  C   UNL     1       1.315  -8.923  -6.813  1.00  0.00     0.286 C 
ATOM     19  C   UNL     1       1.134  -9.408  -5.358  1.00  0.00     0.202 C 
ATOM     20  O   UNL     1       0.055  -8.771  -7.456  1.00  0.00    -0.341 OA
ATOM     21  C   UNL     1       0.188  -8.465  -4.582  1.00  0.00     0.179 C 
ATOM     22  C   UNL     1      -0.749  -7.795  -6.808  1.00  0.00     0.178 C 
ATOM     23  C   UNL     1      -1.113  -8.244  -5.374  1.00  0.00     0.177 C 
BRANCH  19  24
ATOM     24  O   UNL     1       2.372  -9.537  -4.708  1.00  0.00    -0.385 OA
ATOM     25  H   UNL     1       2.868  -8.684  -4.817  1.00  0.00     0.211 HD
ENDBRANCH  19  24
BRANCH  21  26
ATOM     26  O   UNL     1      -0.078  -8.952  -3.289  1.00  0.00    -0.387 OA
ATOM     27  H   UNL     1       0.210  -8.262  -2.635  1.00  0.00     0.211 HD
ENDBRANCH  21  26
BRANCH  22  28
ATOM     28  C   UNL     1      -1.995  -7.519  -7.661  1.00  0.00     0.191 C 
BRANCH  28  29
ATOM     29  O   UNL     1      -3.083  -7.165  -6.850  1.00  0.00    -0.394 OA
ATOM     30  H   UNL     1      -2.989  -7.696  -6.018  1.00  0.00     0.210 HD
ENDBRANCH  28  29
ENDBRANCH  22  28
BRANCH  23  31
ATOM     31  O   UNL     1      -1.857  -9.439  -5.411  1.00  0.00    -0.387 OA
ATOM     32  H   UNL     1      -1.493  -9.990  -6.155  1.00  0.00     0.211 HD
ENDBRANCH  23  31
ENDBRANCH   1  18
TORSDOF 11
ENDMDL
MODEL 7
REMARK VINA RESULT:    -5.002     19.008     20.447
REMARK INTER + INTRA:          -8.467
REMARK INTER:                  -7.066
REMARK INTRA:                  -1.401
REMARK UNBOUND:                -0.979
REMARK SMILES COC(=O)C1=CO[C@H](O[C@@H]2O[C@@H](CO)[C@@H](O)[C@@H](O)[C@@H]2O)[C@@H]2C(CO)=CC[C@@H]12
REMARK SMILES IDX 9 1 8 2 5 3 6 4 27 5 7 6 21 7 26 8 22 9 25 10 3 11 4 12 2 13
REMARK SMILES IDX 1 14 23 15 24 16 10 18 19 19 11 20 17 21 12 22 15 23 20 24
REMARK SMILES IDX 18 26 13 28 14 29 16 31
REMARK H PARENT 24 17 20 25 18 27 14 30 16 32
REMARK Flexibility Score: inf
ROOT
ATOM      1  O   UNL     1       1.930  -6.912  -7.125  1.00  0.00    -0.310 OA
ENDROOT
BRANCH   1   2
ATOM      2  C   UNL     1       1.513  -8.264  -7.169  1.00  0.00     0.316 C 
ATOM      3  C   UNL     1      -0.272  -8.681  -4.875  1.00  0.00     0.076 C 
ATOM      4  C   UNL     1       0.992  -9.161  -4.862  1.00  0.00     0.202 C 
ATOM      5  C   UNL     1      -0.632  -7.780  -6.032  1.00  0.00     0.047 C 
ATOM      6  O   UNL     1       1.873  -8.955  -5.952  1.00  0.00    -0.471 OA
ATOM      7  C   UNL     1      -0.009  -8.331  -7.308  1.00  0.00     0.094 C 
ATOM      8  C   UNL     1      -2.082  -7.535  -6.449  1.00  0.00     0.037 C 
ATOM      9  C   UNL     1      -0.717  -7.546  -8.359  1.00  0.00    -0.039 C 
ATOM     10  C   UNL     1      -1.907  -7.157  -7.894  1.00  0.00    -0.024 C 
BRANCH   3  11
ATOM     11  C   UNL     1      -1.166  -8.878  -3.711  1.00  0.00     0.337 C 
ATOM     12  O   UNL     1      -0.939  -8.275  -2.628  1.00  0.00    -0.246 OA
BRANCH  11  13
ATOM     13  O   UNL     1      -2.266  -9.735  -3.812  1.00  0.00    -0.466 OA
ATOM     14  C   UNL     1      -3.542  -9.418  -3.271  1.00  0.00     0.282 C 
ENDBRANCH  11  13
ENDBRANCH   3  11
BRANCH   9  15
ATOM     15  C   UNL     1      -0.274  -7.392  -9.786  1.00  0.00     0.187 C 
BRANCH  15  16
ATOM     16  O   UNL     1      -0.075  -6.038 -10.093  1.00  0.00    -0.392 OA
ATOM     17  H   UNL     1       0.837  -5.969 -10.483  1.00  0.00     0.211 HD
ENDBRANCH  15  16
ENDBRANCH   9  15
ENDBRANCH   1   2
BRANCH   1  18
ATOM     18  C   UNL     1       2.827  -6.616  -8.187  1.00  0.00     0.286 C 
ATOM     19  C   UNL     1       2.963  -5.088  -8.364  1.00  0.00     0.202 C 
ATOM     20  O   UNL     1       4.099  -7.214  -7.969  1.00  0.00    -0.341 OA
ATOM     21  C   UNL     1       3.707  -4.463  -7.164  1.00  0.00     0.179 C 
ATOM     22  C   UNL     1       4.709  -6.729  -6.781  1.00  0.00     0.178 C 
ATOM     23  C   UNL     1       5.022  -5.219  -6.899  1.00  0.00     0.177 C 
BRANCH  19  24
ATOM     24  O   UNL     1       1.708  -4.485  -8.556  1.00  0.00    -0.385 OA
ATOM     25  H   UNL     1       1.285  -4.901  -9.352  1.00  0.00     0.211 HD
ENDBRANCH  19  24
BRANCH  21  26
ATOM     26  O   UNL     1       3.939  -3.089  -7.360  1.00  0.00    -0.387 OA
ATOM     27  H   UNL     1       4.920  -2.938  -7.344  1.00  0.00     0.211 HD
ENDBRANCH  21  26
BRANCH  22  28
ATOM     28  C   UNL     1       5.966  -7.557  -6.483  1.00  0.00     0.191 C 
BRANCH  28  29
ATOM     29  O   UNL     1       7.012  -6.733  -6.045  1.00  0.00    -0.394 OA
ATOM     30  H   UNL     1       6.946  -5.900  -6.580  1.00  0.00     0.210 HD
ENDBRANCH  28  29
ENDBRANCH  22  28
BRANCH  23  31
ATOM     31  O   UNL     1       5.924  -4.989  -7.955  1.00  0.00    -0.387 OA
ATOM     32  H   UNL     1       6.059  -5.857  -8.422  1.00  0.00     0.211 HD
ENDBRANCH  23  31
ENDBRANCH   1  18
TORSDOF 11
ENDMDL
MODEL 8
REMARK VINA RESULT:    -4.998     15.037     17.418
REMARK INTER + INTRA:          -8.460
REMARK INTER:                  -7.647
REMARK INTRA:                  -0.813
REMARK UNBOUND:                -0.979
REMARK SMILES COC(=O)C1=CO[C@H](O[C@@H]2O[C@@H](CO)[C@@H](O)[C@@H](O)[C@@H]2O)[C@@H]2C(CO)=CC[C@@H]12
REMARK SMILES IDX 9 1 8 2 5 3 6 4 27 5 7 6 21 7 26 8 22 9 25 10 3 11 4 12 2 13
REMARK SMILES IDX 1 14 23 15 24 16 10 18 19 19 11 20 17 21 12 22 15 23 20 24
REMARK SMILES IDX 18 26 13 28 14 29 16 31
REMARK H PARENT 24 17 20 25 18 27 14 30 16 32
REMARK Flexibility Score: inf
ROOT
ATOM      1  O   UNL     1      -8.137   1.683  -7.972  1.00  0.00    -0.310 OA
ENDROOT
BRANCH   1   2
ATOM      2  C   UNL     1      -8.687   2.825  -8.603  1.00  0.00     0.316 C 
ATOM      3  C   UNL     1      -8.906   4.913  -6.551  1.00  0.00     0.076 C 
ATOM      4  C   UNL     1     -10.003   4.251  -6.982  1.00  0.00     0.202 C 
ATOM      5  C   UNL     1      -7.576   4.391  -7.041  1.00  0.00     0.047 C 
ATOM      6  O   UNL     1      -9.915   3.229  -7.959  1.00  0.00    -0.471 OA
ATOM      7  C   UNL     1      -7.704   3.994  -8.506  1.00  0.00     0.094 C 
ATOM      8  C   UNL     1      -6.315   5.256  -7.041  1.00  0.00     0.037 C 
ATOM      9  C   UNL     1      -6.278   3.829  -8.905  1.00  0.00    -0.039 C 
ATOM     10  C   UNL     1      -5.509   4.590  -8.121  1.00  0.00    -0.024 C 
BRANCH   3  11
ATOM     11  C   UNL     1      -9.015   5.954  -5.503  1.00  0.00     0.337 C 
ATOM     12  O   UNL     1      -8.629   5.715  -4.328  1.00  0.00    -0.246 OA
BRANCH  11  13
ATOM     13  O   UNL     1      -9.549   7.207  -5.818  1.00  0.00    -0.466 OA
ATOM     14  C   UNL     1      -8.844   8.175  -6.585  1.00  0.00     0.282 C 
ENDBRANCH  11  13
ENDBRANCH   3  11
BRANCH   9  15
ATOM     15  C   UNL     1      -5.786   3.103 -10.124  1.00  0.00     0.187 C 
BRANCH  15  16
ATOM     16  O   UNL     1      -4.460   2.683  -9.942  1.00  0.00    -0.392 OA
ATOM     17  H   UNL     1      -4.102   2.481 -10.846  1.00  0.00     0.211 HD
ENDBRANCH  15  16
ENDBRANCH   9  15
ENDBRANCH   1   2
BRANCH   1  18
ATOM     18  C   UNL     1      -9.157   0.801  -7.526  1.00  0.00     0.286 C 
ATOM     19  C   UNL     1      -9.356  -0.346  -8.541  1.00  0.00     0.202 C 
ATOM     20  O   UNL     1      -8.862   0.285  -6.234  1.00  0.00    -0.341 OA
ATOM     21  C   UNL     1      -8.131  -1.287  -8.550  1.00  0.00     0.179 C 
ATOM     22  C   UNL     1      -7.654  -0.464  -6.231  1.00  0.00     0.178 C 
ATOM     23  C   UNL     1      -7.785  -1.725  -7.116  1.00  0.00     0.177 C 
BRANCH  19  24
ATOM     24  O   UNL     1      -9.624   0.154  -9.827  1.00  0.00    -0.385 OA
ATOM     25  H   UNL     1     -10.288  -0.444 -10.258  1.00  0.00     0.211 HD
ENDBRANCH  19  24
BRANCH  21  26
ATOM     26  O   UNL     1      -8.342  -2.399  -9.387  1.00  0.00    -0.387 OA
ATOM     27  H   UNL     1      -7.469  -2.856  -9.515  1.00  0.00     0.211 HD
ENDBRANCH  21  26
BRANCH  22  28
ATOM     28  C   UNL     1      -7.275  -0.809  -4.785  1.00  0.00     0.191 C 
BRANCH  28  29
ATOM     29  O   UNL     1      -6.690   0.295  -4.148  1.00  0.00    -0.394 OA
ATOM     30  H   UNL     1      -7.327   1.047  -4.264  1.00  0.00     0.210 HD
ENDBRANCH  28  29
ENDBRANCH  22  28
BRANCH  23  31
ATOM     31  O   UNL     1      -8.798  -2.567  -6.617  1.00  0.00    -0.387 OA
ATOM     32  H   UNL     1      -9.662  -2.240  -6.987  1.00  0.00     0.211 HD
ENDBRANCH  23  31
ENDBRANCH   1  18
TORSDOF 11
ENDMDL
MODEL 9
REMARK VINA RESULT:    -4.958     11.122     13.004
REMARK INTER + INTRA:          -8.401
REMARK INTER:                  -6.796
REMARK INTRA:                  -1.605
REMARK UNBOUND:                -0.979
REMARK SMILES COC(=O)C1=CO[C@H](O[C@@H]2O[C@@H](CO)[C@@H](O)[C@@H](O)[C@@H]2O)[C@@H]2C(CO)=CC[C@@H]12
REMARK SMILES IDX 9 1 8 2 5 3 6 4 27 5 7 6 21 7 26 8 22 9 25 10 3 11 4 12 2 13
REMARK SMILES IDX 1 14 23 15 24 16 10 18 19 19 11 20 17 21 12 22 15 23 20 24
REMARK SMILES IDX 18 26 13 28 14 29 16 31
REMARK H PARENT 24 17 20 25 18 27 14 30 16 32
REMARK Flexibility Score: inf
ROOT
ATOM      1  O   UNL     1      -4.670  -6.213   8.399  1.00  0.00    -0.310 OA
ENDROOT
BRANCH   1   2
ATOM      2  C   UNL     1      -5.525  -5.246   8.979  1.00  0.00     0.316 C 
ATOM      3  C   UNL     1      -6.369  -3.446   6.818  1.00  0.00     0.076 C 
ATOM      4  C   UNL     1      -5.446  -3.051   7.725  1.00  0.00     0.202 C 
ATOM      5  C   UNL     1      -6.781  -4.897   6.875  1.00  0.00     0.047 C 
ATOM      6  O   UNL     1      -5.015  -3.911   8.764  1.00  0.00    -0.471 OA
ATOM      7  C   UNL     1      -6.909  -5.324   8.332  1.00  0.00     0.094 C 
ATOM      8  C   UNL     1      -8.095  -5.391   6.269  1.00  0.00     0.037 C 
ATOM      9  C   UNL     1      -7.623  -6.626   8.209  1.00  0.00    -0.039 C 
ATOM     10  C   UNL     1      -8.339  -6.632   7.080  1.00  0.00    -0.024 C 
BRANCH   3  11
ATOM     11  C   UNL     1      -6.781  -2.543   5.719  1.00  0.00     0.337 C 
ATOM     12  O   UNL     1      -6.426  -2.783   4.534  1.00  0.00    -0.246 OA
BRANCH  11  13
ATOM     13  O   UNL     1      -7.565  -1.419   5.996  1.00  0.00    -0.466 OA
ATOM     14  C   UNL     1      -8.783  -1.490   6.726  1.00  0.00     0.282 C 
ENDBRANCH  11  13
ENDBRANCH   3  11
BRANCH   9  15
ATOM     15  C   UNL     1      -7.711  -7.683   9.273  1.00  0.00     0.187 C 
BRANCH  15  16
ATOM     16  O   UNL     1      -6.565  -8.491   9.254  1.00  0.00    -0.392 OA
ATOM     17  H   UNL     1      -6.873  -9.420   9.426  1.00  0.00     0.211 HD
ENDBRANCH  15  16
ENDBRANCH   9  15
ENDBRANCH   1   2
BRANCH   1  18
ATOM     18  C   UNL     1      -3.360  -6.136   8.945  1.00  0.00     0.286 C 
ATOM     19  C   UNL     1      -2.829  -7.550   9.266  1.00  0.00     0.202 C 
ATOM     20  O   UNL     1      -2.476  -5.452   8.065  1.00  0.00    -0.341 OA
ATOM     21  C   UNL     1      -2.564  -8.343   7.968  1.00  0.00     0.179 C 
ATOM     22  C   UNL     1      -2.353  -6.125   6.819  1.00  0.00     0.178 C 
ATOM     23  C   UNL     1      -1.697  -7.513   7.003  1.00  0.00     0.177 C 
BRANCH  19  24
ATOM     24  O   UNL     1      -3.708  -8.242  10.116  1.00  0.00    -0.385 OA
ATOM     25  H   UNL     1      -4.131  -8.973   9.593  1.00  0.00     0.211 HD
ENDBRANCH  19  24
BRANCH  21  26
ATOM     26  O   UNL     1      -1.974  -9.591   8.237  1.00  0.00    -0.387 OA
ATOM     27  H   UNL     1      -2.094  -9.785   9.204  1.00  0.00     0.211 HD
ENDBRANCH  21  26
BRANCH  22  28
ATOM     28  C   UNL     1      -1.568  -5.240   5.842  1.00  0.00     0.191 C 
BRANCH  28  29
ATOM     29  O   UNL     1      -0.538  -5.968   5.230  1.00  0.00    -0.394 OA
ATOM     30  H   UNL     1      -0.981  -6.593   4.600  1.00  0.00     0.210 HD
ENDBRANCH  28  29
ENDBRANCH  22  28
BRANCH  23  31
ATOM     31  O   UNL     1      -0.399  -7.372   7.531  1.00  0.00    -0.387 OA
ATOM     32  H   UNL     1      -0.143  -8.250   7.923  1.00  0.00     0.211 HD
ENDBRANCH  23  31
ENDBRANCH   1  18
TORSDOF 11
ENDMDL
