MODEL 1
REMARK VINA RESULT:    -3.823      0.000      0.000
REMARK INTER + INTRA:          -5.511
REMARK INTER:                  -5.163
REMARK INTRA:                  -0.348
REMARK UNBOUND:                -0.348
REMARK SMILES CCCCCCC=CC(=O)[O-]
REMARK SMILES IDX 5 1 6 2 7 3 8 4 9 5 10 6 11 7 4 8 3 9 2 10 1 11
REMARK H PARENT
REMARK Flexibility Score: inf
ROOT
ATOM      1  C   UNL     1     149.305  -2.726   5.124  1.00  0.00     0.004 C 
ENDROOT
BRANCH   1   2
ATOM      2  C   UNL     1     148.748  -2.617   6.549  1.00  0.00     0.027 C 
BRANCH   2   3
ATOM      3  C   UNL     1     148.323  -1.208   6.863  1.00  0.00    -0.025 C 
ATOM      4  C   UNL     1     147.098  -0.824   7.264  1.00  0.00     0.020 C 
BRANCH   4   5
ATOM      5  C   UNL     1     145.937  -1.701   7.513  1.00  0.00     0.064 C 
ATOM      6  O   UNL     1     144.883  -1.630   6.828  1.00  0.00    -0.545 OA
ATOM      7  O   UNL     1     146.018  -2.650   8.524  1.00  0.00    -0.545 OA
ENDBRANCH   4   5
ENDBRANCH   2   3
ENDBRANCH   1   2
BRANCH   1   8
ATOM      8  C   UNL     1     149.660  -1.343   4.566  1.00  0.00     0.000 C 
BRANCH   8   9
ATOM      9  C   UNL     1     151.164  -1.231   4.287  1.00  0.00    -0.000 C 
BRANCH   9  10
ATOM     10  C   UNL     1     151.423  -0.569   2.929  1.00  0.00    -0.003 C 
ATOM     11  C   UNL     1     150.125  -0.388   2.148  1.00  0.00     0.004 C 
ENDBRANCH   9  10
ENDBRANCH   8   9
ENDBRANCH   1   8
TORSDOF 6
ENDMDL
MODEL 2
REMARK VINA RESULT:    -3.820     11.601     13.507
REMARK INTER + INTRA:          -5.508
REMARK INTER:                  -5.179
REMARK INTRA:                  -0.329
REMARK UNBOUND:                -0.348
REMARK SMILES CCCCCCC=CC(=O)[O-]
REMARK SMILES IDX 5 1 6 2 7 3 8 4 9 5 10 6 11 7 4 8 3 9 2 10 1 11
REMARK H PARENT
REMARK Flexibility Score: inf
ROOT
ATOM      1  C   UNL     1     146.740  -1.967  -6.550  1.00  0.00     0.004 C 
ENDROOT
BRANCH   1   2
ATOM      2  C   UNL     1     145.970  -1.526  -7.802  1.00  0.00     0.027 C 
BRANCH   2   3
ATOM      3  C   UNL     1     144.489  -1.736  -7.635  1.00  0.00    -0.025 C 
ATOM      4  C   UNL     1     143.553  -0.771  -7.608  1.00  0.00     0.020 C 
BRANCH   4   5
ATOM      5  C   UNL     1     143.777   0.679  -7.774  1.00  0.00     0.064 C 
ATOM      6  O   UNL     1     143.554   1.502  -6.848  1.00  0.00    -0.545 OA
ATOM      7  O   UNL     1     144.269   1.148  -8.985  1.00  0.00    -0.545 OA
ENDBRANCH   4   5
ENDBRANCH   2   3
ENDBRANCH   1   2
BRANCH   1   8
ATOM      8  C   UNL     1     146.341  -3.387  -6.132  1.00  0.00     0.000 C 
BRANCH   8   9
ATOM      9  C   UNL     1     146.300  -3.520  -4.605  1.00  0.00    -0.000 C 
BRANCH   9  10
ATOM     10  C   UNL     1     146.664  -4.944  -4.168  1.00  0.00    -0.003 C 
ATOM     11  C   UNL     1     147.229  -5.751  -5.335  1.00  0.00     0.004 C 
ENDBRANCH   9  10
ENDBRANCH   8   9
ENDBRANCH   1   8
TORSDOF 6
ENDMDL
MODEL 3
REMARK VINA RESULT:    -3.755      1.157      1.775
REMARK INTER + INTRA:          -5.421
REMARK INTER:                  -5.054
REMARK INTRA:                  -0.367
REMARK UNBOUND:                -0.348
REMARK SMILES CCCCCCC=CC(=O)[O-]
REMARK SMILES IDX 5 1 6 2 7 3 8 4 9 5 10 6 11 7 4 8 3 9 2 10 1 11
REMARK H PARENT
REMARK Flexibility Score: inf
ROOT
ATOM      1  C   UNL     1     149.328  -2.047   7.027  1.00  0.00     0.004 C 
ENDROOT
BRANCH   1   2
ATOM      2  C   UNL     1     148.174  -1.317   7.726  1.00  0.00     0.027 C 
BRANCH   2   3
ATOM      3  C   UNL     1     146.936  -1.309   6.871  1.00  0.00    -0.025 C 
ATOM      4  C   UNL     1     145.674  -1.462   7.309  1.00  0.00     0.020 C 
BRANCH   4   5
ATOM      5  C   UNL     1     145.240  -1.631   8.711  1.00  0.00     0.064 C 
ATOM      6  O   UNL     1     144.924  -2.753   9.184  1.00  0.00    -0.545 OA
ATOM      7  O   UNL     1     145.201  -0.517   9.539  1.00  0.00    -0.545 OA
ENDBRANCH   4   5
ENDBRANCH   2   3
ENDBRANCH   1   2
BRANCH   1   8
ATOM      8  C   UNL     1     149.057  -2.193   5.526  1.00  0.00     0.000 C 
BRANCH   8   9
ATOM      9  C   UNL     1     150.060  -1.375   4.703  1.00  0.00    -0.000 C 
BRANCH   9  10
ATOM     10  C   UNL     1     149.494  -1.045   3.317  1.00  0.00    -0.003 C 
ATOM     11  C   UNL     1     150.585  -0.523   2.387  1.00  0.00     0.004 C 
ENDBRANCH   9  10
ENDBRANCH   8   9
ENDBRANCH   1   8
TORSDOF 6
ENDMDL
MODEL 4
REMARK VINA RESULT:    -3.719      2.992      5.711
REMARK INTER + INTRA:          -5.371
REMARK INTER:                  -4.941
REMARK INTRA:                  -0.429
REMARK UNBOUND:                -0.348
REMARK SMILES CCCCCCC=CC(=O)[O-]
REMARK SMILES IDX 5 1 6 2 7 3 8 4 9 5 10 6 11 7 4 8 3 9 2 10 1 11
REMARK H PARENT
REMARK Flexibility Score: inf
ROOT
ATOM      1  C   UNL     1     147.592  -0.611   7.916  1.00  0.00     0.004 C 
ENDROOT
BRANCH   1   2
ATOM      2  C   UNL     1     148.304  -0.512   6.560  1.00  0.00     0.027 C 
BRANCH   2   3
ATOM      3  C   UNL     1     148.633  -1.875   6.014  1.00  0.00    -0.025 C 
ATOM      4  C   UNL     1     149.402  -2.131   4.941  1.00  0.00     0.020 C 
BRANCH   4   5
ATOM      5  C   UNL     1     150.108  -1.139   4.105  1.00  0.00     0.064 C 
ATOM      6  O   UNL     1     149.563  -0.586   3.115  1.00  0.00    -0.545 OA
ATOM      7  O   UNL     1     151.411  -0.789   4.436  1.00  0.00    -0.545 OA
ENDBRANCH   4   5
ENDBRANCH   2   3
ENDBRANCH   1   2
BRANCH   1   8
ATOM      8  C   UNL     1     146.690  -1.849   7.972  1.00  0.00     0.000 C 
BRANCH   8   9
ATOM      9  C   UNL     1     145.531  -1.641   8.954  1.00  0.00    -0.000 C 
BRANCH   9  10
ATOM     10  C   UNL     1     144.218  -1.379   8.206  1.00  0.00    -0.003 C 
ATOM     11  C   UNL     1     144.388  -1.593   6.704  1.00  0.00     0.004 C 
ENDBRANCH   9  10
ENDBRANCH   8   9
ENDBRANCH   1   8
TORSDOF 6
ENDMDL
MODEL 5
REMARK VINA RESULT:    -3.693      2.379      3.445
REMARK INTER + INTRA:          -5.336
REMARK INTER:                  -4.776
REMARK INTRA:                  -0.561
REMARK UNBOUND:                -0.348
REMARK SMILES CCCCCCC=CC(=O)[O-]
REMARK SMILES IDX 5 1 6 2 7 3 8 4 9 5 10 6 11 7 4 8 3 9 2 10 1 11
REMARK H PARENT
REMARK Flexibility Score: inf
ROOT
ATOM      1  C   UNL     1     147.961  -3.930   8.912  1.00  0.00     0.004 C 
ENDROOT
BRANCH   1   2
ATOM      2  C   UNL     1     147.069  -2.687   9.034  1.00  0.00     0.027 C 
BRANCH   2   3
ATOM      3  C   UNL     1     147.054  -1.898   7.753  1.00  0.00    -0.025 C 
ATOM      4  C   UNL     1     145.960  -1.423   7.132  1.00  0.00     0.020 C 
BRANCH   4   5
ATOM      5  C   UNL     1     144.562  -1.543   7.593  1.00  0.00     0.064 C 
ATOM      6  O   UNL     1     144.014  -0.665   8.308  1.00  0.00    -0.545 OA
ATOM      7  O   UNL     1     143.822  -2.653   7.206  1.00  0.00    -0.545 OA
ENDBRANCH   4   5
ENDBRANCH   2   3
ENDBRANCH   1   2
BRANCH   1   8
ATOM      8  C   UNL     1     149.110  -3.687   7.927  1.00  0.00     0.000 C 
BRANCH   8   9
ATOM      9  C   UNL     1     149.435  -4.959   7.136  1.00  0.00    -0.000 C 
BRANCH   9  10
ATOM     10  C   UNL     1     149.880  -4.619   5.708  1.00  0.00    -0.003 C 
ATOM     11  C   UNL     1     149.534  -3.176   5.353  1.00  0.00     0.004 C 
ENDBRANCH   9  10
ENDBRANCH   8   9
ENDBRANCH   1   8
TORSDOF 6
ENDMDL
MODEL 6
REMARK VINA RESULT:    -3.664      2.180      3.068
REMARK INTER + INTRA:          -5.297
REMARK INTER:                  -4.984
REMARK INTRA:                  -0.313
REMARK UNBOUND:                -0.348
REMARK SMILES CCCCCCC=CC(=O)[O-]
REMARK SMILES IDX 5 1 6 2 7 3 8 4 9 5 10 6 11 7 4 8 3 9 2 10 1 11
REMARK H PARENT
REMARK Flexibility Score: inf
ROOT
ATOM      1  C   UNL     1     148.512  -1.711   7.245  1.00  0.00     0.004 C 
ENDROOT
BRANCH   1   2
ATOM      2  C   UNL     1     147.071  -1.226   7.453  1.00  0.00     0.027 C 
BRANCH   2   3
ATOM      3  C   UNL     1     146.453  -1.857   8.671  1.00  0.00    -0.025 C 
ATOM      4  C   UNL     1     145.141  -2.079   8.864  1.00  0.00     0.020 C 
BRANCH   4   5
ATOM      5  C   UNL     1     144.048  -1.788   7.915  1.00  0.00     0.064 C 
ATOM      6  O   UNL     1     143.608  -0.623   7.735  1.00  0.00    -0.545 OA
ATOM      7  O   UNL     1     143.501  -2.833   7.181  1.00  0.00    -0.545 OA
ENDBRANCH   4   5
ENDBRANCH   2   3
ENDBRANCH   1   2
BRANCH   1   8
ATOM      8  C   UNL     1     148.991  -1.415   5.819  1.00  0.00     0.000 C 
BRANCH   8   9
ATOM      9  C   UNL     1     149.200  -2.712   5.029  1.00  0.00    -0.000 C 
BRANCH   9  10
ATOM     10  C   UNL     1     150.229  -3.616   5.718  1.00  0.00    -0.003 C 
ATOM     11  C   UNL     1     149.828  -5.085   5.614  1.00  0.00     0.004 C 
ENDBRANCH   9  10
ENDBRANCH   8   9
ENDBRANCH   1   8
TORSDOF 6
ENDMDL
MODEL 7
REMARK VINA RESULT:    -3.652     11.712     13.687
REMARK INTER + INTRA:          -5.280
REMARK INTER:                  -4.945
REMARK INTRA:                  -0.336
REMARK UNBOUND:                -0.348
REMARK SMILES CCCCCCC=CC(=O)[O-]
REMARK SMILES IDX 5 1 6 2 7 3 8 4 9 5 10 6 11 7 4 8 3 9 2 10 1 11
REMARK H PARENT
REMARK Flexibility Score: inf
ROOT
ATOM      1  C   UNL     1     143.659  -1.560  -7.580  1.00  0.00     0.004 C 
ENDROOT
BRANCH   1   2
ATOM      2  C   UNL     1     144.904  -2.429  -7.800  1.00  0.00     0.027 C 
BRANCH   2   3
ATOM      3  C   UNL     1     146.083  -1.898  -7.029  1.00  0.00    -0.025 C 
ATOM      4  C   UNL     1     146.714  -2.526  -6.021  1.00  0.00     0.020 C 
BRANCH   4   5
ATOM      5  C   UNL     1     146.408  -3.870  -5.490  1.00  0.00     0.064 C 
ATOM      6  O   UNL     1     146.624  -4.918  -6.154  1.00  0.00    -0.545 OA
ATOM      7  O   UNL     1     145.885  -3.982  -4.209  1.00  0.00    -0.545 OA
ENDBRANCH   4   5
ENDBRANCH   2   3
ENDBRANCH   1   2
BRANCH   1   8
ATOM      8  C   UNL     1     143.984  -0.075  -7.778  1.00  0.00     0.000 C 
BRANCH   8   9
ATOM      9  C   UNL     1     142.823   0.656  -8.463  1.00  0.00    -0.000 C 
BRANCH   9  10
ATOM     10  C   UNL     1     142.266   1.767  -7.566  1.00  0.00    -0.003 C 
ATOM     11  C   UNL     1     143.023   1.836  -6.242  1.00  0.00     0.004 C 
ENDBRANCH   9  10
ENDBRANCH   8   9
ENDBRANCH   1   8
TORSDOF 6
ENDMDL
MODEL 8
REMARK VINA RESULT:    -3.583      2.342      3.061
REMARK INTER + INTRA:          -5.188
REMARK INTER:                  -4.748
REMARK INTRA:                  -0.440
REMARK UNBOUND:                -0.348
REMARK SMILES CCCCCCC=CC(=O)[O-]
REMARK SMILES IDX 5 1 6 2 7 3 8 4 9 5 10 6 11 7 4 8 3 9 2 10 1 11
REMARK H PARENT
REMARK Flexibility Score: inf
ROOT
ATOM      1  C   UNL     1     149.016  -2.551   5.107  1.00  0.00     0.004 C 
ENDROOT
BRANCH   1   2
ATOM      2  C   UNL     1     150.219  -3.322   5.668  1.00  0.00     0.027 C 
BRANCH   2   3
ATOM      3  C   UNL     1     149.898  -4.781   5.845  1.00  0.00    -0.025 C 
ATOM      4  C   UNL     1     149.401  -5.351   6.957  1.00  0.00     0.020 C 
BRANCH   4   5
ATOM      5  C   UNL     1     149.033  -4.664   8.211  1.00  0.00     0.064 C 
ATOM      6  O   UNL     1     147.842  -4.368   8.489  1.00  0.00    -0.545 OA
ATOM      7  O   UNL     1     150.033  -4.352   9.124  1.00  0.00    -0.545 OA
ENDBRANCH   4   5
ENDBRANCH   2   3
ENDBRANCH   1   2
BRANCH   1   8
ATOM      8  C   UNL     1     149.459  -1.225   4.479  1.00  0.00     0.000 C 
BRANCH   8   9
ATOM      9  C   UNL     1     150.986  -1.151   4.368  1.00  0.00    -0.000 C 
BRANCH   9  10
ATOM     10  C   UNL     1     151.414  -0.701   2.967  1.00  0.00    -0.003 C 
ATOM     11  C   UNL     1     150.202  -0.358   2.105  1.00  0.00     0.004 C 
ENDBRANCH   9  10
ENDBRANCH   8   9
ENDBRANCH   1   8
TORSDOF 6
ENDMDL
MODEL 9
REMARK VINA RESULT:    -3.542     11.707     13.143
REMARK INTER + INTRA:          -5.133
REMARK INTER:                  -4.704
REMARK INTRA:                  -0.429
REMARK UNBOUND:                -0.348
REMARK SMILES CCCCCCC=CC(=O)[O-]
REMARK SMILES IDX 5 1 6 2 7 3 8 4 9 5 10 6 11 7 4 8 3 9 2 10 1 11
REMARK H PARENT
REMARK Flexibility Score: inf
ROOT
ATOM      1  C   UNL     1     146.879  -2.009  -6.271  1.00  0.00     0.004 C 
ENDROOT
BRANCH   1   2
ATOM      2  C   UNL     1     146.051  -3.275  -6.016  1.00  0.00     0.027 C 
BRANCH   2   3
ATOM      3  C   UNL     1     146.464  -3.950  -4.736  1.00  0.00    -0.025 C 
ATOM      4  C   UNL     1     146.890  -5.219  -4.615  1.00  0.00     0.020 C 
BRANCH   4   5
ATOM      5  C   UNL     1     147.075  -6.196  -5.708  1.00  0.00     0.064 C 
ATOM      6  O   UNL     1     146.154  -6.967  -6.082  1.00  0.00    -0.545 OA
ATOM      7  O   UNL     1     148.302  -6.250  -6.358  1.00  0.00    -0.545 OA
ENDBRANCH   4   5
ENDBRANCH   2   3
ENDBRANCH   1   2
BRANCH   1   8
ATOM      8  C   UNL     1     146.958  -1.696  -7.769  1.00  0.00     0.000 C 
BRANCH   8   9
ATOM      9  C   UNL     1     145.581  -1.825  -8.432  1.00  0.00    -0.000 C 
BRANCH   9  10
ATOM     10  C   UNL     1     144.894  -0.458  -8.540  1.00  0.00    -0.003 C 
ATOM     11  C   UNL     1     143.806  -0.303  -7.481  1.00  0.00     0.004 C 
ENDBRANCH   9  10
ENDBRANCH   8   9
ENDBRANCH   1   8
TORSDOF 6
ENDMDL
