MODEL 1
REMARK VINA RESULT:    -6.458      0.000      0.000
REMARK INTER + INTRA:          -7.845
REMARK INTER:                  -7.780
REMARK INTRA:                  -0.065
REMARK UNBOUND:                -0.065
REMARK SMILES O=c1c(O)c(-c2ccc(O)c(O)c2)oc2cc(O)cc(O)c12
REMARK SMILES IDX 5 1 3 2 2 3 1 4 22 5 20 6 19 7 17 8 16 9 15 10 14 11 6 12
REMARK SMILES IDX 7 13 8 14 9 15 13 16 11 17 10 18 12 20 4 22 21 24 18 26
REMARK H PARENT 10 19 12 21 4 23 21 25 18 27
REMARK Flexibility Score: inf
ROOT
ATOM      1  C   UNL     1       4.699 -14.944   7.072  1.00  0.00     0.180 A 
ATOM      2  C   UNL     1       5.607 -15.267   8.096  1.00  0.00     0.208 A 
ATOM      3  C   UNL     1       5.885 -16.618   8.357  1.00  0.00     0.238 A 
ATOM      4  O   UNL     1       6.656 -16.903   9.310  1.00  0.00    -0.285 OA
ATOM      5  C   UNL     1       5.268 -17.627   7.579  1.00  0.00     0.111 A 
ATOM      6  C   UNL     1       5.508 -19.026   7.730  1.00  0.00     0.134 A 
ATOM      7  C   UNL     1       4.744 -19.942   6.995  1.00  0.00     0.093 A 
ATOM      8  C   UNL     1       3.794 -19.505   6.069  1.00  0.00     0.123 A 
ATOM      9  C   UNL     1       3.594 -18.142   5.872  1.00  0.00     0.094 A 
ATOM     10  C   UNL     1       4.316 -17.205   6.616  1.00  0.00     0.146 A 
ATOM     11  O   UNL     1       4.087 -15.914   6.405  1.00  0.00    -0.452 OA
ENDROOT
BRANCH   1  12
ATOM     12  C   UNL     1       4.373 -13.542   6.722  1.00  0.00     0.025 A 
ATOM     13  C   UNL     1       3.053 -13.060   6.786  1.00  0.00     0.016 A 
ATOM     14  C   UNL     1       2.773 -11.727   6.475  1.00  0.00     0.051 A 
ATOM     15  C   UNL     1       3.805 -10.854   6.110  1.00  0.00     0.157 A 
ATOM     16  C   UNL     1       5.407 -12.657   6.377  1.00  0.00     0.062 A 
ATOM     17  C   UNL     1       5.126 -11.319   6.064  1.00  0.00     0.158 A 
BRANCH  15  18
ATOM     18  O   UNL     1       3.528  -9.525   5.798  1.00  0.00    -0.504 OA
ATOM     19  H   UNL     1       2.676  -9.073   6.109  1.00  0.00     0.293 HD
ENDBRANCH  15  18
BRANCH  17  20
ATOM     20  O   UNL     1       6.153 -10.446   5.708  1.00  0.00    -0.504 OA
ATOM     21  H   UNL     1       6.022  -9.441   5.720  1.00  0.00     0.293 HD
ENDBRANCH  17  20
ENDBRANCH   1  12
BRANCH   2  22
ATOM     22  O   UNL     1       6.188 -14.255   8.865  1.00  0.00    -0.502 OA
ATOM     23  H   UNL     1       6.717 -13.495   8.455  1.00  0.00     0.293 HD
ENDBRANCH   2  22
BRANCH   6  24
ATOM     24  O   UNL     1       6.497 -19.563   8.560  1.00  0.00    -0.507 OA
ATOM     25  H   UNL     1       7.224 -19.027   9.009  1.00  0.00     0.293 HD
ENDBRANCH   6  24
BRANCH   8  26
ATOM     26  O   UNL     1       3.049 -20.423   5.330  1.00  0.00    -0.508 OA
ATOM     27  H   UNL     1       2.527 -20.142   4.509  1.00  0.00     0.293 HD
ENDBRANCH   8  26
TORSDOF 6
ENDMDL
MODEL 2
REMARK VINA RESULT:    -6.197      1.616      3.169
REMARK INTER + INTRA:          -7.530
REMARK INTER:                  -7.264
REMARK INTRA:                  -0.266
REMARK UNBOUND:                -0.065
REMARK SMILES O=c1c(O)c(-c2ccc(O)c(O)c2)oc2cc(O)cc(O)c12
REMARK SMILES IDX 5 1 3 2 2 3 1 4 22 5 20 6 19 7 17 8 16 9 15 10 14 11 6 12
REMARK SMILES IDX 7 13 8 14 9 15 13 16 11 17 10 18 12 20 4 22 21 24 18 26
REMARK H PARENT 10 19 12 21 4 23 21 25 18 27
REMARK Flexibility Score: inf
ROOT
ATOM      1  C   UNL     1       4.523 -15.150   6.521  1.00  0.00     0.180 A 
ATOM      2  C   UNL     1       3.442 -15.542   5.713  1.00  0.00     0.208 A 
ATOM      3  C   UNL     1       3.219 -16.910   5.492  1.00  0.00     0.238 A 
ATOM      4  O   UNL     1       2.283 -17.254   4.724  1.00  0.00    -0.285 OA
ATOM      5  C   UNL     1       4.068 -17.869   6.095  1.00  0.00     0.111 A 
ATOM      6  C   UNL     1       3.910 -19.282   5.972  1.00  0.00     0.134 A 
ATOM      7  C   UNL     1       4.885 -20.136   6.504  1.00  0.00     0.093 A 
ATOM      8  C   UNL     1       5.978 -19.627   7.210  1.00  0.00     0.123 A 
ATOM      9  C   UNL     1       6.109 -18.253   7.387  1.00  0.00     0.094 A 
ATOM     10  C   UNL     1       5.171 -17.374   6.837  1.00  0.00     0.146 A 
ATOM     11  O   UNL     1       5.341 -16.071   7.020  1.00  0.00    -0.452 OA
ENDROOT
BRANCH   1  12
ATOM     12  C   UNL     1       4.808 -13.727   6.820  1.00  0.00     0.025 A 
ATOM     13  C   UNL     1       5.390 -12.880   5.860  1.00  0.00     0.016 A 
ATOM     14  C   UNL     1       5.627 -11.536   6.156  1.00  0.00     0.051 A 
ATOM     15  C   UNL     1       5.275 -11.015   7.408  1.00  0.00     0.157 A 
ATOM     16  C   UNL     1       4.438 -13.195   8.066  1.00  0.00     0.062 A 
ATOM     17  C   UNL     1       4.676 -11.845   8.364  1.00  0.00     0.158 A 
BRANCH  15  18
ATOM     18  O   UNL     1       5.512  -9.675   7.707  1.00  0.00    -0.504 OA
ATOM     19  H   UNL     1       5.931  -9.046   7.032  1.00  0.00     0.293 HD
ENDBRANCH  15  18
BRANCH  17  20
ATOM     20  O   UNL     1       4.320 -11.323   9.606  1.00  0.00    -0.504 OA
ATOM     21  H   UNL     1       3.772 -10.475   9.687  1.00  0.00     0.293 HD
ENDBRANCH  17  20
ENDBRANCH   1  12
BRANCH   2  22
ATOM     22  O   UNL     1       2.630 -14.578   5.110  1.00  0.00    -0.502 OA
ATOM     23  H   UNL     1       2.229 -14.705   4.188  1.00  0.00     0.293 HD
ENDBRANCH   2  22
BRANCH   6  24
ATOM     24  O   UNL     1       2.808 -19.895   5.367  1.00  0.00    -0.507 OA
ATOM     25  H   UNL     1       2.751 -20.139   4.390  1.00  0.00     0.293 HD
ENDBRANCH   6  24
BRANCH   8  26
ATOM     26  O   UNL     1       6.936 -20.484   7.750  1.00  0.00    -0.508 OA
ATOM     27  H   UNL     1       7.485 -20.222   8.559  1.00  0.00     0.293 HD
ENDBRANCH   8  26
TORSDOF 6
ENDMDL
MODEL 3
REMARK VINA RESULT:    -6.181      1.988      7.140
REMARK INTER + INTRA:          -7.512
REMARK INTER:                  -7.279
REMARK INTRA:                  -0.233
REMARK UNBOUND:                -0.065
REMARK SMILES O=c1c(O)c(-c2ccc(O)c(O)c2)oc2cc(O)cc(O)c12
REMARK SMILES IDX 5 1 3 2 2 3 1 4 22 5 20 6 19 7 17 8 16 9 15 10 14 11 6 12
REMARK SMILES IDX 7 13 8 14 9 15 13 16 11 17 10 18 12 20 4 22 21 24 18 26
REMARK H PARENT 10 19 12 21 4 23 21 25 18 27
REMARK Flexibility Score: inf
ROOT
ATOM      1  C   UNL     1       5.062 -18.596   6.777  1.00  0.00     0.180 A 
ATOM      2  C   UNL     1       5.852 -18.266   7.892  1.00  0.00     0.208 A 
ATOM      3  C   UNL     1       5.955 -16.921   8.279  1.00  0.00     0.238 A 
ATOM      4  O   UNL     1       6.707 -16.625   9.244  1.00  0.00    -0.285 OA
ATOM      5  C   UNL     1       5.252 -15.924   7.559  1.00  0.00     0.111 A 
ATOM      6  C   UNL     1       5.252 -14.536   7.888  1.00  0.00     0.134 A 
ATOM      7  C   UNL     1       4.628 -13.622   7.029  1.00  0.00     0.093 A 
ATOM      8  C   UNL     1       3.950 -14.056   5.887  1.00  0.00     0.123 A 
ATOM      9  C   UNL     1       3.894 -15.415   5.590  1.00  0.00     0.094 A 
ATOM     10  C   UNL     1       4.537 -16.347   6.409  1.00  0.00     0.146 A 
ATOM     11  O   UNL     1       4.469 -17.632   6.082  1.00  0.00    -0.452 OA
ENDROOT
BRANCH   1  12
ATOM     12  C   UNL     1       4.886 -19.994   6.322  1.00  0.00     0.025 A 
ATOM     13  C   UNL     1       3.660 -20.666   6.477  1.00  0.00     0.016 A 
ATOM     14  C   UNL     1       3.510 -21.976   6.018  1.00  0.00     0.051 A 
ATOM     15  C   UNL     1       4.575 -22.630   5.386  1.00  0.00     0.157 A 
ATOM     16  C   UNL     1       5.944 -20.647   5.668  1.00  0.00     0.062 A 
ATOM     17  C   UNL     1       5.794 -21.963   5.208  1.00  0.00     0.158 A 
BRANCH  15  18
ATOM     18  O   UNL     1       4.429 -23.938   4.928  1.00  0.00    -0.504 OA
ATOM     19  H   UNL     1       3.641 -24.215   4.354  1.00  0.00     0.293 HD
ENDBRANCH  15  18
BRANCH  17  20
ATOM     20  O   UNL     1       6.850 -22.614   4.572  1.00  0.00    -0.504 OA
ATOM     21  H   UNL     1       6.898 -23.625   4.525  1.00  0.00     0.293 HD
ENDBRANCH  17  20
ENDBRANCH   1  12
BRANCH   2  22
ATOM     22  O   UNL     1       6.554 -19.263   8.575  1.00  0.00    -0.502 OA
ATOM     23  H   UNL     1       7.030 -20.019   8.096  1.00  0.00     0.293 HD
ENDBRANCH   2  22
BRANCH   6  24
ATOM     24  O   UNL     1       5.821 -14.009   9.052  1.00  0.00    -0.507 OA
ATOM     25  H   UNL     1       6.809 -13.877   9.200  1.00  0.00     0.293 HD
ENDBRANCH   6  24
BRANCH   8  26
ATOM     26  O   UNL     1       3.318 -13.142   5.046  1.00  0.00    -0.508 OA
ATOM     27  H   UNL     1       2.384 -12.801   5.241  1.00  0.00     0.293 HD
ENDBRANCH   8  26
TORSDOF 6
ENDMDL
MODEL 4
REMARK VINA RESULT:    -6.037     14.655     17.178
REMARK INTER + INTRA:          -7.337
REMARK INTER:                  -7.187
REMARK INTRA:                  -0.150
REMARK UNBOUND:                -0.065
REMARK SMILES O=c1c(O)c(-c2ccc(O)c(O)c2)oc2cc(O)cc(O)c12
REMARK SMILES IDX 5 1 3 2 2 3 1 4 22 5 20 6 19 7 17 8 16 9 15 10 14 11 6 12
REMARK SMILES IDX 7 13 8 14 9 15 13 16 11 17 10 18 12 20 4 22 21 24 18 26
REMARK H PARENT 10 19 12 21 4 23 21 25 18 27
REMARK Flexibility Score: inf
ROOT
ATOM      1  C   UNL     1      14.449 -21.917  17.892  1.00  0.00     0.180 A 
ATOM      2  C   UNL     1      13.243 -22.081  18.595  1.00  0.00     0.208 A 
ATOM      3  C   UNL     1      12.501 -20.943  18.948  1.00  0.00     0.238 A 
ATOM      4  O   UNL     1      11.450 -21.091  19.625  1.00  0.00    -0.285 OA
ATOM      5  C   UNL     1      12.964 -19.657  18.578  1.00  0.00     0.111 A 
ATOM      6  C   UNL     1      12.273 -18.438  18.848  1.00  0.00     0.134 A 
ATOM      7  C   UNL     1      12.888 -17.215  18.553  1.00  0.00     0.093 A 
ATOM      8  C   UNL     1      14.141 -17.170  17.938  1.00  0.00     0.123 A 
ATOM      9  C   UNL     1      14.798 -18.354  17.616  1.00  0.00     0.094 A 
ATOM     10  C   UNL     1      14.226 -19.590  17.931  1.00  0.00     0.146 A 
ATOM     11  O   UNL     1      14.891 -20.695  17.617  1.00  0.00    -0.452 OA
ENDROOT
BRANCH   1  12
ATOM     12  C   UNL     1      15.275 -23.071  17.464  1.00  0.00     0.025 A 
ATOM     13  C   UNL     1      16.558 -23.290  17.996  1.00  0.00     0.016 A 
ATOM     14  C   UNL     1      17.308 -24.398  17.597  1.00  0.00     0.051 A 
ATOM     15  C   UNL     1      16.784 -25.309  16.671  1.00  0.00     0.157 A 
ATOM     16  C   UNL     1      14.746 -23.999  16.553  1.00  0.00     0.062 A 
ATOM     17  C   UNL     1      15.499 -25.111  16.150  1.00  0.00     0.158 A 
BRANCH  15  18
ATOM     18  O   UNL     1      17.531 -26.415  16.268  1.00  0.00    -0.504 OA
ATOM     19  H   UNL     1      18.487 -26.320  15.945  1.00  0.00     0.293 HD
ENDBRANCH  15  18
BRANCH  17  20
ATOM     20  O   UNL     1      14.977 -26.024  15.235  1.00  0.00    -0.504 OA
ATOM     21  H   UNL     1      14.147 -25.814  14.693  1.00  0.00     0.293 HD
ENDBRANCH  17  20
ENDBRANCH   1  12
BRANCH   2  22
ATOM     22  O   UNL     1      12.815 -23.358  18.969  1.00  0.00    -0.502 OA
ATOM     23  H   UNL     1      12.929 -24.167  18.370  1.00  0.00     0.293 HD
ENDBRANCH   2  22
BRANCH   6  24
ATOM     24  O   UNL     1      10.979 -18.375  19.375  1.00  0.00    -0.507 OA
ATOM     25  H   UNL     1      10.136 -18.337  18.824  1.00  0.00     0.293 HD
ENDBRANCH   6  24
BRANCH   8  26
ATOM     26  O   UNL     1      14.739 -15.948  17.632  1.00  0.00    -0.508 OA
ATOM     27  H   UNL     1      15.745 -15.855  17.559  1.00  0.00     0.293 HD
ENDBRANCH   8  26
TORSDOF 6
ENDMDL
MODEL 5
REMARK VINA RESULT:    -5.997      2.856      4.085
REMARK INTER + INTRA:          -7.290
REMARK INTER:                  -7.179
REMARK INTRA:                  -0.111
REMARK UNBOUND:                -0.065
REMARK SMILES O=c1c(O)c(-c2ccc(O)c(O)c2)oc2cc(O)cc(O)c12
REMARK SMILES IDX 5 1 3 2 2 3 1 4 22 5 20 6 19 7 17 8 16 9 15 10 14 11 6 12
REMARK SMILES IDX 7 13 8 14 9 15 13 16 11 17 10 18 12 20 4 22 21 24 18 26
REMARK H PARENT 10 19 12 21 4 23 21 25 18 27
REMARK Flexibility Score: inf
ROOT
ATOM      1  C   UNL     1       3.735 -14.002   7.771  1.00  0.00     0.180 A 
ATOM      2  C   UNL     1       4.294 -13.620   6.539  1.00  0.00     0.208 A 
ATOM      3  C   UNL     1       5.152 -14.512   5.875  1.00  0.00     0.238 A 
ATOM      4  O   UNL     1       5.693 -14.143   4.800  1.00  0.00    -0.285 OA
ATOM      5  C   UNL     1       5.425 -15.780   6.441  1.00  0.00     0.111 A 
ATOM      6  C   UNL     1       6.246 -16.778   5.836  1.00  0.00     0.134 A 
ATOM      7  C   UNL     1       6.553 -17.945   6.547  1.00  0.00     0.093 A 
ATOM      8  C   UNL     1       6.015 -18.177   7.815  1.00  0.00     0.123 A 
ATOM      9  C   UNL     1       5.165 -17.236   8.389  1.00  0.00     0.094 A 
ATOM     10  C   UNL     1       4.869 -16.046   7.719  1.00  0.00     0.146 A 
ATOM     11  O   UNL     1       4.062 -15.171   8.308  1.00  0.00    -0.452 OA
ENDROOT
BRANCH   1  12
ATOM     12  C   UNL     1       2.804 -13.125   8.518  1.00  0.00     0.025 A 
ATOM     13  C   UNL     1       3.195 -11.849   8.959  1.00  0.00     0.016 A 
ATOM     14  C   UNL     1       2.292 -11.030   9.641  1.00  0.00     0.051 A 
ATOM     15  C   UNL     1       0.983 -11.468   9.881  1.00  0.00     0.157 A 
ATOM     16  C   UNL     1       1.484 -13.550   8.742  1.00  0.00     0.062 A 
ATOM     17  C   UNL     1       0.577 -12.729   9.427  1.00  0.00     0.158 A 
BRANCH  15  18
ATOM     18  O   UNL     1       0.080 -10.654  10.562  1.00  0.00    -0.504 OA
ATOM     19  H   UNL     1      -0.183 -10.841  11.523  1.00  0.00     0.293 HD
ENDBRANCH  15  18
BRANCH  17  20
ATOM     20  O   UNL     1      -0.728 -13.160   9.661  1.00  0.00    -0.504 OA
ATOM     21  H   UNL     1      -1.290 -13.571   8.925  1.00  0.00     0.293 HD
ENDBRANCH  17  20
ENDBRANCH   1  12
BRANCH   2  22
ATOM     22  O   UNL     1       4.029 -12.354   6.008  1.00  0.00    -0.502 OA
ATOM     23  H   UNL     1       4.362 -11.501   6.443  1.00  0.00     0.293 HD
ENDBRANCH   2  22
BRANCH   6  24
ATOM     24  O   UNL     1       6.758 -16.685   4.538  1.00  0.00    -0.507 OA
ATOM     25  H   UNL     1       6.355 -17.131   3.728  1.00  0.00     0.293 HD
ENDBRANCH   6  24
BRANCH   8  26
ATOM     26  O   UNL     1       6.313 -19.348   8.509  1.00  0.00    -0.508 OA
ATOM     27  H   UNL     1       6.466 -19.346   9.511  1.00  0.00     0.293 HD
ENDBRANCH   8  26
TORSDOF 6
ENDMDL
MODEL 6
REMARK VINA RESULT:    -5.971      1.752      7.168
REMARK INTER + INTRA:          -7.258
REMARK INTER:                  -6.938
REMARK INTRA:                  -0.320
REMARK UNBOUND:                -0.065
REMARK SMILES O=c1c(O)c(-c2ccc(O)c(O)c2)oc2cc(O)cc(O)c12
REMARK SMILES IDX 5 1 3 2 2 3 1 4 22 5 20 6 19 7 17 8 16 9 15 10 14 11 6 12
REMARK SMILES IDX 7 13 8 14 9 15 13 16 11 17 10 18 12 20 4 22 21 24 18 26
REMARK H PARENT 10 19 12 21 4 23 21 25 18 27
REMARK Flexibility Score: inf
ROOT
ATOM      1  C   UNL     1       4.499 -14.765   7.706  1.00  0.00     0.180 A 
ATOM      2  C   UNL     1       3.237 -14.485   8.258  1.00  0.00     0.208 A 
ATOM      3  C   UNL     1       2.742 -13.173   8.193  1.00  0.00     0.238 A 
ATOM      4  O   UNL     1       1.636 -12.916   8.736  1.00  0.00    -0.285 OA
ATOM      5  C   UNL     1       3.506 -12.162   7.562  1.00  0.00     0.111 A 
ATOM      6  C   UNL     1       3.085 -10.808   7.404  1.00  0.00     0.134 A 
ATOM      7  C   UNL     1       3.977  -9.863   6.880  1.00  0.00     0.093 A 
ATOM      8  C   UNL     1       5.252 -10.238   6.451  1.00  0.00     0.123 A 
ATOM      9  C   UNL     1       5.651 -11.569   6.546  1.00  0.00     0.094 A 
ATOM     10  C   UNL     1       4.796 -12.528   7.097  1.00  0.00     0.146 A 
ATOM     11  O   UNL     1       5.221 -13.782   7.180  1.00  0.00    -0.452 OA
ENDROOT
BRANCH   1  12
ATOM     12  C   UNL     1       5.078 -16.129   7.715  1.00  0.00     0.025 A 
ATOM     13  C   UNL     1       5.911 -16.564   8.761  1.00  0.00     0.016 A 
ATOM     14  C   UNL     1       6.425 -17.862   8.760  1.00  0.00     0.051 A 
ATOM     15  C   UNL     1       6.105 -18.749   7.724  1.00  0.00     0.157 A 
ATOM     16  C   UNL     1       4.742 -17.029   6.690  1.00  0.00     0.062 A 
ATOM     17  C   UNL     1       5.259 -18.333   6.689  1.00  0.00     0.158 A 
BRANCH  15  18
ATOM     18  O   UNL     1       6.618 -20.045   7.720  1.00  0.00    -0.504 OA
ATOM     19  H   UNL     1       6.101 -20.821   8.118  1.00  0.00     0.293 HD
ENDBRANCH  15  18
BRANCH  17  20
ATOM     20  O   UNL     1       4.936 -19.219   5.663  1.00  0.00    -0.504 OA
ATOM     21  H   UNL     1       5.252 -20.182   5.675  1.00  0.00     0.293 HD
ENDBRANCH  17  20
ENDBRANCH   1  12
BRANCH   2  22
ATOM     22  O   UNL     1       2.509 -15.494   8.895  1.00  0.00    -0.502 OA
ATOM     23  H   UNL     1       1.589 -15.782   8.582  1.00  0.00     0.293 HD
ENDBRANCH   2  22
BRANCH   6  24
ATOM     24  O   UNL     1       1.801 -10.348   7.715  1.00  0.00    -0.507 OA
ATOM     25  H   UNL     1       1.383  -9.512   7.337  1.00  0.00     0.293 HD
ENDBRANCH   6  24
BRANCH   8  26
ATOM     26  O   UNL     1       6.128  -9.295   5.917  1.00  0.00    -0.508 OA
ATOM     27  H   UNL     1       5.914  -8.798   5.060  1.00  0.00     0.293 HD
ENDBRANCH   8  26
TORSDOF 6
ENDMDL
MODEL 7
REMARK VINA RESULT:    -5.945      2.848      7.058
REMARK INTER + INTRA:          -7.227
REMARK INTER:                  -7.151
REMARK INTRA:                  -0.075
REMARK UNBOUND:                -0.065
REMARK SMILES O=c1c(O)c(-c2ccc(O)c(O)c2)oc2cc(O)cc(O)c12
REMARK SMILES IDX 5 1 3 2 2 3 1 4 22 5 20 6 19 7 17 8 16 9 15 10 14 11 6 12
REMARK SMILES IDX 7 13 8 14 9 15 13 16 11 17 10 18 12 20 4 22 21 24 18 26
REMARK H PARENT 10 19 12 21 4 23 21 25 18 27
REMARK Flexibility Score: inf
ROOT
ATOM      1  C   UNL     1       3.812 -14.444   8.420  1.00  0.00     0.180 A 
ATOM      2  C   UNL     1       4.394 -13.220   8.049  1.00  0.00     0.208 A 
ATOM      3  C   UNL     1       3.663 -12.035   8.231  1.00  0.00     0.238 A 
ATOM      4  O   UNL     1       4.166 -10.948   7.847  1.00  0.00    -0.285 OA
ATOM      5  C   UNL     1       2.367 -12.088   8.799  1.00  0.00     0.111 A 
ATOM      6  C   UNL     1       1.552 -10.947   9.066  1.00  0.00     0.134 A 
ATOM      7  C   UNL     1       0.235 -11.126   9.507  1.00  0.00     0.093 A 
ATOM      8  C   UNL     1      -0.274 -12.403   9.752  1.00  0.00     0.123 A 
ATOM      9  C   UNL     1       0.532 -13.520   9.551  1.00  0.00     0.094 A 
ATOM     10  C   UNL     1       1.839 -13.375   9.077  1.00  0.00     0.146 A 
ATOM     11  O   UNL     1       2.569 -14.467   8.888  1.00  0.00    -0.452 OA
ENDROOT
BRANCH   1  12
ATOM     12  C   UNL     1       4.530 -15.732   8.280  1.00  0.00     0.025 A 
ATOM     13  C   UNL     1       5.802 -15.926   8.847  1.00  0.00     0.016 A 
ATOM     14  C   UNL     1       6.449 -17.158   8.724  1.00  0.00     0.051 A 
ATOM     15  C   UNL     1       5.832 -18.216   8.045  1.00  0.00     0.157 A 
ATOM     16  C   UNL     1       3.906 -16.803   7.620  1.00  0.00     0.062 A 
ATOM     17  C   UNL     1       4.556 -18.040   7.495  1.00  0.00     0.158 A 
BRANCH  15  18
ATOM     18  O   UNL     1       6.476 -19.445   7.919  1.00  0.00    -0.504 OA
ATOM     19  H   UNL     1       6.622 -19.877   7.014  1.00  0.00     0.293 HD
ENDBRANCH  15  18
BRANCH  17  20
ATOM     20  O   UNL     1       3.941 -19.096   6.826  1.00  0.00    -0.504 OA
ATOM     21  H   UNL     1       3.572 -19.897   7.326  1.00  0.00     0.293 HD
ENDBRANCH  17  20
ENDBRANCH   1  12
BRANCH   2  22
ATOM     22  O   UNL     1       5.666 -13.193   7.470  1.00  0.00    -0.502 OA
ATOM     23  H   UNL     1       5.874 -12.652   6.639  1.00  0.00     0.293 HD
ENDBRANCH   2  22
BRANCH   6  24
ATOM     24  O   UNL     1       1.995  -9.626   8.943  1.00  0.00    -0.507 OA
ATOM     25  H   UNL     1       1.497  -8.819   9.285  1.00  0.00     0.293 HD
ENDBRANCH   6  24
BRANCH   8  26
ATOM     26  O   UNL     1      -1.581 -12.572  10.206  1.00  0.00    -0.508 OA
ATOM     27  H   UNL     1      -2.045 -11.863  10.762  1.00  0.00     0.293 HD
ENDBRANCH   8  26
TORSDOF 6
ENDMDL
MODEL 8
REMARK VINA RESULT:    -5.852      1.596      2.072
REMARK INTER + INTRA:          -7.115
REMARK INTER:                  -6.789
REMARK INTRA:                  -0.326
REMARK UNBOUND:                -0.065
REMARK SMILES O=c1c(O)c(-c2ccc(O)c(O)c2)oc2cc(O)cc(O)c12
REMARK SMILES IDX 5 1 3 2 2 3 1 4 22 5 20 6 19 7 17 8 16 9 15 10 14 11 6 12
REMARK SMILES IDX 7 13 8 14 9 15 13 16 11 17 10 18 12 20 4 22 21 24 18 26
REMARK H PARENT 10 19 12 21 4 23 21 25 18 27
REMARK Flexibility Score: inf
ROOT
ATOM      1  C   UNL     1       5.227 -13.990   6.834  1.00  0.00     0.180 A 
ATOM      2  C   UNL     1       5.356 -14.485   8.144  1.00  0.00     0.208 A 
ATOM      3  C   UNL     1       5.625 -15.850   8.332  1.00  0.00     0.238 A 
ATOM      4  O   UNL     1       5.685 -16.299   9.506  1.00  0.00    -0.285 OA
ATOM      5  C   UNL     1       5.778 -16.699   7.209  1.00  0.00     0.111 A 
ATOM      6  C   UNL     1       6.091 -18.090   7.282  1.00  0.00     0.134 A 
ATOM      7  C   UNL     1       6.090 -18.861   6.113  1.00  0.00     0.093 A 
ATOM      8  C   UNL     1       5.850 -18.277   4.867  1.00  0.00     0.123 A 
ATOM      9  C   UNL     1       5.603 -16.910   4.779  1.00  0.00     0.094 A 
ATOM     10  C   UNL     1       5.562 -16.121   5.932  1.00  0.00     0.146 A 
ATOM     11  O   UNL     1       5.311 -14.824   5.804  1.00  0.00    -0.452 OA
ENDROOT
BRANCH   1  12
ATOM     12  C   UNL     1       4.969 -12.558   6.555  1.00  0.00     0.025 A 
ATOM     13  C   UNL     1       6.016 -11.621   6.508  1.00  0.00     0.016 A 
ATOM     14  C   UNL     1       5.751 -10.281   6.219  1.00  0.00     0.051 A 
ATOM     15  C   UNL     1       4.441  -9.859   5.959  1.00  0.00     0.157 A 
ATOM     16  C   UNL     1       3.660 -12.135   6.273  1.00  0.00     0.062 A 
ATOM     17  C   UNL     1       3.394 -10.789   5.983  1.00  0.00     0.158 A 
BRANCH  15  18
ATOM     18  O   UNL     1       4.173  -8.522   5.672  1.00  0.00    -0.504 OA
ATOM     19  H   UNL     1       3.853  -7.879   6.386  1.00  0.00     0.293 HD
ENDBRANCH  15  18
BRANCH  17  20
ATOM     20  O   UNL     1       2.091 -10.368   5.717  1.00  0.00    -0.504 OA
ATOM     21  H   UNL     1       1.364 -11.026   5.461  1.00  0.00     0.293 HD
ENDBRANCH  17  20
ENDBRANCH   1  12
BRANCH   2  22
ATOM     22  O   UNL     1       5.179 -13.634   9.238  1.00  0.00    -0.502 OA
ATOM     23  H   UNL     1       5.935 -13.395   9.869  1.00  0.00     0.293 HD
ENDBRANCH   2  22
BRANCH   6  24
ATOM     24  O   UNL     1       6.436 -18.751   8.465  1.00  0.00    -0.507 OA
ATOM     25  H   UNL     1       7.379 -18.871   8.802  1.00  0.00     0.293 HD
ENDBRANCH   6  24
BRANCH   8  26
ATOM     26  O   UNL     1       5.867 -19.048   3.706  1.00  0.00    -0.508 OA
ATOM     27  H   UNL     1       5.086 -19.642   3.453  1.00  0.00     0.293 HD
ENDBRANCH   8  26
TORSDOF 6
ENDMDL
MODEL 9
REMARK VINA RESULT:    -5.810      2.245      7.130
REMARK INTER + INTRA:          -7.064
REMARK INTER:                  -6.828
REMARK INTRA:                  -0.236
REMARK UNBOUND:                -0.065
REMARK SMILES O=c1c(O)c(-c2ccc(O)c(O)c2)oc2cc(O)cc(O)c12
REMARK SMILES IDX 5 1 3 2 2 3 1 4 22 5 20 6 19 7 17 8 16 9 15 10 14 11 6 12
REMARK SMILES IDX 7 13 8 14 9 15 13 16 11 17 10 18 12 20 4 22 21 24 18 26
REMARK H PARENT 10 19 12 21 4 23 21 25 18 27
REMARK Flexibility Score: inf
ROOT
ATOM      1  C   UNL     1       4.504 -17.330   7.207  1.00  0.00     0.180 A 
ATOM      2  C   UNL     1       5.282 -16.380   6.523  1.00  0.00     0.208 A 
ATOM      3  C   UNL     1       4.969 -15.018   6.662  1.00  0.00     0.238 A 
ATOM      4  O   UNL     1       5.633 -14.175   6.005  1.00  0.00    -0.285 OA
ATOM      5  C   UNL     1       3.895 -14.623   7.496  1.00  0.00     0.111 A 
ATOM      6  C   UNL     1       3.515 -13.269   7.741  1.00  0.00     0.134 A 
ATOM      7  C   UNL     1       2.355 -13.000   8.479  1.00  0.00     0.093 A 
ATOM      8  C   UNL     1       1.599 -14.034   9.034  1.00  0.00     0.123 A 
ATOM      9  C   UNL     1       1.995 -15.357   8.850  1.00  0.00     0.094 A 
ATOM     10  C   UNL     1       3.127 -15.659   8.089  1.00  0.00     0.146 A 
ATOM     11  O   UNL     1       3.463 -16.933   7.929  1.00  0.00    -0.452 OA
ENDROOT
BRANCH   1  12
ATOM     12  C   UNL     1       4.787 -18.782   7.130  1.00  0.00     0.025 A 
ATOM     13  C   UNL     1       5.937 -19.336   7.721  1.00  0.00     0.016 A 
ATOM     14  C   UNL     1       6.170 -20.712   7.657  1.00  0.00     0.051 A 
ATOM     15  C   UNL     1       5.255 -21.555   7.014  1.00  0.00     0.157 A 
ATOM     16  C   UNL     1       3.862 -19.635   6.506  1.00  0.00     0.062 A 
ATOM     17  C   UNL     1       4.097 -21.016   6.440  1.00  0.00     0.158 A 
BRANCH  15  18
ATOM     18  O   UNL     1       5.486 -22.927   6.947  1.00  0.00    -0.504 OA
ATOM     19  H   UNL     1       5.004 -23.515   6.276  1.00  0.00     0.293 HD
ENDBRANCH  15  18
BRANCH  17  20
ATOM     20  O   UNL     1       3.184 -21.858   5.808  1.00  0.00    -0.504 OA
ATOM     21  H   UNL     1       2.568 -21.519   5.077  1.00  0.00     0.293 HD
ENDBRANCH  17  20
ENDBRANCH   1  12
BRANCH   2  22
ATOM     22  O   UNL     1       6.323 -16.793   5.688  1.00  0.00    -0.502 OA
ATOM     23  H   UNL     1       7.294 -16.569   5.877  1.00  0.00     0.293 HD
ENDBRANCH   2  22
BRANCH   6  24
ATOM     24  O   UNL     1       4.252 -12.162   7.310  1.00  0.00    -0.507 OA
ATOM     25  H   UNL     1       5.258 -12.090   7.348  1.00  0.00     0.293 HD
ENDBRANCH   6  24
BRANCH   8  26
ATOM     26  O   UNL     1       0.455 -13.757   9.780  1.00  0.00    -0.508 OA
ATOM     27  H   UNL     1       0.195 -14.322  10.580  1.00  0.00     0.293 HD
ENDBRANCH   8  26
TORSDOF 6
ENDMDL
