MODEL 1
REMARK VINA RESULT:    -5.299      0.000      0.000
REMARK INTER + INTRA:          -8.052
REMARK INTER:                  -7.157
REMARK INTRA:                  -0.895
REMARK UNBOUND:                -0.895
REMARK SMILES O=c1c(-c2ccc(O)cc2)coc2c([C@@H]3O[C@@H](CO)[C@H](O)[C@@H](O)[C@H]3O)c(O)ccc12
REMARK SMILES IDX 3 1 11 2 12 3 13 4 30 5 2 6 1 7 29 8 28 9 26 10 14 11 4 12
REMARK SMILES IDX 5 13 6 14 7 15 10 16 9 17 8 18 15 20 24 21 16 22 22 23 17 24
REMARK SMILES IDX 20 25 25 26 23 28 18 30 19 31 21 33 27 35
REMARK H PARENT 8 19 25 27 23 29 19 32 21 34 27 36
REMARK Flexibility Score: inf
ROOT
ATOM      1  C   UNL     1       2.135   8.152   8.682  1.00  0.00     0.065 A 
ATOM      2  C   UNL     1       2.913   8.074   9.854  1.00  0.00     0.208 A 
ATOM      3  O   UNL     1       4.197   7.790   9.783  1.00  0.00    -0.463 OA
ATOM      4  C   UNL     1       4.867   7.754   8.641  1.00  0.00     0.147 A 
ATOM      5  C   UNL     1       4.270   8.205   7.459  1.00  0.00     0.066 A 
ATOM      6  C   UNL     1       2.860   8.310   7.456  1.00  0.00     0.200 A 
ATOM      7  O   UNL     1       2.235   8.474   6.357  1.00  0.00    -0.288 OA
ATOM      8  C   UNL     1       5.075   8.351   6.306  1.00  0.00     0.020 A 
ATOM      9  C   UNL     1       6.455   8.088   6.368  1.00  0.00     0.047 A 
ATOM     10  C   UNL     1       6.969   7.406   7.494  1.00  0.00     0.125 A 
ATOM     11  C   UNL     1       6.094   7.091   8.569  1.00  0.00     0.069 A 
ENDROOT
BRANCH   1  12
ATOM     12  C   UNL     1       0.666   7.757   8.761  1.00  0.00    -0.011 A 
ATOM     13  C   UNL     1      -0.297   8.485   9.508  1.00  0.00     0.013 A 
ATOM     14  C   UNL     1      -1.673   8.284   9.285  1.00  0.00     0.047 A 
ATOM     15  C   UNL     1      -2.122   7.265   8.426  1.00  0.00     0.115 A 
ATOM     16  C   UNL     1       0.200   6.724   7.932  1.00  0.00     0.013 A 
ATOM     17  C   UNL     1      -1.171   6.441   7.788  1.00  0.00     0.047 A 
BRANCH  15  18
ATOM     18  O   UNL     1      -3.483   7.094   8.155  1.00  0.00    -0.508 OA
ATOM     19  H   UNL     1      -4.006   6.282   8.531  1.00  0.00     0.293 HD
ENDBRANCH  15  18
ENDBRANCH   1  12
BRANCH  11  20
ATOM     20  C   UNL     1       6.071   5.704   9.210  1.00  0.00     0.188 C 
ATOM     21  C   UNL     1       6.504   4.454   8.388  1.00  0.00     0.179 C 
ATOM     22  O   UNL     1       6.658   5.781  10.504  1.00  0.00    -0.362 OA
ATOM     23  C   UNL     1       7.034   3.297   9.312  1.00  0.00     0.177 C 
ATOM     24  C   UNL     1       7.998   5.369  10.491  1.00  0.00     0.176 C 
ATOM     25  C   UNL     1       8.043   3.821  10.388  1.00  0.00     0.177 C 
BRANCH  21  26
ATOM     26  O   UNL     1       5.419   4.034   7.577  1.00  0.00    -0.387 OA
ATOM     27  H   UNL     1       5.592   3.100   7.281  1.00  0.00     0.211 HD
ENDBRANCH  21  26
BRANCH  23  28
ATOM     28  O   UNL     1       5.954   2.577   9.920  1.00  0.00    -0.387 OA
ATOM     29  H   UNL     1       6.348   1.717  10.300  1.00  0.00     0.211 HD
ENDBRANCH  23  28
BRANCH  24  30
ATOM     30  C   UNL     1       8.648   5.902  11.803  1.00  0.00     0.191 C 
BRANCH  30  31
ATOM     31  O   UNL     1       8.838   4.818  12.689  1.00  0.00    -0.394 OA
ATOM     32  H   UNL     1       9.513   4.232  12.237  1.00  0.00     0.210 HD
ENDBRANCH  30  31
ENDBRANCH  24  30
BRANCH  25  33
ATOM     33  O   UNL     1       9.345   3.395  10.022  1.00  0.00    -0.388 OA
ATOM     34  H   UNL     1       9.610   2.723  10.716  1.00  0.00     0.211 HD
ENDBRANCH  25  33
ENDBRANCH  11  20
BRANCH  10  35
ATOM     35  O   UNL     1       8.336   7.124   7.604  1.00  0.00    -0.507 OA
ATOM     36  H   UNL     1       8.775   7.076   8.529  1.00  0.00     0.293 HD
ENDBRANCH  10  35
TORSDOF 9
ENDMDL
MODEL 2
REMARK VINA RESULT:    -5.120     16.154     18.727
REMARK INTER + INTRA:          -7.811
REMARK INTER:                  -7.354
REMARK INTRA:                  -0.457
REMARK UNBOUND:                -0.895
REMARK SMILES O=c1c(-c2ccc(O)cc2)coc2c([C@@H]3O[C@@H](CO)[C@H](O)[C@@H](O)[C@H]3O)c(O)ccc12
REMARK SMILES IDX 3 1 11 2 12 3 13 4 30 5 2 6 1 7 29 8 28 9 26 10 14 11 4 12
REMARK SMILES IDX 5 13 6 14 7 15 10 16 9 17 8 18 15 20 24 21 16 22 22 23 17 24
REMARK SMILES IDX 20 25 25 26 23 28 18 30 19 31 21 33 27 35
REMARK H PARENT 8 19 25 27 23 29 19 32 21 34 27 36
REMARK Flexibility Score: inf
ROOT
ATOM      1  C   UNL     1      -2.409  -8.343  13.597  1.00  0.00     0.065 A 
ATOM      2  C   UNL     1      -2.743  -7.105  13.012  1.00  0.00     0.208 A 
ATOM      3  O   UNL     1      -4.005  -6.769  12.840  1.00  0.00    -0.463 OA
ATOM      4  C   UNL     1      -5.013  -7.451  13.364  1.00  0.00     0.147 A 
ATOM      5  C   UNL     1      -4.767  -8.470  14.290  1.00  0.00     0.066 A 
ATOM      6  C   UNL     1      -3.453  -8.992  14.333  1.00  0.00     0.200 A 
ATOM      7  O   UNL     1      -3.216 -10.073  14.966  1.00  0.00    -0.288 OA
ATOM      8  C   UNL     1      -5.862  -9.033  14.985  1.00  0.00     0.020 A 
ATOM      9  C   UNL     1      -7.163  -8.541  14.775  1.00  0.00     0.047 A 
ATOM     10  C   UNL     1      -7.400  -7.696  13.667  1.00  0.00     0.125 A 
ATOM     11  C   UNL     1      -6.304  -7.295  12.857  1.00  0.00     0.069 A 
ENDROOT
BRANCH   1  12
ATOM     12  C   UNL     1      -1.121  -9.028  13.156  1.00  0.00    -0.011 A 
ATOM     13  C   UNL     1      -0.742  -9.170  11.796  1.00  0.00     0.013 A 
ATOM     14  C   UNL     1       0.585  -9.499  11.456  1.00  0.00     0.047 A 
ATOM     15  C   UNL     1       1.522  -9.831  12.452  1.00  0.00     0.115 A 
ATOM     16  C   UNL     1      -0.183  -9.392  14.135  1.00  0.00     0.013 A 
ATOM     17  C   UNL     1       1.113  -9.831  13.802  1.00  0.00     0.047 A 
BRANCH  15  18
ATOM     18  O   UNL     1       2.854 -10.104  12.129  1.00  0.00    -0.508 OA
ATOM     19  H   UNL     1       3.132 -11.022  11.737  1.00  0.00     0.293 HD
ENDBRANCH  15  18
ENDBRANCH   1  12
BRANCH  11  20
ATOM     20  C   UNL     1      -6.365  -7.353  11.331  1.00  0.00     0.188 C 
ATOM     21  C   UNL     1      -5.866  -6.147  10.480  1.00  0.00     0.179 C 
ATOM     22  O   UNL     1      -5.873  -8.615  10.895  1.00  0.00    -0.362 OA
ATOM     23  C   UNL     1      -5.396  -6.593   9.048  1.00  0.00     0.177 C 
ATOM     24  C   UNL     1      -4.532  -8.538  10.491  1.00  0.00     0.176 C 
ATOM     25  C   UNL     1      -4.471  -7.855   9.098  1.00  0.00     0.177 C 
BRANCH  21  26
ATOM     26  O   UNL     1      -6.886  -5.164  10.426  1.00  0.00    -0.387 OA
ATOM     27  H   UNL     1      -7.515  -5.323  11.180  1.00  0.00     0.211 HD
ENDBRANCH  21  26
BRANCH  23  28
ATOM     28  O   UNL     1      -6.512  -6.803   8.173  1.00  0.00    -0.387 OA
ATOM     29  H   UNL     1      -7.183  -7.378   8.680  1.00  0.00     0.211 HD
ENDBRANCH  23  28
BRANCH  24  30
ATOM     30  C   UNL     1      -3.983  -9.996  10.468  1.00  0.00     0.191 C 
BRANCH  30  31
ATOM     31  O   UNL     1      -3.082 -10.125   9.388  1.00  0.00    -0.394 OA
ATOM     32  H   UNL     1      -2.207 -10.369   9.809  1.00  0.00     0.210 HD
ENDBRANCH  30  31
ENDBRANCH  24  30
BRANCH  25  33
ATOM     33  O   UNL     1      -3.143  -7.444   8.817  1.00  0.00    -0.388 OA
ATOM     34  H   UNL     1      -2.922  -6.762   9.517  1.00  0.00     0.211 HD
ENDBRANCH  25  33
ENDBRANCH  11  20
BRANCH  10  35
ATOM     35  O   UNL     1      -8.677  -7.177  13.417  1.00  0.00    -0.507 OA
ATOM     36  H   UNL     1      -9.376  -7.751  12.936  1.00  0.00     0.293 HD
ENDBRANCH  10  35
TORSDOF 9
ENDMDL
MODEL 3
REMARK VINA RESULT:    -5.041      1.747      2.273
REMARK INTER + INTRA:          -7.704
REMARK INTER:                  -6.791
REMARK INTRA:                  -0.913
REMARK UNBOUND:                -0.895
REMARK SMILES O=c1c(-c2ccc(O)cc2)coc2c([C@@H]3O[C@@H](CO)[C@H](O)[C@@H](O)[C@H]3O)c(O)ccc12
REMARK SMILES IDX 3 1 11 2 12 3 13 4 30 5 2 6 1 7 29 8 28 9 26 10 14 11 4 12
REMARK SMILES IDX 5 13 6 14 7 15 10 16 9 17 8 18 15 20 24 21 16 22 22 23 17 24
REMARK SMILES IDX 20 25 25 26 23 28 18 30 19 31 21 33 27 35
REMARK H PARENT 8 19 25 27 23 29 19 32 21 34 27 36
REMARK Flexibility Score: inf
ROOT
ATOM      1  C   UNL     1       2.282   7.691   9.407  1.00  0.00     0.065 A 
ATOM      2  C   UNL     1       2.815   6.549  10.039  1.00  0.00     0.208 A 
ATOM      3  O   UNL     1       4.107   6.298   9.982  1.00  0.00    -0.463 OA
ATOM      4  C   UNL     1       4.991   7.167   9.516  1.00  0.00     0.147 A 
ATOM      5  C   UNL     1       4.606   8.482   9.231  1.00  0.00     0.066 A 
ATOM      6  C   UNL     1       3.220   8.721   9.077  1.00  0.00     0.200 A 
ATOM      7  O   UNL     1       2.816   9.824   8.580  1.00  0.00    -0.288 OA
ATOM      8  C   UNL     1       5.609   9.434   8.940  1.00  0.00     0.020 A 
ATOM      9  C   UNL     1       6.966   9.069   8.982  1.00  0.00     0.047 A 
ATOM     10  C   UNL     1       7.301   7.696   9.028  1.00  0.00     0.125 A 
ATOM     11  C   UNL     1       6.260   6.734   9.124  1.00  0.00     0.069 A 
ENDROOT
BRANCH   1  12
ATOM     12  C   UNL     1       0.865   7.615   8.852  1.00  0.00    -0.011 A 
ATOM     13  C   UNL     1       0.507   6.811   7.738  1.00  0.00     0.013 A 
ATOM     14  C   UNL     1      -0.845   6.517   7.476  1.00  0.00     0.047 A 
ATOM     15  C   UNL     1      -1.871   7.124   8.223  1.00  0.00     0.115 A 
ATOM     16  C   UNL     1      -0.172   8.237   9.565  1.00  0.00     0.013 A 
ATOM     17  C   UNL     1      -1.527   8.038   9.241  1.00  0.00     0.047 A 
BRANCH  15  18
ATOM     18  O   UNL     1      -3.214   6.796   8.007  1.00  0.00    -0.508 OA
ATOM     19  H   UNL     1      -3.974   7.312   8.485  1.00  0.00     0.293 HD
ENDBRANCH  15  18
ENDBRANCH   1  12
BRANCH  11  20
ATOM     20  C   UNL     1       6.226   5.490   8.237  1.00  0.00     0.188 C 
ATOM     21  C   UNL     1       6.963   5.486   6.865  1.00  0.00     0.179 C 
ATOM     22  O   UNL     1       6.481   4.342   9.038  1.00  0.00    -0.362 OA
ATOM     23  C   UNL     1       7.375   4.034   6.423  1.00  0.00     0.177 C 
ATOM     24  C   UNL     1       7.821   3.938   8.954  1.00  0.00     0.176 C 
ATOM     25  C   UNL     1       8.044   3.232   7.590  1.00  0.00     0.177 C 
BRANCH  21  26
ATOM     26  O   UNL     1       6.148   6.127   5.898  1.00  0.00    -0.387 OA
ATOM     27  H   UNL     1       5.371   5.538   5.703  1.00  0.00     0.211 HD
ENDBRANCH  21  26
BRANCH  23  28
ATOM     28  O   UNL     1       6.261   3.318   5.875  1.00  0.00    -0.387 OA
ATOM     29  H   UNL     1       5.541   3.293   6.596  1.00  0.00     0.211 HD
ENDBRANCH  23  28
BRANCH  24  30
ATOM     30  C   UNL     1       8.087   2.997  10.167  1.00  0.00     0.191 C 
BRANCH  30  31
ATOM     31  O   UNL     1       6.914   2.254  10.430  1.00  0.00    -0.394 OA
ATOM     32  H   UNL     1       6.390   2.290   9.579  1.00  0.00     0.210 HD
ENDBRANCH  30  31
ENDBRANCH  24  30
BRANCH  25  33
ATOM     33  O   UNL     1       9.432   3.127   7.319  1.00  0.00    -0.388 OA
ATOM     34  H   UNL     1       9.677   3.979   6.853  1.00  0.00     0.211 HD
ENDBRANCH  25  33
ENDBRANCH  11  20
BRANCH  10  35
ATOM     35  O   UNL     1       8.638   7.282   9.074  1.00  0.00    -0.507 OA
ATOM     36  H   UNL     1       9.280   7.541   8.319  1.00  0.00     0.293 HD
ENDBRANCH  10  35
TORSDOF 9
ENDMDL
MODEL 4
REMARK VINA RESULT:    -4.979     18.181     20.553
REMARK INTER + INTRA:          -7.620
REMARK INTER:                  -6.796
REMARK INTRA:                  -0.824
REMARK UNBOUND:                -0.895
REMARK SMILES O=c1c(-c2ccc(O)cc2)coc2c([C@@H]3O[C@@H](CO)[C@H](O)[C@@H](O)[C@H]3O)c(O)ccc12
REMARK SMILES IDX 3 1 11 2 12 3 13 4 30 5 2 6 1 7 29 8 28 9 26 10 14 11 4 12
REMARK SMILES IDX 5 13 6 14 7 15 10 16 9 17 8 18 15 20 24 21 16 22 22 23 17 24
REMARK SMILES IDX 20 25 25 26 23 28 18 30 19 31 21 33 27 35
REMARK H PARENT 8 19 25 27 23 29 19 32 21 34 27 36
REMARK Flexibility Score: inf
ROOT
ATOM      1  C   UNL     1      -5.743  -9.130  14.695  1.00  0.00     0.065 A 
ATOM      2  C   UNL     1      -4.695  -9.318  15.617  1.00  0.00     0.208 A 
ATOM      3  O   UNL     1      -4.947  -9.387  16.908  1.00  0.00    -0.463 OA
ATOM      4  C   UNL     1      -6.174  -9.480  17.400  1.00  0.00     0.147 A 
ATOM      5  C   UNL     1      -7.261  -9.699  16.546  1.00  0.00     0.066 A 
ATOM      6  C   UNL     1      -7.061  -9.420  15.174  1.00  0.00     0.200 A 
ATOM      7  O   UNL     1      -8.061  -9.359  14.384  1.00  0.00    -0.288 OA
ATOM      8  C   UNL     1      -8.518 -10.004  17.115  1.00  0.00     0.020 A 
ATOM      9  C   UNL     1      -8.654 -10.125  18.510  1.00  0.00     0.047 A 
ATOM     10  C   UNL     1      -7.609  -9.659  19.339  1.00  0.00     0.125 A 
ATOM     11  C   UNL     1      -6.417  -9.170  18.739  1.00  0.00     0.069 A 
ENDROOT
BRANCH   1  12
ATOM     12  C   UNL     1      -5.450  -8.357  13.414  1.00  0.00    -0.011 A 
ATOM     13  C   UNL     1      -6.207  -7.232  12.994  1.00  0.00     0.013 A 
ATOM     14  C   UNL     1      -5.705  -6.364  12.005  1.00  0.00     0.047 A 
ATOM     15  C   UNL     1      -4.516  -6.668  11.317  1.00  0.00     0.115 A 
ATOM     16  C   UNL     1      -4.283  -8.661  12.696  1.00  0.00     0.013 A 
ATOM     17  C   UNL     1      -3.831  -7.861  11.630  1.00  0.00     0.047 A 
BRANCH  15  18
ATOM     18  O   UNL     1      -3.980  -5.786  10.374  1.00  0.00    -0.508 OA
ATOM     19  H   UNL     1      -4.487  -4.927  10.096  1.00  0.00     0.293 HD
ENDBRANCH  15  18
ENDBRANCH   1  12
BRANCH  11  20
ATOM     20  C   UNL     1      -5.770  -7.859  19.183  1.00  0.00     0.188 C 
ATOM     21  C   UNL     1      -6.618  -6.774  19.911  1.00  0.00     0.179 C 
ATOM     22  O   UNL     1      -4.527  -8.145  19.814  1.00  0.00    -0.362 OA
ATOM     23  C   UNL     1      -5.734  -5.857  20.833  1.00  0.00     0.177 C 
ATOM     24  C   UNL     1      -4.644  -8.156  21.212  1.00  0.00     0.176 C 
ATOM     25  C   UNL     1      -4.743  -6.690  21.713  1.00  0.00     0.177 C 
BRANCH  21  26
ATOM     26  O   UNL     1      -7.338  -6.025  18.947  1.00  0.00    -0.387 OA
ATOM     27  H   UNL     1      -7.563  -6.626  18.187  1.00  0.00     0.211 HD
ENDBRANCH  21  26
BRANCH  23  28
ATOM     28  O   UNL     1      -5.038  -4.863  20.069  1.00  0.00    -0.387 OA
ATOM     29  H   UNL     1      -4.506  -5.356  19.353  1.00  0.00     0.211 HD
ENDBRANCH  23  28
BRANCH  24  30
ATOM     30  C   UNL     1      -3.390  -8.896  21.765  1.00  0.00     0.191 C 
BRANCH  30  31
ATOM     31  O   UNL     1      -2.400  -7.940  22.079  1.00  0.00    -0.394 OA
ATOM     32  H   UNL     1      -2.413  -7.873  23.078  1.00  0.00     0.210 HD
ENDBRANCH  30  31
ENDBRANCH  24  30
BRANCH  25  33
ATOM     33  O   UNL     1      -5.209  -6.666  23.053  1.00  0.00    -0.388 OA
ATOM     34  H   UNL     1      -4.761  -7.439  23.504  1.00  0.00     0.211 HD
ENDBRANCH  25  33
ENDBRANCH  11  20
BRANCH  10  35
ATOM     35  O   UNL     1      -7.695  -9.762  20.733  1.00  0.00    -0.507 OA
ATOM     36  H   UNL     1      -7.076  -9.199  21.326  1.00  0.00     0.293 HD
ENDBRANCH  10  35
TORSDOF 9
ENDMDL
MODEL 5
REMARK VINA RESULT:    -4.948      1.900      3.177
REMARK INTER + INTRA:          -7.578
REMARK INTER:                  -6.952
REMARK INTRA:                  -0.626
REMARK UNBOUND:                -0.895
REMARK SMILES O=c1c(-c2ccc(O)cc2)coc2c([C@@H]3O[C@@H](CO)[C@H](O)[C@@H](O)[C@H]3O)c(O)ccc12
REMARK SMILES IDX 3 1 11 2 12 3 13 4 30 5 2 6 1 7 29 8 28 9 26 10 14 11 4 12
REMARK SMILES IDX 5 13 6 14 7 15 10 16 9 17 8 18 15 20 24 21 16 22 22 23 17 24
REMARK SMILES IDX 20 25 25 26 23 28 18 30 19 31 21 33 27 35
REMARK H PARENT 8 19 25 27 23 29 19 32 21 34 27 36
REMARK Flexibility Score: inf
ROOT
ATOM      1  C   UNL     1       3.865   7.841   9.275  1.00  0.00     0.065 A 
ATOM      2  C   UNL     1       4.110   7.179  10.495  1.00  0.00     0.208 A 
ATOM      3  O   UNL     1       5.344   6.955  10.895  1.00  0.00    -0.463 OA
ATOM      4  C   UNL     1       6.403   7.487  10.304  1.00  0.00     0.147 A 
ATOM      5  C   UNL     1       6.242   8.475   9.326  1.00  0.00     0.066 A 
ATOM      6  C   UNL     1       4.963   8.582   8.731  1.00  0.00     0.200 A 
ATOM      7  O   UNL     1       4.808   9.280   7.675  1.00  0.00    -0.288 OA
ATOM      8  C   UNL     1       7.386   9.169   8.869  1.00  0.00     0.020 A 
ATOM      9  C   UNL     1       8.649   8.896   9.424  1.00  0.00     0.047 A 
ATOM     10  C   UNL     1       8.808   7.737  10.217  1.00  0.00     0.125 A 
ATOM     11  C   UNL     1       7.670   6.936  10.507  1.00  0.00     0.069 A 
ENDROOT
BRANCH   1  12
ATOM     12  C   UNL     1       2.610   7.474   8.492  1.00  0.00    -0.011 A 
ATOM     13  C   UNL     1       2.626   7.120   7.117  1.00  0.00     0.013 A 
ATOM     14  C   UNL     1       1.518   6.476   6.533  1.00  0.00     0.047 A 
ATOM     15  C   UNL     1       0.325   6.298   7.258  1.00  0.00     0.115 A 
ATOM     16  C   UNL     1       1.403   7.317   9.189  1.00  0.00     0.013 A 
ATOM     17  C   UNL     1       0.253   6.777   8.583  1.00  0.00     0.047 A 
BRANCH  15  18
ATOM     18  O   UNL     1      -0.760   5.611   6.706  1.00  0.00    -0.508 OA
ATOM     19  H   UNL     1      -1.722   5.991   6.769  1.00  0.00     0.293 HD
ENDBRANCH  15  18
ENDBRANCH   1  12
BRANCH  11  20
ATOM     20  C   UNL     1       7.697   5.415  10.366  1.00  0.00     0.188 C 
ATOM     21  C   UNL     1       6.403   4.582  10.608  1.00  0.00     0.179 C 
ATOM     22  O   UNL     1       8.394   5.072   9.173  1.00  0.00    -0.362 OA
ATOM     23  C   UNL     1       6.425   3.220   9.823  1.00  0.00     0.177 C 
ATOM     24  C   UNL     1       7.513   4.805   8.115  1.00  0.00     0.176 C 
ATOM     25  C   UNL     1       6.879   3.406   8.336  1.00  0.00     0.177 C 
BRANCH  21  26
ATOM     26  O   UNL     1       6.229   4.392  12.002  1.00  0.00    -0.387 OA
ATOM     27  H   UNL     1       5.317   4.025  12.156  1.00  0.00     0.211 HD
ENDBRANCH  21  26
BRANCH  23  28
ATOM     28  O   UNL     1       7.231   2.243  10.493  1.00  0.00    -0.387 OA
ATOM     29  H   UNL     1       7.962   1.964   9.841  1.00  0.00     0.211 HD
ENDBRANCH  23  28
BRANCH  24  30
ATOM     30  C   UNL     1       8.347   4.885   6.802  1.00  0.00     0.191 C 
BRANCH  30  31
ATOM     31  O   UNL     1       8.116   3.715   6.045  1.00  0.00    -0.394 OA
ATOM     32  H   UNL     1       8.826   3.074   6.340  1.00  0.00     0.210 HD
ENDBRANCH  30  31
ENDBRANCH  24  30
BRANCH  25  33
ATOM     33  O   UNL     1       5.744   3.250   7.501  1.00  0.00    -0.388 OA
ATOM     34  H   UNL     1       5.935   3.801   6.687  1.00  0.00     0.211 HD
ENDBRANCH  25  33
ENDBRANCH  11  20
BRANCH  10  35
ATOM     35  O   UNL     1      10.045   7.424  10.796  1.00  0.00    -0.507 OA
ATOM     36  H   UNL     1      10.338   6.445  10.874  1.00  0.00     0.293 HD
ENDBRANCH  10  35
TORSDOF 9
ENDMDL
MODEL 6
REMARK VINA RESULT:    -4.945      2.079      3.113
REMARK INTER + INTRA:          -7.575
REMARK INTER:                  -6.621
REMARK INTRA:                  -0.954
REMARK UNBOUND:                -0.895
REMARK SMILES O=c1c(-c2ccc(O)cc2)coc2c([C@@H]3O[C@@H](CO)[C@H](O)[C@@H](O)[C@H]3O)c(O)ccc12
REMARK SMILES IDX 3 1 11 2 12 3 13 4 30 5 2 6 1 7 29 8 28 9 26 10 14 11 4 12
REMARK SMILES IDX 5 13 6 14 7 15 10 16 9 17 8 18 15 20 24 21 16 22 22 23 17 24
REMARK SMILES IDX 20 25 25 26 23 28 18 30 19 31 21 33 27 35
REMARK H PARENT 8 19 25 27 23 29 19 32 21 34 27 36
REMARK Flexibility Score: inf
ROOT
ATOM      1  C   UNL     1       0.684   7.905   9.571  1.00  0.00     0.065 A 
ATOM      2  C   UNL     1       1.032   6.551   9.749  1.00  0.00     0.208 A 
ATOM      3  O   UNL     1       2.280   6.211   9.998  1.00  0.00    -0.463 OA
ATOM      4  C   UNL     1       3.225   7.094  10.285  1.00  0.00     0.147 A 
ATOM      5  C   UNL     1       2.892   8.432  10.521  1.00  0.00     0.066 A 
ATOM      6  C   UNL     1       1.626   8.865  10.062  1.00  0.00     0.200 A 
ATOM      7  O   UNL     1       1.356  10.111  10.020  1.00  0.00    -0.288 OA
ATOM      8  C   UNL     1       3.886   9.299  11.030  1.00  0.00     0.020 A 
ATOM      9  C   UNL     1       5.169   8.806  11.330  1.00  0.00     0.047 A 
ATOM     10  C   UNL     1       5.537   7.528  10.851  1.00  0.00     0.125 A 
ATOM     11  C   UNL     1       4.572   6.744  10.165  1.00  0.00     0.069 A 
ENDROOT
BRANCH   1  12
ATOM     12  C   UNL     1      -0.463   8.238   8.625  1.00  0.00    -0.011 A 
ATOM     13  C   UNL     1      -1.761   8.601   9.072  1.00  0.00     0.013 A 
ATOM     14  C   UNL     1      -2.672   9.215   8.192  1.00  0.00     0.047 A 
ATOM     15  C   UNL     1      -2.371   9.353   6.824  1.00  0.00     0.115 A 
ATOM     16  C   UNL     1      -0.192   8.356   7.253  1.00  0.00     0.013 A 
ATOM     17  C   UNL     1      -1.138   8.865   6.344  1.00  0.00     0.047 A 
BRANCH  15  18
ATOM     18  O   UNL     1      -3.245  10.011   5.954  1.00  0.00    -0.508 OA
ATOM     19  H   UNL     1      -3.881  10.754   6.295  1.00  0.00     0.293 HD
ENDBRANCH  15  18
ENDBRANCH   1  12
BRANCH  11  20
ATOM     20  C   UNL     1       4.896   6.033   8.851  1.00  0.00     0.188 C 
ATOM     21  C   UNL     1       5.897   6.671   7.842  1.00  0.00     0.179 C 
ATOM     22  O   UNL     1       5.135   4.655   9.115  1.00  0.00    -0.362 OA
ATOM     23  C   UNL     1       6.588   5.588   6.936  1.00  0.00     0.177 C 
ATOM     24  C   UNL     1       6.506   4.374   9.201  1.00  0.00     0.176 C 
ATOM     25  C   UNL     1       7.104   4.367   7.769  1.00  0.00     0.177 C 
BRANCH  21  26
ATOM     26  O   UNL     1       5.220   7.654   7.077  1.00  0.00    -0.387 OA
ATOM     27  H   UNL     1       4.505   7.205   6.551  1.00  0.00     0.211 HD
ENDBRANCH  21  26
BRANCH  23  28
ATOM     28  O   UNL     1       5.723   5.163   5.875  1.00  0.00    -0.387 OA
ATOM     29  H   UNL     1       6.255   5.237   5.009  1.00  0.00     0.211 HD
ENDBRANCH  23  28
BRANCH  24  30
ATOM     30  C   UNL     1       6.640   2.995   9.914  1.00  0.00     0.191 C 
BRANCH  30  31
ATOM     31  O   UNL     1       5.928   3.043  11.133  1.00  0.00    -0.394 OA
ATOM     32  H   UNL     1       5.880   2.091  11.440  1.00  0.00     0.210 HD
ENDBRANCH  30  31
ENDBRANCH  24  30
BRANCH  25  33
ATOM     33  O   UNL     1       8.519   4.437   7.833  1.00  0.00    -0.388 OA
ATOM     34  H   UNL     1       8.740   5.411   7.751  1.00  0.00     0.211 HD
ENDBRANCH  25  33
ENDBRANCH  11  20
BRANCH  10  35
ATOM     35  O   UNL     1       6.801   6.992  11.126  1.00  0.00    -0.507 OA
ATOM     36  H   UNL     1       7.343   7.345  11.922  1.00  0.00     0.293 HD
ENDBRANCH  10  35
TORSDOF 9
ENDMDL
MODEL 7
REMARK VINA RESULT:    -4.888      2.180      2.998
REMARK INTER + INTRA:          -7.498
REMARK INTER:                  -6.811
REMARK INTRA:                  -0.687
REMARK UNBOUND:                -0.895
REMARK SMILES O=c1c(-c2ccc(O)cc2)coc2c([C@@H]3O[C@@H](CO)[C@H](O)[C@@H](O)[C@H]3O)c(O)ccc12
REMARK SMILES IDX 3 1 11 2 12 3 13 4 30 5 2 6 1 7 29 8 28 9 26 10 14 11 4 12
REMARK SMILES IDX 5 13 6 14 7 15 10 16 9 17 8 18 15 20 24 21 16 22 22 23 17 24
REMARK SMILES IDX 20 25 25 26 23 28 18 30 19 31 21 33 27 35
REMARK H PARENT 8 19 25 27 23 29 19 32 21 34 27 36
REMARK Flexibility Score: inf
ROOT
ATOM      1  C   UNL     1       2.744   7.326   8.159  1.00  0.00     0.065 A 
ATOM      2  C   UNL     1       3.273   8.347   8.974  1.00  0.00     0.208 A 
ATOM      3  O   UNL     1       4.515   8.278   9.407  1.00  0.00    -0.463 OA
ATOM      4  C   UNL     1       5.385   7.383   8.964  1.00  0.00     0.147 A 
ATOM      5  C   UNL     1       5.070   6.576   7.866  1.00  0.00     0.066 A 
ATOM      6  C   UNL     1       3.702   6.472   7.522  1.00  0.00     0.200 A 
ATOM      7  O   UNL     1       3.317   5.575   6.701  1.00  0.00    -0.288 OA
ATOM      8  C   UNL     1       6.091   5.786   7.290  1.00  0.00     0.020 A 
ATOM      9  C   UNL     1       7.403   5.850   7.791  1.00  0.00     0.047 A 
ATOM     10  C   UNL     1       7.627   6.476   9.038  1.00  0.00     0.125 A 
ATOM     11  C   UNL     1       6.537   7.102   9.701  1.00  0.00     0.069 A 
ENDROOT
BRANCH   1  12
ATOM     12  C   UNL     1       1.257   7.012   8.266  1.00  0.00    -0.011 A 
ATOM     13  C   UNL     1       0.525   7.112   9.478  1.00  0.00     0.013 A 
ATOM     14  C   UNL     1      -0.883   7.140   9.461  1.00  0.00     0.047 A 
ATOM     15  C   UNL     1      -1.592   6.928   8.264  1.00  0.00     0.115 A 
ATOM     16  C   UNL     1       0.533   6.771   7.087  1.00  0.00     0.013 A 
ATOM     17  C   UNL     1      -0.872   6.685   7.076  1.00  0.00     0.047 A 
BRANCH  15  18
ATOM     18  O   UNL     1      -2.988   7.009   8.227  1.00  0.00    -0.508 OA
ATOM     19  H   UNL     1      -3.550   6.963   9.095  1.00  0.00     0.293 HD
ENDBRANCH  15  18
ENDBRANCH   1  12
BRANCH  11  20
ATOM     20  C   UNL     1       6.264   6.880  11.189  1.00  0.00     0.188 C 
ATOM     21  C   UNL     1       6.959   5.711  11.948  1.00  0.00     0.179 C 
ATOM     22  O   UNL     1       6.329   8.132  11.864  1.00  0.00    -0.362 OA
ATOM     23  C   UNL     1       7.096   6.007  13.485  1.00  0.00     0.177 C 
ATOM     24  C   UNL     1       7.574   8.325  12.479  1.00  0.00     0.176 C 
ATOM     25  C   UNL     1       7.638   7.451  13.759  1.00  0.00     0.177 C 
BRANCH  21  26
ATOM     26  O   UNL     1       6.249   4.509  11.697  1.00  0.00    -0.387 OA
ATOM     27  H   UNL     1       5.565   4.689  10.998  1.00  0.00     0.211 HD
ENDBRANCH  21  26
BRANCH  23  28
ATOM     28  O   UNL     1       5.861   5.778  14.176  1.00  0.00    -0.387 OA
ATOM     29  H   UNL     1       5.897   4.828  14.542  1.00  0.00     0.211 HD
ENDBRANCH  23  28
BRANCH  24  30
ATOM     30  C   UNL     1       7.695   9.848  12.785  1.00  0.00     0.191 C 
BRANCH  30  31
ATOM     31  O   UNL     1       9.018  10.125  13.197  1.00  0.00    -0.394 OA
ATOM     32  H   UNL     1       9.201   9.472  13.933  1.00  0.00     0.210 HD
ENDBRANCH  30  31
ENDBRANCH  24  30
BRANCH  25  33
ATOM     33  O   UNL     1       8.980   7.344  14.209  1.00  0.00    -0.388 OA
ATOM     34  H   UNL     1       9.467   6.865  13.477  1.00  0.00     0.211 HD
ENDBRANCH  25  33
ENDBRANCH  11  20
BRANCH  10  35
ATOM     35  O   UNL     1       8.916   6.568   9.577  1.00  0.00    -0.507 OA
ATOM     36  H   UNL     1       9.123   6.136  10.483  1.00  0.00     0.293 HD
ENDBRANCH  10  35
TORSDOF 9
ENDMDL
MODEL 8
REMARK VINA RESULT:    -4.871      1.929      7.944
REMARK INTER + INTRA:          -7.475
REMARK INTER:                  -6.577
REMARK INTRA:                  -0.897
REMARK UNBOUND:                -0.895
REMARK SMILES O=c1c(-c2ccc(O)cc2)coc2c([C@@H]3O[C@@H](CO)[C@H](O)[C@@H](O)[C@H]3O)c(O)ccc12
REMARK SMILES IDX 3 1 11 2 12 3 13 4 30 5 2 6 1 7 29 8 28 9 26 10 14 11 4 12
REMARK SMILES IDX 5 13 6 14 7 15 10 16 9 17 8 18 15 20 24 21 16 22 22 23 17 24
REMARK SMILES IDX 20 25 25 26 23 28 18 30 19 31 21 33 27 35
REMARK H PARENT 8 19 25 27 23 29 19 32 21 34 27 36
REMARK Flexibility Score: inf
ROOT
ATOM      1  C   UNL     1       7.396   4.634  10.104  1.00  0.00     0.065 A 
ATOM      2  C   UNL     1       6.119   4.134  10.426  1.00  0.00     0.208 A 
ATOM      3  O   UNL     1       5.073   4.459   9.694  1.00  0.00    -0.463 OA
ATOM      4  C   UNL     1       5.171   5.092   8.534  1.00  0.00     0.147 A 
ATOM      5  C   UNL     1       6.423   5.281   7.939  1.00  0.00     0.066 A 
ATOM      6  C   UNL     1       7.555   5.143   8.775  1.00  0.00     0.200 A 
ATOM      7  O   UNL     1       8.699   5.538   8.370  1.00  0.00    -0.288 OA
ATOM      8  C   UNL     1       6.476   5.767   6.612  1.00  0.00     0.020 A 
ATOM      9  C   UNL     1       5.288   6.010   5.899  1.00  0.00     0.047 A 
ATOM     10  C   UNL     1       4.065   6.045   6.606  1.00  0.00     0.125 A 
ATOM     11  C   UNL     1       4.060   5.741   7.994  1.00  0.00     0.069 A 
ENDROOT
BRANCH   1  12
ATOM     12  C   UNL     1       8.382   4.884  11.239  1.00  0.00    -0.011 A 
ATOM     13  C   UNL     1       8.088   5.704  12.359  1.00  0.00     0.013 A 
ATOM     14  C   UNL     1       8.881   5.637  13.521  1.00  0.00     0.047 A 
ATOM     15  C   UNL     1      10.058   4.866  13.545  1.00  0.00     0.115 A 
ATOM     16  C   UNL     1       9.575   4.145  11.270  1.00  0.00     0.013 A 
ATOM     17  C   UNL     1      10.435   4.159  12.385  1.00  0.00     0.047 A 
BRANCH  15  18
ATOM     18  O   UNL     1      10.822   4.749  14.710  1.00  0.00    -0.508 OA
ATOM     19  H   UNL     1      11.606   5.397  14.903  1.00  0.00     0.293 HD
ENDBRANCH  15  18
ENDBRANCH   1  12
BRANCH  11  20
ATOM     20  C   UNL     1       3.316   6.611   9.007  1.00  0.00     0.188 C 
ATOM     21  C   UNL     1       3.588   8.144   9.072  1.00  0.00     0.179 C 
ATOM     22  O   UNL     1       1.936   6.265   8.991  1.00  0.00    -0.362 OA
ATOM     23  C   UNL     1       2.355   8.935   9.644  1.00  0.00     0.177 C 
ATOM     24  C   UNL     1       1.188   7.153   8.204  1.00  0.00     0.176 C 
ATOM     25  C   UNL     1       1.009   8.481   8.985  1.00  0.00     0.177 C 
BRANCH  21  26
ATOM     26  O   UNL     1       4.766   8.374   9.825  1.00  0.00    -0.387 OA
ATOM     27  H   UNL     1       4.621   8.030  10.747  1.00  0.00     0.211 HD
ENDBRANCH  21  26
BRANCH  23  28
ATOM     28  O   UNL     1       2.291   8.842  11.073  1.00  0.00    -0.387 OA
ATOM     29  H   UNL     1       2.621   7.912  11.325  1.00  0.00     0.211 HD
ENDBRANCH  23  28
BRANCH  24  30
ATOM     30  C   UNL     1      -0.169   6.451   7.896  1.00  0.00     0.191 C 
BRANCH  30  31
ATOM     31  O   UNL     1      -0.032   5.699   6.708  1.00  0.00    -0.394 OA
ATOM     32  H   UNL     1       0.952   5.676   6.530  1.00  0.00     0.210 HD
ENDBRANCH  30  31
ENDBRANCH  24  30
BRANCH  25  33
ATOM     33  O   UNL     1       0.575   9.507   8.107  1.00  0.00    -0.388 OA
ATOM     34  H   UNL     1       1.412   9.962   7.797  1.00  0.00     0.211 HD
ENDBRANCH  25  33
ENDBRANCH  11  20
BRANCH  10  35
ATOM     35  O   UNL     1       2.855   6.279   5.940  1.00  0.00    -0.507 OA
ATOM     36  H   UNL     1       2.011   5.771   6.222  1.00  0.00     0.293 HD
ENDBRANCH  10  35
TORSDOF 9
ENDMDL
