MODEL 1
REMARK VINA RESULT:    -2.310      0.000      0.000
REMARK INTER + INTRA:          -2.310
REMARK INTER:                  -2.310
REMARK INTRA:                   0.000
REMARK UNBOUND:                 0.000
REMARK SMILES CC(=O)[O-]
REMARK SMILES IDX 1 1 2 2 3 3 4 4
REMARK H PARENT
REMARK Flexibility Score: inf
ROOT
ATOM      1  C   UNL     1      40.200  14.394 -20.498  1.00  0.00     0.063 C 
ATOM      2  C   UNL     1      41.237  13.377 -20.841  1.00  0.00     0.038 C 
ATOM      3  O   UNL     1      41.137  12.706 -21.901  1.00  0.00    -0.550 OA
ATOM      4  O   UNL     1      42.344  13.208 -20.020  1.00  0.00    -0.550 OA
ENDROOT
TORSDOF 0
ENDMDL
MODEL 2
REMARK VINA RESULT:    -2.251     13.352     13.684
REMARK INTER + INTRA:          -2.251
REMARK INTER:                  -2.251
REMARK INTRA:                   0.000
REMARK UNBOUND:                 0.000
REMARK SMILES CC(=O)[O-]
REMARK SMILES IDX 1 1 2 2 3 3 4 4
REMARK H PARENT
REMARK Flexibility Score: inf
ROOT
ATOM      1  C   UNL     1      29.570  17.386 -19.362  1.00  0.00     0.063 C 
ATOM      2  C   UNL     1      28.396  17.354 -18.443  1.00  0.00     0.038 C 
ATOM      3  O   UNL     1      27.379  16.675 -18.741  1.00  0.00    -0.550 OA
ATOM      4  O   UNL     1      28.444  18.026 -17.228  1.00  0.00    -0.550 OA
ENDROOT
TORSDOF 0
ENDMDL
MODEL 3
REMARK VINA RESULT:    -2.208     11.862     12.349
REMARK INTER + INTRA:          -2.208
REMARK INTER:                  -2.208
REMARK INTRA:                   0.000
REMARK UNBOUND:                 0.000
REMARK SMILES CC(=O)[O-]
REMARK SMILES IDX 1 1 2 2 3 3 4 4
REMARK H PARENT
REMARK Flexibility Score: inf
ROOT
ATOM      1  C   UNL     1      29.521  17.454 -19.333  1.00  0.00     0.063 C 
ATOM      2  C   UNL     1      29.247  15.989 -19.390  1.00  0.00     0.038 C 
ATOM      3  O   UNL     1      28.167  15.566 -19.881  1.00  0.00    -0.550 OA
ATOM      4  O   UNL     1      30.206  15.084 -18.954  1.00  0.00    -0.550 OA
ENDROOT
TORSDOF 0
ENDMDL
MODEL 4
REMARK VINA RESULT:    -2.135      1.407      1.768
REMARK INTER + INTRA:          -2.135
REMARK INTER:                  -2.135
REMARK INTRA:                   0.000
REMARK UNBOUND:                 0.000
REMARK SMILES CC(=O)[O-]
REMARK SMILES IDX 1 1 2 2 3 3 4 4
REMARK H PARENT
REMARK Flexibility Score: inf
ROOT
ATOM      1  C   UNL     1      42.396  13.244 -19.917  1.00  0.00     0.063 C 
ATOM      2  C   UNL     1      41.231  13.473 -20.821  1.00  0.00     0.038 C 
ATOM      3  O   UNL     1      41.022  12.698 -21.791  1.00  0.00    -0.550 OA
ATOM      4  O   UNL     1      40.342  14.509 -20.563  1.00  0.00    -0.550 OA
ENDROOT
TORSDOF 0
ENDMDL
MODEL 5
REMARK VINA RESULT:    -2.072     11.846     12.328
REMARK INTER + INTRA:          -2.072
REMARK INTER:                  -2.072
REMARK INTRA:                   0.000
REMARK UNBOUND:                 0.000
REMARK SMILES CC(=O)[O-]
REMARK SMILES IDX 1 1 2 2 3 3 4 4
REMARK H PARENT
REMARK Flexibility Score: inf
ROOT
ATOM      1  C   UNL     1      28.057  15.793 -19.704  1.00  0.00     0.063 C 
ATOM      2  C   UNL     1      29.433  16.275 -19.391  1.00  0.00     0.038 C 
ATOM      3  O   UNL     1      29.702  17.503 -19.454  1.00  0.00    -0.550 OA
ATOM      4  O   UNL     1      30.408  15.377 -18.976  1.00  0.00    -0.550 OA
ENDROOT
TORSDOF 0
ENDMDL
MODEL 6
REMARK VINA RESULT:    -2.065     12.569     13.049
REMARK INTER + INTRA:          -2.065
REMARK INTER:                  -2.065
REMARK INTRA:                   0.000
REMARK UNBOUND:                 0.000
REMARK SMILES CC(=O)[O-]
REMARK SMILES IDX 1 1 2 2 3 3 4 4
REMARK H PARENT
REMARK Flexibility Score: inf
ROOT
ATOM      1  C   UNL     1      28.355  15.807 -19.685  1.00  0.00     0.063 C 
ATOM      2  C   UNL     1      28.982  17.012 -19.069  1.00  0.00     0.038 C 
ATOM      3  O   UNL     1      30.169  17.321 -19.350  1.00  0.00    -0.550 OA
ATOM      4  O   UNL     1      28.239  17.828 -18.226  1.00  0.00    -0.550 OA
ENDROOT
TORSDOF 0
ENDMDL
MODEL 7
REMARK VINA RESULT:    -2.045      4.008      4.430
REMARK INTER + INTRA:          -2.045
REMARK INTER:                  -2.045
REMARK INTRA:                   0.000
REMARK UNBOUND:                 0.000
REMARK SMILES CC(=O)[O-]
REMARK SMILES IDX 1 1 2 2 3 3 4 4
REMARK H PARENT
REMARK Flexibility Score: inf
ROOT
ATOM      1  C   UNL     1      43.574  13.088 -18.586  1.00  0.00     0.063 C 
ATOM      2  C   UNL     1      43.454  14.030 -17.435  1.00  0.00     0.038 C 
ATOM      3  O   UNL     1      42.723  15.051 -17.528  1.00  0.00    -0.550 OA
ATOM      4  O   UNL     1      44.104  13.754 -16.239  1.00  0.00    -0.550 OA
ENDROOT
TORSDOF 0
ENDMDL
MODEL 8
REMARK VINA RESULT:    -1.987      3.058      3.725
REMARK INTER + INTRA:          -1.987
REMARK INTER:                  -1.987
REMARK INTRA:                   0.000
REMARK UNBOUND:                 0.000
REMARK SMILES CC(=O)[O-]
REMARK SMILES IDX 1 1 2 2 3 3 4 4
REMARK H PARENT
REMARK Flexibility Score: inf
ROOT
ATOM      1  C   UNL     1      43.376  14.252 -17.322  1.00  0.00     0.063 C 
ATOM      2  C   UNL     1      43.495  13.192 -18.365  1.00  0.00     0.038 C 
ATOM      3  O   UNL     1      44.125  12.130 -18.117  1.00  0.00    -0.550 OA
ATOM      4  O   UNL     1      42.865  13.348 -19.592  1.00  0.00    -0.550 OA
ENDROOT
TORSDOF 0
ENDMDL
MODEL 9
REMARK VINA RESULT:    -1.983      3.469      3.937
REMARK INTER + INTRA:          -1.983
REMARK INTER:                  -1.983
REMARK INTRA:                   0.000
REMARK UNBOUND:                 0.000
REMARK SMILES CC(=O)[O-]
REMARK SMILES IDX 1 1 2 2 3 3 4 4
REMARK H PARENT
REMARK Flexibility Score: inf
ROOT
ATOM      1  C   UNL     1      43.606  14.474 -16.666  1.00  0.00     0.063 C 
ATOM      2  C   UNL     1      42.877  14.582 -17.963  1.00  0.00     0.038 C 
ATOM      3  O   UNL     1      43.035  13.705 -18.852  1.00  0.00    -0.550 OA
ATOM      4  O   UNL     1      41.979  15.621 -18.172  1.00  0.00    -0.550 OA
ENDROOT
TORSDOF 0
ENDMDL
