MODEL 1
REMARK VINA RESULT:    -4.684      0.000      0.000
REMARK INTER + INTRA:          -4.820
REMARK INTER:                  -4.820
REMARK INTRA:                   0.000
REMARK UNBOUND:                 0.000
REMARK SMILES Nc1ncnc2nc[nH]c12
REMARK SMILES IDX 8 1 7 2 6 3 5 4 4 5 3 6 2 7 10 8 9 9 1 11
REMARK H PARENT 9 10 1 12 1 13
REMARK Flexibility Score: inf
ROOT
ATOM      1  C   UNL     1      26.668 -52.978 -10.315  1.00  0.00     0.199 A 
ATOM      2  N   UNL     1      27.809 -52.702 -11.003  1.00  0.00    -0.217 NA
ATOM      3  C   UNL     1      28.448 -53.883 -10.982  1.00  0.00     0.182 A 
ATOM      4  N   UNL     1      29.653 -54.161 -11.536  1.00  0.00    -0.215 NA
ATOM      5  C   UNL     1      30.145 -55.430 -11.409  1.00  0.00     0.226 A 
ATOM      6  N   UNL     1      29.429 -56.391 -10.738  1.00  0.00    -0.217 NA
ATOM      7  C   UNL     1      28.214 -56.113 -10.179  1.00  0.00     0.152 A 
ATOM      8  C   UNL     1      27.728 -54.815 -10.317  1.00  0.00     0.127 A 
ATOM      9  N   UNL     1      26.588 -54.262  -9.882  1.00  0.00    -0.340 N 
ATOM     10  H   UNL     1      25.815 -54.703  -9.338  1.00  0.00     0.168 HD
ENDROOT
BRANCH   7  11
ATOM     11  N   UNL     1      27.488 -57.128  -9.485  1.00  0.00    -0.382 N 
ATOM     12  H   UNL     1      26.612 -57.517  -9.897  1.00  0.00     0.158 HD
ATOM     13  H   UNL     1      27.813 -57.495  -8.564  1.00  0.00     0.158 HD
ENDBRANCH   7  11
TORSDOF 1
ENDMDL
MODEL 2
REMARK VINA RESULT:    -4.387      1.597      3.596
REMARK INTER + INTRA:          -4.515
REMARK INTER:                  -4.515
REMARK INTRA:                   0.000
REMARK UNBOUND:                 0.000
REMARK SMILES Nc1ncnc2nc[nH]c12
REMARK SMILES IDX 8 1 7 2 6 3 5 4 4 5 3 6 2 7 10 8 9 9 1 11
REMARK H PARENT 9 10 1 12 1 13
REMARK Flexibility Score: inf
ROOT
ATOM      1  C   UNL     1      27.555 -55.253 -10.273  1.00  0.00     0.199 A 
ATOM      2  N   UNL     1      28.596 -54.693 -10.948  1.00  0.00    -0.217 NA
ATOM      3  C   UNL     1      28.263 -53.392 -10.959  1.00  0.00     0.182 A 
ATOM      4  N   UNL     1      28.973 -52.381 -11.516  1.00  0.00    -0.215 NA
ATOM      5  C   UNL     1      28.469 -51.114 -11.425  1.00  0.00     0.226 A 
ATOM      6  N   UNL     1      27.277 -50.881 -10.785  1.00  0.00    -0.217 NA
ATOM      7  C   UNL     1      26.560 -51.900 -10.224  1.00  0.00     0.152 A 
ATOM      8  C   UNL     1      27.087 -53.184 -10.325  1.00  0.00     0.127 A 
ATOM      9  N   UNL     1      26.616 -54.356  -9.878  1.00  0.00    -0.340 N 
ATOM     10  H   UNL     1      25.736 -54.547  -9.352  1.00  0.00     0.168 HD
ENDROOT
BRANCH   7  11
ATOM     11  N   UNL     1      25.322 -51.634  -9.564  1.00  0.00    -0.382 N 
ATOM     12  H   UNL     1      24.468 -51.418 -10.123  1.00  0.00     0.158 HD
ATOM     13  H   UNL     1      25.247 -51.650  -8.523  1.00  0.00     0.158 HD
ENDBRANCH   7  11
TORSDOF 1
ENDMDL
MODEL 3
REMARK VINA RESULT:    -4.220      3.574      4.555
REMARK INTER + INTRA:          -4.343
REMARK INTER:                  -4.343
REMARK INTRA:                   0.000
REMARK UNBOUND:                 0.000
REMARK SMILES Nc1ncnc2nc[nH]c12
REMARK SMILES IDX 8 1 7 2 6 3 5 4 4 5 3 6 2 7 10 8 9 9 1 11
REMARK H PARENT 9 10 1 12 1 13
REMARK Flexibility Score: inf
ROOT
ATOM      1  C   UNL     1      30.120 -51.967 -10.944  1.00  0.00     0.199 A 
ATOM      2  N   UNL     1      28.994 -51.624 -11.627  1.00  0.00    -0.217 NA
ATOM      3  C   UNL     1      28.099 -51.463 -10.638  1.00  0.00     0.182 A 
ATOM      4  N   UNL     1      26.797 -51.113 -10.776  1.00  0.00    -0.215 NA
ATOM      5  C   UNL     1      26.037 -51.000  -9.645  1.00  0.00     0.226 A 
ATOM      6  N   UNL     1      26.586 -51.233  -8.409  1.00  0.00    -0.217 NA
ATOM      7  C   UNL     1      27.899 -51.586  -8.269  1.00  0.00     0.152 A 
ATOM      8  C   UNL     1      28.659 -51.698  -9.430  1.00  0.00     0.127 A 
ATOM      9  N   UNL     1      29.948 -52.022  -9.599  1.00  0.00    -0.340 N 
ATOM     10  H   UNL     1      30.661 -52.262  -8.876  1.00  0.00     0.168 HD
ENDROOT
BRANCH   7  11
ATOM     11  N   UNL     1      28.449 -51.826  -6.973  1.00  0.00    -0.382 N 
ATOM     12  H   UNL     1      28.003 -52.523  -6.337  1.00  0.00     0.158 HD
ATOM     13  H   UNL     1      29.295 -51.315  -6.639  1.00  0.00     0.158 HD
ENDBRANCH   7  11
TORSDOF 1
ENDMDL
MODEL 4
REMARK VINA RESULT:    -4.207      1.618      3.326
REMARK INTER + INTRA:          -4.330
REMARK INTER:                  -4.330
REMARK INTRA:                   0.000
REMARK UNBOUND:                 0.000
REMARK SMILES Nc1ncnc2nc[nH]c12
REMARK SMILES IDX 8 1 7 2 6 3 5 4 4 5 3 6 2 7 10 8 9 9 1 11
REMARK H PARENT 9 10 1 12 1 13
REMARK Flexibility Score: inf
ROOT
ATOM      1  C   UNL     1      30.482 -53.375 -11.702  1.00  0.00     0.199 A 
ATOM      2  N   UNL     1      29.919 -52.162 -11.951  1.00  0.00    -0.217 NA
ATOM      3  C   UNL     1      28.733 -52.264 -11.329  1.00  0.00     0.182 A 
ATOM      4  N   UNL     1      27.768 -51.315 -11.267  1.00  0.00    -0.215 NA
ATOM      5  C   UNL     1      26.621 -51.606 -10.583  1.00  0.00     0.226 A 
ATOM      6  N   UNL     1      26.461 -52.826  -9.976  1.00  0.00    -0.217 NA
ATOM      7  C   UNL     1      27.433 -53.784 -10.037  1.00  0.00     0.152 A 
ATOM      8  C   UNL     1      28.595 -53.473 -10.738  1.00  0.00     0.127 A 
ATOM      9  N   UNL     1      29.698 -54.199 -10.963  1.00  0.00    -0.340 N 
ATOM     10  H   UNL     1      29.914 -55.171 -10.649  1.00  0.00     0.168 HD
ENDROOT
BRANCH   7  11
ATOM     11  N   UNL     1      27.245 -55.048  -9.400  1.00  0.00    -0.382 N 
ATOM     12  H   UNL     1      27.813 -55.872  -9.695  1.00  0.00     0.158 HD
ATOM     13  H   UNL     1      26.544 -55.172  -8.637  1.00  0.00     0.158 HD
ENDBRANCH   7  11
TORSDOF 1
ENDMDL
MODEL 5
REMARK VINA RESULT:    -4.183      1.387      1.731
REMARK INTER + INTRA:          -4.305
REMARK INTER:                  -4.305
REMARK INTRA:                   0.000
REMARK UNBOUND:                 0.000
REMARK SMILES Nc1ncnc2nc[nH]c12
REMARK SMILES IDX 8 1 7 2 6 3 5 4 4 5 3 6 2 7 10 8 9 9 1 11
REMARK H PARENT 9 10 1 12 1 13
REMARK Flexibility Score: inf
ROOT
ATOM      1  C   UNL     1      26.187 -51.396 -10.192  1.00  0.00     0.199 A 
ATOM      2  N   UNL     1      27.284 -51.031 -10.910  1.00  0.00    -0.217 NA
ATOM      3  C   UNL     1      27.974 -52.181 -10.982  1.00  0.00     0.182 A 
ATOM      4  N   UNL     1      29.164 -52.372 -11.600  1.00  0.00    -0.215 NA
ATOM      5  C   UNL     1      29.716 -53.622 -11.565  1.00  0.00     0.226 A 
ATOM      6  N   UNL     1      29.074 -54.650 -10.921  1.00  0.00    -0.217 NA
ATOM      7  C   UNL     1      27.874 -54.459 -10.297  1.00  0.00     0.152 A 
ATOM      8  C   UNL     1      27.326 -53.180 -10.342  1.00  0.00     0.127 A 
ATOM      9  N   UNL     1      26.183 -52.704  -9.829  1.00  0.00    -0.340 N 
ATOM     10  H   UNL     1      25.454 -53.209  -9.279  1.00  0.00     0.168 HD
ENDROOT
BRANCH   7  11
ATOM     11  N   UNL     1      27.224 -55.543  -9.632  1.00  0.00    -0.382 N 
ATOM     12  H   UNL     1      27.783 -56.352  -9.284  1.00  0.00     0.158 HD
ATOM     13  H   UNL     1      26.191 -55.549  -9.484  1.00  0.00     0.158 HD
ENDBRANCH   7  11
TORSDOF 1
ENDMDL
MODEL 6
REMARK VINA RESULT:    -4.161      8.471      9.856
REMARK INTER + INTRA:          -4.283
REMARK INTER:                  -4.283
REMARK INTRA:                   0.000
REMARK UNBOUND:                 0.000
REMARK SMILES Nc1ncnc2nc[nH]c12
REMARK SMILES IDX 8 1 7 2 6 3 5 4 4 5 3 6 2 7 10 8 9 9 1 11
REMARK H PARENT 9 10 1 12 1 13
REMARK Flexibility Score: inf
ROOT
ATOM      1  C   UNL     1      33.967 -61.247 -10.415  1.00  0.00     0.199 A 
ATOM      2  N   UNL     1      34.783 -62.290 -10.106  1.00  0.00    -0.217 NA
ATOM      3  C   UNL     1      34.158 -62.839  -9.050  1.00  0.00     0.182 A 
ATOM      4  N   UNL     1      34.560 -63.925  -8.348  1.00  0.00    -0.215 NA
ATOM      5  C   UNL     1      33.788 -64.336  -7.298  1.00  0.00     0.226 A 
ATOM      6  N   UNL     1      32.638 -63.661  -6.972  1.00  0.00    -0.217 NA
ATOM      7  C   UNL     1      32.232 -62.565  -7.679  1.00  0.00     0.152 A 
ATOM      8  C   UNL     1      33.030 -62.159  -8.745  1.00  0.00     0.127 A 
ATOM      9  N   UNL     1      32.885 -61.140  -9.602  1.00  0.00    -0.340 N 
ATOM     10  H   UNL     1      32.127 -60.425  -9.643  1.00  0.00     0.168 HD
ENDROOT
BRANCH   7  11
ATOM     11  N   UNL     1      31.032 -61.877  -7.321  1.00  0.00    -0.382 N 
ATOM     12  H   UNL     1      30.589 -62.049  -6.392  1.00  0.00     0.158 HD
ATOM     13  H   UNL     1      30.579 -61.200  -7.972  1.00  0.00     0.158 HD
ENDBRANCH   7  11
TORSDOF 1
ENDMDL
MODEL 7
REMARK VINA RESULT:    -4.133     11.869     12.888
REMARK INTER + INTRA:          -4.254
REMARK INTER:                  -4.254
REMARK INTRA:                   0.000
REMARK UNBOUND:                 0.000
REMARK SMILES Nc1ncnc2nc[nH]c12
REMARK SMILES IDX 8 1 7 2 6 3 5 4 4 5 3 6 2 7 10 8 9 9 1 11
REMARK H PARENT 9 10 1 12 1 13
REMARK Flexibility Score: inf
ROOT
ATOM      1  C   UNL     1      34.371 -64.665  -4.864  1.00  0.00     0.199 A 
ATOM      2  N   UNL     1      34.582 -65.706  -5.715  1.00  0.00    -0.217 NA
ATOM      3  C   UNL     1      33.332 -66.036  -6.077  1.00  0.00     0.182 A 
ATOM      4  N   UNL     1      32.972 -67.027  -6.928  1.00  0.00    -0.215 NA
ATOM      5  C   UNL     1      31.640 -67.213  -7.175  1.00  0.00     0.226 A 
ATOM      6  N   UNL     1      30.701 -66.412  -6.575  1.00  0.00    -0.217 NA
ATOM      7  C   UNL     1      31.062 -65.412  -5.717  1.00  0.00     0.152 A 
ATOM      8  C   UNL     1      32.422 -65.236  -5.476  1.00  0.00     0.127 A 
ATOM      9  N   UNL     1      33.061 -64.353  -4.696  1.00  0.00    -0.340 N 
ATOM     10  H   UNL     1      32.658 -63.600  -4.097  1.00  0.00     0.168 HD
ENDROOT
BRANCH   7  11
ATOM     11  N   UNL     1      30.068 -64.591  -5.103  1.00  0.00    -0.382 N 
ATOM     12  H   UNL     1      29.505 -64.961  -4.306  1.00  0.00     0.158 HD
ATOM     13  H   UNL     1      29.885 -63.619  -5.436  1.00  0.00     0.158 HD
ENDBRANCH   7  11
TORSDOF 1
ENDMDL
MODEL 8
REMARK VINA RESULT:    -4.108      3.273      4.571
REMARK INTER + INTRA:          -4.228
REMARK INTER:                  -4.228
REMARK INTRA:                   0.000
REMARK UNBOUND:                 0.000
REMARK SMILES Nc1ncnc2nc[nH]c12
REMARK SMILES IDX 8 1 7 2 6 3 5 4 4 5 3 6 2 7 10 8 9 9 1 11
REMARK H PARENT 9 10 1 12 1 13
REMARK Flexibility Score: inf
ROOT
ATOM      1  C   UNL     1      27.988 -51.212  -6.542  1.00  0.00     0.199 A 
ATOM      2  N   UNL     1      26.749 -51.041  -7.077  1.00  0.00    -0.217 NA
ATOM      3  C   UNL     1      26.952 -51.339  -8.371  1.00  0.00     0.182 A 
ATOM      4  N   UNL     1      26.025 -51.326  -9.359  1.00  0.00    -0.215 NA
ATOM      5  C   UNL     1      26.425 -51.660 -10.623  1.00  0.00     0.226 A 
ATOM      6  N   UNL     1      27.731 -52.000 -10.874  1.00  0.00    -0.217 NA
ATOM      7  C   UNL     1      28.667 -52.013  -9.879  1.00  0.00     0.152 A 
ATOM      8  C   UNL     1      28.244 -51.670  -8.598  1.00  0.00     0.127 A 
ATOM      9  N   UNL     1      28.925 -51.597  -7.447  1.00  0.00    -0.340 N 
ATOM     10  H   UNL     1      29.936 -51.787  -7.273  1.00  0.00     0.168 HD
ENDROOT
BRANCH   7  11
ATOM     11  N   UNL     1      30.020 -52.369 -10.164  1.00  0.00    -0.382 N 
ATOM     12  H   UNL     1      30.635 -52.734  -9.404  1.00  0.00     0.158 HD
ATOM     13  H   UNL     1      30.417 -52.272 -11.124  1.00  0.00     0.158 HD
ENDBRANCH   7  11
TORSDOF 1
ENDMDL
