MODEL 1
REMARK VINA RESULT:    -3.960      0.000      0.000
REMARK INTER + INTRA:         -14.826
REMARK INTER:                  -9.980
REMARK INTRA:                  -4.846
REMARK UNBOUND:                -4.846
REMARK SMILES CCCCCCCCCCCCCCCCCCCCCCCCCCCC(=O)[O-]
REMARK SMILES IDX 15 1 16 2 17 3 18 4 19 5 20 6 21 7 22 8 23 9 24 10 25 11
REMARK SMILES IDX 26 12 27 13 28 14 29 15 30 16 14 17 13 18 12 19 11 20 10 21
REMARK SMILES IDX 9 22 8 23 7 24 6 25 5 26 4 27 3 28 2 29 1 30
REMARK H PARENT
REMARK Flexibility Score: inf
ROOT
ATOM      1  C   UNL     1     -13.404  -7.737 -29.564  1.00  0.00     0.000 C 
ENDROOT
BRANCH   1   2
ATOM      2  C   UNL     1     -12.914  -8.884 -28.665  1.00  0.00     0.000 C 
BRANCH   2   3
ATOM      3  C   UNL     1     -11.390  -9.086 -28.729  1.00  0.00     0.000 C 
BRANCH   3   4
ATOM      4  C   UNL     1     -10.622  -7.776 -29.005  1.00  0.00     0.000 C 
BRANCH   4   5
ATOM      5  C   UNL     1      -9.336  -7.607 -28.172  1.00  0.00     0.000 C 
BRANCH   5   6
ATOM      6  C   UNL     1      -8.174  -6.892 -28.887  1.00  0.00     0.000 C 
BRANCH   6   7
ATOM      7  C   UNL     1      -8.420  -6.565 -30.370  1.00  0.00     0.000 C 
BRANCH   7   8
ATOM      8  C   UNL     1      -8.558  -5.057 -30.641  1.00  0.00     0.000 C 
BRANCH   8   9
ATOM      9  C   UNL     1      -9.974  -4.687 -31.132  1.00  0.00     0.000 C 
BRANCH   9  10
ATOM     10  C   UNL     1     -10.545  -3.424 -30.470  1.00  0.00     0.000 C 
BRANCH  10  11
ATOM     11  C   UNL     1     -10.775  -3.587 -28.961  1.00  0.00     0.000 C 
BRANCH  11  12
ATOM     12  C   UNL     1     -11.928  -4.559 -28.685  1.00  0.00     0.006 C 
BRANCH  12  13
ATOM     13  C   UNL     1     -12.350  -4.511 -27.212  1.00  0.00     0.053 C 
BRANCH  13  14
ATOM     14  C   UNL     1     -13.182  -3.295 -26.943  1.00  0.00     0.041 C 
ATOM     15  O   UNL     1     -14.009  -2.888 -27.802  1.00  0.00    -0.550 OA
ATOM     16  O   UNL     1     -13.077  -2.637 -25.723  1.00  0.00    -0.550 OA
ENDBRANCH  13  14
ENDBRANCH  12  13
ENDBRANCH  11  12
ENDBRANCH  10  11
ENDBRANCH   9  10
ENDBRANCH   8   9
ENDBRANCH   7   8
ENDBRANCH   6   7
ENDBRANCH   5   6
ENDBRANCH   4   5
ENDBRANCH   3   4
ENDBRANCH   2   3
ENDBRANCH   1   2
BRANCH   1  17
ATOM     17  C   UNL     1     -14.617  -8.113 -30.443  1.00  0.00     0.000 C 
BRANCH  17  18
ATOM     18  C   UNL     1     -15.313  -6.872 -31.028  1.00  0.00     0.000 C 
BRANCH  18  19
ATOM     19  C   UNL     1     -15.130  -5.615 -30.161  1.00  0.00     0.000 C 
BRANCH  19  20
ATOM     20  C   UNL     1     -14.758  -4.335 -30.934  1.00  0.00     0.000 C 
BRANCH  20  21
ATOM     21  C   UNL     1     -13.757  -4.528 -32.091  1.00  0.00     0.000 C 
BRANCH  21  22
ATOM     22  C   UNL     1     -14.187  -3.911 -33.433  1.00  0.00    -0.000 C 
BRANCH  22  23
ATOM     23  C   UNL     1     -15.461  -3.063 -33.318  1.00  0.00    -0.000 C 
BRANCH  23  24
ATOM     24  C   UNL     1     -15.283  -1.715 -34.034  1.00  0.00    -0.000 C 
BRANCH  24  25
ATOM     25  C   UNL     1     -15.171  -0.533 -33.057  1.00  0.00    -0.000 C 
BRANCH  25  26
ATOM     26  C   UNL     1     -15.689  -0.875 -31.648  1.00  0.00    -0.000 C 
BRANCH  26  27
ATOM     27  C   UNL     1     -14.685  -0.513 -30.544  1.00  0.00    -0.000 C 
BRANCH  27  28
ATOM     28  C   UNL     1     -13.267  -1.022 -30.841  1.00  0.00    -0.000 C 
BRANCH  28  29
ATOM     29  C   UNL     1     -12.239   0.108 -30.695  1.00  0.00    -0.003 C 
ATOM     30  C   UNL     1     -12.901   1.400 -30.225  1.00  0.00     0.004 C 
ENDBRANCH  28  29
ENDBRANCH  27  28
ENDBRANCH  26  27
ENDBRANCH  25  26
ENDBRANCH  24  25
ENDBRANCH  23  24
ENDBRANCH  22  23
ENDBRANCH  21  22
ENDBRANCH  20  21
ENDBRANCH  19  20
ENDBRANCH  18  19
ENDBRANCH  17  18
ENDBRANCH   1  17
TORSDOF 26
ENDMDL
MODEL 2
REMARK VINA RESULT:    -3.943      2.194      6.439
REMARK INTER + INTRA:         -14.782
REMARK INTER:                 -10.029
REMARK INTRA:                  -4.753
REMARK UNBOUND:                -4.846
REMARK SMILES CCCCCCCCCCCCCCCCCCCCCCCCCCCC(=O)[O-]
REMARK SMILES IDX 15 1 16 2 17 3 18 4 19 5 20 6 21 7 22 8 23 9 24 10 25 11
REMARK SMILES IDX 26 12 27 13 28 14 29 15 30 16 14 17 13 18 12 19 11 20 10 21
REMARK SMILES IDX 9 22 8 23 7 24 6 25 5 26 4 27 3 28 2 29 1 30
REMARK H PARENT
REMARK Flexibility Score: inf
ROOT
ATOM      1  C   UNL     1     -15.416  -6.038 -30.619  1.00  0.00     0.000 C 
ENDROOT
BRANCH   1   2
ATOM      2  C   UNL     1     -14.376  -4.914 -30.748  1.00  0.00     0.000 C 
BRANCH   2   3
ATOM      3  C   UNL     1     -13.958  -4.648 -32.205  1.00  0.00     0.000 C 
BRANCH   3   4
ATOM      4  C   UNL     1     -15.086  -4.016 -33.047  1.00  0.00     0.000 C 
BRANCH   4   5
ATOM      5  C   UNL     1     -14.659  -2.767 -33.843  1.00  0.00     0.000 C 
BRANCH   5   6
ATOM      6  C   UNL     1     -15.498  -1.501 -33.587  1.00  0.00     0.000 C 
BRANCH   6   7
ATOM      7  C   UNL     1     -14.996  -0.604 -32.442  1.00  0.00     0.000 C 
BRANCH   7   8
ATOM      8  C   UNL     1     -15.421  -1.106 -31.051  1.00  0.00     0.000 C 
BRANCH   8   9
ATOM      9  C   UNL     1     -14.218  -1.243 -30.095  1.00  0.00     0.000 C 
BRANCH   9  10
ATOM     10  C   UNL     1     -12.880  -1.467 -30.817  1.00  0.00     0.000 C 
BRANCH  10  11
ATOM     11  C   UNL     1     -11.845  -0.374 -30.517  1.00  0.00     0.000 C 
BRANCH  11  12
ATOM     12  C   UNL     1     -10.418  -0.901 -30.712  1.00  0.00     0.006 C 
BRANCH  12  13
ATOM     13  C   UNL     1      -9.614  -0.810 -29.410  1.00  0.00     0.053 C 
BRANCH  13  14
ATOM     14  C   UNL     1      -8.622   0.310 -29.484  1.00  0.00     0.041 C 
ATOM     15  O   UNL     1      -8.651   1.242 -28.636  1.00  0.00    -0.550 OA
ATOM     16  O   UNL     1      -7.636   0.303 -30.464  1.00  0.00    -0.550 OA
ENDBRANCH  13  14
ENDBRANCH  12  13
ENDBRANCH  11  12
ENDBRANCH  10  11
ENDBRANCH   9  10
ENDBRANCH   8   9
ENDBRANCH   7   8
ENDBRANCH   6   7
ENDBRANCH   5   6
ENDBRANCH   4   5
ENDBRANCH   3   4
ENDBRANCH   2   3
ENDBRANCH   1   2
BRANCH   1  17
ATOM     17  C   UNL     1     -14.804  -7.456 -30.639  1.00  0.00     0.000 C 
BRANCH  17  18
ATOM     18  C   UNL     1     -13.472  -7.522 -29.872  1.00  0.00     0.000 C 
BRANCH  18  19
ATOM     19  C   UNL     1     -13.186  -8.914 -29.283  1.00  0.00     0.000 C 
BRANCH  19  20
ATOM     20  C   UNL     1     -11.959  -8.992 -28.354  1.00  0.00     0.000 C 
BRANCH  20  21
ATOM     21  C   UNL     1     -10.855  -7.951 -28.627  1.00  0.00     0.000 C 
BRANCH  21  22
ATOM     22  C   UNL     1      -9.429  -8.523 -28.713  1.00  0.00    -0.000 C 
BRANCH  22  23
ATOM     23  C   UNL     1      -8.501  -7.682 -29.601  1.00  0.00    -0.000 C 
BRANCH  23  24
ATOM     24  C   UNL     1      -9.312  -6.898 -30.645  1.00  0.00    -0.000 C 
BRANCH  24  25
ATOM     25  C   UNL     1      -8.599  -5.621 -31.116  1.00  0.00    -0.000 C 
BRANCH  25  26
ATOM     26  C   UNL     1      -9.484  -4.367 -30.999  1.00  0.00    -0.000 C 
BRANCH  26  27
ATOM     27  C   UNL     1     -10.778  -4.627 -30.213  1.00  0.00    -0.000 C 
BRANCH  27  28
ATOM     28  C   UNL     1     -10.669  -4.219 -28.737  1.00  0.00    -0.000 C 
BRANCH  28  29
ATOM     29  C   UNL     1     -12.052  -4.188 -28.075  1.00  0.00    -0.003 C 
ATOM     30  C   UNL     1     -12.307  -2.848 -27.391  1.00  0.00     0.004 C 
ENDBRANCH  28  29
ENDBRANCH  27  28
ENDBRANCH  26  27
ENDBRANCH  25  26
ENDBRANCH  24  25
ENDBRANCH  23  24
ENDBRANCH  22  23
ENDBRANCH  21  22
ENDBRANCH  20  21
ENDBRANCH  19  20
ENDBRANCH  18  19
ENDBRANCH  17  18
ENDBRANCH   1  17
TORSDOF 26
ENDMDL
MODEL 3
REMARK VINA RESULT:    -3.932      1.872      2.809
REMARK INTER + INTRA:         -14.753
REMARK INTER:                 -10.349
REMARK INTRA:                  -4.404
REMARK UNBOUND:                -4.846
REMARK SMILES CCCCCCCCCCCCCCCCCCCCCCCCCCCC(=O)[O-]
REMARK SMILES IDX 15 1 16 2 17 3 18 4 19 5 20 6 21 7 22 8 23 9 24 10 25 11
REMARK SMILES IDX 26 12 27 13 28 14 29 15 30 16 14 17 13 18 12 19 11 20 10 21
REMARK SMILES IDX 9 22 8 23 7 24 6 25 5 26 4 27 3 28 2 29 1 30
REMARK H PARENT
REMARK Flexibility Score: inf
ROOT
ATOM      1  C   UNL     1     -13.661  -7.628 -29.873  1.00  0.00     0.000 C 
ENDROOT
BRANCH   1   2
ATOM      2  C   UNL     1     -13.272  -9.065 -29.489  1.00  0.00     0.000 C 
BRANCH   2   3
ATOM      3  C   UNL     1     -12.303  -9.125 -28.295  1.00  0.00     0.000 C 
BRANCH   3   4
ATOM      4  C   UNL     1     -11.993  -7.734 -27.703  1.00  0.00     0.000 C 
BRANCH   4   5
ATOM      5  C   UNL     1     -10.501  -7.352 -27.730  1.00  0.00     0.000 C 
BRANCH   5   6
ATOM      6  C   UNL     1      -9.824  -7.423 -29.112  1.00  0.00     0.000 C 
BRANCH   6   7
ATOM      7  C   UNL     1     -10.352  -6.419 -30.152  1.00  0.00     0.000 C 
BRANCH   7   8
ATOM      8  C   UNL     1      -9.247  -5.857 -31.063  1.00  0.00     0.000 C 
BRANCH   8   9
ATOM      9  C   UNL     1      -9.209  -4.314 -31.036  1.00  0.00     0.000 C 
BRANCH   9  10
ATOM     10  C   UNL     1     -10.580  -3.667 -30.786  1.00  0.00     0.000 C 
BRANCH  10  11
ATOM     11  C   UNL     1     -10.527  -2.133 -30.770  1.00  0.00     0.000 C 
BRANCH  11  12
ATOM     12  C   UNL     1     -10.481  -1.602 -29.332  1.00  0.00     0.006 C 
BRANCH  12  13
ATOM     13  C   UNL     1      -9.781  -0.240 -29.270  1.00  0.00     0.053 C 
BRANCH  13  14
ATOM     14  C   UNL     1     -10.776   0.870 -29.429  1.00  0.00     0.041 C 
ATOM     15  O   UNL     1     -11.101   1.271 -30.578  1.00  0.00    -0.550 OA
ATOM     16  O   UNL     1     -11.376   1.431 -28.308  1.00  0.00    -0.550 OA
ENDBRANCH  13  14
ENDBRANCH  12  13
ENDBRANCH  11  12
ENDBRANCH  10  11
ENDBRANCH   9  10
ENDBRANCH   8   9
ENDBRANCH   7   8
ENDBRANCH   6   7
ENDBRANCH   5   6
ENDBRANCH   4   5
ENDBRANCH   3   4
ENDBRANCH   2   3
ENDBRANCH   1   2
BRANCH   1  17
ATOM     17  C   UNL     1     -15.008  -7.528 -30.621  1.00  0.00     0.000 C 
BRANCH  17  18
ATOM     18  C   UNL     1     -15.609  -6.115 -30.545  1.00  0.00     0.000 C 
BRANCH  18  19
ATOM     19  C   UNL     1     -15.556  -5.365 -31.888  1.00  0.00     0.000 C 
BRANCH  19  20
ATOM     20  C   UNL     1     -14.204  -4.701 -32.213  1.00  0.00     0.000 C 
BRANCH  20  21
ATOM     21  C   UNL     1     -14.192  -3.804 -33.467  1.00  0.00     0.000 C 
BRANCH  21  22
ATOM     22  C   UNL     1     -15.421  -2.891 -33.624  1.00  0.00    -0.000 C 
BRANCH  22  23
ATOM     23  C   UNL     1     -15.087  -1.551 -34.296  1.00  0.00    -0.000 C 
BRANCH  23  24
ATOM     24  C   UNL     1     -15.260  -0.389 -33.306  1.00  0.00    -0.000 C 
BRANCH  24  25
ATOM     25  C   UNL     1     -15.321  -0.858 -31.843  1.00  0.00    -0.000 C 
BRANCH  25  26
ATOM     26  C   UNL     1     -14.001  -0.624 -31.088  1.00  0.00    -0.000 C 
BRANCH  26  27
ATOM     27  C   UNL     1     -14.081  -1.042 -29.612  1.00  0.00    -0.000 C 
BRANCH  27  28
ATOM     28  C   UNL     1     -14.191  -2.562 -29.429  1.00  0.00    -0.000 C 
BRANCH  28  29
ATOM     29  C   UNL     1     -13.654  -2.988 -28.057  1.00  0.00    -0.003 C 
ATOM     30  C   UNL     1     -13.070  -4.397 -28.105  1.00  0.00     0.004 C 
ENDBRANCH  28  29
ENDBRANCH  27  28
ENDBRANCH  26  27
ENDBRANCH  25  26
ENDBRANCH  24  25
ENDBRANCH  23  24
ENDBRANCH  22  23
ENDBRANCH  21  22
ENDBRANCH  20  21
ENDBRANCH  19  20
ENDBRANCH  18  19
ENDBRANCH  17  18
ENDBRANCH   1  17
TORSDOF 26
ENDMDL
MODEL 4
REMARK VINA RESULT:    -3.851     18.396     21.363
REMARK INTER + INTRA:         -14.551
REMARK INTER:                  -8.829
REMARK INTRA:                  -5.721
REMARK UNBOUND:                -4.846
REMARK SMILES CCCCCCCCCCCCCCCCCCCCCCCCCCCC(=O)[O-]
REMARK SMILES IDX 15 1 16 2 17 3 18 4 19 5 20 6 21 7 22 8 23 9 24 10 25 11
REMARK SMILES IDX 26 12 27 13 28 14 29 15 30 16 14 17 13 18 12 19 11 20 10 21
REMARK SMILES IDX 9 22 8 23 7 24 6 25 5 26 4 27 3 28 2 29 1 30
REMARK H PARENT
REMARK Flexibility Score: inf
ROOT
ATOM      1  C   UNL     1       2.755   8.884 -20.943  1.00  0.00     0.000 C 
ENDROOT
BRANCH   1   2
ATOM      2  C   UNL     1       3.023   7.764 -21.961  1.00  0.00     0.000 C 
BRANCH   2   3
ATOM      3  C   UNL     1       3.839   6.600 -21.372  1.00  0.00     0.000 C 
BRANCH   3   4
ATOM      4  C   UNL     1       2.973   5.365 -21.046  1.00  0.00     0.000 C 
BRANCH   4   5
ATOM      5  C   UNL     1       3.780   4.080 -20.773  1.00  0.00     0.000 C 
BRANCH   5   6
ATOM      6  C   UNL     1       3.502   2.908 -21.732  1.00  0.00     0.000 C 
BRANCH   6   7
ATOM      7  C   UNL     1       2.727   1.729 -21.117  1.00  0.00     0.000 C 
BRANCH   7   8
ATOM      8  C   UNL     1       2.835   1.671 -19.583  1.00  0.00     0.000 C 
BRANCH   8   9
ATOM      9  C   UNL     1       1.451   1.756 -18.905  1.00  0.00     0.000 C 
BRANCH   9  10
ATOM     10  C   UNL     1       0.755   3.113 -19.094  1.00  0.00     0.000 C 
BRANCH  10  11
ATOM     11  C   UNL     1      -0.776   3.017 -19.031  1.00  0.00     0.000 C 
BRANCH  11  12
ATOM     12  C   UNL     1      -1.396   3.241 -20.415  1.00  0.00     0.006 C 
BRANCH  12  13
ATOM     13  C   UNL     1      -0.355   3.771 -21.407  1.00  0.00     0.053 C 
BRANCH  13  14
ATOM     14  C   UNL     1      -1.026   4.486 -22.540  1.00  0.00     0.041 C 
ATOM     15  O   UNL     1      -0.647   5.639 -22.878  1.00  0.00    -0.550 OA
ATOM     16  O   UNL     1      -2.042   3.860 -23.253  1.00  0.00    -0.550 OA
ENDBRANCH  13  14
ENDBRANCH  12  13
ENDBRANCH  11  12
ENDBRANCH  10  11
ENDBRANCH   9  10
ENDBRANCH   8   9
ENDBRANCH   7   8
ENDBRANCH   6   7
ENDBRANCH   5   6
ENDBRANCH   4   5
ENDBRANCH   3   4
ENDBRANCH   2   3
ENDBRANCH   1   2
BRANCH   1  17
ATOM     17  C   UNL     1       3.790   8.944 -19.799  1.00  0.00     0.000 C 
BRANCH  17  18
ATOM     18  C   UNL     1       3.262   9.722 -18.582  1.00  0.00     0.000 C 
BRANCH  18  19
ATOM     19  C   UNL     1       1.776  10.097 -18.706  1.00  0.00     0.000 C 
BRANCH  19  20
ATOM     20  C   UNL     1       1.168  10.784 -17.467  1.00  0.00     0.000 C 
BRANCH  20  21
ATOM     21  C   UNL     1       2.058  10.785 -16.209  1.00  0.00     0.000 C 
BRANCH  21  22
ATOM     22  C   UNL     1       1.824   9.609 -15.245  1.00  0.00    -0.000 C 
BRANCH  22  23
ATOM     23  C   UNL     1       0.392   9.058 -15.314  1.00  0.00    -0.000 C 
BRANCH  23  24
ATOM     24  C   UNL     1       0.400   7.572 -15.706  1.00  0.00    -0.000 C 
BRANCH  24  25
ATOM     25  C   UNL     1       1.718   7.139 -16.368  1.00  0.00    -0.000 C 
BRANCH  25  26
ATOM     26  C   UNL     1       1.509   6.535 -17.768  1.00  0.00    -0.000 C 
BRANCH  26  27
ATOM     27  C   UNL     1       0.049   6.617 -18.238  1.00  0.00    -0.000 C 
BRANCH  27  28
ATOM     28  C   UNL     1      -0.078   6.971 -19.726  1.00  0.00    -0.000 C 
BRANCH  28  29
ATOM     29  C   UNL     1      -1.127   8.070 -19.940  1.00  0.00    -0.003 C 
ATOM     30  C   UNL     1      -1.668   8.582 -18.608  1.00  0.00     0.004 C 
ENDBRANCH  28  29
ENDBRANCH  27  28
ENDBRANCH  26  27
ENDBRANCH  25  26
ENDBRANCH  24  25
ENDBRANCH  23  24
ENDBRANCH  22  23
ENDBRANCH  21  22
ENDBRANCH  20  21
ENDBRANCH  19  20
ENDBRANCH  18  19
ENDBRANCH  17  18
ENDBRANCH   1  17
TORSDOF 26
ENDMDL
MODEL 5
REMARK VINA RESULT:    -3.751      1.569      2.190
REMARK INTER + INTRA:         -14.299
REMARK INTER:                  -9.410
REMARK INTRA:                  -4.889
REMARK UNBOUND:                -4.846
REMARK SMILES CCCCCCCCCCCCCCCCCCCCCCCCCCCC(=O)[O-]
REMARK SMILES IDX 15 1 16 2 17 3 18 4 19 5 20 6 21 7 22 8 23 9 24 10 25 11
REMARK SMILES IDX 26 12 27 13 28 14 29 15 30 16 14 17 13 18 12 19 11 20 10 21
REMARK SMILES IDX 9 22 8 23 7 24 6 25 5 26 4 27 3 28 2 29 1 30
REMARK H PARENT
REMARK Flexibility Score: inf
ROOT
ATOM      1  C   UNL     1     -12.446  -8.504 -28.592  1.00  0.00     0.000 C 
ENDROOT
BRANCH   1   2
ATOM      2  C   UNL     1     -10.931  -8.705 -28.753  1.00  0.00     0.000 C 
BRANCH   2   3
ATOM      3  C   UNL     1     -10.102  -7.705 -27.929  1.00  0.00     0.000 C 
BRANCH   3   4
ATOM      4  C   UNL     1      -8.791  -7.291 -28.629  1.00  0.00     0.000 C 
BRANCH   4   5
ATOM      5  C   UNL     1      -8.793  -7.501 -30.155  1.00  0.00     0.000 C 
BRANCH   5   6
ATOM      6  C   UNL     1      -9.375  -6.339 -30.982  1.00  0.00     0.000 C 
BRANCH   6   7
ATOM      7  C   UNL     1      -8.668  -4.985 -30.795  1.00  0.00     0.000 C 
BRANCH   7   8
ATOM      8  C   UNL     1      -9.636  -3.843 -30.438  1.00  0.00     0.000 C 
BRANCH   8   9
ATOM      9  C   UNL     1     -10.974  -4.375 -29.883  1.00  0.00     0.000 C 
BRANCH   9  10
ATOM     10  C   UNL     1     -11.093  -4.268 -28.355  1.00  0.00     0.000 C 
BRANCH  10  11
ATOM     11  C   UNL     1     -12.544  -4.345 -27.858  1.00  0.00     0.000 C 
BRANCH  11  12
ATOM     12  C   UNL     1     -12.596  -4.418 -26.328  1.00  0.00     0.006 C 
BRANCH  12  13
ATOM     13  C   UNL     1     -12.375  -5.853 -25.836  1.00  0.00     0.053 C 
BRANCH  13  14
ATOM     14  C   UNL     1     -12.618  -5.945 -24.360  1.00  0.00     0.041 C 
ATOM     15  O   UNL     1     -13.460  -6.764 -23.904  1.00  0.00    -0.550 OA
ATOM     16  O   UNL     1     -11.880  -5.156 -23.484  1.00  0.00    -0.550 OA
ENDBRANCH  13  14
ENDBRANCH  12  13
ENDBRANCH  11  12
ENDBRANCH  10  11
ENDBRANCH   9  10
ENDBRANCH   8   9
ENDBRANCH   7   8
ENDBRANCH   6   7
ENDBRANCH   5   6
ENDBRANCH   4   5
ENDBRANCH   3   4
ENDBRANCH   2   3
ENDBRANCH   1   2
BRANCH   1  17
ATOM     17  C   UNL     1     -13.028  -7.408 -29.511  1.00  0.00     0.000 C 
BRANCH  17  18
ATOM     18  C   UNL     1     -14.280  -7.888 -30.264  1.00  0.00     0.000 C 
BRANCH  18  19
ATOM     19  C   UNL     1     -15.019  -6.750 -30.990  1.00  0.00     0.000 C 
BRANCH  19  20
ATOM     20  C   UNL     1     -14.373  -5.358 -30.850  1.00  0.00     0.000 C 
BRANCH  20  21
ATOM     21  C   UNL     1     -14.129  -4.606 -32.174  1.00  0.00     0.000 C 
BRANCH  21  22
ATOM     22  C   UNL     1     -15.345  -3.837 -32.719  1.00  0.00    -0.000 C 
BRANCH  22  23
ATOM     23  C   UNL     1     -14.965  -2.800 -33.786  1.00  0.00    -0.000 C 
BRANCH  23  24
ATOM     24  C   UNL     1     -15.324  -1.381 -33.316  1.00  0.00    -0.000 C 
BRANCH  24  25
ATOM     25  C   UNL     1     -15.606  -1.308 -31.808  1.00  0.00    -0.000 C 
BRANCH  25  26
ATOM     26  C   UNL     1     -14.534  -0.511 -31.041  1.00  0.00    -0.000 C 
BRANCH  26  27
ATOM     27  C   UNL     1     -13.570  -1.416 -30.259  1.00  0.00    -0.000 C 
BRANCH  27  28
ATOM     28  C   UNL     1     -12.096  -1.049 -30.486  1.00  0.00    -0.000 C 
BRANCH  28  29
ATOM     29  C   UNL     1     -11.473  -0.476 -29.208  1.00  0.00    -0.003 C 
ATOM     30  C   UNL     1     -12.369  -0.721 -27.998  1.00  0.00     0.004 C 
ENDBRANCH  28  29
ENDBRANCH  27  28
ENDBRANCH  26  27
ENDBRANCH  25  26
ENDBRANCH  24  25
ENDBRANCH  23  24
ENDBRANCH  22  23
ENDBRANCH  21  22
ENDBRANCH  20  21
ENDBRANCH  19  20
ENDBRANCH  18  19
ENDBRANCH  17  18
ENDBRANCH   1  17
TORSDOF 26
ENDMDL
MODEL 6
REMARK VINA RESULT:    -3.750     18.720     21.646
REMARK INTER + INTRA:         -14.296
REMARK INTER:                  -8.270
REMARK INTRA:                  -6.025
REMARK UNBOUND:                -4.846
REMARK SMILES CCCCCCCCCCCCCCCCCCCCCCCCCCCC(=O)[O-]
REMARK SMILES IDX 15 1 16 2 17 3 18 4 19 5 20 6 21 7 22 8 23 9 24 10 25 11
REMARK SMILES IDX 26 12 27 13 28 14 29 15 30 16 14 17 13 18 12 19 11 20 10 21
REMARK SMILES IDX 9 22 8 23 7 24 6 25 5 26 4 27 3 28 2 29 1 30
REMARK H PARENT
REMARK Flexibility Score: inf
ROOT
ATOM      1  C   UNL     1       1.138   6.228 -17.884  1.00  0.00     0.000 C 
ENDROOT
BRANCH   1   2
ATOM      2  C   UNL     1       0.602   7.128 -16.759  1.00  0.00     0.000 C 
BRANCH   2   3
ATOM      3  C   UNL     1       1.690   7.544 -15.754  1.00  0.00     0.000 C 
BRANCH   3   4
ATOM      4  C   UNL     1       1.310   8.803 -14.946  1.00  0.00     0.000 C 
BRANCH   4   5
ATOM      5  C   UNL     1       1.690  10.132 -15.628  1.00  0.00     0.000 C 
BRANCH   5   6
ATOM      6  C   UNL     1       2.908  10.069 -16.569  1.00  0.00     0.000 C 
BRANCH   6   7
ATOM      7  C   UNL     1       2.609  10.379 -18.046  1.00  0.00     0.000 C 
BRANCH   7   8
ATOM      8  C   UNL     1       1.160  10.838 -18.285  1.00  0.00     0.000 C 
BRANCH   8   9
ATOM      9  C   UNL     1       0.371   9.828 -19.146  1.00  0.00     0.000 C 
BRANCH   9  10
ATOM     10  C   UNL     1      -1.146   9.865 -18.904  1.00  0.00     0.000 C 
BRANCH  10  11
ATOM     11  C   UNL     1      -1.516  10.283 -17.474  1.00  0.00     0.000 C 
BRANCH  11  12
ATOM     12  C   UNL     1      -2.850   9.658 -17.049  1.00  0.00     0.006 C 
BRANCH  12  13
ATOM     13  C   UNL     1      -2.650   8.648 -15.913  1.00  0.00     0.053 C 
BRANCH  13  14
ATOM     14  C   UNL     1      -2.895   7.253 -16.401  1.00  0.00     0.041 C 
ATOM     15  O   UNL     1      -3.103   6.320 -15.581  1.00  0.00    -0.550 OA
ATOM     16  O   UNL     1      -2.937   6.992 -17.766  1.00  0.00    -0.550 OA
ENDBRANCH  13  14
ENDBRANCH  12  13
ENDBRANCH  11  12
ENDBRANCH  10  11
ENDBRANCH   9  10
ENDBRANCH   8   9
ENDBRANCH   7   8
ENDBRANCH   6   7
ENDBRANCH   5   6
ENDBRANCH   4   5
ENDBRANCH   3   4
ENDBRANCH   2   3
ENDBRANCH   1   2
BRANCH   1  17
ATOM     17  C   UNL     1       2.315   6.850 -18.668  1.00  0.00     0.000 C 
BRANCH  17  18
ATOM     18  C   UNL     1       2.907   5.871 -19.695  1.00  0.00     0.000 C 
BRANCH  18  19
ATOM     19  C   UNL     1       3.460   6.574 -20.947  1.00  0.00     0.000 C 
BRANCH  19  20
ATOM     20  C   UNL     1       3.596   8.105 -20.831  1.00  0.00     0.000 C 
BRANCH  20  21
ATOM     21  C   UNL     1       2.777   8.920 -21.852  1.00  0.00     0.000 C 
BRANCH  21  22
ATOM     22  C   UNL     1       1.702   8.122 -22.609  1.00  0.00    -0.000 C 
BRANCH  22  23
ATOM     23  C   UNL     1       0.383   8.894 -22.763  1.00  0.00    -0.000 C 
BRANCH  23  24
ATOM     24  C   UNL     1      -0.790   8.088 -22.185  1.00  0.00    -0.000 C 
BRANCH  24  25
ATOM     25  C   UNL     1      -0.329   6.934 -21.280  1.00  0.00    -0.000 C 
BRANCH  25  26
ATOM     26  C   UNL     1      -0.839   5.563 -21.760  1.00  0.00    -0.000 C 
BRANCH  26  27
ATOM     27  C   UNL     1      -0.299   4.401 -20.913  1.00  0.00    -0.000 C 
BRANCH  27  28
ATOM     28  C   UNL     1      -1.161   4.116 -19.675  1.00  0.00    -0.000 C 
BRANCH  28  29
ATOM     29  C   UNL     1      -0.653   2.878 -18.928  1.00  0.00    -0.003 C 
ATOM     30  C   UNL     1       0.853   2.704 -19.106  1.00  0.00     0.004 C 
ENDBRANCH  28  29
ENDBRANCH  27  28
ENDBRANCH  26  27
ENDBRANCH  25  26
ENDBRANCH  24  25
ENDBRANCH  23  24
ENDBRANCH  22  23
ENDBRANCH  21  22
ENDBRANCH  20  21
ENDBRANCH  19  20
ENDBRANCH  18  19
ENDBRANCH  17  18
ENDBRANCH   1  17
TORSDOF 26
ENDMDL
MODEL 7
REMARK VINA RESULT:    -3.727      1.772      6.171
REMARK INTER + INTRA:         -14.239
REMARK INTER:                  -9.033
REMARK INTRA:                  -5.205
REMARK UNBOUND:                -4.846
REMARK SMILES CCCCCCCCCCCCCCCCCCCCCCCCCCCC(=O)[O-]
REMARK SMILES IDX 15 1 16 2 17 3 18 4 19 5 20 6 21 7 22 8 23 9 24 10 25 11
REMARK SMILES IDX 26 12 27 13 28 14 29 15 30 16 14 17 13 18 12 19 11 20 10 21
REMARK SMILES IDX 9 22 8 23 7 24 6 25 5 26 4 27 3 28 2 29 1 30
REMARK H PARENT
REMARK Flexibility Score: inf
ROOT
ATOM      1  C   UNL     1     -13.168  -8.663 -29.201  1.00  0.00     0.000 C 
ENDROOT
BRANCH   1   2
ATOM      2  C   UNL     1     -14.274  -8.263 -30.191  1.00  0.00     0.000 C 
BRANCH   2   3
ATOM      3  C   UNL     1     -14.282  -6.757 -30.504  1.00  0.00     0.000 C 
BRANCH   3   4
ATOM      4  C   UNL     1     -15.666  -6.245 -30.956  1.00  0.00     0.000 C 
BRANCH   4   5
ATOM      5  C   UNL     1     -15.621  -4.955 -31.797  1.00  0.00     0.000 C 
BRANCH   5   6
ATOM      6  C   UNL     1     -14.230  -4.558 -32.327  1.00  0.00     0.000 C 
BRANCH   6   7
ATOM      7  C   UNL     1     -14.234  -3.517 -33.460  1.00  0.00     0.000 C 
BRANCH   7   8
ATOM      8  C   UNL     1     -15.500  -2.644 -33.473  1.00  0.00     0.000 C 
BRANCH   8   9
ATOM      9  C   UNL     1     -15.268  -1.282 -32.784  1.00  0.00     0.000 C 
BRANCH   9  10
ATOM     10  C   UNL     1     -15.809  -1.218 -31.347  1.00  0.00     0.000 C 
BRANCH  10  11
ATOM     11  C   UNL     1     -14.734  -1.493 -30.287  1.00  0.00     0.000 C 
BRANCH  11  12
ATOM     12  C   UNL     1     -13.361  -0.999 -30.757  1.00  0.00     0.006 C 
BRANCH  12  13
ATOM     13  C   UNL     1     -12.795   0.055 -29.799  1.00  0.00     0.053 C 
BRANCH  13  14
ATOM     14  C   UNL     1     -11.317   0.202 -29.994  1.00  0.00     0.041 C 
ATOM     15  O   UNL     1     -10.519  -0.136 -29.080  1.00  0.00    -0.550 OA
ATOM     16  O   UNL     1     -10.820   0.673 -31.204  1.00  0.00    -0.550 OA
ENDBRANCH  13  14
ENDBRANCH  12  13
ENDBRANCH  11  12
ENDBRANCH  10  11
ENDBRANCH   9  10
ENDBRANCH   8   9
ENDBRANCH   7   8
ENDBRANCH   6   7
ENDBRANCH   5   6
ENDBRANCH   4   5
ENDBRANCH   3   4
ENDBRANCH   2   3
ENDBRANCH   1   2
BRANCH   1  17
ATOM     17  C   UNL     1     -12.047  -7.610 -29.063  1.00  0.00     0.000 C 
BRANCH  17  18
ATOM     18  C   UNL     1     -11.645  -7.382 -27.596  1.00  0.00     0.000 C 
BRANCH  18  19
ATOM     19  C   UNL     1     -11.528  -5.893 -27.228  1.00  0.00     0.000 C 
BRANCH  19  20
ATOM     20  C   UNL     1     -12.750  -5.030 -27.598  1.00  0.00     0.000 C 
BRANCH  20  21
ATOM     21  C   UNL     1     -12.484  -3.911 -28.624  1.00  0.00     0.000 C 
BRANCH  21  22
ATOM     22  C   UNL     1     -11.000  -3.559 -28.832  1.00  0.00    -0.000 C 
BRANCH  22  23
ATOM     23  C   UNL     1     -10.594  -3.539 -30.312  1.00  0.00    -0.000 C 
BRANCH  23  24
ATOM     24  C   UNL     1     -10.665  -4.951 -30.914  1.00  0.00    -0.000 C 
BRANCH  24  25
ATOM     25  C   UNL     1      -9.280  -5.529 -31.243  1.00  0.00    -0.000 C 
BRANCH  25  26
ATOM     26  C   UNL     1      -8.328  -5.518 -30.033  1.00  0.00    -0.000 C 
BRANCH  26  27
ATOM     27  C   UNL     1      -8.395  -6.816 -29.215  1.00  0.00    -0.000 C 
BRANCH  27  28
ATOM     28  C   UNL     1      -7.655  -6.712 -27.873  1.00  0.00    -0.000 C 
BRANCH  28  29
ATOM     29  C   UNL     1      -7.271  -5.258 -27.572  1.00  0.00    -0.003 C 
ATOM     30  C   UNL     1      -8.158  -4.667 -26.480  1.00  0.00     0.004 C 
ENDBRANCH  28  29
ENDBRANCH  27  28
ENDBRANCH  26  27
ENDBRANCH  25  26
ENDBRANCH  24  25
ENDBRANCH  23  24
ENDBRANCH  22  23
ENDBRANCH  21  22
ENDBRANCH  20  21
ENDBRANCH  19  20
ENDBRANCH  18  19
ENDBRANCH  17  18
ENDBRANCH   1  17
TORSDOF 26
ENDMDL
MODEL 8
REMARK VINA RESULT:    -3.725     18.452     21.492
REMARK INTER + INTRA:         -14.232
REMARK INTER:                  -8.356
REMARK INTRA:                  -5.876
REMARK UNBOUND:                -4.846
REMARK SMILES CCCCCCCCCCCCCCCCCCCCCCCCCCCC(=O)[O-]
REMARK SMILES IDX 15 1 16 2 17 3 18 4 19 5 20 6 21 7 22 8 23 9 24 10 25 11
REMARK SMILES IDX 26 12 27 13 28 14 29 15 30 16 14 17 13 18 12 19 11 20 10 21
REMARK SMILES IDX 9 22 8 23 7 24 6 25 5 26 4 27 3 28 2 29 1 30
REMARK H PARENT
REMARK Flexibility Score: inf
ROOT
ATOM      1  C   UNL     1       1.937   7.963 -20.764  1.00  0.00     0.000 C 
ENDROOT
BRANCH   1   2
ATOM      2  C   UNL     1       2.087   9.202 -19.866  1.00  0.00     0.000 C 
BRANCH   2   3
ATOM      3  C   UNL     1       3.436   9.246 -19.127  1.00  0.00     0.000 C 
BRANCH   3   4
ATOM      4  C   UNL     1       3.372  10.043 -17.807  1.00  0.00     0.000 C 
BRANCH   4   5
ATOM      5  C   UNL     1       1.992  10.660 -17.506  1.00  0.00     0.000 C 
BRANCH   5   6
ATOM      6  C   UNL     1       1.523  10.550 -16.042  1.00  0.00     0.000 C 
BRANCH   6   7
ATOM      7  C   UNL     1       2.050   9.324 -15.277  1.00  0.00     0.000 C 
BRANCH   7   8
ATOM      8  C   UNL     1       1.087   8.125 -15.321  1.00  0.00     0.000 C 
BRANCH   8   9
ATOM      9  C   UNL     1       1.411   7.169 -16.489  1.00  0.00     0.000 C 
BRANCH   9  10
ATOM     10  C   UNL     1       0.289   7.072 -17.535  1.00  0.00     0.000 C 
BRANCH  10  11
ATOM     11  C   UNL     1      -0.970   7.857 -17.141  1.00  0.00     0.000 C 
BRANCH  11  12
ATOM     12  C   UNL     1      -1.166   9.073 -18.055  1.00  0.00     0.006 C 
BRANCH  12  13
ATOM     13  C   UNL     1      -1.637   8.645 -19.449  1.00  0.00     0.053 C 
BRANCH  13  14
ATOM     14  C   UNL     1      -1.626   9.812 -20.389  1.00  0.00     0.041 C 
ATOM     15  O   UNL     1      -1.097   9.706 -21.527  1.00  0.00    -0.550 OA
ATOM     16  O   UNL     1      -2.240  11.004 -20.023  1.00  0.00    -0.550 OA
ENDBRANCH  13  14
ENDBRANCH  12  13
ENDBRANCH  11  12
ENDBRANCH  10  11
ENDBRANCH   9  10
ENDBRANCH   8   9
ENDBRANCH   7   8
ENDBRANCH   6   7
ENDBRANCH   5   6
ENDBRANCH   4   5
ENDBRANCH   3   4
ENDBRANCH   2   3
ENDBRANCH   1   2
BRANCH   1  17
ATOM     17  C   UNL     1       3.249   7.170 -20.952  1.00  0.00     0.000 C 
BRANCH  17  18
ATOM     18  C   UNL     1       3.118   5.714 -20.475  1.00  0.00     0.000 C 
BRANCH  18  19
ATOM     19  C   UNL     1       3.608   4.693 -21.516  1.00  0.00     0.000 C 
BRANCH  19  20
ATOM     20  C   UNL     1       3.372   3.216 -21.146  1.00  0.00     0.000 C 
BRANCH  20  21
ATOM     21  C   UNL     1       3.011   2.953 -19.671  1.00  0.00     0.000 C 
BRANCH  21  22
ATOM     22  C   UNL     1       2.091   1.743 -19.432  1.00  0.00    -0.000 C 
BRANCH  22  23
ATOM     23  C   UNL     1       0.600   2.105 -19.495  1.00  0.00    -0.000 C 
BRANCH  23  24
ATOM     24  C   UNL     1       0.356   3.505 -18.911  1.00  0.00    -0.000 C 
BRANCH  24  25
ATOM     25  C   UNL     1      -1.134   3.805 -18.688  1.00  0.00    -0.000 C 
BRANCH  25  26
ATOM     26  C   UNL     1      -1.693   4.826 -19.696  1.00  0.00    -0.000 C 
BRANCH  26  27
ATOM     27  C   UNL     1      -0.598   5.455 -20.571  1.00  0.00    -0.000 C 
BRANCH  27  28
ATOM     28  C   UNL     1      -1.035   5.635 -22.032  1.00  0.00    -0.000 C 
BRANCH  28  29
ATOM     29  C   UNL     1       0.067   5.174 -22.993  1.00  0.00    -0.003 C 
ATOM     30  C   UNL     1       0.262   3.662 -22.927  1.00  0.00     0.004 C 
ENDBRANCH  28  29
ENDBRANCH  27  28
ENDBRANCH  26  27
ENDBRANCH  25  26
ENDBRANCH  24  25
ENDBRANCH  23  24
ENDBRANCH  22  23
ENDBRANCH  21  22
ENDBRANCH  20  21
ENDBRANCH  19  20
ENDBRANCH  18  19
ENDBRANCH  17  18
ENDBRANCH   1  17
TORSDOF 26
ENDMDL
MODEL 9
REMARK VINA RESULT:    -3.710      2.701      3.591
REMARK INTER + INTRA:         -14.195
REMARK INTER:                  -9.977
REMARK INTRA:                  -4.218
REMARK UNBOUND:                -4.846
REMARK SMILES CCCCCCCCCCCCCCCCCCCCCCCCCCCC(=O)[O-]
REMARK SMILES IDX 15 1 16 2 17 3 18 4 19 5 20 6 21 7 22 8 23 9 24 10 25 11
REMARK SMILES IDX 26 12 27 13 28 14 29 15 30 16 14 17 13 18 12 19 11 20 10 21
REMARK SMILES IDX 9 22 8 23 7 24 6 25 5 26 4 27 3 28 2 29 1 30
REMARK H PARENT
REMARK Flexibility Score: inf
ROOT
ATOM      1  C   UNL     1     -13.721  -7.681 -29.873  1.00  0.00     0.000 C 
ENDROOT
BRANCH   1   2
ATOM      2  C   UNL     1     -13.291  -9.085 -29.418  1.00  0.00     0.000 C 
BRANCH   2   3
ATOM      3  C   UNL     1     -12.270  -9.056 -28.268  1.00  0.00     0.000 C 
BRANCH   3   4
ATOM      4  C   UNL     1     -10.819  -8.864 -28.759  1.00  0.00     0.000 C 
BRANCH   4   5
ATOM      5  C   UNL     1     -10.089  -7.664 -28.126  1.00  0.00     0.000 C 
BRANCH   5   6
ATOM      6  C   UNL     1     -10.642  -6.277 -28.508  1.00  0.00     0.000 C 
BRANCH   6   7
ATOM      7  C   UNL     1     -10.631  -5.961 -30.014  1.00  0.00     0.000 C 
BRANCH   7   8
ATOM      8  C   UNL     1      -9.570  -4.915 -30.402  1.00  0.00     0.000 C 
BRANCH   8   9
ATOM      9  C   UNL     1     -10.204  -3.667 -31.052  1.00  0.00     0.000 C 
BRANCH   9  10
ATOM     10  C   UNL     1      -9.549  -2.346 -30.616  1.00  0.00     0.000 C 
BRANCH  10  11
ATOM     11  C   UNL     1      -9.315  -2.262 -29.102  1.00  0.00     0.000 C 
BRANCH  11  12
ATOM     12  C   UNL     1      -7.857  -1.904 -28.792  1.00  0.00     0.006 C 
BRANCH  12  13
ATOM     13  C   UNL     1      -6.924  -2.363 -29.918  1.00  0.00     0.053 C 
BRANCH  13  14
ATOM     14  C   UNL     1      -5.623  -2.850 -29.358  1.00  0.00     0.041 C 
ATOM     15  O   UNL     1      -5.275  -2.530 -28.190  1.00  0.00    -0.550 OA
ATOM     16  O   UNL     1      -4.815  -3.694 -30.110  1.00  0.00    -0.550 OA
ENDBRANCH  13  14
ENDBRANCH  12  13
ENDBRANCH  11  12
ENDBRANCH  10  11
ENDBRANCH   9  10
ENDBRANCH   8   9
ENDBRANCH   7   8
ENDBRANCH   6   7
ENDBRANCH   5   6
ENDBRANCH   4   5
ENDBRANCH   3   4
ENDBRANCH   2   3
ENDBRANCH   1   2
BRANCH   1  17
ATOM     17  C   UNL     1     -15.072  -7.658 -30.622  1.00  0.00     0.000 C 
BRANCH  17  18
ATOM     18  C   UNL     1     -15.388  -6.269 -31.202  1.00  0.00     0.000 C 
BRANCH  18  19
ATOM     19  C   UNL     1     -14.293  -5.229 -30.904  1.00  0.00     0.000 C 
BRANCH  19  20
ATOM     20  C   UNL     1     -13.795  -4.435 -32.127  1.00  0.00     0.000 C 
BRANCH  20  21
ATOM     21  C   UNL     1     -14.816  -4.271 -33.271  1.00  0.00     0.000 C 
BRANCH  21  22
ATOM     22  C   UNL     1     -15.720  -3.031 -33.162  1.00  0.00    -0.000 C 
BRANCH  22  23
ATOM     23  C   UNL     1     -15.242  -1.866 -34.041  1.00  0.00    -0.000 C 
BRANCH  23  24
ATOM     24  C   UNL     1     -15.167  -0.566 -33.226  1.00  0.00    -0.000 C 
BRANCH  24  25
ATOM     25  C   UNL     1     -15.356  -0.798 -31.718  1.00  0.00    -0.000 C 
BRANCH  25  26
ATOM     26  C   UNL     1     -14.225  -0.179 -30.876  1.00  0.00    -0.000 C 
BRANCH  26  27
ATOM     27  C   UNL     1     -13.098  -1.177 -30.573  1.00  0.00    -0.000 C 
BRANCH  27  28
ATOM     28  C   UNL     1     -12.882  -1.393 -29.069  1.00  0.00    -0.000 C 
BRANCH  28  29
ATOM     29  C   UNL     1     -13.233  -2.831 -28.667  1.00  0.00    -0.003 C 
ATOM     30  C   UNL     1     -12.434  -3.274 -27.445  1.00  0.00     0.004 C 
ENDBRANCH  28  29
ENDBRANCH  27  28
ENDBRANCH  26  27
ENDBRANCH  25  26
ENDBRANCH  24  25
ENDBRANCH  23  24
ENDBRANCH  22  23
ENDBRANCH  21  22
ENDBRANCH  20  21
ENDBRANCH  19  20
ENDBRANCH  18  19
ENDBRANCH  17  18
ENDBRANCH   1  17
TORSDOF 26
ENDMDL
