MODEL 1
REMARK VINA RESULT:     4.397      0.000      0.000
REMARK INTER + INTRA:           6.349
REMARK INTER:                   5.810
REMARK INTRA:                   0.539
REMARK UNBOUND:                 0.539
REMARK SMILES CC(C)=CCC[C@H](C(=O)[O-])[C@H]1CC[C@@]2(C)C3=C(CC[C@]12C)[C@@]1(C)CC[C@H](O)C(C)(C)[C@H]1CC3
REMARK SMILES IDX 6 1 7 2 8 3 9 4 10 5 11 6 12 7 20 8 13 9 14 10 19 11 21 12
REMARK SMILES IDX 15 13 16 14 18 15 17 16 33 17 22 18 32 19 31 20 24 21 23 22
REMARK SMILES IDX 28 23 25 24 26 25 29 26 30 27 27 28 5 30 4 31 2 32 1 33 3 34
REMARK H PARENT 27 29
REMARK Flexibility Score: inf
ROOT
ATOM      1  C   UNL     1      28.810  42.508  20.034  1.00  0.00     0.014 C 
ENDROOT
BRANCH   1   2
ATOM      2  C   UNL     1      27.536  42.191  19.204  1.00  0.00     0.039 C 
BRANCH   2   3
ATOM      3  C   UNL     1      26.360  43.004  19.708  1.00  0.00     0.045 C 
ATOM      4  O   UNL     1      25.747  42.647  20.745  1.00  0.00    -0.550 OA
ATOM      5  O   UNL     1      25.890  44.101  19.002  1.00  0.00    -0.550 OA
ENDBRANCH   2   3
BRANCH   2   6
ATOM      6  C   UNL     1      27.294  40.641  19.130  1.00  0.00     0.004 C 
ATOM      7  C   UNL     1      27.956  39.884  17.949  1.00  0.00     0.006 C 
ATOM      8  C   UNL     1      27.631  39.772  20.372  1.00  0.00    -0.020 C 
ATOM      9  C   UNL     1      28.336  38.485  18.476  1.00  0.00     0.012 C 
ATOM     10  C   UNL     1      27.557  38.333  19.795  1.00  0.00    -0.006 C 
ATOM     11  C   UNL     1      26.642  39.858  21.542  1.00  0.00     0.012 C 
ATOM     12  C   UNL     1      29.064  40.125  20.902  1.00  0.00     0.012 C 
ATOM     13  C   UNL     1      26.124  37.824  19.423  1.00  0.00     0.017 C 
ATOM     14  C   UNL     1      28.067  37.343  20.835  1.00  0.00    -0.064 C 
ATOM     15  C   UNL     1      26.982  38.787  22.613  1.00  0.00     0.032 C 
ATOM     16  C   UNL     1      27.630  37.452  22.130  1.00  0.00    -0.064 C 
ATOM     17  C   UNL     1      28.903  36.181  20.386  1.00  0.00     0.032 C 
ATOM     18  C   UNL     1      27.699  36.244  23.128  1.00  0.00    -0.008 C 
ATOM     19  C   UNL     1      28.468  34.905  21.070  1.00  0.00     0.009 C 
ATOM     20  C   UNL     1      28.619  35.048  22.605  1.00  0.00     0.007 C 
ATOM     21  C   UNL     1      26.235  35.741  23.301  1.00  0.00     0.014 C 
ATOM     22  C   UNL     1      28.248  36.765  24.490  1.00  0.00     0.016 C 
ATOM     23  C   UNL     1      28.426  33.652  23.354  1.00  0.00    -0.006 C 
ATOM     24  C   UNL     1      26.090  34.431  24.082  1.00  0.00     0.033 C 
ATOM     25  C   UNL     1      26.914  33.303  23.458  1.00  0.00     0.120 C 
ATOM     26  C   UNL     1      29.102  33.659  24.760  1.00  0.00     0.014 C 
ATOM     27  C   UNL     1      29.124  32.493  22.582  1.00  0.00     0.014 C 
BRANCH  25  28
ATOM     28  O   UNL     1      26.730  32.135  24.223  1.00  0.00    -0.393 OA
ATOM     29  H   UNL     1      25.827  32.183  24.630  1.00  0.00     0.210 HD
ENDBRANCH  25  28
ENDBRANCH   2   6
ENDBRANCH   1   2
BRANCH   1  30
ATOM     30  C   UNL     1      28.596  43.606  21.098  1.00  0.00     0.028 C 
BRANCH  30  31
ATOM     31  C   UNL     1      29.105  43.207  22.464  1.00  0.00    -0.028 C 
ATOM     32  C   UNL     1      28.296  43.006  23.528  1.00  0.00    -0.080 C 
ATOM     33  C   UNL     1      26.797  43.132  23.421  1.00  0.00     0.039 C 
ATOM     34  C   UNL     1      28.888  42.574  24.846  1.00  0.00     0.039 C 
ENDBRANCH  30  31
ENDBRANCH   1  30
TORSDOF 6
ENDMDL
MODEL 2
REMARK VINA RESULT:     7.177      2.477      9.197
REMARK INTER + INTRA:          10.023
REMARK INTER:                   6.950
REMARK INTRA:                   3.073
REMARK UNBOUND:                 0.539
REMARK SMILES CC(C)=CCC[C@H](C(=O)[O-])[C@H]1CC[C@@]2(C)C3=C(CC[C@]12C)[C@@]1(C)CC[C@H](O)C(C)(C)[C@H]1CC3
REMARK SMILES IDX 6 1 7 2 8 3 9 4 10 5 11 6 12 7 20 8 13 9 14 10 19 11 21 12
REMARK SMILES IDX 15 13 16 14 18 15 17 16 33 17 22 18 32 19 31 20 24 21 23 22
REMARK SMILES IDX 28 23 25 24 26 25 29 26 30 27 27 28 5 30 4 31 2 32 1 33 3 34
REMARK H PARENT 27 29
REMARK Flexibility Score: inf
ROOT
ATOM      1  C   UNL     1      27.507  30.840  24.667  1.00  0.00     0.014 C 
ENDROOT
BRANCH   1   2
ATOM      2  C   UNL     1      27.552  31.755  23.413  1.00  0.00     0.039 C 
BRANCH   2   3
ATOM      3  C   UNL     1      28.654  31.311  22.473  1.00  0.00     0.045 C 
ATOM      4  O   UNL     1      29.125  32.115  21.630  1.00  0.00    -0.550 OA
ATOM      5  O   UNL     1      29.109  30.000  22.467  1.00  0.00    -0.550 OA
ENDBRANCH   2   3
BRANCH   2   6
ATOM      6  C   UNL     1      27.602  33.268  23.834  1.00  0.00     0.004 C 
ATOM      7  C   UNL     1      28.866  33.742  24.598  1.00  0.00     0.006 C 
ATOM      8  C   UNL     1      27.391  34.353  22.743  1.00  0.00    -0.020 C 
ATOM      9  C   UNL     1      29.125  35.200  24.167  1.00  0.00     0.012 C 
ATOM     10  C   UNL     1      27.820  35.649  23.483  1.00  0.00    -0.006 C 
ATOM     11  C   UNL     1      25.948  34.549  22.258  1.00  0.00     0.012 C 
ATOM     12  C   UNL     1      28.299  34.052  21.501  1.00  0.00     0.012 C 
ATOM     13  C   UNL     1      26.856  36.135  24.615  1.00  0.00     0.017 C 
ATOM     14  C   UNL     1      27.875  36.805  22.491  1.00  0.00    -0.064 C 
ATOM     15  C   UNL     1      25.854  35.797  21.340  1.00  0.00     0.032 C 
ATOM     16  C   UNL     1      26.839  36.978  21.611  1.00  0.00    -0.064 C 
ATOM     17  C   UNL     1      28.979  37.814  22.609  1.00  0.00     0.032 C 
ATOM     18  C   UNL     1      26.569  38.358  20.916  1.00  0.00    -0.008 C 
ATOM     19  C   UNL     1      28.446  39.219  22.450  1.00  0.00     0.009 C 
ATOM     20  C   UNL     1      27.785  39.382  21.058  1.00  0.00     0.007 C 
ATOM     21  C   UNL     1      25.304  38.950  21.604  1.00  0.00     0.014 C 
ATOM     22  C   UNL     1      26.282  38.098  19.406  1.00  0.00     0.016 C 
ATOM     23  C   UNL     1      27.444  40.907  20.737  1.00  0.00    -0.006 C 
ATOM     24  C   UNL     1      24.974  40.395  21.219  1.00  0.00     0.033 C 
ATOM     25  C   UNL     1      26.150  41.337  21.485  1.00  0.00     0.120 C 
ATOM     26  C   UNL     1      27.316  41.154  19.202  1.00  0.00     0.014 C 
ATOM     27  C   UNL     1      28.591  41.855  21.199  1.00  0.00     0.014 C 
BRANCH  25  28
ATOM     28  O   UNL     1      25.776  42.642  21.112  1.00  0.00    -0.393 OA
ATOM     29  H   UNL     1      26.574  43.222  21.209  1.00  0.00     0.210 HD
ENDBRANCH  25  28
ENDBRANCH   2   6
ENDBRANCH   1   2
BRANCH   1  30
ATOM     30  C   UNL     1      28.796  30.891  25.515  1.00  0.00     0.028 C 
BRANCH  30  31
ATOM     31  C   UNL     1      28.783  29.908  26.664  1.00  0.00    -0.028 C 
ATOM     32  C   UNL     1      28.514  28.593  26.511  1.00  0.00    -0.080 C 
ATOM     33  C   UNL     1      28.239  27.990  25.156  1.00  0.00     0.039 C 
ATOM     34  C   UNL     1      28.559  27.677  27.709  1.00  0.00     0.039 C 
ENDBRANCH  30  31
ENDBRANCH   1  30
TORSDOF 6
ENDMDL
