MODEL 1
REMARK VINA RESULT:    72.110      0.000      0.000
REMARK INTER + INTRA:         101.444
REMARK INTER:                 101.619
REMARK INTRA:                  -0.176
REMARK UNBOUND:                -0.176
REMARK SMILES O=c1cc(-c2ccc(O)c(O)c2)oc2cc(O)c([C@H]3O[C@@H](CO)[C@H](O)[C@@H](O)[C@H]3O)c(O)c12
REMARK SMILES IDX 4 1 3 2 2 3 1 4 32 5 14 6 13 7 15 8 16 9 18 10 30 11 5 12
REMARK SMILES IDX 6 13 7 14 8 15 12 16 10 17 9 18 11 20 31 22 17 24 19 26
REMARK SMILES IDX 28 27 20 28 26 29 21 30 24 31 29 32 27 34 22 36 23 37 25 39
REMARK H PARENT 9 19 11 21 31 23 17 25 29 33 27 35 23 38 25 40
REMARK Flexibility Score: inf
ROOT
ATOM      1  C   UNL     1       2.840   0.629   3.278  1.00  0.00     0.138 A 
ATOM      2  C   UNL     1       2.725  -0.096   2.085  1.00  0.00     0.100 A 
ATOM      3  C   UNL     1       1.462  -0.477   1.631  1.00  0.00     0.197 A 
ATOM      4  O   UNL     1       1.395  -1.197   0.599  1.00  0.00    -0.289 OA
ATOM      5  C   UNL     1       0.307  -0.087   2.351  1.00  0.00     0.107 A 
ATOM      6  C   UNL     1       0.517   0.609   3.563  1.00  0.00     0.146 A 
ATOM      7  O   UNL     1       1.741   0.941   3.957  1.00  0.00    -0.456 OA
ATOM      8  C   UNL     1      -0.561   0.960   4.369  1.00  0.00     0.094 A 
ATOM      9  C   UNL     1      -1.866   0.617   4.024  1.00  0.00     0.128 A 
ATOM     10  C   UNL     1      -2.114  -0.107   2.825  1.00  0.00     0.068 A 
ATOM     11  C   UNL     1      -1.029  -0.380   1.950  1.00  0.00     0.140 A 
ENDROOT
BRANCH   1  12
ATOM     12  C   UNL     1       4.157   1.067   3.809  1.00  0.00     0.021 A 
ATOM     13  C   UNL     1       4.510   0.881   5.158  1.00  0.00     0.016 A 
ATOM     14  C   UNL     1       5.752   1.312   5.632  1.00  0.00     0.051 A 
ATOM     15  C   UNL     1       6.658   1.943   4.769  1.00  0.00     0.157 A 
ATOM     16  C   UNL     1       5.067   1.713   2.953  1.00  0.00     0.062 A 
ATOM     17  C   UNL     1       6.312   2.145   3.424  1.00  0.00     0.158 A 
BRANCH  15  18
ATOM     18  O   UNL     1       7.897   2.369   5.244  1.00  0.00    -0.504 OA
ATOM     19  H   UNL     1       8.464   3.033   4.729  1.00  0.00     0.293 HD
ENDBRANCH  15  18
BRANCH  17  20
ATOM     20  O   UNL     1       7.189   2.773   2.540  1.00  0.00    -0.504 OA
ATOM     21  H   UNL     1       8.062   3.184   2.850  1.00  0.00     0.293 HD
ENDBRANCH  17  20
ENDBRANCH   1  12
BRANCH  11  22
ATOM     22  O   UNL     1      -1.324  -0.907   0.687  1.00  0.00    -0.506 OA
ATOM     23  H   UNL     1      -2.007  -1.631   0.518  1.00  0.00     0.293 HD
ENDBRANCH  11  22
BRANCH   9  24
ATOM     24  O   UNL     1      -2.872   1.038   4.899  1.00  0.00    -0.507 OA
ATOM     25  H   UNL     1      -3.861   0.992   4.709  1.00  0.00     0.293 HD
ENDBRANCH   9  24
BRANCH  10  26
ATOM     26  C   UNL     1      -3.516  -0.549   2.405  1.00  0.00     0.188 C 
ATOM     27  C   UNL     1      -4.078  -1.615   3.375  1.00  0.00     0.179 C 
ATOM     28  O   UNL     1      -3.517  -1.010   1.065  1.00  0.00    -0.362 OA
ATOM     29  C   UNL     1      -5.493  -2.021   2.920  1.00  0.00     0.177 C 
ATOM     30  C   UNL     1      -4.836  -1.262   0.608  1.00  0.00     0.176 C 
ATOM     31  C   UNL     1      -5.489  -2.399   1.432  1.00  0.00     0.177 C 
BRANCH  27  32
ATOM     32  O   UNL     1      -3.236  -2.740   3.411  1.00  0.00    -0.387 OA
ATOM     33  H   UNL     1      -2.574  -2.585   4.134  1.00  0.00     0.211 HD
ENDBRANCH  27  32
BRANCH  29  34
ATOM     34  O   UNL     1      -5.962  -3.106   3.679  1.00  0.00    -0.387 OA
ATOM     35  H   UNL     1      -5.161  -3.578   4.028  1.00  0.00     0.211 HD
ENDBRANCH  29  34
BRANCH  30  36
ATOM     36  C   UNL     1      -4.768  -1.635  -0.881  1.00  0.00     0.191 C 
BRANCH  36  37
ATOM     37  O   UNL     1      -5.488  -2.813  -1.123  1.00  0.00    -0.394 OA
ATOM     38  H   UNL     1      -6.405  -2.541  -1.393  1.00  0.00     0.210 HD
ENDBRANCH  36  37
ENDBRANCH  30  36
BRANCH  31  39
ATOM     39  O   UNL     1      -6.817  -2.602   1.015  1.00  0.00    -0.388 OA
ATOM     40  H   UNL     1      -6.817  -2.594   0.022  1.00  0.00     0.211 HD
ENDBRANCH  31  39
ENDBRANCH  10  26
TORSDOF 11
ENDMDL
