MODEL 1
REMARK VINA RESULT:    -5.229      0.000      0.000
REMARK INTER + INTRA:          -5.229
REMARK INTER:                  -5.229
REMARK INTRA:                   0.000
REMARK UNBOUND:                 0.000
REMARK SMILES C=C1CCC[C@]2(C)CC(=O)C(=C(C)C)C[C@H]12
REMARK SMILES IDX 13 1 12 2 11 3 15 4 16 5 2 6 1 7 3 8 4 9 5 10 6 11 8 12 9 13
REMARK SMILES IDX 10 14 7 15 14 16
REMARK H PARENT
REMARK Flexibility Score: inf
ROOT
ATOM      1  C   UNL     1     -17.044  31.777  19.136  1.00  0.00     0.039 C 
ATOM      2  C   UNL     1     -15.675  31.136  19.181  1.00  0.00    -0.070 C 
ATOM      3  C   UNL     1     -15.503  29.796  18.988  1.00  0.00    -0.006 C 
ATOM      4  C   UNL     1     -14.113  29.173  18.969  1.00  0.00     0.047 C 
ATOM      5  C   UNL     1     -14.007  27.925  18.053  1.00  0.00     0.025 C 
ATOM      6  C   UNL     1     -13.911  28.228  16.556  1.00  0.00    -0.073 C 
ATOM      7  C   UNL     1     -14.069  29.452  16.014  1.00  0.00     0.008 C 
ATOM      8  C   UNL     1     -13.710  27.035  15.657  1.00  0.00     0.031 C 
ATOM      9  C   UNL     1     -14.852  26.041  15.872  1.00  0.00     0.005 C 
ATOM     10  C   UNL     1     -15.005  25.669  17.359  1.00  0.00     0.008 C 
ATOM     11  C   UNL     1     -15.155  26.895  18.315  1.00  0.00    -0.018 C 
ATOM     12  C   UNL     1     -16.528  27.583  18.099  1.00  0.00     0.088 C 
ATOM     13  C   UNL     1     -16.653  28.850  18.898  1.00  0.00     0.159 C 
ATOM     14  O   UNL     1     -17.739  29.082  19.493  1.00  0.00    -0.295 OA
ATOM     15  C   UNL     1     -15.080  26.349  19.765  1.00  0.00     0.012 C 
ATOM     16  C   UNL     1     -14.496  32.054  19.410  1.00  0.00     0.039 C 
ENDROOT
TORSDOF 0
ENDMDL
MODEL 2
REMARK VINA RESULT:    -4.990      1.780      4.887
REMARK INTER + INTRA:          -4.990
REMARK INTER:                  -4.990
REMARK INTRA:                   0.000
REMARK UNBOUND:                 0.000
REMARK SMILES C=C1CCC[C@]2(C)CC(=O)C(=C(C)C)C[C@H]12
REMARK SMILES IDX 13 1 12 2 11 3 15 4 16 5 2 6 1 7 3 8 4 9 5 10 6 11 8 12 9 13
REMARK SMILES IDX 10 14 7 15 14 16
REMARK H PARENT
REMARK Flexibility Score: inf
ROOT
ATOM      1  C   UNL     1     -15.862  25.430  15.982  1.00  0.00     0.039 C 
ATOM      2  C   UNL     1     -15.843  25.748  17.460  1.00  0.00    -0.070 C 
ATOM      3  C   UNL     1     -15.177  26.833  17.952  1.00  0.00    -0.006 C 
ATOM      4  C   UNL     1     -15.221  27.181  19.435  1.00  0.00     0.047 C 
ATOM      5  C   UNL     1     -15.103  28.702  19.717  1.00  0.00     0.025 C 
ATOM      6  C   UNL     1     -16.382  29.506  19.472  1.00  0.00    -0.073 C 
ATOM      7  C   UNL     1     -17.497  29.010  18.899  1.00  0.00     0.008 C 
ATOM      8  C   UNL     1     -16.317  30.968  19.832  1.00  0.00     0.031 C 
ATOM      9  C   UNL     1     -15.179  31.630  19.055  1.00  0.00     0.005 C 
ATOM     10  C   UNL     1     -13.845  30.888  19.263  1.00  0.00     0.008 C 
ATOM     11  C   UNL     1     -13.908  29.358  18.952  1.00  0.00    -0.018 C 
ATOM     12  C   UNL     1     -14.075  29.124  17.428  1.00  0.00     0.088 C 
ATOM     13  C   UNL     1     -14.282  27.671  17.103  1.00  0.00     0.159 C 
ATOM     14  O   UNL     1     -13.676  27.183  16.112  1.00  0.00    -0.295 OA
ATOM     15  C   UNL     1     -12.560  28.748  19.416  1.00  0.00     0.012 C 
ATOM     16  C   UNL     1     -16.631  24.832  18.368  1.00  0.00     0.039 C 
ENDROOT
TORSDOF 0
ENDMDL
MODEL 3
REMARK VINA RESULT:    -4.906      1.847      4.765
REMARK INTER + INTRA:          -4.906
REMARK INTER:                  -4.906
REMARK INTRA:                   0.000
REMARK UNBOUND:                 0.000
REMARK SMILES C=C1CCC[C@]2(C)CC(=O)C(=C(C)C)C[C@H]12
REMARK SMILES IDX 13 1 12 2 11 3 15 4 16 5 2 6 1 7 3 8 4 9 5 10 6 11 8 12 9 13
REMARK SMILES IDX 10 14 7 15 14 16
REMARK H PARENT
REMARK Flexibility Score: inf
ROOT
ATOM      1  C   UNL     1     -14.516  23.067  19.020  1.00  0.00     0.039 C 
ATOM      2  C   UNL     1     -15.266  23.881  17.989  1.00  0.00    -0.070 C 
ATOM      3  C   UNL     1     -15.444  25.226  18.128  1.00  0.00    -0.006 C 
ATOM      4  C   UNL     1     -16.143  26.046  17.051  1.00  0.00     0.047 C 
ATOM      5  C   UNL     1     -15.637  27.510  16.963  1.00  0.00     0.025 C 
ATOM      6  C   UNL     1     -14.293  27.688  16.251  1.00  0.00    -0.073 C 
ATOM      7  C   UNL     1     -13.495  26.673  15.864  1.00  0.00     0.008 C 
ATOM      8  C   UNL     1     -13.830  29.110  16.069  1.00  0.00     0.031 C 
ATOM      9  C   UNL     1     -13.743  29.793  17.434  1.00  0.00     0.005 C 
ATOM     10  C   UNL     1     -15.068  29.675  18.211  1.00  0.00     0.008 C 
ATOM     11  C   UNL     1     -15.595  28.212  18.360  1.00  0.00    -0.018 C 
ATOM     12  C   UNL     1     -14.684  27.404  19.319  1.00  0.00     0.088 C 
ATOM     13  C   UNL     1     -15.075  25.954  19.377  1.00  0.00     0.159 C 
ATOM     14  O   UNL     1     -15.094  25.379  20.499  1.00  0.00    -0.295 OA
ATOM     15  C   UNL     1     -17.020  28.305  18.967  1.00  0.00     0.012 C 
ATOM     16  C   UNL     1     -15.776  23.143  16.772  1.00  0.00     0.039 C 
ENDROOT
TORSDOF 0
ENDMDL
MODEL 4
REMARK VINA RESULT:    -4.882      2.302      4.084
REMARK INTER + INTRA:          -4.882
REMARK INTER:                  -4.882
REMARK INTRA:                   0.000
REMARK UNBOUND:                 0.000
REMARK SMILES C=C1CCC[C@]2(C)CC(=O)C(=C(C)C)C[C@H]12
REMARK SMILES IDX 13 1 12 2 11 3 15 4 16 5 2 6 1 7 3 8 4 9 5 10 6 11 8 12 9 13
REMARK SMILES IDX 10 14 7 15 14 16
REMARK H PARENT
REMARK Flexibility Score: inf
ROOT
ATOM      1  C   UNL     1     -13.547  27.973  19.989  1.00  0.00     0.039 C 
ATOM      2  C   UNL     1     -14.509  27.382  18.985  1.00  0.00    -0.070 C 
ATOM      3  C   UNL     1     -14.682  27.930  17.747  1.00  0.00    -0.006 C 
ATOM      4  C   UNL     1     -15.604  27.286  16.719  1.00  0.00     0.047 C 
ATOM      5  C   UNL     1     -15.156  27.522  15.253  1.00  0.00     0.025 C 
ATOM      6  C   UNL     1     -13.993  26.645  14.783  1.00  0.00    -0.073 C 
ATOM      7  C   UNL     1     -13.272  25.839  15.588  1.00  0.00     0.008 C 
ATOM      8  C   UNL     1     -13.606  26.790  13.334  1.00  0.00     0.031 C 
ATOM      9  C   UNL     1     -13.252  28.249  13.047  1.00  0.00     0.005 C 
ATOM     10  C   UNL     1     -14.384  29.200  13.477  1.00  0.00     0.008 C 
ATOM     11  C   UNL     1     -14.841  29.025  14.960  1.00  0.00    -0.018 C 
ATOM     12  C   UNL     1     -13.735  29.521  15.928  1.00  0.00     0.088 C 
ATOM     13  C   UNL     1     -14.077  29.238  17.363  1.00  0.00     0.159 C 
ATOM     14  O   UNL     1     -13.852  30.131  18.223  1.00  0.00    -0.295 OA
ATOM     15  C   UNL     1     -16.110  29.897  15.148  1.00  0.00     0.012 C 
ATOM     16  C   UNL     1     -15.246  26.127  19.397  1.00  0.00     0.039 C 
ENDROOT
TORSDOF 0
ENDMDL
MODEL 5
REMARK VINA RESULT:    -4.860      1.779      4.967
REMARK INTER + INTRA:          -4.860
REMARK INTER:                  -4.860
REMARK INTRA:                   0.000
REMARK UNBOUND:                 0.000
REMARK SMILES C=C1CCC[C@]2(C)CC(=O)C(=C(C)C)C[C@H]12
REMARK SMILES IDX 13 1 12 2 11 3 15 4 16 5 2 6 1 7 3 8 4 9 5 10 6 11 8 12 9 13
REMARK SMILES IDX 10 14 7 15 14 16
REMARK H PARENT
REMARK Flexibility Score: inf
ROOT
ATOM      1  C   UNL     1     -14.708  26.677  14.529  1.00  0.00     0.039 C 
ATOM      2  C   UNL     1     -14.597  26.541  16.031  1.00  0.00    -0.070 C 
ATOM      3  C   UNL     1     -14.499  27.632  16.846  1.00  0.00    -0.006 C 
ATOM      4  C   UNL     1     -14.455  27.485  18.362  1.00  0.00     0.047 C 
ATOM      5  C   UNL     1     -15.077  28.688  19.118  1.00  0.00     0.025 C 
ATOM      6  C   UNL     1     -16.607  28.711  19.147  1.00  0.00    -0.073 C 
ATOM      7  C   UNL     1     -17.396  27.873  18.447  1.00  0.00     0.008 C 
ATOM      8  C   UNL     1     -17.230  29.818  19.958  1.00  0.00     0.031 C 
ATOM      9  C   UNL     1     -16.740  31.168  19.434  1.00  0.00     0.005 C 
ATOM     10  C   UNL     1     -15.202  31.233  19.390  1.00  0.00     0.008 C 
ATOM     11  C   UNL     1     -14.533  30.061  18.603  1.00  0.00    -0.018 C 
ATOM     12  C   UNL     1     -14.821  30.196  17.085  1.00  0.00     0.088 C 
ATOM     13  C   UNL     1     -14.315  29.012  16.310  1.00  0.00     0.159 C 
ATOM     14  O   UNL     1     -13.728  29.215  15.214  1.00  0.00    -0.295 OA
ATOM     15  C   UNL     1     -13.005  30.169  18.844  1.00  0.00     0.012 C 
ATOM     16  C   UNL     1     -14.640  25.140  16.597  1.00  0.00     0.039 C 
ENDROOT
TORSDOF 0
ENDMDL
MODEL 6
REMARK VINA RESULT:    -4.820      1.653      3.127
REMARK INTER + INTRA:          -4.820
REMARK INTER:                  -4.820
REMARK INTRA:                   0.000
REMARK UNBOUND:                 0.000
REMARK SMILES C=C1CCC[C@]2(C)CC(=O)C(=C(C)C)C[C@H]12
REMARK SMILES IDX 13 1 12 2 11 3 15 4 16 5 2 6 1 7 3 8 4 9 5 10 6 11 8 12 9 13
REMARK SMILES IDX 10 14 7 15 14 16
REMARK H PARENT
REMARK Flexibility Score: inf
ROOT
ATOM      1  C   UNL     1     -14.868  32.689  19.866  1.00  0.00     0.039 C 
ATOM      2  C   UNL     1     -15.595  32.058  18.700  1.00  0.00    -0.070 C 
ATOM      3  C   UNL     1     -15.307  30.794  18.272  1.00  0.00    -0.006 C 
ATOM      4  C   UNL     1     -16.093  30.145  17.140  1.00  0.00     0.047 C 
ATOM      5  C   UNL     1     -16.194  28.602  17.264  1.00  0.00     0.025 C 
ATOM      6  C   UNL     1     -17.218  28.101  18.285  1.00  0.00    -0.073 C 
ATOM      7  C   UNL     1     -17.882  28.893  19.151  1.00  0.00     0.008 C 
ATOM      8  C   UNL     1     -17.401  26.607  18.352  1.00  0.00     0.031 C 
ATOM      9  C   UNL     1     -16.057  25.945  18.657  1.00  0.00     0.005 C 
ATOM     10  C   UNL     1     -14.971  26.384  17.658  1.00  0.00     0.008 C 
ATOM     11  C   UNL     1     -14.806  27.933  17.531  1.00  0.00    -0.018 C 
ATOM     12  C   UNL     1     -14.189  28.519  18.827  1.00  0.00     0.088 C 
ATOM     13  C   UNL     1     -14.146  30.021  18.799  1.00  0.00     0.159 C 
ATOM     14  O   UNL     1     -13.109  30.602  19.218  1.00  0.00    -0.295 OA
ATOM     15  C   UNL     1     -13.839  28.188  16.345  1.00  0.00     0.012 C 
ATOM     16  C   UNL     1     -16.690  32.876  18.052  1.00  0.00     0.039 C 
ENDROOT
TORSDOF 0
ENDMDL
MODEL 7
REMARK VINA RESULT:    -4.778      1.225      1.781
REMARK INTER + INTRA:          -4.778
REMARK INTER:                  -4.778
REMARK INTRA:                   0.000
REMARK UNBOUND:                 0.000
REMARK SMILES C=C1CCC[C@]2(C)CC(=O)C(=C(C)C)C[C@H]12
REMARK SMILES IDX 13 1 12 2 11 3 15 4 16 5 2 6 1 7 3 8 4 9 5 10 6 11 8 12 9 13
REMARK SMILES IDX 10 14 7 15 14 16
REMARK H PARENT
REMARK Flexibility Score: inf
ROOT
ATOM      1  C   UNL     1     -16.086  30.706  19.204  1.00  0.00     0.039 C 
ATOM      2  C   UNL     1     -14.840  29.957  18.791  1.00  0.00    -0.070 C 
ATOM      3  C   UNL     1     -14.903  28.786  18.093  1.00  0.00    -0.006 C 
ATOM      4  C   UNL     1     -13.640  28.076  17.624  1.00  0.00     0.047 C 
ATOM      5  C   UNL     1     -13.832  27.275  16.309  1.00  0.00     0.025 C 
ATOM      6  C   UNL     1     -13.851  28.122  15.034  1.00  0.00    -0.073 C 
ATOM      7  C   UNL     1     -13.871  29.469  15.013  1.00  0.00     0.008 C 
ATOM      8  C   UNL     1     -13.940  27.355  13.740  1.00  0.00     0.031 C 
ATOM      9  C   UNL     1     -15.195  26.482  13.753  1.00  0.00     0.005 C 
ATOM     10  C   UNL     1     -15.244  25.582  15.002  1.00  0.00     0.008 C 
ATOM     11  C   UNL     1     -15.093  26.352  16.353  1.00  0.00    -0.018 C 
ATOM     12  C   UNL     1     -16.355  27.210  16.629  1.00  0.00     0.088 C 
ATOM     13  C   UNL     1     -16.191  28.075  17.846  1.00  0.00     0.159 C 
ATOM     14  O   UNL     1     -17.156  28.173  18.651  1.00  0.00    -0.295 OA
ATOM     15  C   UNL     1     -14.950  25.284  17.468  1.00  0.00     0.012 C 
ATOM     16  C   UNL     1     -13.512  30.586  19.150  1.00  0.00     0.039 C 
ENDROOT
TORSDOF 0
ENDMDL
MODEL 8
REMARK VINA RESULT:    -4.768      1.788      3.465
REMARK INTER + INTRA:          -4.768
REMARK INTER:                  -4.768
REMARK INTRA:                   0.000
REMARK UNBOUND:                 0.000
REMARK SMILES C=C1CCC[C@]2(C)CC(=O)C(=C(C)C)C[C@H]12
REMARK SMILES IDX 13 1 12 2 11 3 15 4 16 5 2 6 1 7 3 8 4 9 5 10 6 11 8 12 9 13
REMARK SMILES IDX 10 14 7 15 14 16
REMARK H PARENT
REMARK Flexibility Score: inf
ROOT
ATOM      1  C   UNL     1     -16.361  31.215  14.393  1.00  0.00     0.039 C 
ATOM      2  C   UNL     1     -15.193  30.270  14.559  1.00  0.00    -0.070 C 
ATOM      3  C   UNL     1     -14.862  29.743  15.774  1.00  0.00    -0.006 C 
ATOM      4  C   UNL     1     -13.725  28.739  15.917  1.00  0.00     0.047 C 
ATOM      5  C   UNL     1     -13.936  27.725  17.072  1.00  0.00     0.025 C 
ATOM      6  C   UNL     1     -14.920  26.593  16.765  1.00  0.00    -0.073 C 
ATOM      7  C   UNL     1     -15.691  26.531  15.662  1.00  0.00     0.008 C 
ATOM      8  C   UNL     1     -15.066  25.544  17.838  1.00  0.00     0.031 C 
ATOM      9  C   UNL     1     -15.496  26.212  19.144  1.00  0.00     0.005 C 
ATOM     10  C   UNL     1     -14.543  27.357  19.534  1.00  0.00     0.008 C 
ATOM     11  C   UNL     1     -14.331  28.424  18.413  1.00  0.00    -0.018 C 
ATOM     12  C   UNL     1     -15.625  29.253  18.206  1.00  0.00     0.088 C 
ATOM     13  C   UNL     1     -15.508  30.194  17.041  1.00  0.00     0.159 C 
ATOM     14  O   UNL     1     -15.955  31.366  17.165  1.00  0.00    -0.295 OA
ATOM     15  C   UNL     1     -13.195  29.365  18.895  1.00  0.00     0.012 C 
ATOM     16  C   UNL     1     -14.428  29.900  13.309  1.00  0.00     0.039 C 
ENDROOT
TORSDOF 0
ENDMDL
MODEL 9
REMARK VINA RESULT:    -4.737      1.704      4.782
REMARK INTER + INTRA:          -4.737
REMARK INTER:                  -4.737
REMARK INTRA:                   0.000
REMARK UNBOUND:                 0.000
REMARK SMILES C=C1CCC[C@]2(C)CC(=O)C(=C(C)C)C[C@H]12
REMARK SMILES IDX 13 1 12 2 11 3 15 4 16 5 2 6 1 7 3 8 4 9 5 10 6 11 8 12 9 13
REMARK SMILES IDX 10 14 7 15 14 16
REMARK H PARENT
REMARK Flexibility Score: inf
ROOT
ATOM      1  C   UNL     1     -15.242  24.949  16.244  1.00  0.00     0.039 C 
ATOM      2  C   UNL     1     -14.387  26.161  15.952  1.00  0.00    -0.070 C 
ATOM      3  C   UNL     1     -14.816  27.426  16.229  1.00  0.00    -0.006 C 
ATOM      4  C   UNL     1     -13.918  28.635  15.993  1.00  0.00     0.047 C 
ATOM      5  C   UNL     1     -14.184  29.804  16.976  1.00  0.00     0.025 C 
ATOM      6  C   UNL     1     -13.594  29.618  18.376  1.00  0.00    -0.073 C 
ATOM      7  C   UNL     1     -13.027  28.479  18.820  1.00  0.00     0.008 C 
ATOM      8  C   UNL     1     -13.758  30.784  19.317  1.00  0.00     0.031 C 
ATOM      9  C   UNL     1     -15.244  31.113  19.463  1.00  0.00     0.005 C 
ATOM     10  C   UNL     1     -15.912  31.333  18.093  1.00  0.00     0.008 C 
ATOM     11  C   UNL     1     -15.703  30.160  17.082  1.00  0.00    -0.018 C 
ATOM     12  C   UNL     1     -16.499  28.909  17.536  1.00  0.00     0.088 C 
ATOM     13  C   UNL     1     -16.212  27.716  16.668  1.00  0.00     0.159 C 
ATOM     14  O   UNL     1     -17.173  26.983  16.314  1.00  0.00    -0.295 OA
ATOM     15  C   UNL     1     -16.248  30.642  15.712  1.00  0.00     0.012 C 
ATOM     16  C   UNL     1     -13.013  25.907  15.374  1.00  0.00     0.039 C 
ENDROOT
TORSDOF 0
ENDMDL
