MODEL 1
REMARK VINA RESULT:    -4.691      0.000      0.000
REMARK INTER + INTRA:          -8.474
REMARK INTER:                  -7.296
REMARK INTRA:                  -1.178
REMARK UNBOUND:                -1.178
REMARK SMILES C[C@]12C[C@]3(O)O[C@H](O1)[C@@]1(COC(=O)c4ccccc4)[C@@H]3C[C@]12O[C@@H]1O[C@@H](CO)[C@@H](O)[C@H](O)[C@@H]1O
REMARK SMILES IDX 1 1 2 2 3 3 4 4 20 5 21 6 22 7 9 8 7 9 8 10 6 11 23 12 24 13
REMARK SMILES IDX 33 14 25 15 31 16 26 17 29 18 34 19 32 21 27 23 28 24 30 26
REMARK SMILES IDX 5 28 10 30 11 31 12 32 13 33 14 34 15 35 19 36 16 37 18 38
REMARK SMILES IDX 17 39
REMARK H PARENT 34 20 32 22 28 25 30 27 5 29
REMARK Flexibility Score: inf
ROOT
ATOM      1  C   UNL     1      37.923 -45.059  30.441  1.00  0.00     0.046 C 
ATOM      2  C   UNL     1      39.437 -45.213  30.256  1.00  0.00     0.104 C 
ATOM      3  C   UNL     1      39.749 -46.395  29.259  1.00  0.00     0.104 C 
ATOM      4  C   UNL     1      41.305 -46.360  29.109  1.00  0.00     0.175 C 
ATOM      5  C   UNL     1      41.781 -44.906  28.797  1.00  0.00     0.070 C 
ATOM      6  C   UNL     1      40.644 -43.986  28.326  1.00  0.00     0.050 C 
ATOM      7  C   UNL     1      40.210 -43.908  29.797  1.00  0.00     0.115 C 
ATOM      8  C   UNL     1      41.631 -44.322  30.199  1.00  0.00     0.096 C 
ATOM      9  C   UNL     1      41.467 -45.504  31.147  1.00  0.00     0.267 C 
ATOM     10  O   UNL     1      40.079 -45.575  31.464  1.00  0.00    -0.342 OA
ATOM     11  O   UNL     1      41.826 -46.648  30.392  1.00  0.00    -0.320 OA
ENDROOT
BRANCH   7  12
ATOM     12  O   UNL     1      39.731 -42.609  30.152  1.00  0.00    -0.339 OA
BRANCH  12  13
ATOM     13  C   UNL     1      38.607 -42.597  31.026  1.00  0.00     0.282 C 
ATOM     14  C   UNL     1      39.024 -42.184  32.462  1.00  0.00     0.202 C 
ATOM     15  O   UNL     1      37.591 -41.727  30.549  1.00  0.00    -0.341 OA
ATOM     16  C   UNL     1      39.380 -40.684  32.572  1.00  0.00     0.179 C 
ATOM     17  C   UNL     1      38.040 -40.385  30.443  1.00  0.00     0.178 C 
ATOM     18  C   UNL     1      38.346 -39.804  31.842  1.00  0.00     0.177 C 
BRANCH  14  19
ATOM     19  O   UNL     1      40.099 -42.964  32.909  1.00  0.00    -0.385 OA
ATOM     20  H   UNL     1      40.786 -42.946  32.193  1.00  0.00     0.211 HD
ENDBRANCH  14  19
BRANCH  16  21
ATOM     21  O   UNL     1      40.694 -40.418  32.136  1.00  0.00    -0.387 OA
ATOM     22  H   UNL     1      41.329 -40.792  32.796  1.00  0.00     0.211 HD
ENDBRANCH  16  21
BRANCH  17  23
ATOM     23  C   UNL     1      36.959 -39.564  29.720  1.00  0.00     0.191 C 
BRANCH  23  24
ATOM     24  O   UNL     1      36.922 -38.248  30.205  1.00  0.00    -0.394 OA
ATOM     25  H   UNL     1      36.901 -38.306  31.196  1.00  0.00     0.210 HD
ENDBRANCH  23  24
ENDBRANCH  17  23
BRANCH  18  26
ATOM     26  O   UNL     1      37.162 -39.747  32.597  1.00  0.00    -0.387 OA
ATOM     27  H   UNL     1      37.277 -40.370  33.362  1.00  0.00     0.211 HD
ENDBRANCH  18  26
ENDBRANCH  12  13
ENDBRANCH   7  12
BRANCH   4  28
ATOM     28  O   UNL     1      41.745 -47.287  28.153  1.00  0.00    -0.365 OA
ATOM     29  H   UNL     1      42.738 -47.239  28.145  1.00  0.00     0.214 HD
ENDBRANCH   4  28
BRANCH   8  30
ATOM     30  C   UNL     1      42.687 -43.254  30.548  1.00  0.00     0.249 C 
BRANCH  30  31
ATOM     31  O   UNL     1      42.681 -42.983  31.950  1.00  0.00    -0.461 OA
BRANCH  31  32
ATOM     32  C   UNL     1      43.753 -42.413  32.645  1.00  0.00     0.338 C 
ATOM     33  O   UNL     1      44.364 -43.076  33.528  1.00  0.00    -0.246 OA
BRANCH  32  34
ATOM     34  C   UNL     1      44.156 -41.021  32.351  1.00  0.00     0.060 A 
ATOM     35  C   UNL     1      43.965 -40.000  33.301  1.00  0.00     0.015 A 
ATOM     36  C   UNL     1      44.750 -40.701  31.116  1.00  0.00     0.015 A 
ATOM     37  C   UNL     1      44.356 -38.687  33.018  1.00  0.00     0.001 A 
ATOM     38  C   UNL     1      45.140 -39.387  30.837  1.00  0.00     0.001 A 
ATOM     39  C   UNL     1      44.941 -38.380  31.786  1.00  0.00     0.000 A 
ENDBRANCH  32  34
ENDBRANCH  31  32
ENDBRANCH  30  31
ENDBRANCH   8  30
TORSDOF 12
ENDMDL
MODEL 2
REMARK VINA RESULT:    -4.662      2.462      5.848
REMARK INTER + INTRA:          -8.429
REMARK INTER:                  -7.775
REMARK INTRA:                  -0.654
REMARK UNBOUND:                -1.178
REMARK SMILES C[C@]12C[C@]3(O)O[C@H](O1)[C@@]1(COC(=O)c4ccccc4)[C@@H]3C[C@]12O[C@@H]1O[C@@H](CO)[C@@H](O)[C@H](O)[C@@H]1O
REMARK SMILES IDX 1 1 2 2 3 3 4 4 20 5 21 6 22 7 9 8 7 9 8 10 6 11 23 12 24 13
REMARK SMILES IDX 33 14 25 15 31 16 26 17 29 18 34 19 32 21 27 23 28 24 30 26
REMARK SMILES IDX 5 28 10 30 11 31 12 32 13 33 14 34 15 35 19 36 16 37 18 38
REMARK SMILES IDX 17 39
REMARK H PARENT 34 20 32 22 28 25 30 27 5 29
REMARK Flexibility Score: inf
ROOT
ATOM      1  C   UNL     1      44.652 -43.420  30.002  1.00  0.00     0.046 C 
ATOM      2  C   UNL     1      43.226 -43.979  30.059  1.00  0.00     0.104 C 
ATOM      3  C   UNL     1      43.248 -45.488  30.519  1.00  0.00     0.104 C 
ATOM      4  C   UNL     1      41.736 -45.875  30.615  1.00  0.00     0.175 C 
ATOM      5  C   UNL     1      40.959 -44.800  31.438  1.00  0.00     0.070 C 
ATOM      6  C   UNL     1      41.881 -43.890  32.265  1.00  0.00     0.050 C 
ATOM      7  C   UNL     1      42.203 -43.163  30.952  1.00  0.00     0.115 C 
ATOM      8  C   UNL     1      40.894 -43.711  30.370  1.00  0.00     0.096 C 
ATOM      9  C   UNL     1      41.270 -44.374  29.051  1.00  0.00     0.267 C 
ATOM     10  O   UNL     1      42.618 -43.996  28.782  1.00  0.00    -0.342 OA
ATOM     11  O   UNL     1      41.225 -45.769  29.301  1.00  0.00    -0.320 OA
ENDROOT
BRANCH   7  12
ATOM     12  O   UNL     1      42.352 -41.754  31.134  1.00  0.00    -0.339 OA
BRANCH  12  13
ATOM     13  C   UNL     1      42.485 -41.330  32.487  1.00  0.00     0.282 C 
ATOM     14  C   UNL     1      43.568 -40.226  32.619  1.00  0.00     0.202 C 
ATOM     15  O   UNL     1      41.249 -40.859  33.006  1.00  0.00    -0.341 OA
ATOM     16  C   UNL     1      43.115 -38.871  32.028  1.00  0.00     0.179 C 
ATOM     17  C   UNL     1      40.750 -39.748  32.277  1.00  0.00     0.178 C 
ATOM     18  C   UNL     1      41.676 -38.523  32.457  1.00  0.00     0.177 C 
BRANCH  14  19
ATOM     19  O   UNL     1      44.766 -40.634  32.017  1.00  0.00    -0.385 OA
ATOM     20  H   UNL     1      45.472 -40.010  32.328  1.00  0.00     0.211 HD
ENDBRANCH  14  19
BRANCH  16  21
ATOM     21  O   UNL     1      43.269 -38.827  30.628  1.00  0.00    -0.387 OA
ATOM     22  H   UNL     1      42.579 -38.227  30.252  1.00  0.00     0.211 HD
ENDBRANCH  16  21
BRANCH  17  23
ATOM     23  C   UNL     1      39.323 -39.447  32.763  1.00  0.00     0.191 C 
BRANCH  23  24
ATOM     24  O   UNL     1      39.174 -39.786  34.116  1.00  0.00    -0.394 OA
ATOM     25  H   UNL     1      39.672 -40.633  34.259  1.00  0.00     0.210 HD
ENDBRANCH  23  24
ENDBRANCH  17  23
BRANCH  18  26
ATOM     26  O   UNL     1      41.671 -38.124  33.805  1.00  0.00    -0.387 OA
ATOM     27  H   UNL     1      42.313 -37.370  33.885  1.00  0.00     0.211 HD
ENDBRANCH  18  26
ENDBRANCH  12  13
ENDBRANCH   7  12
BRANCH   4  28
ATOM     28  O   UNL     1      41.573 -47.169  31.129  1.00  0.00    -0.365 OA
ATOM     29  H   UNL     1      40.694 -47.183  31.592  1.00  0.00     0.214 HD
ENDBRANCH   4  28
BRANCH   8  30
ATOM     30  C   UNL     1      39.604 -42.867  30.415  1.00  0.00     0.249 C 
BRANCH  30  31
ATOM     31  O   UNL     1      38.666 -43.336  29.446  1.00  0.00    -0.461 OA
BRANCH  31  32
ATOM     32  C   UNL     1      38.187 -42.565  28.380  1.00  0.00     0.338 C 
ATOM     33  O   UNL     1      38.000 -41.326  28.524  1.00  0.00    -0.246 OA
BRANCH  32  34
ATOM     34  C   UNL     1      37.886 -43.216  27.087  1.00  0.00     0.060 A 
ATOM     35  C   UNL     1      37.922 -44.618  26.960  1.00  0.00     0.015 A 
ATOM     36  C   UNL     1      37.544 -42.440  25.964  1.00  0.00     0.015 A 
ATOM     37  C   UNL     1      37.628 -45.226  25.736  1.00  0.00     0.001 A 
ATOM     38  C   UNL     1      37.251 -43.052  24.742  1.00  0.00     0.001 A 
ATOM     39  C   UNL     1      37.296 -44.444  24.627  1.00  0.00     0.000 A 
ENDBRANCH  32  34
ENDBRANCH  31  32
ENDBRANCH  30  31
ENDBRANCH   8  30
TORSDOF 12
ENDMDL
MODEL 3
REMARK VINA RESULT:    -4.643      1.595      2.167
REMARK INTER + INTRA:          -8.399
REMARK INTER:                  -7.607
REMARK INTRA:                  -0.793
REMARK UNBOUND:                -1.178
REMARK SMILES C[C@]12C[C@]3(O)O[C@H](O1)[C@@]1(COC(=O)c4ccccc4)[C@@H]3C[C@]12O[C@@H]1O[C@@H](CO)[C@@H](O)[C@H](O)[C@@H]1O
REMARK SMILES IDX 1 1 2 2 3 3 4 4 20 5 21 6 22 7 9 8 7 9 8 10 6 11 23 12 24 13
REMARK SMILES IDX 33 14 25 15 31 16 26 17 29 18 34 19 32 21 27 23 28 24 30 26
REMARK SMILES IDX 5 28 10 30 11 31 12 32 13 33 14 34 15 35 19 36 16 37 18 38
REMARK SMILES IDX 17 39
REMARK H PARENT 34 20 32 22 28 25 30 27 5 29
REMARK Flexibility Score: inf
ROOT
ATOM      1  C   UNL     1      38.143 -44.086  32.493  1.00  0.00     0.046 C 
ATOM      2  C   UNL     1      39.002 -44.604  31.334  1.00  0.00     0.104 C 
ATOM      3  C   UNL     1      38.204 -45.679  30.500  1.00  0.00     0.104 C 
ATOM      4  C   UNL     1      39.168 -46.033  29.321  1.00  0.00     0.175 C 
ATOM      5  C   UNL     1      39.692 -44.726  28.647  1.00  0.00     0.070 C 
ATOM      6  C   UNL     1      38.861 -43.485  29.008  1.00  0.00     0.050 C 
ATOM      7  C   UNL     1      39.584 -43.498  30.362  1.00  0.00     0.115 C 
ATOM      8  C   UNL     1      40.705 -44.320  29.713  1.00  0.00     0.096 C 
ATOM      9  C   UNL     1      40.901 -45.536  30.611  1.00  0.00     0.267 C 
ATOM     10  O   UNL     1      40.153 -45.283  31.798  1.00  0.00    -0.342 OA
ATOM     11  O   UNL     1      40.309 -46.620  29.915  1.00  0.00    -0.320 OA
ENDROOT
BRANCH   7  12
ATOM     12  O   UNL     1      39.868 -42.180  30.837  1.00  0.00    -0.339 OA
BRANCH  12  13
ATOM     13  C   UNL     1      38.806 -41.551  31.547  1.00  0.00     0.282 C 
ATOM     14  C   UNL     1      39.354 -40.510  32.559  1.00  0.00     0.202 C 
ATOM     15  O   UNL     1      37.890 -40.926  30.660  1.00  0.00    -0.341 OA
ATOM     16  C   UNL     1      39.913 -39.244  31.871  1.00  0.00     0.179 C 
ATOM     17  C   UNL     1      38.507 -39.919  29.873  1.00  0.00     0.178 C 
ATOM     18  C   UNL     1      38.966 -38.741  30.763  1.00  0.00     0.177 C 
BRANCH  14  19
ATOM     19  O   UNL     1      40.338 -41.084  33.375  1.00  0.00    -0.385 OA
ATOM     20  H   UNL     1      39.890 -41.365  34.214  1.00  0.00     0.211 HD
ENDBRANCH  14  19
BRANCH  16  21
ATOM     21  O   UNL     1      41.223 -39.438  31.390  1.00  0.00    -0.387 OA
ATOM     22  H   UNL     1      41.861 -39.225  32.115  1.00  0.00     0.211 HD
ENDBRANCH  16  21
BRANCH  17  23
ATOM     23  C   UNL     1      37.507 -39.455  28.801  1.00  0.00     0.191 C 
BRANCH  23  24
ATOM     24  O   UNL     1      38.160 -39.197  27.586  1.00  0.00    -0.394 OA
ATOM     25  H   UNL     1      39.123 -39.391  27.729  1.00  0.00     0.210 HD
ENDBRANCH  23  24
ENDBRANCH  17  23
BRANCH  18  26
ATOM     26  O   UNL     1      37.844 -38.128  31.347  1.00  0.00    -0.387 OA
ATOM     27  H   UNL     1      37.376 -37.634  30.623  1.00  0.00     0.211 HD
ENDBRANCH  18  26
ENDBRANCH  12  13
ENDBRANCH   7  12
BRANCH   4  28
ATOM     28  O   UNL     1      38.557 -46.902  28.407  1.00  0.00    -0.365 OA
ATOM     29  H   UNL     1      37.910 -47.452  28.924  1.00  0.00     0.214 HD
ENDBRANCH   4  28
BRANCH   8  30
ATOM     30  C   UNL     1      41.961 -43.624  29.151  1.00  0.00     0.249 C 
BRANCH  30  31
ATOM     31  O   UNL     1      43.140 -44.329  29.540  1.00  0.00    -0.461 OA
BRANCH  31  32
ATOM     32  C   UNL     1      44.293 -43.714  30.040  1.00  0.00     0.338 C 
ATOM     33  O   UNL     1      45.408 -43.904  29.481  1.00  0.00    -0.246 OA
BRANCH  32  34
ATOM     34  C   UNL     1      44.201 -42.853  31.238  1.00  0.00     0.060 A 
ATOM     35  C   UNL     1      43.962 -43.410  32.509  1.00  0.00     0.015 A 
ATOM     36  C   UNL     1      44.364 -41.460  31.125  1.00  0.00     0.015 A 
ATOM     37  C   UNL     1      43.883 -42.589  33.638  1.00  0.00     0.001 A 
ATOM     38  C   UNL     1      44.284 -40.643  32.257  1.00  0.00     0.001 A 
ATOM     39  C   UNL     1      44.042 -41.206  33.512  1.00  0.00     0.000 A 
ENDBRANCH  32  34
ENDBRANCH  31  32
ENDBRANCH  30  31
ENDBRANCH   8  30
TORSDOF 12
ENDMDL
MODEL 4
REMARK VINA RESULT:    -4.477      2.579      5.719
REMARK INTER + INTRA:          -8.141
REMARK INTER:                  -7.453
REMARK INTRA:                  -0.688
REMARK UNBOUND:                -1.178
REMARK SMILES C[C@]12C[C@]3(O)O[C@H](O1)[C@@]1(COC(=O)c4ccccc4)[C@@H]3C[C@]12O[C@@H]1O[C@@H](CO)[C@@H](O)[C@H](O)[C@@H]1O
REMARK SMILES IDX 1 1 2 2 3 3 4 4 20 5 21 6 22 7 9 8 7 9 8 10 6 11 23 12 24 13
REMARK SMILES IDX 33 14 25 15 31 16 26 17 29 18 34 19 32 21 27 23 28 24 30 26
REMARK SMILES IDX 5 28 10 30 11 31 12 32 13 33 14 34 15 35 19 36 16 37 18 38
REMARK SMILES IDX 17 39
REMARK H PARENT 34 20 32 22 28 25 30 27 5 29
REMARK Flexibility Score: inf
ROOT
ATOM      1  C   UNL     1      43.762 -42.830  30.487  1.00  0.00     0.046 C 
ATOM      2  C   UNL     1      42.698 -43.895  30.200  1.00  0.00     0.104 C 
ATOM      3  C   UNL     1      43.224 -45.321  30.622  1.00  0.00     0.104 C 
ATOM      4  C   UNL     1      42.007 -46.266  30.356  1.00  0.00     0.175 C 
ATOM      5  C   UNL     1      40.716 -45.669  30.999  1.00  0.00     0.070 C 
ATOM      6  C   UNL     1      41.008 -44.573  32.035  1.00  0.00     0.050 C 
ATOM      7  C   UNL     1      41.276 -43.637  30.848  1.00  0.00     0.115 C 
ATOM      8  C   UNL     1      40.442 -44.577  29.968  1.00  0.00     0.096 C 
ATOM      9  C   UNL     1      41.313 -44.894  28.758  1.00  0.00     0.267 C 
ATOM     10  O   UNL     1      42.422 -44.001  28.817  1.00  0.00    -0.342 OA
ATOM     11  O   UNL     1      41.776 -46.218  28.961  1.00  0.00    -0.320 OA
ENDROOT
BRANCH   7  12
ATOM     12  O   UNL     1      40.810 -42.308  31.090  1.00  0.00    -0.339 OA
BRANCH  12  13
ATOM     13  C   UNL     1      40.197 -42.103  32.358  1.00  0.00     0.282 C 
ATOM     14  C   UNL     1      40.917 -40.978  33.148  1.00  0.00     0.202 C 
ATOM     15  O   UNL     1      38.818 -41.792  32.222  1.00  0.00    -0.341 OA
ATOM     16  C   UNL     1      40.646 -39.572  32.565  1.00  0.00     0.179 C 
ATOM     17  C   UNL     1      38.607 -40.606  31.471  1.00  0.00     0.178 C 
ATOM     18  C   UNL     1      39.153 -39.378  32.234  1.00  0.00     0.177 C 
BRANCH  14  19
ATOM     19  O   UNL     1      42.296 -41.216  33.201  1.00  0.00    -0.385 OA
ATOM     20  H   UNL     1      42.690 -40.818  32.381  1.00  0.00     0.211 HD
ENDBRANCH  14  19
BRANCH  16  21
ATOM     21  O   UNL     1      41.468 -39.292  31.456  1.00  0.00    -0.387 OA
ATOM     22  H   UNL     1      41.650 -38.321  31.433  1.00  0.00     0.211 HD
ENDBRANCH  16  21
BRANCH  17  23
ATOM     23  C   UNL     1      37.102 -40.467  31.189  1.00  0.00     0.191 C 
BRANCH  23  24
ATOM     24  O   UNL     1      36.875 -40.101  29.854  1.00  0.00    -0.394 OA
ATOM     25  H   UNL     1      36.818 -39.110  29.832  1.00  0.00     0.210 HD
ENDBRANCH  23  24
ENDBRANCH  17  23
BRANCH  18  26
ATOM     26  O   UNL     1      38.427 -39.204  33.425  1.00  0.00    -0.387 OA
ATOM     27  H   UNL     1      38.681 -38.316  33.791  1.00  0.00     0.211 HD
ENDBRANCH  18  26
ENDBRANCH  12  13
ENDBRANCH   7  12
BRANCH   4  28
ATOM     28  O   UNL     1      42.271 -47.572  30.791  1.00  0.00    -0.365 OA
ATOM     29  H   UNL     1      42.840 -47.995  30.096  1.00  0.00     0.214 HD
ENDBRANCH   4  28
BRANCH   8  30
ATOM     30  C   UNL     1      38.943 -44.302  29.730  1.00  0.00     0.249 C 
BRANCH  30  31
ATOM     31  O   UNL     1      38.613 -44.488  28.354  1.00  0.00    -0.461 OA
BRANCH  31  32
ATOM     32  C   UNL     1      37.963 -43.531  27.566  1.00  0.00     0.338 C 
ATOM     33  O   UNL     1      37.611 -42.428  28.066  1.00  0.00    -0.246 OA
BRANCH  32  34
ATOM     34  C   UNL     1      37.676 -43.828  26.146  1.00  0.00     0.060 A 
ATOM     35  C   UNL     1      37.401 -42.790  25.235  1.00  0.00     0.015 A 
ATOM     36  C   UNL     1      37.687 -45.156  25.682  1.00  0.00     0.015 A 
ATOM     37  C   UNL     1      37.139 -43.078  23.892  1.00  0.00     0.001 A 
ATOM     38  C   UNL     1      37.424 -45.439  24.338  1.00  0.00     0.001 A 
ATOM     39  C   UNL     1      37.147 -44.402  23.444  1.00  0.00     0.000 A 
ENDBRANCH  32  34
ENDBRANCH  31  32
ENDBRANCH  30  31
ENDBRANCH   8  30
TORSDOF 12
ENDMDL
MODEL 5
REMARK VINA RESULT:    -4.473      2.013      5.833
REMARK INTER + INTRA:          -8.136
REMARK INTER:                  -7.253
REMARK INTRA:                  -0.883
REMARK UNBOUND:                -1.178
REMARK SMILES C[C@]12C[C@]3(O)O[C@H](O1)[C@@]1(COC(=O)c4ccccc4)[C@@H]3C[C@]12O[C@@H]1O[C@@H](CO)[C@@H](O)[C@H](O)[C@@H]1O
REMARK SMILES IDX 1 1 2 2 3 3 4 4 20 5 21 6 22 7 9 8 7 9 8 10 6 11 23 12 24 13
REMARK SMILES IDX 33 14 25 15 31 16 26 17 29 18 34 19 32 21 27 23 28 24 30 26
REMARK SMILES IDX 5 28 10 30 11 31 12 32 13 33 14 34 15 35 19 36 16 37 18 38
REMARK SMILES IDX 17 39
REMARK H PARENT 34 20 32 22 28 25 30 27 5 29
REMARK Flexibility Score: inf
ROOT
ATOM      1  C   UNL     1      44.722 -43.617  30.006  1.00  0.00     0.046 C 
ATOM      2  C   UNL     1      44.220 -42.980  31.306  1.00  0.00     0.104 C 
ATOM      3  C   UNL     1      44.738 -41.494  31.421  1.00  0.00     0.104 C 
ATOM      4  C   UNL     1      44.073 -40.965  32.734  1.00  0.00     0.175 C 
ATOM      5  C   UNL     1      42.544 -41.280  32.725  1.00  0.00     0.070 C 
ATOM      6  C   UNL     1      42.010 -41.639  31.330  1.00  0.00     0.050 C 
ATOM      7  C   UNL     1      42.653 -43.019  31.531  1.00  0.00     0.115 C 
ATOM      8  C   UNL     1      42.625 -42.770  33.044  1.00  0.00     0.096 C 
ATOM      9  C   UNL     1      44.044 -43.032  33.534  1.00  0.00     0.267 C 
ATOM     10  O   UNL     1      44.739 -43.637  32.446  1.00  0.00    -0.342 OA
ATOM     11  O   UNL     1      44.602 -41.753  33.783  1.00  0.00    -0.320 OA
ENDROOT
BRANCH   7  12
ATOM     12  O   UNL     1      41.859 -44.072  30.980  1.00  0.00    -0.339 OA
BRANCH  12  13
ATOM     13  C   UNL     1      40.711 -43.648  30.254  1.00  0.00     0.282 C 
ATOM     14  C   UNL     1      40.792 -44.100  28.771  1.00  0.00     0.202 C 
ATOM     15  O   UNL     1      39.515 -44.139  30.843  1.00  0.00    -0.341 OA
ATOM     16  C   UNL     1      40.587 -45.622  28.599  1.00  0.00     0.179 C 
ATOM     17  C   UNL     1      39.476 -45.557  30.876  1.00  0.00     0.178 C 
ATOM     18  C   UNL     1      39.401 -46.130  29.442  1.00  0.00     0.177 C 
BRANCH  14  19
ATOM     19  O   UNL     1      42.014 -43.715  28.203  1.00  0.00    -0.385 OA
ATOM     20  H   UNL     1      42.040 -42.723  28.220  1.00  0.00     0.211 HD
ENDBRANCH  14  19
BRANCH  16  21
ATOM     21  O   UNL     1      41.765 -46.348  28.865  1.00  0.00    -0.387 OA
ATOM     22  H   UNL     1      42.535 -45.728  28.825  1.00  0.00     0.211 HD
ENDBRANCH  16  21
BRANCH  17  23
ATOM     23  C   UNL     1      38.266 -45.993  31.718  1.00  0.00     0.191 C 
BRANCH  23  24
ATOM     24  O   UNL     1      37.268 -45.007  31.706  1.00  0.00    -0.394 OA
ATOM     25  H   UNL     1      37.394 -44.458  32.524  1.00  0.00     0.210 HD
ENDBRANCH  23  24
ENDBRANCH  17  23
BRANCH  18  26
ATOM     26  O   UNL     1      38.193 -45.733  28.841  1.00  0.00    -0.387 OA
ATOM     27  H   UNL     1      37.946 -46.444  28.193  1.00  0.00     0.211 HD
ENDBRANCH  18  26
ENDBRANCH  12  13
ENDBRANCH   7  12
BRANCH   4  28
ATOM     28  O   UNL     1      44.340 -39.602  32.927  1.00  0.00    -0.365 OA
ATOM     29  H   UNL     1      43.911 -39.117  32.174  1.00  0.00     0.214 HD
ENDBRANCH   4  28
BRANCH   8  30
ATOM     30  C   UNL     1      41.454 -43.291  33.901  1.00  0.00     0.249 C 
BRANCH  30  31
ATOM     31  O   UNL     1      40.498 -42.255  34.125  1.00  0.00    -0.461 OA
BRANCH  31  32
ATOM     32  C   UNL     1      39.167 -42.309  33.697  1.00  0.00     0.338 C 
ATOM     33  O   UNL     1      38.446 -43.304  33.982  1.00  0.00    -0.246 OA
BRANCH  32  34
ATOM     34  C   UNL     1      38.614 -41.198  32.892  1.00  0.00     0.060 A 
ATOM     35  C   UNL     1      37.569 -41.424  31.975  1.00  0.00     0.015 A 
ATOM     36  C   UNL     1      39.118 -39.893  33.043  1.00  0.00     0.015 A 
ATOM     37  C   UNL     1      37.046 -40.367  31.224  1.00  0.00     0.001 A 
ATOM     38  C   UNL     1      38.592 -38.839  32.289  1.00  0.00     0.001 A 
ATOM     39  C   UNL     1      37.559 -39.076  31.378  1.00  0.00     0.000 A 
ENDBRANCH  32  34
ENDBRANCH  31  32
ENDBRANCH  30  31
ENDBRANCH   8  30
TORSDOF 12
ENDMDL
MODEL 6
REMARK VINA RESULT:    -4.461      1.282      2.251
REMARK INTER + INTRA:          -8.116
REMARK INTER:                  -7.752
REMARK INTRA:                  -0.364
REMARK UNBOUND:                -1.178
REMARK SMILES C[C@]12C[C@]3(O)O[C@H](O1)[C@@]1(COC(=O)c4ccccc4)[C@@H]3C[C@]12O[C@@H]1O[C@@H](CO)[C@@H](O)[C@H](O)[C@@H]1O
REMARK SMILES IDX 1 1 2 2 3 3 4 4 20 5 21 6 22 7 9 8 7 9 8 10 6 11 23 12 24 13
REMARK SMILES IDX 33 14 25 15 31 16 26 17 29 18 34 19 32 21 27 23 28 24 30 26
REMARK SMILES IDX 5 28 10 30 11 31 12 32 13 33 14 34 15 35 19 36 16 37 18 38
REMARK SMILES IDX 17 39
REMARK H PARENT 34 20 32 22 28 25 30 27 5 29
REMARK Flexibility Score: inf
ROOT
ATOM      1  C   UNL     1      38.280 -45.872  31.510  1.00  0.00     0.046 C 
ATOM      2  C   UNL     1      39.592 -45.520  30.801  1.00  0.00     0.104 C 
ATOM      3  C   UNL     1      39.576 -46.063  29.320  1.00  0.00     0.104 C 
ATOM      4  C   UNL     1      40.923 -45.548  28.715  1.00  0.00     0.175 C 
ATOM      5  C   UNL     1      41.093 -44.024  29.006  1.00  0.00     0.070 C 
ATOM      6  C   UNL     1      39.783 -43.339  29.426  1.00  0.00     0.050 C 
ATOM      7  C   UNL     1      39.985 -43.985  30.803  1.00  0.00     0.115 C 
ATOM      8  C   UNL     1      41.477 -44.123  30.480  1.00  0.00     0.096 C 
ATOM      9  C   UNL     1      41.826 -45.584  30.740  1.00  0.00     0.267 C 
ATOM     10  O   UNL     1      40.703 -46.151  31.409  1.00  0.00    -0.342 OA
ATOM     11  O   UNL     1      41.948 -46.178  29.459  1.00  0.00    -0.320 OA
ENDROOT
BRANCH   7  12
ATOM     12  O   UNL     1      39.576 -43.126  31.870  1.00  0.00    -0.339 OA
BRANCH  12  13
ATOM     13  C   UNL     1      39.129 -41.835  31.469  1.00  0.00     0.282 C 
ATOM     14  C   UNL     1      37.618 -41.652  31.771  1.00  0.00     0.202 C 
ATOM     15  O   UNL     1      39.877 -40.808  32.104  1.00  0.00    -0.341 OA
ATOM     16  C   UNL     1      37.324 -41.505  33.282  1.00  0.00     0.179 C 
ATOM     17  C   UNL     1      39.763 -40.858  33.519  1.00  0.00     0.178 C 
ATOM     18  C   UNL     1      38.316 -40.538  33.957  1.00  0.00     0.177 C 
BRANCH  14  19
ATOM     19  O   UNL     1      36.875 -42.715  31.240  1.00  0.00    -0.385 OA
ATOM     20  H   UNL     1      36.115 -42.873  31.859  1.00  0.00     0.211 HD
ENDBRANCH  14  19
BRANCH  16  21
ATOM     21  O   UNL     1      37.284 -42.753  33.936  1.00  0.00    -0.387 OA
ATOM     22  H   UNL     1      37.485 -42.615  34.894  1.00  0.00     0.211 HD
ENDBRANCH  16  21
BRANCH  17  23
ATOM     23  C   UNL     1      40.765 -39.863  34.124  1.00  0.00     0.191 C 
BRANCH  23  24
ATOM     24  O   UNL     1      40.699 -38.624  33.468  1.00  0.00    -0.394 OA
ATOM     25  H   UNL     1      39.836 -38.603  32.979  1.00  0.00     0.210 HD
ENDBRANCH  23  24
ENDBRANCH  17  23
BRANCH  18  26
ATOM     26  O   UNL     1      37.998 -39.215  33.599  1.00  0.00    -0.387 OA
ATOM     27  H   UNL     1      37.099 -39.238  33.179  1.00  0.00     0.211 HD
ENDBRANCH  18  26
ENDBRANCH  12  13
ENDBRANCH   7  12
BRANCH   4  28
ATOM     28  O   UNL     1      41.017 -45.850  27.350  1.00  0.00    -0.365 OA
ATOM     29  H   UNL     1      41.363 -46.779  27.286  1.00  0.00     0.214 HD
ENDBRANCH   4  28
BRANCH   8  30
ATOM     30  C   UNL     1      42.481 -43.045  30.939  1.00  0.00     0.249 C 
BRANCH  30  31
ATOM     31  O   UNL     1      43.232 -43.507  32.061  1.00  0.00    -0.461 OA
BRANCH  31  32
ATOM     32  C   UNL     1      44.147 -42.721  32.772  1.00  0.00     0.338 C 
ATOM     33  O   UNL     1      44.773 -43.206  33.754  1.00  0.00    -0.246 OA
BRANCH  32  34
ATOM     34  C   UNL     1      44.363 -41.313  32.374  1.00  0.00     0.060 A 
ATOM     35  C   UNL     1      44.886 -40.995  31.107  1.00  0.00     0.015 A 
ATOM     36  C   UNL     1      44.034 -40.269  33.258  1.00  0.00     0.015 A 
ATOM     37  C   UNL     1      45.080 -39.661  30.736  1.00  0.00     0.001 A 
ATOM     38  C   UNL     1      44.230 -38.936  32.883  1.00  0.00     0.001 A 
ATOM     39  C   UNL     1      44.755 -38.632  31.624  1.00  0.00     0.000 A 
ENDBRANCH  32  34
ENDBRANCH  31  32
ENDBRANCH  30  31
ENDBRANCH   8  30
TORSDOF 12
ENDMDL
MODEL 7
REMARK VINA RESULT:    -4.419      2.906      6.227
REMARK INTER + INTRA:          -8.050
REMARK INTER:                  -7.622
REMARK INTRA:                  -0.429
REMARK UNBOUND:                -1.178
REMARK SMILES C[C@]12C[C@]3(O)O[C@H](O1)[C@@]1(COC(=O)c4ccccc4)[C@@H]3C[C@]12O[C@@H]1O[C@@H](CO)[C@@H](O)[C@H](O)[C@@H]1O
REMARK SMILES IDX 1 1 2 2 3 3 4 4 20 5 21 6 22 7 9 8 7 9 8 10 6 11 23 12 24 13
REMARK SMILES IDX 33 14 25 15 31 16 26 17 29 18 34 19 32 21 27 23 28 24 30 26
REMARK SMILES IDX 5 28 10 30 11 31 12 32 13 33 14 34 15 35 19 36 16 37 18 38
REMARK SMILES IDX 17 39
REMARK H PARENT 34 20 32 22 28 25 30 27 5 29
REMARK Flexibility Score: inf
ROOT
ATOM      1  C   UNL     1      42.714 -43.764  31.770  1.00  0.00     0.046 C 
ATOM      2  C   UNL     1      41.856 -44.307  30.622  1.00  0.00     0.104 C 
ATOM      3  C   UNL     1      42.422 -45.692  30.123  1.00  0.00     0.104 C 
ATOM      4  C   UNL     1      41.399 -46.147  29.032  1.00  0.00     0.175 C 
ATOM      5  C   UNL     1      39.943 -46.030  29.582  1.00  0.00     0.070 C 
ATOM      6  C   UNL     1      39.883 -45.903  31.112  1.00  0.00     0.050 C 
ATOM      7  C   UNL     1      40.307 -44.440  30.924  1.00  0.00     0.115 C 
ATOM      8  C   UNL     1      39.791 -44.515  29.482  1.00  0.00     0.096 C 
ATOM      9  C   UNL     1      40.935 -44.021  28.605  1.00  0.00     0.267 C 
ATOM     10  O   UNL     1      41.905 -43.462  29.487  1.00  0.00    -0.342 OA
ATOM     11  O   UNL     1      41.478 -45.183  28.000  1.00  0.00    -0.320 OA
ENDROOT
BRANCH   7  12
ATOM     12  O   UNL     1      39.663 -43.565  31.853  1.00  0.00    -0.339 OA
BRANCH  12  13
ATOM     13  C   UNL     1      39.572 -42.206  31.441  1.00  0.00     0.282 C 
ATOM     14  C   UNL     1      38.225 -41.578  31.888  1.00  0.00     0.202 C 
ATOM     15  O   UNL     1      40.655 -41.438  31.947  1.00  0.00    -0.341 OA
ATOM     16  C   UNL     1      38.160 -41.330  33.413  1.00  0.00     0.179 C 
ATOM     17  C   UNL     1      40.691 -41.433  33.366  1.00  0.00     0.178 C 
ATOM     18  C   UNL     1      39.460 -40.691  33.936  1.00  0.00     0.177 C 
BRANCH  14  19
ATOM     19  O   UNL     1      37.149 -42.380  31.488  1.00  0.00    -0.385 OA
ATOM     20  H   UNL     1      36.327 -41.832  31.586  1.00  0.00     0.211 HD
ENDBRANCH  14  19
BRANCH  16  21
ATOM     21  O   UNL     1      37.828 -42.501  34.125  1.00  0.00    -0.387 OA
ATOM     22  H   UNL     1      38.082 -42.377  35.073  1.00  0.00     0.211 HD
ENDBRANCH  16  21
BRANCH  17  23
ATOM     23  C   UNL     1      42.003 -40.772  33.818  1.00  0.00     0.191 C 
BRANCH  23  24
ATOM     24  O   UNL     1      42.487 -39.896  32.834  1.00  0.00    -0.394 OA
ATOM     25  H   UNL     1      41.707 -39.619  32.286  1.00  0.00     0.210 HD
ENDBRANCH  23  24
ENDBRANCH  17  23
BRANCH  18  26
ATOM     26  O   UNL     1      39.507 -39.339  33.553  1.00  0.00    -0.387 OA
ATOM     27  H   UNL     1      39.949 -39.307  32.664  1.00  0.00     0.211 HD
ENDBRANCH  18  26
ENDBRANCH  12  13
ENDBRANCH   7  12
BRANCH   4  28
ATOM     28  O   UNL     1      41.695 -47.433  28.560  1.00  0.00    -0.365 OA
ATOM     29  H   UNL     1      40.881 -47.761  28.095  1.00  0.00     0.214 HD
ENDBRANCH   4  28
BRANCH   8  30
ATOM     30  C   UNL     1      38.361 -44.050  29.137  1.00  0.00     0.249 C 
BRANCH  30  31
ATOM     31  O   UNL     1      38.225 -43.856  27.729  1.00  0.00    -0.461 OA
BRANCH  31  32
ATOM     32  C   UNL     1      37.679 -44.802  26.854  1.00  0.00     0.338 C 
ATOM     33  O   UNL     1      37.385 -45.957  27.269  1.00  0.00    -0.246 OA
BRANCH  32  34
ATOM     34  C   UNL     1      37.463 -44.446  25.436  1.00  0.00     0.060 A 
ATOM     35  C   UNL     1      37.273 -43.105  25.051  1.00  0.00     0.015 A 
ATOM     36  C   UNL     1      37.458 -45.446  24.446  1.00  0.00     0.015 A 
ATOM     37  C   UNL     1      37.078 -42.775  23.706  1.00  0.00     0.001 A 
ATOM     38  C   UNL     1      37.262 -45.112  23.102  1.00  0.00     0.001 A 
ATOM     39  C   UNL     1      37.069 -43.778  22.732  1.00  0.00     0.000 A 
ENDBRANCH  32  34
ENDBRANCH  31  32
ENDBRANCH  30  31
ENDBRANCH   8  30
TORSDOF 12
ENDMDL
MODEL 8
REMARK VINA RESULT:    -4.395      1.461      5.243
REMARK INTER + INTRA:          -8.013
REMARK INTER:                  -7.262
REMARK INTRA:                  -0.752
REMARK UNBOUND:                -1.178
REMARK SMILES C[C@]12C[C@]3(O)O[C@H](O1)[C@@]1(COC(=O)c4ccccc4)[C@@H]3C[C@]12O[C@@H]1O[C@@H](CO)[C@@H](O)[C@H](O)[C@@H]1O
REMARK SMILES IDX 1 1 2 2 3 3 4 4 20 5 21 6 22 7 9 8 7 9 8 10 6 11 23 12 24 13
REMARK SMILES IDX 33 14 25 15 31 16 26 17 29 18 34 19 32 21 27 23 28 24 30 26
REMARK SMILES IDX 5 28 10 30 11 31 12 32 13 33 14 34 15 35 19 36 16 37 18 38
REMARK SMILES IDX 17 39
REMARK H PARENT 34 20 32 22 28 25 30 27 5 29
REMARK Flexibility Score: inf
ROOT
ATOM      1  C   UNL     1      36.947 -42.400  30.290  1.00  0.00     0.046 C 
ATOM      2  C   UNL     1      37.818 -41.558  31.229  1.00  0.00     0.104 C 
ATOM      3  C   UNL     1      36.911 -40.669  32.164  1.00  0.00     0.104 C 
ATOM      4  C   UNL     1      37.931 -39.953  33.109  1.00  0.00     0.175 C 
ATOM      5  C   UNL     1      38.923 -40.996  33.714  1.00  0.00     0.070 C 
ATOM      6  C   UNL     1      38.432 -42.445  33.578  1.00  0.00     0.050 C 
ATOM      7  C   UNL     1      38.861 -42.365  32.107  1.00  0.00     0.115 C 
ATOM      8  C   UNL     1      39.797 -41.209  32.481  1.00  0.00     0.096 C 
ATOM      9  C   UNL     1      39.468 -40.077  31.515  1.00  0.00     0.267 C 
ATOM     10  O   UNL     1      38.620 -40.637  30.515  1.00  0.00    -0.342 OA
ATOM     11  O   UNL     1      38.727 -39.136  32.272  1.00  0.00    -0.320 OA
ENDROOT
BRANCH   7  12
ATOM     12  O   UNL     1      39.420 -43.593  31.637  1.00  0.00    -0.339 OA
BRANCH  12  13
ATOM     13  C   UNL     1      40.345 -43.466  30.563  1.00  0.00     0.282 C 
ATOM     14  C   UNL     1      41.565 -44.404  30.765  1.00  0.00     0.202 C 
ATOM     15  O   UNL     1      39.729 -43.738  29.312  1.00  0.00    -0.341 OA
ATOM     16  C   UNL     1      41.213 -45.894  30.551  1.00  0.00     0.179 C 
ATOM     17  C   UNL     1      39.208 -45.057  29.247  1.00  0.00     0.178 C 
ATOM     18  C   UNL     1      40.354 -46.093  29.287  1.00  0.00     0.177 C 
BRANCH  14  19
ATOM     19  O   UNL     1      42.122 -44.223  32.038  1.00  0.00    -0.385 OA
ATOM     20  H   UNL     1      42.871 -44.869  32.120  1.00  0.00     0.211 HD
ENDBRANCH  14  19
BRANCH  16  21
ATOM     21  O   UNL     1      40.610 -46.464  31.689  1.00  0.00    -0.387 OA
ATOM     22  H   UNL     1      41.148 -47.242  31.977  1.00  0.00     0.211 HD
ENDBRANCH  16  21
BRANCH  17  23
ATOM     23  C   UNL     1      38.376 -45.190  27.962  1.00  0.00     0.191 C 
BRANCH  23  24
ATOM     24  O   UNL     1      38.040 -46.531  27.720  1.00  0.00    -0.394 OA
ATOM     25  H   UNL     1      38.891 -47.020  27.576  1.00  0.00     0.210 HD
ENDBRANCH  23  24
ENDBRANCH  17  23
BRANCH  18  26
ATOM     26  O   UNL     1      41.159 -45.948  28.144  1.00  0.00    -0.387 OA
ATOM     27  H   UNL     1      41.917 -45.360  28.398  1.00  0.00     0.211 HD
ENDBRANCH  18  26
ENDBRANCH  12  13
ENDBRANCH   7  12
BRANCH   4  28
ATOM     28  O   UNL     1      37.275 -39.200  34.092  1.00  0.00    -0.365 OA
ATOM     29  H   UNL     1      36.743 -38.510  33.615  1.00  0.00     0.214 HD
ENDBRANCH   4  28
BRANCH   8  30
ATOM     30  C   UNL     1      41.281 -41.477  32.805  1.00  0.00     0.249 C 
BRANCH  30  31
ATOM     31  O   UNL     1      42.124 -40.634  32.021  1.00  0.00    -0.461 OA
BRANCH  31  32
ATOM     32  C   UNL     1      43.495 -40.847  31.835  1.00  0.00     0.338 C 
ATOM     33  O   UNL     1      43.947 -42.020  31.723  1.00  0.00    -0.246 OA
BRANCH  32  34
ATOM     34  C   UNL     1      44.414 -39.690  31.786  1.00  0.00     0.060 A 
ATOM     35  C   UNL     1      45.418 -39.609  30.803  1.00  0.00     0.015 A 
ATOM     36  C   UNL     1      44.287 -38.643  32.718  1.00  0.00     0.015 A 
ATOM     37  C   UNL     1      46.279 -38.507  30.758  1.00  0.00     0.001 A 
ATOM     38  C   UNL     1      45.149 -37.544  32.670  1.00  0.00     0.001 A 
ATOM     39  C   UNL     1      46.146 -37.476  31.693  1.00  0.00     0.000 A 
ENDBRANCH  32  34
ENDBRANCH  31  32
ENDBRANCH  30  31
ENDBRANCH   8  30
TORSDOF 12
ENDMDL
MODEL 9
REMARK VINA RESULT:    -4.358      2.219      6.158
REMARK INTER + INTRA:          -7.956
REMARK INTER:                  -7.399
REMARK INTRA:                  -0.557
REMARK UNBOUND:                -1.178
REMARK SMILES C[C@]12C[C@]3(O)O[C@H](O1)[C@@]1(COC(=O)c4ccccc4)[C@@H]3C[C@]12O[C@@H]1O[C@@H](CO)[C@@H](O)[C@H](O)[C@@H]1O
REMARK SMILES IDX 1 1 2 2 3 3 4 4 20 5 21 6 22 7 9 8 7 9 8 10 6 11 23 12 24 13
REMARK SMILES IDX 33 14 25 15 31 16 26 17 29 18 34 19 32 21 27 23 28 24 30 26
REMARK SMILES IDX 5 28 10 30 11 31 12 32 13 33 14 34 15 35 19 36 16 37 18 38
REMARK SMILES IDX 17 39
REMARK H PARENT 34 20 32 22 28 25 30 27 5 29
REMARK Flexibility Score: inf
ROOT
ATOM      1  C   UNL     1      44.460 -42.267  30.019  1.00  0.00     0.046 C 
ATOM      2  C   UNL     1      44.035 -41.993  31.466  1.00  0.00     0.104 C 
ATOM      3  C   UNL     1      44.421 -40.521  31.880  1.00  0.00     0.104 C 
ATOM      4  C   UNL     1      43.846 -40.373  33.327  1.00  0.00     0.175 C 
ATOM      5  C   UNL     1      42.360 -40.849  33.363  1.00  0.00     0.070 C 
ATOM      6  C   UNL     1      41.723 -40.950  31.968  1.00  0.00     0.050 C 
ATOM      7  C   UNL     1      42.508 -42.257  31.796  1.00  0.00     0.115 C 
ATOM      8  C   UNL     1      42.610 -42.354  33.323  1.00  0.00     0.096 C 
ATOM      9  C   UNL     1      44.089 -42.556  33.629  1.00  0.00     0.267 C 
ATOM     10  O   UNL     1      44.724 -42.823  32.381  1.00  0.00    -0.342 OA
ATOM     11  O   UNL     1      44.548 -41.309  34.122  1.00  0.00    -0.320 OA
ENDROOT
BRANCH   7  12
ATOM     12  O   UNL     1      41.764 -43.246  31.080  1.00  0.00    -0.339 OA
BRANCH  12  13
ATOM     13  C   UNL     1      42.445 -43.834  29.976  1.00  0.00     0.282 C 
ATOM     14  C   UNL     1      42.855 -45.297  30.292  1.00  0.00     0.202 C 
ATOM     15  O   UNL     1      41.651 -43.798  28.799  1.00  0.00    -0.341 OA
ATOM     16  C   UNL     1      41.648 -46.262  30.321  1.00  0.00     0.179 C 
ATOM     17  C   UNL     1      40.432 -44.510  28.953  1.00  0.00     0.178 C 
ATOM     18  C   UNL     1      40.705 -46.021  29.125  1.00  0.00     0.177 C 
BRANCH  14  19
ATOM     19  O   UNL     1      43.550 -45.365  31.507  1.00  0.00    -0.385 OA
ATOM     20  H   UNL     1      43.879 -46.297  31.600  1.00  0.00     0.211 HD
ENDBRANCH  14  19
BRANCH  16  21
ATOM     21  O   UNL     1      40.958 -46.211  31.549  1.00  0.00    -0.387 OA
ATOM     22  H   UNL     1      40.771 -45.265  31.768  1.00  0.00     0.211 HD
ENDBRANCH  16  21
BRANCH  17  23
ATOM     23  C   UNL     1      39.549 -44.236  27.725  1.00  0.00     0.191 C 
BRANCH  23  24
ATOM     24  O   UNL     1      38.859 -45.395  27.337  1.00  0.00    -0.394 OA
ATOM     25  H   UNL     1      38.030 -45.097  26.879  1.00  0.00     0.210 HD
ENDBRANCH  23  24
ENDBRANCH  17  23
BRANCH  18  26
ATOM     26  O   UNL     1      41.294 -46.529  27.954  1.00  0.00    -0.387 OA
ATOM     27  H   UNL     1      40.660 -47.195  27.579  1.00  0.00     0.211 HD
ENDBRANCH  18  26
ENDBRANCH  12  13
ENDBRANCH   7  12
BRANCH   4  28
ATOM     28  O   UNL     1      44.004 -39.066  33.807  1.00  0.00    -0.365 OA
ATOM     29  H   UNL     1      43.257 -38.903  34.442  1.00  0.00     0.214 HD
ENDBRANCH   4  28
BRANCH   8  30
ATOM     30  C   UNL     1      41.584 -43.181  34.125  1.00  0.00     0.249 C 
BRANCH  30  31
ATOM     31  O   UNL     1      40.672 -43.836  33.244  1.00  0.00    -0.461 OA
BRANCH  31  32
ATOM     32  C   UNL     1      39.279 -43.743  33.346  1.00  0.00     0.338 C 
ATOM     33  O   UNL     1      38.607 -44.716  33.788  1.00  0.00    -0.246 OA
BRANCH  32  34
ATOM     34  C   UNL     1      38.597 -42.504  32.916  1.00  0.00     0.060 A 
ATOM     35  C   UNL     1      38.327 -41.473  33.838  1.00  0.00     0.015 A 
ATOM     36  C   UNL     1      38.217 -42.332  31.572  1.00  0.00     0.015 A 
ATOM     37  C   UNL     1      37.689 -40.301  33.422  1.00  0.00     0.001 A 
ATOM     38  C   UNL     1      37.578 -41.158  31.161  1.00  0.00     0.001 A 
ATOM     39  C   UNL     1      37.312 -40.144  32.085  1.00  0.00     0.000 A 
ENDBRANCH  32  34
ENDBRANCH  31  32
ENDBRANCH  30  31
ENDBRANCH   8  30
TORSDOF 12
ENDMDL
