MODEL 1
REMARK VINA RESULT:    -4.551      0.000      0.000
REMARK INTER + INTRA:          -9.089
REMARK INTER:                  -6.280
REMARK INTRA:                  -2.808
REMARK UNBOUND:                -2.808
REMARK SMILES CC[C@@H](CC[C@@H](C)[C@H]1CC[C@@H]2[C@H]3CC=C4C[C@@H](O)CC[C@]4(C)[C@H]3CC[C@]21C)C(C)C
REMARK SMILES IDX 5 1 4 2 3 3 2 4 1 5 28 6 29 7 30 8 6 9 7 10 8 11 9 12 26 13
REMARK SMILES IDX 10 14 11 15 25 16 27 17 12 18 24 19 23 20 13 21 21 22 14 23
REMARK SMILES IDX 15 24 20 25 22 26 16 27 19 28 17 29 18 30
REMARK H PARENT 18 31
REMARK Flexibility Score: inf
ROOT
ATOM      1  C   UNL     1      16.148   2.338  34.491  1.00  0.00     0.004 C 
ENDROOT
BRANCH   1   2
ATOM      2  C   UNL     1      17.219   3.402  34.851  1.00  0.00     0.004 C 
BRANCH   2   3
ATOM      3  C   UNL     1      16.679   4.571  35.754  1.00  0.00    -0.009 C 
BRANCH   3   4
ATOM      4  C   UNL     1      16.821   5.932  35.000  1.00  0.00     0.000 C 
ATOM      5  C   UNL     1      17.494   7.020  35.847  1.00  0.00     0.004 C 
ENDBRANCH   3   4
BRANCH   3   6
ATOM      6  C   UNL     1      17.414   4.589  37.150  1.00  0.00    -0.014 C 
ATOM      7  C   UNL     1      16.494   4.215  38.326  1.00  0.00     0.007 C 
ATOM      8  C   UNL     1      18.639   3.649  37.177  1.00  0.00     0.007 C 
ENDBRANCH   3   6
ENDBRANCH   2   3
ENDBRANCH   1   2
BRANCH   1   9
ATOM      9  C   UNL     1      14.838   2.969  33.945  1.00  0.00    -0.011 C 
ATOM     10  C   UNL     1      14.793   2.949  32.403  1.00  0.00     0.008 C 
BRANCH   9  11
ATOM     11  C   UNL     1      13.522   2.509  34.687  1.00  0.00    -0.002 C 
ATOM     12  C   UNL     1      13.849   1.498  35.822  1.00  0.00     0.005 C 
ATOM     13  C   UNL     1      12.570   3.545  35.385  1.00  0.00    -0.026 C 
ATOM     14  C   UNL     1      13.511   2.178  37.157  1.00  0.00     0.005 C 
ATOM     15  C   UNL     1      13.145   3.616  36.799  1.00  0.00    -0.001 C 
ATOM     16  C   UNL     1      12.506   4.986  34.835  1.00  0.00     0.007 C 
ATOM     17  C   UNL     1      11.129   2.928  35.343  1.00  0.00     0.012 C 
ATOM     18  C   UNL     1      12.254   4.382  37.805  1.00  0.00     0.000 C 
ATOM     19  C   UNL     1      11.639   5.907  35.723  1.00  0.00     0.005 C 
ATOM     20  C   UNL     1      11.871   5.820  37.281  1.00  0.00     0.003 C 
ATOM     21  C   UNL     1      12.931   4.383  39.201  1.00  0.00     0.031 C 
ATOM     22  C   UNL     1      12.699   7.009  37.927  1.00  0.00    -0.008 C 
ATOM     23  C   UNL     1      12.694   5.618  40.012  1.00  0.00    -0.027 C 
ATOM     24  C   UNL     1      12.676   6.844  39.453  1.00  0.00    -0.065 C 
ATOM     25  C   UNL     1      12.024   8.374  37.547  1.00  0.00     0.014 C 
ATOM     26  C   UNL     1      14.161   7.016  37.433  1.00  0.00     0.016 C 
ATOM     27  C   UNL     1      12.868   8.036  40.372  1.00  0.00     0.063 C 
ATOM     28  C   UNL     1      12.417   9.557  38.446  1.00  0.00     0.033 C 
ATOM     29  C   UNL     1      12.077   9.256  39.904  1.00  0.00     0.118 C 
BRANCH  29  30
ATOM     30  O   UNL     1      12.398  10.373  40.696  1.00  0.00    -0.393 OA
ATOM     31  H   UNL     1      12.304  11.169  40.112  1.00  0.00     0.210 HD
ENDBRANCH  29  30
ENDBRANCH   9  11
ENDBRANCH   1   9
TORSDOF 7
ENDMDL
MODEL 2
REMARK VINA RESULT:    -4.409     13.482     16.196
REMARK INTER + INTRA:          -8.893
REMARK INTER:                  -6.019
REMARK INTRA:                  -2.874
REMARK UNBOUND:                -2.808
REMARK SMILES CC[C@@H](CC[C@@H](C)[C@H]1CC[C@@H]2[C@H]3CC=C4C[C@@H](O)CC[C@]4(C)[C@H]3CC[C@]21C)C(C)C
REMARK SMILES IDX 5 1 4 2 3 3 2 4 1 5 28 6 29 7 30 8 6 9 7 10 8 11 9 12 26 13
REMARK SMILES IDX 10 14 11 15 25 16 27 17 12 18 24 19 23 20 13 21 21 22 14 23
REMARK SMILES IDX 15 24 20 25 22 26 16 27 19 28 17 29 18 30
REMARK H PARENT 18 31
REMARK Flexibility Score: inf
ROOT
ATOM      1  C   UNL     1      12.783   0.978  22.185  1.00  0.00     0.004 C 
ENDROOT
BRANCH   1   2
ATOM      2  C   UNL     1      14.335   0.990  22.180  1.00  0.00     0.004 C 
BRANCH   2   3
ATOM      3  C   UNL     1      14.985  -0.355  22.670  1.00  0.00    -0.009 C 
BRANCH   3   4
ATOM      4  C   UNL     1      16.081  -0.055  23.742  1.00  0.00     0.000 C 
ATOM      5  C   UNL     1      15.504   0.507  25.048  1.00  0.00     0.004 C 
ENDBRANCH   3   4
BRANCH   3   6
ATOM      6  C   UNL     1      15.560  -1.178  21.452  1.00  0.00    -0.014 C 
ATOM      7  C   UNL     1      16.836  -1.966  21.799  1.00  0.00     0.007 C 
ATOM      8  C   UNL     1      14.524  -2.167  20.875  1.00  0.00     0.007 C 
ENDBRANCH   3   6
ENDBRANCH   2   3
ENDBRANCH   1   2
BRANCH   1   9
ATOM      9  C   UNL     1      12.191   0.716  23.597  1.00  0.00    -0.011 C 
ATOM     10  C   UNL     1      11.836   2.031  24.322  1.00  0.00     0.008 C 
BRANCH   9  11
ATOM     11  C   UNL     1      11.106  -0.430  23.659  1.00  0.00    -0.002 C 
ATOM     12  C   UNL     1      10.761  -0.944  22.233  1.00  0.00     0.005 C 
ATOM     13  C   UNL     1      11.352  -1.749  24.473  1.00  0.00    -0.026 C 
ATOM     14  C   UNL     1      11.252  -2.396  22.135  1.00  0.00     0.005 C 
ATOM     15  C   UNL     1      12.010  -2.656  23.435  1.00  0.00    -0.001 C 
ATOM     16  C   UNL     1      12.280  -1.701  25.706  1.00  0.00     0.007 C 
ATOM     17  C   UNL     1       9.941  -2.264  24.927  1.00  0.00     0.012 C 
ATOM     18  C   UNL     1      12.147  -4.130  23.881  1.00  0.00     0.000 C 
ATOM     19  C   UNL     1      12.527  -3.107  26.299  1.00  0.00     0.005 C 
ATOM     20  C   UNL     1      12.867  -4.262  25.279  1.00  0.00     0.003 C 
ATOM     21  C   UNL     1      12.818  -4.955  22.751  1.00  0.00     0.031 C 
ATOM     22  C   UNL     1      14.390  -4.699  25.208  1.00  0.00    -0.008 C 
ATOM     23  C   UNL     1      13.700  -6.067  23.225  1.00  0.00    -0.027 C 
ATOM     24  C   UNL     1      14.499  -5.933  24.301  1.00  0.00    -0.065 C 
ATOM     25  C   UNL     1      14.886  -5.075  26.649  1.00  0.00     0.014 C 
ATOM     26  C   UNL     1      15.280  -3.570  24.647  1.00  0.00     0.016 C 
ATOM     27  C   UNL     1      15.649  -6.912  24.446  1.00  0.00     0.063 C 
ATOM     28  C   UNL     1      16.160  -5.935  26.686  1.00  0.00     0.033 C 
ATOM     29  C   UNL     1      15.949  -7.233  25.909  1.00  0.00     0.118 C 
BRANCH  29  30
ATOM     30  O   UNL     1      17.108  -8.024  26.002  1.00  0.00    -0.393 OA
ATOM     31  H   UNL     1      16.810  -8.930  26.276  1.00  0.00     0.210 HD
ENDBRANCH  29  30
ENDBRANCH   9  11
ENDBRANCH   1   9
TORSDOF 7
ENDMDL
MODEL 3
REMARK VINA RESULT:    -4.406      2.238      4.333
REMARK INTER + INTRA:          -8.888
REMARK INTER:                  -6.133
REMARK INTRA:                  -2.755
REMARK UNBOUND:                -2.808
REMARK SMILES CC[C@@H](CC[C@@H](C)[C@H]1CC[C@@H]2[C@H]3CC=C4C[C@@H](O)CC[C@]4(C)[C@H]3CC[C@]21C)C(C)C
REMARK SMILES IDX 5 1 4 2 3 3 2 4 1 5 28 6 29 7 30 8 6 9 7 10 8 11 9 12 26 13
REMARK SMILES IDX 10 14 11 15 25 16 27 17 12 18 24 19 23 20 13 21 21 22 14 23
REMARK SMILES IDX 15 24 20 25 22 26 16 27 19 28 17 29 18 30
REMARK H PARENT 18 31
REMARK Flexibility Score: inf
ROOT
ATOM      1  C   UNL     1      20.238   3.988  35.829  1.00  0.00     0.004 C 
ENDROOT
BRANCH   1   2
ATOM      2  C   UNL     1      20.100   5.261  34.953  1.00  0.00     0.004 C 
BRANCH   2   3
ATOM      3  C   UNL     1      18.627   5.560  34.491  1.00  0.00    -0.009 C 
BRANCH   3   4
ATOM      4  C   UNL     1      18.507   5.369  32.945  1.00  0.00     0.000 C 
ATOM      5  C   UNL     1      17.435   4.346  32.547  1.00  0.00     0.004 C 
ENDBRANCH   3   4
BRANCH   3   6
ATOM      6  C   UNL     1      18.176   7.003  34.944  1.00  0.00    -0.014 C 
ATOM      7  C   UNL     1      17.359   7.003  36.249  1.00  0.00     0.007 C 
ATOM      8  C   UNL     1      19.375   7.959  35.125  1.00  0.00     0.007 C 
ENDBRANCH   3   6
ENDBRANCH   2   3
ENDBRANCH   1   2
BRANCH   1   9
ATOM      9  C   UNL     1      19.139   2.932  35.529  1.00  0.00    -0.011 C 
ATOM     10  C   UNL     1      19.632   1.858  34.537  1.00  0.00     0.008 C 
BRANCH   9  11
ATOM     11  C   UNL     1      18.362   2.405  36.799  1.00  0.00    -0.002 C 
ATOM     12  C   UNL     1      18.740   3.228  38.062  1.00  0.00     0.005 C 
ATOM     13  C   UNL     1      16.793   2.369  36.843  1.00  0.00    -0.026 C 
ATOM     14  C   UNL     1      17.487   4.000  38.501  1.00  0.00     0.005 C 
ATOM     15  C   UNL     1      16.450   3.745  37.410  1.00  0.00    -0.001 C 
ATOM     16  C   UNL     1      16.014   2.202  35.520  1.00  0.00     0.007 C 
ATOM     17  C   UNL     1      16.399   1.196  37.808  1.00  0.00     0.012 C 
ATOM     18  C   UNL     1      14.964   3.913  37.805  1.00  0.00     0.000 C 
ATOM     19  C   UNL     1      14.488   2.335  35.726  1.00  0.00     0.005 C 
ATOM     20  C   UNL     1      13.991   3.535  36.623  1.00  0.00     0.003 C 
ATOM     21  C   UNL     1      14.736   5.339  38.373  1.00  0.00     0.031 C 
ATOM     22  C   UNL     1      13.371   4.771  35.845  1.00  0.00    -0.008 C 
ATOM     23  C   UNL     1      13.394   5.928  38.069  1.00  0.00    -0.027 C 
ATOM     24  C   UNL     1      12.794   5.752  36.875  1.00  0.00    -0.065 C 
ATOM     25  C   UNL     1      12.214   4.266  34.912  1.00  0.00     0.014 C 
ATOM     26  C   UNL     1      14.431   5.492  34.988  1.00  0.00     0.016 C 
ATOM     27  C   UNL     1      11.682   6.715  36.502  1.00  0.00     0.063 C 
ATOM     28  C   UNL     1      11.234   5.358  34.455  1.00  0.00     0.033 C 
ATOM     29  C   UNL     1      10.597   6.042  35.663  1.00  0.00     0.118 C 
BRANCH  29  30
ATOM     30  O   UNL     1       9.667   6.999  35.218  1.00  0.00    -0.393 OA
ATOM     31  H   UNL     1       8.920   6.990  35.869  1.00  0.00     0.210 HD
ENDBRANCH  29  30
ENDBRANCH   9  11
ENDBRANCH   1   9
TORSDOF 7
ENDMDL
MODEL 4
REMARK VINA RESULT:    -4.404      9.331     13.268
REMARK INTER + INTRA:          -8.886
REMARK INTER:                  -6.646
REMARK INTRA:                  -2.241
REMARK UNBOUND:                -2.808
REMARK SMILES CC[C@@H](CC[C@@H](C)[C@H]1CC[C@@H]2[C@H]3CC=C4C[C@@H](O)CC[C@]4(C)[C@H]3CC[C@]21C)C(C)C
REMARK SMILES IDX 5 1 4 2 3 3 2 4 1 5 28 6 29 7 30 8 6 9 7 10 8 11 9 12 26 13
REMARK SMILES IDX 10 14 11 15 25 16 27 17 12 18 24 19 23 20 13 21 21 22 14 23
REMARK SMILES IDX 15 24 20 25 22 26 16 27 19 28 17 29 18 30
REMARK H PARENT 18 31
REMARK Flexibility Score: inf
ROOT
ATOM      1  C   UNL     1       9.516   3.023  27.901  1.00  0.00     0.004 C 
ENDROOT
BRANCH   1   2
ATOM      2  C   UNL     1       8.860   4.410  27.666  1.00  0.00     0.004 C 
BRANCH   2   3
ATOM      3  C   UNL     1       7.920   4.466  26.407  1.00  0.00    -0.009 C 
BRANCH   3   4
ATOM      4  C   UNL     1       8.775   4.369  25.103  1.00  0.00     0.000 C 
ATOM      5  C   UNL     1       8.180   3.410  24.064  1.00  0.00     0.004 C 
ENDBRANCH   3   4
BRANCH   3   6
ATOM      6  C   UNL     1       7.024   5.765  26.430  1.00  0.00    -0.014 C 
ATOM      7  C   UNL     1       6.506   6.121  27.835  1.00  0.00     0.007 C 
ATOM      8  C   UNL     1       7.764   6.995  25.862  1.00  0.00     0.007 C 
ENDBRANCH   3   6
ENDBRANCH   2   3
ENDBRANCH   1   2
BRANCH   1   9
ATOM      9  C   UNL     1      10.914   3.128  28.570  1.00  0.00    -0.011 C 
ATOM     10  C   UNL     1      10.878   2.672  30.044  1.00  0.00     0.008 C 
BRANCH   9  11
ATOM     11  C   UNL     1      12.110   2.576  27.698  1.00  0.00    -0.002 C 
ATOM     12  C   UNL     1      11.607   1.524  26.670  1.00  0.00     0.005 C 
ATOM     13  C   UNL     1      13.002   3.535  26.832  1.00  0.00    -0.026 C 
ATOM     14  C   UNL     1      11.799   2.120  25.268  1.00  0.00     0.005 C 
ATOM     15  C   UNL     1      12.257   3.558  25.498  1.00  0.00    -0.001 C 
ATOM     16  C   UNL     1      13.185   4.998  27.289  1.00  0.00     0.007 C 
ATOM     17  C   UNL     1      14.415   2.860  26.730  1.00  0.00     0.012 C 
ATOM     18  C   UNL     1      13.042   4.234  24.349  1.00  0.00     0.000 C 
ATOM     19  C   UNL     1      13.967   5.835  26.251  1.00  0.00     0.005 C 
ATOM     20  C   UNL     1      13.538   5.679  24.740  1.00  0.00     0.003 C 
ATOM     21  C   UNL     1      12.197   4.192  23.048  1.00  0.00     0.031 C 
ATOM     22  C   UNL     1      12.679   6.868  24.137  1.00  0.00    -0.008 C 
ATOM     23  C   UNL     1      12.374   5.374  22.147  1.00  0.00    -0.027 C 
ATOM     24  C   UNL     1      12.504   6.624  22.631  1.00  0.00    -0.065 C 
ATOM     25  C   UNL     1      13.444   8.220  24.354  1.00  0.00     0.014 C 
ATOM     26  C   UNL     1      11.291   6.961  24.805  1.00  0.00     0.016 C 
ATOM     27  C   UNL     1      12.241   7.775  21.677  1.00  0.00     0.063 C 
ATOM     28  C   UNL     1      12.984   9.372  23.446  1.00  0.00     0.033 C 
ATOM     29  C   UNL     1      13.127   8.983  21.977  1.00  0.00     0.118 C 
BRANCH  29  30
ATOM     30  O   UNL     1      12.749  10.071  21.169  1.00  0.00    -0.393 OA
ATOM     31  H   UNL     1      12.001   9.753  20.601  1.00  0.00     0.210 HD
ENDBRANCH  29  30
ENDBRANCH   9  11
ENDBRANCH   1   9
TORSDOF 7
ENDMDL
MODEL 5
REMARK VINA RESULT:    -4.322      4.056      6.035
REMARK INTER + INTRA:          -8.773
REMARK INTER:                  -5.576
REMARK INTRA:                  -3.197
REMARK UNBOUND:                -2.808
REMARK SMILES CC[C@@H](CC[C@@H](C)[C@H]1CC[C@@H]2[C@H]3CC=C4C[C@@H](O)CC[C@]4(C)[C@H]3CC[C@]21C)C(C)C
REMARK SMILES IDX 5 1 4 2 3 3 2 4 1 5 28 6 29 7 30 8 6 9 7 10 8 11 9 12 26 13
REMARK SMILES IDX 10 14 11 15 25 16 27 17 12 18 24 19 23 20 13 21 21 22 14 23
REMARK SMILES IDX 15 24 20 25 22 26 16 27 19 28 17 29 18 30
REMARK H PARENT 18 31
REMARK Flexibility Score: inf
ROOT
ATOM      1  C   UNL     1      17.118  -0.040  36.652  1.00  0.00     0.004 C 
ENDROOT
BRANCH   1   2
ATOM      2  C   UNL     1      18.357   0.504  37.412  1.00  0.00     0.004 C 
BRANCH   2   3
ATOM      3  C   UNL     1      19.017   1.763  36.738  1.00  0.00    -0.009 C 
BRANCH   3   4
ATOM      4  C   UNL     1      20.459   1.409  36.252  1.00  0.00     0.000 C 
ATOM      5  C   UNL     1      20.604   1.443  34.726  1.00  0.00     0.004 C 
ENDBRANCH   3   4
BRANCH   3   6
ATOM      6  C   UNL     1      19.011   2.997  37.722  1.00  0.00    -0.014 C 
ATOM      7  C   UNL     1      17.998   2.853  38.873  1.00  0.00     0.007 C 
ATOM      8  C   UNL     1      20.404   3.261  38.335  1.00  0.00     0.007 C 
ENDBRANCH   3   6
ENDBRANCH   2   3
ENDBRANCH   1   2
BRANCH   1   9
ATOM      9  C   UNL     1      17.077   0.420  35.169  1.00  0.00    -0.011 C 
ATOM     10  C   UNL     1      17.266  -0.764  34.198  1.00  0.00     0.008 C 
BRANCH   9  11
ATOM     11  C   UNL     1      15.913   1.429  34.820  1.00  0.00    -0.002 C 
ATOM     12  C   UNL     1      15.147   1.857  36.103  1.00  0.00     0.005 C 
ATOM     13  C   UNL     1      16.200   2.791  34.094  1.00  0.00    -0.026 C 
ATOM     14  C   UNL     1      15.414   3.354  36.321  1.00  0.00     0.005 C 
ATOM     15  C   UNL     1      16.448   3.740  35.266  1.00  0.00    -0.001 C 
ATOM     16  C   UNL     1      17.417   2.890  33.149  1.00  0.00     0.007 C 
ATOM     17  C   UNL     1      14.905   3.148  33.284  1.00  0.00     0.012 C 
ATOM     18  C   UNL     1      16.515   5.233  34.866  1.00  0.00     0.000 C 
ATOM     19  C   UNL     1      17.636   4.332  32.637  1.00  0.00     0.005 C 
ATOM     20  C   UNL     1      17.553   5.489  33.707  1.00  0.00     0.003 C 
ATOM     21  C   UNL     1      16.761   6.098  36.130  1.00  0.00     0.031 C 
ATOM     22  C   UNL     1      18.940   6.102  34.174  1.00  0.00    -0.008 C 
ATOM     23  C   UNL     1      17.592   7.321  35.901  1.00  0.00    -0.027 C 
ATOM     24  C   UNL     1      18.656   7.314  35.074  1.00  0.00    -0.065 C 
ATOM     25  C   UNL     1      19.745   6.576  32.913  1.00  0.00     0.014 C 
ATOM     26  C   UNL     1      19.783   5.071  34.953  1.00  0.00     0.016 C 
ATOM     27  C   UNL     1      19.674   8.427  35.233  1.00  0.00     0.063 C 
ATOM     28  C   UNL     1      20.869   7.583  33.209  1.00  0.00     0.033 C 
ATOM     29  C   UNL     1      20.305   8.824  33.898  1.00  0.00     0.118 C 
BRANCH  29  30
ATOM     30  O   UNL     1      21.342   9.749  34.111  1.00  0.00    -0.393 OA
ATOM     31  H   UNL     1      22.147   9.378  33.665  1.00  0.00     0.210 HD
ENDBRANCH  29  30
ENDBRANCH   9  11
ENDBRANCH   1   9
TORSDOF 7
ENDMDL
MODEL 6
REMARK VINA RESULT:    -4.313      2.644      6.056
REMARK INTER + INTRA:          -8.761
REMARK INTER:                  -5.603
REMARK INTRA:                  -3.158
REMARK UNBOUND:                -2.808
REMARK SMILES CC[C@@H](CC[C@@H](C)[C@H]1CC[C@@H]2[C@H]3CC=C4C[C@@H](O)CC[C@]4(C)[C@H]3CC[C@]21C)C(C)C
REMARK SMILES IDX 5 1 4 2 3 3 2 4 1 5 28 6 29 7 30 8 6 9 7 10 8 11 9 12 26 13
REMARK SMILES IDX 10 14 11 15 25 16 27 17 12 18 24 19 23 20 13 21 21 22 14 23
REMARK SMILES IDX 15 24 20 25 22 26 16 27 19 28 17 29 18 30
REMARK H PARENT 18 31
REMARK Flexibility Score: inf
ROOT
ATOM      1  C   UNL     1       8.973   4.942  36.945  1.00  0.00     0.004 C 
ENDROOT
BRANCH   1   2
ATOM      2  C   UNL     1       9.414   4.599  35.497  1.00  0.00     0.004 C 
BRANCH   2   3
ATOM      3  C   UNL     1      10.918   4.943  35.190  1.00  0.00    -0.009 C 
BRANCH   3   4
ATOM      4  C   UNL     1      10.994   6.062  34.102  1.00  0.00     0.000 C 
ATOM      5  C   UNL     1      11.753   7.308  34.574  1.00  0.00     0.004 C 
ENDBRANCH   3   4
BRANCH   3   6
ATOM      6  C   UNL     1      11.716   3.650  34.765  1.00  0.00    -0.014 C 
ATOM      7  C   UNL     1      11.062   2.344  35.251  1.00  0.00     0.007 C 
ATOM      8  C   UNL     1      11.904   3.556  33.236  1.00  0.00     0.007 C 
ENDBRANCH   3   6
ENDBRANCH   2   3
ENDBRANCH   1   2
BRANCH   1   9
ATOM      9  C   UNL     1       9.882   6.011  37.611  1.00  0.00    -0.011 C 
ATOM     10  C   UNL     1       9.139   7.348  37.813  1.00  0.00     0.008 C 
BRANCH   9  11
ATOM     11  C   UNL     1      10.729   5.490  38.838  1.00  0.00    -0.002 C 
ATOM     12  C   UNL     1      10.575   3.952  39.005  1.00  0.00     0.005 C 
ATOM     13  C   UNL     1      12.281   5.713  38.916  1.00  0.00    -0.026 C 
ATOM     14  C   UNL     1      11.942   3.318  38.709  1.00  0.00     0.005 C 
ATOM     15  C   UNL     1      12.825   4.465  38.223  1.00  0.00    -0.001 C 
ATOM     16  C   UNL     1      12.894   6.942  38.211  1.00  0.00     0.007 C 
ATOM     17  C   UNL     1      12.648   5.773  40.440  1.00  0.00     0.012 C 
ATOM     18  C   UNL     1      14.354   4.279  38.368  1.00  0.00     0.000 C 
ATOM     19  C   UNL     1      14.439   6.928  38.263  1.00  0.00     0.005 C 
ATOM     20  C   UNL     1      15.151   5.563  37.919  1.00  0.00     0.003 C 
ATOM     21  C   UNL     1      14.790   2.982  37.635  1.00  0.00     0.031 C 
ATOM     22  C   UNL     1      15.814   5.470  36.480  1.00  0.00    -0.008 C 
ATOM     23  C   UNL     1      16.147   3.043  37.008  1.00  0.00    -0.027 C 
ATOM     24  C   UNL     1      16.597   4.153  36.390  1.00  0.00    -0.065 C 
ATOM     25  C   UNL     1      16.805   6.672  36.289  1.00  0.00     0.014 C 
ATOM     26  C   UNL     1      14.751   5.513  35.362  1.00  0.00     0.016 C 
ATOM     27  C   UNL     1      17.759   3.997  35.427  1.00  0.00     0.063 C 
ATOM     28  C   UNL     1      17.842   6.479  35.171  1.00  0.00     0.033 C 
ATOM     29  C   UNL     1      18.672   5.222  35.424  1.00  0.00     0.118 C 
BRANCH  29  30
ATOM     30  O   UNL     1      19.645   5.097  34.417  1.00  0.00    -0.393 OA
ATOM     31  H   UNL     1      19.208   5.363  33.568  1.00  0.00     0.210 HD
ENDBRANCH  29  30
ENDBRANCH   9  11
ENDBRANCH   1   9
TORSDOF 7
ENDMDL
MODEL 7
REMARK VINA RESULT:    -4.289     11.334     15.188
REMARK INTER + INTRA:          -8.726
REMARK INTER:                  -5.527
REMARK INTRA:                  -3.199
REMARK UNBOUND:                -2.808
REMARK SMILES CC[C@@H](CC[C@@H](C)[C@H]1CC[C@@H]2[C@H]3CC=C4C[C@@H](O)CC[C@]4(C)[C@H]3CC[C@]21C)C(C)C
REMARK SMILES IDX 5 1 4 2 3 3 2 4 1 5 28 6 29 7 30 8 6 9 7 10 8 11 9 12 26 13
REMARK SMILES IDX 10 14 11 15 25 16 27 17 12 18 24 19 23 20 13 21 21 22 14 23
REMARK SMILES IDX 15 24 20 25 22 26 16 27 19 28 17 29 18 30
REMARK H PARENT 18 31
REMARK Flexibility Score: inf
ROOT
ATOM      1  C   UNL     1      17.283  -5.673  30.495  1.00  0.00     0.004 C 
ENDROOT
BRANCH   1   2
ATOM      2  C   UNL     1      16.894  -4.171  30.543  1.00  0.00     0.004 C 
BRANCH   2   3
ATOM      3  C   UNL     1      16.709  -3.515  29.126  1.00  0.00    -0.009 C 
BRANCH   3   4
ATOM      4  C   UNL     1      17.709  -2.326  28.958  1.00  0.00     0.000 C 
ATOM      5  C   UNL     1      18.889  -2.661  28.036  1.00  0.00     0.004 C 
ENDBRANCH   3   4
BRANCH   3   6
ATOM      6  C   UNL     1      15.212  -3.063  28.906  1.00  0.00    -0.014 C 
ATOM      7  C   UNL     1      14.220  -3.766  29.850  1.00  0.00     0.007 C 
ATOM      8  C   UNL     1      15.033  -1.538  29.065  1.00  0.00     0.007 C 
ENDBRANCH   3   6
ENDBRANCH   2   3
ENDBRANCH   1   2
BRANCH   1   9
ATOM      9  C   UNL     1      18.075  -6.045  29.212  1.00  0.00    -0.011 C 
ATOM     10  C   UNL     1      19.551  -6.368  29.525  1.00  0.00     0.008 C 
BRANCH   9  11
ATOM     11  C   UNL     1      17.333  -7.045  28.241  1.00  0.00    -0.002 C 
ATOM     12  C   UNL     1      15.905  -7.369  28.764  1.00  0.00     0.005 C 
ATOM     13  C   UNL     1      17.096  -6.695  26.729  1.00  0.00    -0.026 C 
ATOM     14  C   UNL     1      14.902  -6.777  27.764  1.00  0.00     0.005 C 
ATOM     15  C   UNL     1      15.744  -5.986  26.765  1.00  0.00    -0.001 C 
ATOM     16  C   UNL     1      18.095  -5.758  26.016  1.00  0.00     0.007 C 
ATOM     17  C   UNL     1      17.050  -8.059  25.956  1.00  0.00     0.012 C 
ATOM     18  C   UNL     1      15.123  -5.739  25.370  1.00  0.00     0.000 C 
ATOM     19  C   UNL     1      17.635  -5.403  24.583  1.00  0.00     0.005 C 
ATOM     20  C   UNL     1      16.121  -4.994  24.402  1.00  0.00     0.003 C 
ATOM     21  C   UNL     1      13.755  -5.024  25.530  1.00  0.00     0.031 C 
ATOM     22  C   UNL     1      15.840  -3.444  24.213  1.00  0.00    -0.008 C 
ATOM     23  C   UNL     1      13.420  -4.059  24.436  1.00  0.00    -0.027 C 
ATOM     24  C   UNL     1      14.352  -3.258  23.883  1.00  0.00    -0.065 C 
ATOM     25  C   UNL     1      16.702  -2.905  23.018  1.00  0.00     0.014 C 
ATOM     26  C   UNL     1      16.187  -2.645  25.486  1.00  0.00     0.016 C 
ATOM     27  C   UNL     1      13.865  -2.040  23.121  1.00  0.00     0.063 C 
ATOM     28  C   UNL     1      16.217  -1.573  22.424  1.00  0.00     0.033 C 
ATOM     29  C   UNL     1      14.774  -1.700  21.940  1.00  0.00     0.118 C 
BRANCH  29  30
ATOM     30  O   UNL     1      14.371  -0.486  21.355  1.00  0.00    -0.393 OA
ATOM     31  H   UNL     1      15.167   0.107  21.361  1.00  0.00     0.210 HD
ENDBRANCH  29  30
ENDBRANCH   9  11
ENDBRANCH   1   9
TORSDOF 7
ENDMDL
MODEL 8
REMARK VINA RESULT:    -4.274     10.655     13.125
REMARK INTER + INTRA:          -8.706
REMARK INTER:                  -5.711
REMARK INTRA:                  -2.995
REMARK UNBOUND:                -2.808
REMARK SMILES CC[C@@H](CC[C@@H](C)[C@H]1CC[C@@H]2[C@H]3CC=C4C[C@@H](O)CC[C@]4(C)[C@H]3CC[C@]21C)C(C)C
REMARK SMILES IDX 5 1 4 2 3 3 2 4 1 5 28 6 29 7 30 8 6 9 7 10 8 11 9 12 26 13
REMARK SMILES IDX 10 14 11 15 25 16 27 17 12 18 24 19 23 20 13 21 21 22 14 23
REMARK SMILES IDX 15 24 20 25 22 26 16 27 19 28 17 29 18 30
REMARK H PARENT 18 31
REMARK Flexibility Score: inf
ROOT
ATOM      1  C   UNL     1      10.040   0.543  26.333  1.00  0.00     0.004 C 
ENDROOT
BRANCH   1   2
ATOM      2  C   UNL     1      11.448   0.456  25.686  1.00  0.00     0.004 C 
BRANCH   2   3
ATOM      3  C   UNL     1      11.865   1.746  24.889  1.00  0.00    -0.009 C 
BRANCH   3   4
ATOM      4  C   UNL     1      12.093   1.389  23.385  1.00  0.00     0.000 C 
ATOM      5  C   UNL     1      11.598  -0.016  23.019  1.00  0.00     0.004 C 
ENDBRANCH   3   4
BRANCH   3   6
ATOM      6  C   UNL     1      13.137   2.421  25.535  1.00  0.00    -0.014 C 
ATOM      7  C   UNL     1      13.357   2.021  27.005  1.00  0.00     0.007 C 
ATOM      8  C   UNL     1      14.429   2.104  24.750  1.00  0.00     0.007 C 
ENDBRANCH   3   6
ENDBRANCH   2   3
ENDBRANCH   1   2
BRANCH   1   9
ATOM      9  C   UNL     1       9.079   1.479  25.550  1.00  0.00    -0.011 C 
ATOM     10  C   UNL     1       7.952   0.688  24.854  1.00  0.00     0.008 C 
BRANCH   9  11
ATOM     11  C   UNL     1       8.639   2.780  26.329  1.00  0.00    -0.002 C 
ATOM     12  C   UNL     1       9.344   2.862  27.712  1.00  0.00     0.005 C 
ATOM     13  C   UNL     1       8.857   4.212  25.723  1.00  0.00    -0.026 C 
ATOM     14  C   UNL     1      10.292   4.069  27.675  1.00  0.00     0.005 C 
ATOM     15  C   UNL     1      10.250   4.575  26.235  1.00  0.00    -0.001 C 
ATOM     16  C   UNL     1       8.868   4.377  24.187  1.00  0.00     0.007 C 
ATOM     17  C   UNL     1       7.730   5.126  26.318  1.00  0.00     0.012 C 
ATOM     18  C   UNL     1      10.642   6.053  26.001  1.00  0.00     0.000 C 
ATOM     19  C   UNL     1       9.239   5.816  23.762  1.00  0.00     0.005 C 
ATOM     20  C   UNL     1      10.470   6.480  24.493  1.00  0.00     0.003 C 
ATOM     21  C   UNL     1      12.065   6.307  26.567  1.00  0.00     0.031 C 
ATOM     22  C   UNL     1      11.818   6.545  23.658  1.00  0.00    -0.008 C 
ATOM     23  C   UNL     1      12.875   7.306  25.801  1.00  0.00    -0.027 C 
ATOM     24  C   UNL     1      12.842   7.367  24.455  1.00  0.00    -0.065 C 
ATOM     25  C   UNL     1      11.543   7.258  22.288  1.00  0.00     0.014 C 
ATOM     26  C   UNL     1      12.388   5.137  23.388  1.00  0.00     0.016 C 
ATOM     27  C   UNL     1      13.986   8.080  23.759  1.00  0.00     0.063 C 
ATOM     28  C   UNL     1      12.796   7.801  21.582  1.00  0.00     0.033 C 
ATOM     29  C   UNL     1      13.530   8.790  22.485  1.00  0.00     0.118 C 
BRANCH  29  30
ATOM     30  O   UNL     1      14.641   9.311  21.797  1.00  0.00    -0.393 OA
ATOM     31  H   UNL     1      15.446   8.929  22.233  1.00  0.00     0.210 HD
ENDBRANCH  29  30
ENDBRANCH   9  11
ENDBRANCH   1   9
TORSDOF 7
ENDMDL
MODEL 9
REMARK VINA RESULT:    -4.248      1.398      4.429
REMARK INTER + INTRA:          -8.671
REMARK INTER:                  -5.559
REMARK INTRA:                  -3.112
REMARK UNBOUND:                -2.808
REMARK SMILES CC[C@@H](CC[C@@H](C)[C@H]1CC[C@@H]2[C@H]3CC=C4C[C@@H](O)CC[C@]4(C)[C@H]3CC[C@]21C)C(C)C
REMARK SMILES IDX 5 1 4 2 3 3 2 4 1 5 28 6 29 7 30 8 6 9 7 10 8 11 9 12 26 13
REMARK SMILES IDX 10 14 11 15 25 16 27 17 12 18 24 19 23 20 13 21 21 22 14 23
REMARK SMILES IDX 15 24 20 25 22 26 16 27 19 28 17 29 18 30
REMARK H PARENT 18 31
REMARK Flexibility Score: inf
ROOT
ATOM      1  C   UNL     1      14.018   0.915  35.152  1.00  0.00     0.004 C 
ENDROOT
BRANCH   1   2
ATOM      2  C   UNL     1      12.547   0.986  35.640  1.00  0.00     0.004 C 
BRANCH   2   3
ATOM      3  C   UNL     1      12.274   2.135  36.678  1.00  0.00    -0.009 C 
BRANCH   3   4
ATOM      4  C   UNL     1      11.725   1.528  38.009  1.00  0.00     0.000 C 
ATOM      5  C   UNL     1      12.678   1.723  39.195  1.00  0.00     0.004 C 
ENDBRANCH   3   4
BRANCH   3   6
ATOM      6  C   UNL     1      11.296   3.218  36.075  1.00  0.00    -0.014 C 
ATOM      7  C   UNL     1      10.903   2.936  34.614  1.00  0.00     0.007 C 
ATOM      8  C   UNL     1      10.002   3.362  36.904  1.00  0.00     0.007 C 
ENDBRANCH   3   6
ENDBRANCH   2   3
ENDBRANCH   1   2
BRANCH   1   9
ATOM      9  C   UNL     1      14.999   1.662  36.096  1.00  0.00    -0.011 C 
ATOM     10  C   UNL     1      15.974   0.691  36.793  1.00  0.00     0.008 C 
BRANCH   9  11
ATOM     11  C   UNL     1      15.635   2.974  35.489  1.00  0.00    -0.002 C 
ATOM     12  C   UNL     1      14.931   3.367  34.160  1.00  0.00     0.005 C 
ATOM     13  C   UNL     1      15.669   4.320  36.297  1.00  0.00    -0.026 C 
ATOM     14  C   UNL     1      14.197   4.694  34.403  1.00  0.00     0.005 C 
ATOM     15  C   UNL     1      14.347   4.974  35.897  1.00  0.00    -0.001 C 
ATOM     16  C   UNL     1      15.712   4.261  37.839  1.00  0.00     0.007 C 
ATOM     17  C   UNL     1      16.922   5.115  35.789  1.00  0.00     0.012 C 
ATOM     18  C   UNL     1      14.210   6.446  36.349  1.00  0.00     0.000 C 
ATOM     19  C   UNL     1      15.593   5.665  38.475  1.00  0.00     0.005 C 
ATOM     20  C   UNL     1      14.476   6.618  37.894  1.00  0.00     0.003 C 
ATOM     21  C   UNL     1      12.840   7.007  35.884  1.00  0.00     0.031 C 
ATOM     22  C   UNL     1      13.173   6.781  38.784  1.00  0.00    -0.008 C 
ATOM     23  C   UNL     1      12.221   8.002  36.813  1.00  0.00    -0.027 C 
ATOM     24  C   UNL     1      12.286   7.863  38.152  1.00  0.00    -0.065 C 
ATOM     25  C   UNL     1      13.587   7.235  40.228  1.00  0.00     0.014 C 
ATOM     26  C   UNL     1      12.381   5.460  38.879  1.00  0.00     0.016 C 
ATOM     27  C   UNL     1      11.289   8.644  38.987  1.00  0.00     0.063 C 
ATOM     28  C   UNL     1      12.454   7.866  41.053  1.00  0.00     0.033 C 
ATOM     29  C   UNL     1      11.879   9.081  40.327  1.00  0.00     0.118 C 
BRANCH  29  30
ATOM     30  O   UNL     1      10.882   9.670  41.125  1.00  0.00    -0.393 OA
ATOM     31  H   UNL     1      10.016   9.480  40.679  1.00  0.00     0.210 HD
ENDBRANCH  29  30
ENDBRANCH   9  11
ENDBRANCH   1   9
TORSDOF 7
ENDMDL
