MODEL 1
REMARK VINA RESULT:    -4.906      0.000      0.000
REMARK INTER + INTRA:          -5.772
REMARK INTER:                  -5.336
REMARK INTRA:                  -0.435
REMARK UNBOUND:                -0.435
REMARK SMILES CC1=CCC[C@]2(C)CC[C@@H](C(C)(C)O)C[C@@H]12
REMARK SMILES IDX 11 1 12 2 13 3 10 4 1 5 2 6 3 7 16 8 4 9 6 10 15 11 5 12
REMARK SMILES IDX 7 13 8 14 9 15 14 16
REMARK H PARENT 14 17
REMARK Flexibility Score: inf
ROOT
ATOM      1  C   UNL     1      40.290 -38.657   0.086  1.00  0.00     0.062 C 
ATOM      2  C   UNL     1      40.175 -37.420  -0.830  1.00  0.00     0.042 C 
ATOM      3  C   UNL     1      41.334 -38.343   1.191  1.00  0.00     0.042 C 
ENDROOT
BRANCH   1   4
ATOM      4  C   UNL     1      40.665 -39.913  -0.798  1.00  0.00     0.021 C 
ATOM      5  C   UNL     1      38.825 -40.655  -4.874  1.00  0.00     0.039 C 
ATOM      6  C   UNL     1      40.310 -40.814  -4.643  1.00  0.00    -0.074 C 
ATOM      7  C   UNL     1      41.088 -41.261  -5.653  1.00  0.00    -0.028 C 
ATOM      8  C   UNL     1      40.929 -40.622  -3.260  1.00  0.00     0.021 C 
ATOM      9  C   UNL     1      42.603 -41.317  -5.579  1.00  0.00     0.028 C 
ATOM     10  C   UNL     1      42.342 -39.976  -3.378  1.00  0.00    -0.026 C 
ATOM     11  C   UNL     1      40.045 -39.884  -2.229  1.00  0.00     0.015 C 
ATOM     12  C   UNL     1      43.205 -40.974  -4.198  1.00  0.00     0.011 C 
ATOM     13  C   UNL     1      42.301 -38.605  -4.112  1.00  0.00     0.012 C 
ATOM     14  C   UNL     1      42.993 -39.754  -1.968  1.00  0.00     0.008 C 
ATOM     15  C   UNL     1      42.176 -40.313  -0.796  1.00  0.00     0.007 C 
ENDBRANCH   1   4
BRANCH   1  16
ATOM     16  O   UNL     1      39.015 -38.840   0.663  1.00  0.00    -0.390 OA
ATOM     17  H   UNL     1      38.382 -38.196   0.251  1.00  0.00     0.211 HD
ENDBRANCH   1  16
TORSDOF 2
ENDMDL
MODEL 2
REMARK VINA RESULT:    -4.831      3.568      5.934
REMARK INTER + INTRA:          -5.690
REMARK INTER:                  -5.255
REMARK INTRA:                  -0.435
REMARK UNBOUND:                -0.435
REMARK SMILES CC1=CCC[C@]2(C)CC[C@@H](C(C)(C)O)C[C@@H]12
REMARK SMILES IDX 11 1 12 2 13 3 10 4 1 5 2 6 3 7 16 8 4 9 6 10 15 11 5 12
REMARK SMILES IDX 7 13 8 14 9 15 14 16
REMARK H PARENT 14 17
REMARK Flexibility Score: inf
ROOT
ATOM      1  C   UNL     1      37.233 -38.484  -7.944  1.00  0.00     0.062 C 
ATOM      2  C   UNL     1      38.504 -37.698  -8.327  1.00  0.00     0.042 C 
ATOM      3  C   UNL     1      36.052 -37.480  -7.861  1.00  0.00     0.042 C 
ENDROOT
BRANCH   1   4
ATOM      4  C   UNL     1      37.500 -39.258  -6.592  1.00  0.00     0.021 C 
ATOM      5  C   UNL     1      41.395 -41.419  -5.754  1.00  0.00     0.039 C 
ATOM      6  C   UNL     1      40.749 -40.535  -4.712  1.00  0.00    -0.074 C 
ATOM      7  C   UNL     1      41.305 -40.452  -3.484  1.00  0.00    -0.028 C 
ATOM      8  C   UNL     1      39.409 -39.850  -4.966  1.00  0.00     0.021 C 
ATOM      9  C   UNL     1      40.830 -39.486  -2.415  1.00  0.00     0.028 C 
ATOM     10  C   UNL     1      39.374 -38.446  -4.289  1.00  0.00    -0.026 C 
ATOM     11  C   UNL     1      38.961 -39.783  -6.445  1.00  0.00     0.015 C 
ATOM     12  C   UNL     1      39.547 -38.699  -2.766  1.00  0.00     0.011 C 
ATOM     13  C   UNL     1      40.520 -37.523  -4.791  1.00  0.00     0.012 C 
ATOM     14  C   UNL     1      38.011 -37.715  -4.548  1.00  0.00     0.008 C 
ATOM     15  C   UNL     1      36.971 -38.557  -5.298  1.00  0.00     0.007 C 
ENDBRANCH   1   4
BRANCH   1  16
ATOM     16  O   UNL     1      37.011 -39.406  -8.989  1.00  0.00    -0.390 OA
ATOM     17  H   UNL     1      37.512 -40.240  -8.793  1.00  0.00     0.211 HD
ENDBRANCH   1  16
TORSDOF 2
ENDMDL
MODEL 3
REMARK VINA RESULT:    -4.701      2.613      4.893
REMARK INTER + INTRA:          -5.549
REMARK INTER:                  -5.185
REMARK INTRA:                  -0.363
REMARK UNBOUND:                -0.435
REMARK SMILES CC1=CCC[C@]2(C)CC[C@@H](C(C)(C)O)C[C@@H]12
REMARK SMILES IDX 11 1 12 2 13 3 10 4 1 5 2 6 3 7 16 8 4 9 6 10 15 11 5 12
REMARK SMILES IDX 7 13 8 14 9 15 14 16
REMARK H PARENT 14 17
REMARK Flexibility Score: inf
ROOT
ATOM      1  C   UNL     1      37.988 -38.716  -6.682  1.00  0.00     0.062 C 
ATOM      2  C   UNL     1      37.875 -39.607  -7.937  1.00  0.00     0.042 C 
ATOM      3  C   UNL     1      38.845 -37.475  -7.049  1.00  0.00     0.042 C 
ENDROOT
BRANCH   1   4
ATOM      4  C   UNL     1      38.593 -39.573  -5.500  1.00  0.00     0.021 C 
ATOM      5  C   UNL     1      42.666 -41.544  -5.762  1.00  0.00     0.039 C 
ATOM      6  C   UNL     1      42.240 -40.785  -4.527  1.00  0.00    -0.074 C 
ATOM      7  C   UNL     1      43.061 -40.762  -3.454  1.00  0.00    -0.028 C 
ATOM      8  C   UNL     1      40.849 -40.168  -4.408  1.00  0.00     0.021 C 
ATOM      9  C   UNL     1      42.804 -39.914  -2.223  1.00  0.00     0.028 C 
ATOM     10  C   UNL     1      40.910 -38.826  -3.618  1.00  0.00    -0.026 C 
ATOM     11  C   UNL     1      40.070 -40.016  -5.735  1.00  0.00     0.015 C 
ATOM     12  C   UNL     1      41.441 -39.184  -2.202  1.00  0.00     0.011 C 
ATOM     13  C   UNL     1      41.869 -37.797  -4.282  1.00  0.00     0.012 C 
ATOM     14  C   UNL     1      39.494 -38.163  -3.496  1.00  0.00     0.008 C 
ATOM     15  C   UNL     1      38.347 -39.009  -4.063  1.00  0.00     0.007 C 
ENDBRANCH   1   4
BRANCH   1  16
ATOM     16  O   UNL     1      36.672 -38.318  -6.362  1.00  0.00    -0.390 OA
ATOM     17  H   UNL     1      36.373 -38.816  -5.558  1.00  0.00     0.211 HD
ENDBRANCH   1  16
TORSDOF 2
ENDMDL
MODEL 4
REMARK VINA RESULT:    -4.644      2.802      4.373
REMARK INTER + INTRA:          -5.486
REMARK INTER:                  -5.108
REMARK INTRA:                  -0.378
REMARK UNBOUND:                -0.435
REMARK SMILES CC1=CCC[C@]2(C)CC[C@@H](C(C)(C)O)C[C@@H]12
REMARK SMILES IDX 11 1 12 2 13 3 10 4 1 5 2 6 3 7 16 8 4 9 6 10 15 11 5 12
REMARK SMILES IDX 7 13 8 14 9 15 14 16
REMARK H PARENT 14 17
REMARK Flexibility Score: inf
ROOT
ATOM      1  C   UNL     1      37.062 -37.555  -4.183  1.00  0.00     0.062 C 
ATOM      2  C   UNL     1      37.077 -36.034  -3.923  1.00  0.00     0.042 C 
ATOM      3  C   UNL     1      37.012 -38.278  -2.810  1.00  0.00     0.042 C 
ENDROOT
BRANCH   1   4
ATOM      4  C   UNL     1      38.327 -37.937  -5.051  1.00  0.00     0.021 C 
ATOM      5  C   UNL     1      42.557 -37.616  -3.454  1.00  0.00     0.039 C 
ATOM      6  C   UNL     1      42.099 -38.834  -4.222  1.00  0.00    -0.074 C 
ATOM      7  C   UNL     1      42.993 -39.808  -4.503  1.00  0.00    -0.028 C 
ATOM      8  C   UNL     1      40.694 -38.925  -4.812  1.00  0.00     0.021 C 
ATOM      9  C   UNL     1      42.612 -41.134  -5.134  1.00  0.00     0.028 C 
ATOM     10  C   UNL     1      40.162 -40.388  -4.738  1.00  0.00    -0.026 C 
ATOM     11  C   UNL     1      39.668 -37.913  -4.253  1.00  0.00     0.015 C 
ATOM     12  C   UNL     1      41.139 -41.245  -5.590  1.00  0.00     0.011 C 
ATOM     13  C   UNL     1      40.138 -40.930  -3.281  1.00  0.00     0.012 C 
ATOM     14  C   UNL     1      38.712 -40.505  -5.325  1.00  0.00     0.008 C 
ATOM     15  C   UNL     1      38.173 -39.210  -5.946  1.00  0.00     0.007 C 
ENDBRANCH   1   4
BRANCH   1  16
ATOM     16  O   UNL     1      35.883 -37.819  -4.912  1.00  0.00    -0.390 OA
ATOM     17  H   UNL     1      35.126 -37.903  -4.277  1.00  0.00     0.211 HD
ENDBRANCH   1  16
TORSDOF 2
ENDMDL
MODEL 5
REMARK VINA RESULT:    -4.600      2.629      4.315
REMARK INTER + INTRA:          -5.438
REMARK INTER:                  -5.132
REMARK INTRA:                  -0.307
REMARK UNBOUND:                -0.435
REMARK SMILES CC1=CCC[C@]2(C)CC[C@@H](C(C)(C)O)C[C@@H]12
REMARK SMILES IDX 11 1 12 2 13 3 10 4 1 5 2 6 3 7 16 8 4 9 6 10 15 11 5 12
REMARK SMILES IDX 7 13 8 14 9 15 14 16
REMARK H PARENT 14 17
REMARK Flexibility Score: inf
ROOT
ATOM      1  C   UNL     1      36.473 -38.373  -3.685  1.00  0.00     0.062 C 
ATOM      2  C   UNL     1      36.999 -37.656  -2.423  1.00  0.00     0.042 C 
ATOM      3  C   UNL     1      35.752 -39.672  -3.235  1.00  0.00     0.042 C 
ENDROOT
BRANCH   1   4
ATOM      4  C   UNL     1      37.685 -38.632  -4.667  1.00  0.00     0.021 C 
ATOM      5  C   UNL     1      41.865 -37.093  -3.829  1.00  0.00     0.039 C 
ATOM      6  C   UNL     1      41.631 -38.507  -4.308  1.00  0.00    -0.074 C 
ATOM      7  C   UNL     1      42.696 -39.299  -4.564  1.00  0.00    -0.028 C 
ATOM      8  C   UNL     1      40.232 -39.015  -4.647  1.00  0.00     0.021 C 
ATOM      9  C   UNL     1      42.578 -40.773  -4.903  1.00  0.00     0.028 C 
ATOM     10  C   UNL     1      40.083 -40.515  -4.253  1.00  0.00    -0.026 C 
ATOM     11  C   UNL     1      39.062 -38.162  -4.105  1.00  0.00     0.015 C 
ATOM     12  C   UNL     1      41.135 -41.288  -5.098  1.00  0.00     0.011 C 
ATOM     13  C   UNL     1      40.359 -40.756  -2.742  1.00  0.00     0.012 C 
ATOM     14  C   UNL     1      38.647 -41.057  -4.578  1.00  0.00     0.008 C 
ATOM     15  C   UNL     1      37.742 -40.057  -5.308  1.00  0.00     0.007 C 
ENDBRANCH   1   4
BRANCH   1  16
ATOM     16  O   UNL     1      35.550 -37.490  -4.284  1.00  0.00    -0.390 OA
ATOM     17  H   UNL     1      36.018 -36.961  -4.980  1.00  0.00     0.211 HD
ENDBRANCH   1  16
TORSDOF 2
ENDMDL
MODEL 6
REMARK VINA RESULT:    -4.441      1.755      3.045
REMARK INTER + INTRA:          -5.266
REMARK INTER:                  -4.950
REMARK INTRA:                  -0.315
REMARK UNBOUND:                -0.435
REMARK SMILES CC1=CCC[C@]2(C)CC[C@@H](C(C)(C)O)C[C@@H]12
REMARK SMILES IDX 11 1 12 2 13 3 10 4 1 5 2 6 3 7 16 8 4 9 6 10 15 11 5 12
REMARK SMILES IDX 7 13 8 14 9 15 14 16
REMARK H PARENT 14 17
REMARK Flexibility Score: inf
ROOT
ATOM      1  C   UNL     1      42.616 -37.643  -0.553  1.00  0.00     0.062 C 
ATOM      2  C   UNL     1      43.798 -36.674  -0.337  1.00  0.00     0.042 C 
ATOM      3  C   UNL     1      42.986 -39.004   0.095  1.00  0.00     0.042 C 
ENDROOT
BRANCH   1   4
ATOM      4  C   UNL     1      42.315 -37.743  -2.101  1.00  0.00     0.021 C 
ATOM      5  C   UNL     1      43.573 -41.311  -4.598  1.00  0.00     0.039 C 
ATOM      6  C   UNL     1      42.191 -40.715  -4.724  1.00  0.00    -0.074 C 
ATOM      7  C   UNL     1      41.344 -41.208  -5.654  1.00  0.00    -0.028 C 
ATOM      8  C   UNL     1      41.779 -39.478  -3.929  1.00  0.00     0.021 C 
ATOM      9  C   UNL     1      39.891 -40.788  -5.768  1.00  0.00     0.028 C 
ATOM     10  C   UNL     1      40.279 -39.568  -3.515  1.00  0.00    -0.026 C 
ATOM     11  C   UNL     1      42.684 -39.124  -2.727  1.00  0.00     0.015 C 
ATOM     12  C   UNL     1      39.470 -39.626  -4.841  1.00  0.00     0.011 C 
ATOM     13  C   UNL     1      39.977 -40.839  -2.671  1.00  0.00     0.012 C 
ATOM     14  C   UNL     1      39.834 -38.314  -2.683  1.00  0.00     0.008 C 
ATOM     15  C   UNL     1      40.909 -37.228  -2.550  1.00  0.00     0.007 C 
ENDBRANCH   1   4
BRANCH   1  16
ATOM     16  O   UNL     1      41.512 -37.073   0.115  1.00  0.00    -0.390 OA
ATOM     17  H   UNL     1      41.599 -36.085   0.093  1.00  0.00     0.211 HD
ENDBRANCH   1  16
TORSDOF 2
ENDMDL
MODEL 7
REMARK VINA RESULT:    -4.323      1.881      3.462
REMARK INTER + INTRA:          -5.137
REMARK INTER:                  -4.757
REMARK INTRA:                  -0.380
REMARK UNBOUND:                -0.435
REMARK SMILES CC1=CCC[C@]2(C)CC[C@@H](C(C)(C)O)C[C@@H]12
REMARK SMILES IDX 11 1 12 2 13 3 10 4 1 5 2 6 3 7 16 8 4 9 6 10 15 11 5 12
REMARK SMILES IDX 7 13 8 14 9 15 14 16
REMARK H PARENT 14 17
REMARK Flexibility Score: inf
ROOT
ATOM      1  C   UNL     1      42.042 -39.864  -1.099  1.00  0.00     0.062 C 
ATOM      2  C   UNL     1      42.667 -38.613  -0.447  1.00  0.00     0.042 C 
ATOM      3  C   UNL     1      43.052 -40.421  -2.138  1.00  0.00     0.042 C 
ENDROOT
BRANCH   1   4
ATOM      4  C   UNL     1      40.646 -39.468  -1.726  1.00  0.00     0.021 C 
ATOM      5  C   UNL     1      40.288 -36.801  -5.374  1.00  0.00     0.039 C 
ATOM      6  C   UNL     1      39.475 -38.069  -5.247  1.00  0.00    -0.074 C 
ATOM      7  C   UNL     1      38.570 -38.369  -6.204  1.00  0.00    -0.028 C 
ATOM      8  C   UNL     1      39.548 -38.942  -3.997  1.00  0.00     0.021 C 
ATOM      9  C   UNL     1      37.811 -39.681  -6.255  1.00  0.00     0.028 C 
ATOM     10  C   UNL     1      39.417 -40.449  -4.372  1.00  0.00    -0.026 C 
ATOM     11  C   UNL     1      40.759 -38.685  -3.071  1.00  0.00     0.015 C 
ATOM     12  C   UNL     1      38.021 -40.608  -5.036  1.00  0.00     0.011 C 
ATOM     13  C   UNL     1      40.518 -40.902  -5.374  1.00  0.00     0.012 C 
ATOM     14  C   UNL     1      39.504 -41.369  -3.105  1.00  0.00     0.008 C 
ATOM     15  C   UNL     1      39.579 -40.610  -1.774  1.00  0.00     0.007 C 
ENDBRANCH   1   4
BRANCH   1  16
ATOM     16  O   UNL     1      41.853 -40.798  -0.059  1.00  0.00    -0.390 OA
ATOM     17  H   UNL     1      40.889 -41.031  -0.008  1.00  0.00     0.211 HD
ENDBRANCH   1  16
TORSDOF 2
ENDMDL
MODEL 8
REMARK VINA RESULT:    -4.303      2.098      4.653
REMARK INTER + INTRA:          -5.115
REMARK INTER:                  -4.728
REMARK INTRA:                  -0.387
REMARK UNBOUND:                -0.435
REMARK SMILES CC1=CCC[C@]2(C)CC[C@@H](C(C)(C)O)C[C@@H]12
REMARK SMILES IDX 11 1 12 2 13 3 10 4 1 5 2 6 3 7 16 8 4 9 6 10 15 11 5 12
REMARK SMILES IDX 7 13 8 14 9 15 14 16
REMARK H PARENT 14 17
REMARK Flexibility Score: inf
ROOT
ATOM      1  C   UNL     1      38.818 -40.424  -4.204  1.00  0.00     0.062 C 
ATOM      2  C   UNL     1      40.055 -41.106  -4.824  1.00  0.00     0.042 C 
ATOM      3  C   UNL     1      38.382 -39.269  -5.144  1.00  0.00     0.042 C 
ENDROOT
BRANCH   1   4
ATOM      4  C   UNL     1      39.179 -39.944  -2.741  1.00  0.00     0.021 C 
ATOM      5  C   UNL     1      40.680 -42.792   0.450  1.00  0.00     0.039 C 
ATOM      6  C   UNL     1      41.337 -41.449   0.225  1.00  0.00    -0.074 C 
ATOM      7  C   UNL     1      42.339 -41.062   1.044  1.00  0.00    -0.028 C 
ATOM      8  C   UNL     1      40.801 -40.461  -0.808  1.00  0.00     0.021 C 
ATOM      9  C   UNL     1      43.164 -39.809   0.821  1.00  0.00     0.028 C 
ATOM     10  C   UNL     1      41.972 -39.679  -1.476  1.00  0.00    -0.026 C 
ATOM     11  C   UNL     1      39.834 -41.052  -1.859  1.00  0.00     0.015 C 
ATOM     12  C   UNL     1      42.678 -38.901  -0.331  1.00  0.00     0.011 C 
ATOM     13  C   UNL     1      42.996 -40.628  -2.162  1.00  0.00     0.012 C 
ATOM     14  C   UNL     1      41.448 -38.667  -2.554  1.00  0.00     0.008 C 
ATOM     15  C   UNL     1      39.920 -38.571  -2.645  1.00  0.00     0.007 C 
ENDBRANCH   1   4
BRANCH   1  16
ATOM     16  O   UNL     1      37.809 -41.410  -4.150  1.00  0.00    -0.390 OA
ATOM     17  H   UNL     1      37.104 -41.113  -3.519  1.00  0.00     0.211 HD
ENDBRANCH   1  16
TORSDOF 2
ENDMDL
MODEL 9
REMARK VINA RESULT:    -4.223      2.531      3.957
REMARK INTER + INTRA:          -5.028
REMARK INTER:                  -4.664
REMARK INTRA:                  -0.364
REMARK UNBOUND:                -0.435
REMARK SMILES CC1=CCC[C@]2(C)CC[C@@H](C(C)(C)O)C[C@@H]12
REMARK SMILES IDX 11 1 12 2 13 3 10 4 1 5 2 6 3 7 16 8 4 9 6 10 15 11 5 12
REMARK SMILES IDX 7 13 8 14 9 15 14 16
REMARK H PARENT 14 17
REMARK Flexibility Score: inf
ROOT
ATOM      1  C   UNL     1      42.728 -35.979  -2.567  1.00  0.00     0.062 C 
ATOM      2  C   UNL     1      42.476 -36.780  -1.272  1.00  0.00     0.042 C 
ATOM      3  C   UNL     1      42.222 -34.529  -2.341  1.00  0.00     0.042 C 
ENDROOT
BRANCH   1   4
ATOM      4  C   UNL     1      42.014 -36.715  -3.770  1.00  0.00     0.021 C 
ATOM      5  C   UNL     1      43.071 -40.947  -5.001  1.00  0.00     0.039 C 
ATOM      6  C   UNL     1      41.632 -40.502  -4.879  1.00  0.00    -0.074 C 
ATOM      7  C   UNL     1      40.647 -41.362  -5.220  1.00  0.00    -0.028 C 
ATOM      8  C   UNL     1      41.269 -39.064  -4.521  1.00  0.00     0.021 C 
ATOM      9  C   UNL     1      39.174 -41.076  -4.997  1.00  0.00     0.028 C 
ATOM     10  C   UNL     1      39.987 -39.027  -3.635  1.00  0.00    -0.026 C 
ATOM     11  C   UNL     1      42.410 -38.217  -3.912  1.00  0.00     0.015 C 
ATOM     12  C   UNL     1      38.852 -39.651  -4.493  1.00  0.00     0.011 C 
ATOM     13  C   UNL     1      40.155 -39.851  -2.326  1.00  0.00     0.012 C 
ATOM     14  C   UNL     1      39.601 -37.559  -3.240  1.00  0.00     0.008 C 
ATOM     15  C   UNL     1      40.473 -36.477  -3.889  1.00  0.00     0.007 C 
ENDBRANCH   1   4
BRANCH   1  16
ATOM     16  O   UNL     1      44.125 -35.978  -2.765  1.00  0.00    -0.390 OA
ATOM     17  H   UNL     1      44.310 -35.912  -3.738  1.00  0.00     0.211 HD
ENDBRANCH   1  16
TORSDOF 2
ENDMDL
