MODEL 1
REMARK VINA RESULT:    -4.869      0.000      0.000
REMARK INTER + INTRA:          -7.265
REMARK INTER:                  -6.577
REMARK INTRA:                  -0.688
REMARK UNBOUND:                -0.688
REMARK SMILES CC(=O)CCC=C(C)CCC=C(C)C
REMARK SMILES IDX 7 1 6 2 8 3 9 4 10 5 11 6 13 7 12 8 14 9 5 10 4 11 2 12 3 13
REMARK SMILES IDX 1 14
REMARK H PARENT
REMARK Flexibility Score: inf
ROOT
ATOM      1  C   UNL     1      11.188  45.564  19.683  1.00  0.00    -0.077 C 
ATOM      2  C   UNL     1      12.350  46.242  19.825  1.00  0.00    -0.028 C 
ATOM      3  C   UNL     1      11.130  44.056  19.746  1.00  0.00     0.039 C 
ENDROOT
BRANCH   1   4
ATOM      4  C   UNL     1       9.906  46.341  19.479  1.00  0.00     0.034 C 
BRANCH   4   5
ATOM      5  C   UNL     1      10.201  47.756  18.968  1.00  0.00     0.032 C 
BRANCH   5   6
ATOM      6  C   UNL     1       9.000  48.328  18.258  1.00  0.00    -0.028 C 
ATOM      7  C   UNL     1      10.192  50.428  17.593  1.00  0.00     0.039 C 
ATOM      8  C   UNL     1       8.972  49.538  17.657  1.00  0.00    -0.080 C 
ATOM      9  C   UNL     1       7.685  49.995  17.020  1.00  0.00     0.039 C 
ENDBRANCH   5   6
ENDBRANCH   4   5
ENDBRANCH   1   4
BRANCH   2  10
ATOM     10  C   UNL     1      13.706  45.596  19.989  1.00  0.00     0.035 C 
BRANCH  10  11
ATOM     11  C   UNL     1      14.657  45.976  18.847  1.00  0.00     0.079 C 
BRANCH  11  12
ATOM     12  C   UNL     1      14.052  45.681  17.498  1.00  0.00     0.130 C 
ATOM     13  O   UNL     1      13.904  44.520  17.145  1.00  0.00    -0.300 OA
ATOM     14  C   UNL     1      13.624  46.785  16.577  1.00  0.00     0.087 C 
ENDBRANCH  11  12
ENDBRANCH  10  11
ENDBRANCH   2  10
TORSDOF 6
ENDMDL
MODEL 2
REMARK VINA RESULT:    -4.623      2.989      7.071
REMARK INTER + INTRA:          -6.932
REMARK INTER:                  -5.933
REMARK INTRA:                  -0.999
REMARK UNBOUND:                -0.688
REMARK SMILES CC(=O)CCC=C(C)CCC=C(C)C
REMARK SMILES IDX 7 1 6 2 8 3 9 4 10 5 11 6 13 7 12 8 14 9 5 10 4 11 2 12 3 13
REMARK SMILES IDX 1 14
REMARK H PARENT
REMARK Flexibility Score: inf
ROOT
ATOM      1  C   UNL     1      14.745  45.865  19.647  1.00  0.00    -0.077 C 
ATOM      2  C   UNL     1      14.104  45.734  18.463  1.00  0.00    -0.028 C 
ATOM      3  C   UNL     1      14.048  45.622  20.964  1.00  0.00     0.039 C 
ENDROOT
BRANCH   1   4
ATOM      4  C   UNL     1      16.210  46.244  19.650  1.00  0.00     0.034 C 
BRANCH   4   5
ATOM      5  C   UNL     1      17.013  45.308  20.560  1.00  0.00     0.032 C 
BRANCH   5   6
ATOM      6  C   UNL     1      17.671  44.215  19.755  1.00  0.00    -0.028 C 
ATOM      7  C   UNL     1      16.028  42.470  20.481  1.00  0.00     0.039 C 
ATOM      8  C   UNL     1      17.255  42.930  19.728  1.00  0.00    -0.080 C 
ATOM      9  C   UNL     1      18.036  41.938  18.906  1.00  0.00     0.039 C 
ENDBRANCH   5   6
ENDBRANCH   4   5
ENDBRANCH   1   4
BRANCH   2  10
ATOM     10  C   UNL     1      12.637  45.407  18.313  1.00  0.00     0.035 C 
BRANCH  10  11
ATOM     11  C   UNL     1      11.788  46.673  18.145  1.00  0.00     0.079 C 
BRANCH  11  12
ATOM     12  C   UNL     1      10.690  46.747  19.175  1.00  0.00     0.130 C 
ATOM     13  O   UNL     1      10.215  47.834  19.472  1.00  0.00    -0.300 OA
ATOM     14  C   UNL     1      10.165  45.512  19.845  1.00  0.00     0.087 C 
ENDBRANCH  11  12
ENDBRANCH  10  11
ENDBRANCH   2  10
TORSDOF 6
ENDMDL
MODEL 3
REMARK VINA RESULT:    -4.603     11.945     13.733
REMARK INTER + INTRA:          -6.906
REMARK INTER:                  -5.393
REMARK INTRA:                  -1.513
REMARK UNBOUND:                -0.688
REMARK SMILES CC(=O)CCC=C(C)CCC=C(C)C
REMARK SMILES IDX 7 1 6 2 8 3 9 4 10 5 11 6 13 7 12 8 14 9 5 10 4 11 2 12 3 13
REMARK SMILES IDX 1 14
REMARK H PARENT
REMARK Flexibility Score: inf
ROOT
ATOM      1  C   UNL     1      15.462  40.625  29.331  1.00  0.00    -0.077 C 
ATOM      2  C   UNL     1      16.557  40.623  28.537  1.00  0.00    -0.028 C 
ATOM      3  C   UNL     1      15.438  39.910  30.661  1.00  0.00     0.039 C 
ENDROOT
BRANCH   1   4
ATOM      4  C   UNL     1      14.232  41.384  28.883  1.00  0.00     0.034 C 
BRANCH   4   5
ATOM      5  C   UNL     1      13.722  40.851  27.539  1.00  0.00     0.032 C 
BRANCH   5   6
ATOM      6  C   UNL     1      13.196  39.444  27.688  1.00  0.00    -0.028 C 
ATOM      7  C   UNL     1      14.847  38.484  26.068  1.00  0.00     0.039 C 
ATOM      8  C   UNL     1      13.675  38.375  27.016  1.00  0.00    -0.080 C 
ATOM      9  C   UNL     1      13.023  37.035  27.239  1.00  0.00     0.039 C 
ENDBRANCH   5   6
ENDBRANCH   4   5
ENDBRANCH   1   4
BRANCH   2  10
ATOM     10  C   UNL     1      17.833  39.871  28.837  1.00  0.00     0.035 C 
BRANCH  10  11
ATOM     11  C   UNL     1      17.859  38.501  28.148  1.00  0.00     0.079 C 
BRANCH  11  12
ATOM     12  C   UNL     1      17.556  37.386  29.115  1.00  0.00     0.130 C 
ATOM     13  O   UNL     1      18.311  37.182  30.055  1.00  0.00    -0.300 OA
ATOM     14  C   UNL     1      16.344  36.519  28.950  1.00  0.00     0.087 C 
ENDBRANCH  11  12
ENDBRANCH  10  11
ENDBRANCH   2  10
TORSDOF 6
ENDMDL
MODEL 4
REMARK VINA RESULT:    -4.598      2.975      7.032
REMARK INTER + INTRA:          -6.898
REMARK INTER:                  -6.089
REMARK INTRA:                  -0.809
REMARK UNBOUND:                -0.688
REMARK SMILES CC(=O)CCC=C(C)CCC=C(C)C
REMARK SMILES IDX 7 1 6 2 8 3 9 4 10 5 11 6 13 7 12 8 14 9 5 10 4 11 2 12 3 13
REMARK SMILES IDX 1 14
REMARK H PARENT
REMARK Flexibility Score: inf
ROOT
ATOM      1  C   UNL     1      15.126  45.314  18.788  1.00  0.00    -0.077 C 
ATOM      2  C   UNL     1      14.048  45.195  19.597  1.00  0.00    -0.028 C 
ATOM      3  C   UNL     1      15.382  46.561  17.977  1.00  0.00     0.039 C 
ENDROOT
BRANCH   1   4
ATOM      4  C   UNL     1      16.115  44.172  18.713  1.00  0.00     0.034 C 
BRANCH   4   5
ATOM      5  C   UNL     1      16.802  43.956  20.066  1.00  0.00     0.032 C 
BRANCH   5   6
ATOM      6  C   UNL     1      18.191  44.545  20.059  1.00  0.00    -0.028 C 
ATOM      7  C   UNL     1      17.477  46.655  21.203  1.00  0.00     0.039 C 
ATOM      8  C   UNL     1      18.506  45.766  20.543  1.00  0.00    -0.080 C 
ATOM      9  C   UNL     1      19.933  46.238  20.432  1.00  0.00     0.039 C 
ENDBRANCH   5   6
ENDBRANCH   4   5
ENDBRANCH   1   4
BRANCH   2  10
ATOM     10  C   UNL     1      12.959  46.234  19.734  1.00  0.00     0.035 C 
BRANCH  10  11
ATOM     11  C   UNL     1      11.873  46.062  18.665  1.00  0.00     0.079 C 
BRANCH  11  12
ATOM     12  C   UNL     1      10.515  46.460  19.182  1.00  0.00     0.130 C 
ATOM     13  O   UNL     1       9.868  45.666  19.849  1.00  0.00    -0.300 OA
ATOM     14  C   UNL     1       9.937  47.814  18.895  1.00  0.00     0.087 C 
ENDBRANCH  11  12
ENDBRANCH  10  11
ENDBRANCH   2  10
TORSDOF 6
ENDMDL
MODEL 5
REMARK VINA RESULT:    -4.579      4.194      7.692
REMARK INTER + INTRA:          -6.873
REMARK INTER:                  -6.085
REMARK INTRA:                  -0.788
REMARK UNBOUND:                -0.688
REMARK SMILES CC(=O)CCC=C(C)CCC=C(C)C
REMARK SMILES IDX 7 1 6 2 8 3 9 4 10 5 11 6 13 7 12 8 14 9 5 10 4 11 2 12 3 13
REMARK SMILES IDX 1 14
REMARK H PARENT
REMARK Flexibility Score: inf
ROOT
ATOM      1  C   UNL     1      17.891  44.634  19.990  1.00  0.00    -0.077 C 
ATOM      2  C   UNL     1      16.891  45.532  20.148  1.00  0.00    -0.028 C 
ATOM      3  C   UNL     1      17.743  43.422  19.101  1.00  0.00     0.039 C 
ENDROOT
BRANCH   1   4
ATOM      4  C   UNL     1      19.203  44.863  20.708  1.00  0.00     0.034 C 
BRANCH   4   5
ATOM      5  C   UNL     1      20.018  45.960  20.014  1.00  0.00     0.032 C 
BRANCH   5   6
ATOM      6  C   UNL     1      20.225  47.136  20.937  1.00  0.00    -0.028 C 
ATOM      7  C   UNL     1      18.702  48.635  19.631  1.00  0.00     0.039 C 
ATOM      8  C   UNL     1      19.660  48.351  20.765  1.00  0.00    -0.080 C 
ATOM      9  C   UNL     1      19.990  49.443  21.749  1.00  0.00     0.039 C 
ENDBRANCH   5   6
ENDBRANCH   4   5
ENDBRANCH   1   4
BRANCH   2  10
ATOM     10  C   UNL     1      15.518  45.404  19.531  1.00  0.00     0.035 C 
BRANCH  10  11
ATOM     11  C   UNL     1      15.381  46.268  18.271  1.00  0.00     0.079 C 
BRANCH  11  12
ATOM     12  C   UNL     1      13.937  46.540  17.938  1.00  0.00     0.130 C 
ATOM     13  O   UNL     1      13.076  46.347  18.784  1.00  0.00    -0.300 OA
ATOM     14  C   UNL     1      13.530  47.045  16.585  1.00  0.00     0.087 C 
ENDBRANCH  11  12
ENDBRANCH  10  11
ENDBRANCH   2  10
TORSDOF 6
ENDMDL
MODEL 6
REMARK VINA RESULT:    -4.532      3.242      4.695
REMARK INTER + INTRA:          -6.809
REMARK INTER:                  -6.214
REMARK INTRA:                  -0.595
REMARK UNBOUND:                -0.688
REMARK SMILES CC(=O)CCC=C(C)CCC=C(C)C
REMARK SMILES IDX 7 1 6 2 8 3 9 4 10 5 11 6 13 7 12 8 14 9 5 10 4 11 2 12 3 13
REMARK SMILES IDX 1 14
REMARK H PARENT
REMARK Flexibility Score: inf
ROOT
ATOM      1  C   UNL     1      14.873  45.676  19.523  1.00  0.00    -0.077 C 
ATOM      2  C   UNL     1      16.100  46.230  19.654  1.00  0.00    -0.028 C 
ATOM      3  C   UNL     1      14.154  45.040  20.689  1.00  0.00     0.039 C 
ENDROOT
BRANCH   1   4
ATOM      4  C   UNL     1      14.191  45.716  18.173  1.00  0.00     0.034 C 
BRANCH   4   5
ATOM      5  C   UNL     1      12.710  45.343  18.300  1.00  0.00     0.032 C 
BRANCH   5   6
ATOM      6  C   UNL     1      11.842  46.576  18.249  1.00  0.00    -0.028 C 
ATOM      7  C   UNL     1      10.148  45.647  19.842  1.00  0.00     0.039 C 
ATOM      8  C   UNL     1      10.676  46.718  18.916  1.00  0.00    -0.080 C 
ATOM      9  C   UNL     1       9.896  47.995  18.737  1.00  0.00     0.039 C 
ENDBRANCH   5   6
ENDBRANCH   4   5
ENDBRANCH   1   4
BRANCH   2  10
ATOM     10  C   UNL     1      16.914  46.220  20.928  1.00  0.00     0.035 C 
BRANCH  10  11
ATOM     11  C   UNL     1      18.409  46.414  20.646  1.00  0.00     0.079 C 
BRANCH  11  12
ATOM     12  C   UNL     1      18.805  47.866  20.716  1.00  0.00     0.130 C 
ATOM     13  O   UNL     1      19.593  48.317  19.897  1.00  0.00    -0.300 OA
ATOM     14  C   UNL     1      18.250  48.775  21.773  1.00  0.00     0.087 C 
ENDBRANCH  11  12
ENDBRANCH  10  11
ENDBRANCH   2  10
TORSDOF 6
ENDMDL
MODEL 7
REMARK VINA RESULT:    -4.525      5.024      7.896
REMARK INTER + INTRA:          -6.800
REMARK INTER:                  -5.922
REMARK INTRA:                  -0.879
REMARK UNBOUND:                -0.688
REMARK SMILES CC(=O)CCC=C(C)CCC=C(C)C
REMARK SMILES IDX 7 1 6 2 8 3 9 4 10 5 11 6 13 7 12 8 14 9 5 10 4 11 2 12 3 13
REMARK SMILES IDX 1 14
REMARK H PARENT
REMARK Flexibility Score: inf
ROOT
ATOM      1  C   UNL     1      18.668  46.204  20.623  1.00  0.00    -0.077 C 
ATOM      2  C   UNL     1      18.569  44.904  20.262  1.00  0.00    -0.028 C 
ATOM      3  C   UNL     1      17.460  47.016  21.025  1.00  0.00     0.039 C 
ENDROOT
BRANCH   1   4
ATOM      4  C   UNL     1      20.032  46.857  20.646  1.00  0.00     0.034 C 
BRANCH   4   5
ATOM      5  C   UNL     1      19.918  48.347  20.989  1.00  0.00     0.032 C 
BRANCH   5   6
ATOM      6  C   UNL     1      20.447  49.197  19.860  1.00  0.00    -0.028 C 
ATOM      7  C   UNL     1      18.313  50.485  19.617  1.00  0.00     0.039 C 
ATOM      8  C   UNL     1      19.730  50.144  19.217  1.00  0.00    -0.080 C 
ATOM      9  C   UNL     1      20.380  50.889  18.080  1.00  0.00     0.039 C 
ENDBRANCH   5   6
ENDBRANCH   4   5
ENDBRANCH   1   4
BRANCH   2  10
ATOM     10  C   UNL     1      17.270  44.141  20.151  1.00  0.00     0.035 C 
BRANCH  10  11
ATOM     11  C   UNL     1      16.782  44.061  18.699  1.00  0.00     0.079 C 
BRANCH  11  12
ATOM     12  C   UNL     1      15.462  44.766  18.517  1.00  0.00     0.130 C 
ATOM     13  O   UNL     1      14.425  44.187  18.803  1.00  0.00    -0.300 OA
ATOM     14  C   UNL     1      15.395  46.169  17.989  1.00  0.00     0.087 C 
ENDBRANCH  11  12
ENDBRANCH  10  11
ENDBRANCH   2  10
TORSDOF 6
ENDMDL
MODEL 8
REMARK VINA RESULT:    -4.474      3.820      7.419
REMARK INTER + INTRA:          -6.731
REMARK INTER:                  -5.577
REMARK INTRA:                  -1.154
REMARK UNBOUND:                -0.688
REMARK SMILES CC(=O)CCC=C(C)CCC=C(C)C
REMARK SMILES IDX 7 1 6 2 8 3 9 4 10 5 11 6 13 7 12 8 14 9 5 10 4 11 2 12 3 13
REMARK SMILES IDX 1 14
REMARK H PARENT
REMARK Flexibility Score: inf
ROOT
ATOM      1  C   UNL     1      16.761  43.790  19.455  1.00  0.00    -0.077 C 
ATOM      2  C   UNL     1      16.248  44.396  18.359  1.00  0.00    -0.028 C 
ATOM      3  C   UNL     1      15.879  43.251  20.556  1.00  0.00     0.039 C 
ENDROOT
BRANCH   1   4
ATOM      4  C   UNL     1      18.260  43.627  19.568  1.00  0.00     0.034 C 
BRANCH   4   5
ATOM      5  C   UNL     1      18.780  44.253  20.867  1.00  0.00     0.032 C 
BRANCH   5   6
ATOM      6  C   UNL     1      19.547  45.520  20.579  1.00  0.00    -0.028 C 
ATOM      7  C   UNL     1      17.582  47.005  21.030  1.00  0.00     0.039 C 
ATOM      8  C   UNL     1      19.017  46.762  20.624  1.00  0.00    -0.080 C 
ATOM      9  C   UNL     1      19.897  47.933  20.272  1.00  0.00     0.039 C 
ENDBRANCH   5   6
ENDBRANCH   4   5
ENDBRANCH   1   4
BRANCH   2  10
ATOM     10  C   UNL     1      14.778  44.666  18.137  1.00  0.00     0.035 C 
BRANCH  10  11
ATOM     11  C   UNL     1      14.409  46.114  18.483  1.00  0.00     0.079 C 
BRANCH  11  12
ATOM     12  C   UNL     1      13.388  46.178  19.589  1.00  0.00     0.130 C 
ATOM     13  O   UNL     1      12.198  46.134  19.313  1.00  0.00    -0.300 OA
ATOM     14  C   UNL     1      13.801  46.295  21.026  1.00  0.00     0.087 C 
ENDBRANCH  11  12
ENDBRANCH  10  11
ENDBRANCH   2  10
TORSDOF 6
ENDMDL
MODEL 9
REMARK VINA RESULT:    -4.453      3.087      5.048
REMARK INTER + INTRA:          -6.703
REMARK INTER:                  -5.622
REMARK INTRA:                  -1.081
REMARK UNBOUND:                -0.688
REMARK SMILES CC(=O)CCC=C(C)CCC=C(C)C
REMARK SMILES IDX 7 1 6 2 8 3 9 4 10 5 11 6 13 7 12 8 14 9 5 10 4 11 2 12 3 13
REMARK SMILES IDX 1 14
REMARK H PARENT
REMARK Flexibility Score: inf
ROOT
ATOM      1  C   UNL     1      15.396  45.698  18.785  1.00  0.00    -0.077 C 
ATOM      2  C   UNL     1      15.702  44.440  18.391  1.00  0.00    -0.028 C 
ATOM      3  C   UNL     1      15.633  46.172  20.199  1.00  0.00     0.039 C 
ENDROOT
BRANCH   1   4
ATOM      4  C   UNL     1      14.821  46.663  17.772  1.00  0.00     0.034 C 
BRANCH   4   5
ATOM      5  C   UNL     1      13.554  46.088  17.128  1.00  0.00     0.032 C 
BRANCH   5   6
ATOM      6  C   UNL     1      12.319  46.626  17.808  1.00  0.00    -0.028 C 
ATOM      7  C   UNL     1      11.980  44.560  19.182  1.00  0.00     0.039 C 
ATOM      8  C   UNL     1      11.587  45.942  18.714  1.00  0.00    -0.080 C 
ATOM      9  C   UNL     1      10.352  46.594  19.280  1.00  0.00     0.039 C 
ENDBRANCH   5   6
ENDBRANCH   4   5
ENDBRANCH   1   4
BRANCH   2  10
ATOM     10  C   UNL     1      16.237  43.361  19.304  1.00  0.00     0.035 C 
BRANCH  10  11
ATOM     11  C   UNL     1      17.693  43.011  18.975  1.00  0.00     0.079 C 
BRANCH  11  12
ATOM     12  C   UNL     1      18.630  43.439  20.074  1.00  0.00     0.130 C 
ATOM     13  O   UNL     1      18.976  42.628  20.921  1.00  0.00    -0.300 OA
ATOM     14  C   UNL     1      19.151  44.844  20.153  1.00  0.00     0.087 C 
ENDBRANCH  11  12
ENDBRANCH  10  11
ENDBRANCH   2  10
TORSDOF 6
ENDMDL
