MODEL 1
REMARK VINA RESULT:    -4.896      0.000      0.000
REMARK INTER + INTRA:         -14.886
REMARK INTER:                 -11.194
REMARK INTRA:                  -3.692
REMARK UNBOUND:                -3.692
REMARK SMILES CCCCCCCCCCCCCCCCCCCCCCCC(=O)[O-]
REMARK SMILES IDX 13 1 14 2 15 3 16 4 17 5 18 6 19 7 20 8 21 9 22 10 23 11
REMARK SMILES IDX 24 12 25 13 26 14 12 15 11 16 10 17 9 18 8 19 7 20 6 21 5 22
REMARK SMILES IDX 4 23 3 24 2 25 1 26
REMARK H PARENT
REMARK Flexibility Score: inf
ROOT
ATOM      1  C   UNL     1      15.660  33.061  57.745  1.00  0.00     0.000 C 
ENDROOT
BRANCH   1   2
ATOM      2  C   UNL     1      15.142  31.829  58.510  1.00  0.00     0.000 C 
BRANCH   2   3
ATOM      3  C   UNL     1      13.616  31.863  58.717  1.00  0.00     0.000 C 
BRANCH   3   4
ATOM      4  C   UNL     1      12.936  30.483  58.619  1.00  0.00     0.000 C 
BRANCH   4   5
ATOM      5  C   UNL     1      11.410  30.580  58.466  1.00  0.00     0.000 C 
BRANCH   5   6
ATOM      6  C   UNL     1      10.695  29.764  59.554  1.00  0.00     0.000 C 
BRANCH   6   7
ATOM      7  C   UNL     1      11.674  28.971  60.441  1.00  0.00     0.000 C 
BRANCH   7   8
ATOM      8  C   UNL     1      11.843  29.524  61.869  1.00  0.00     0.000 C 
BRANCH   8   9
ATOM      9  C   UNL     1      13.199  30.200  62.148  1.00  0.00     0.000 C 
BRANCH   9  10
ATOM     10  C   UNL     1      14.388  29.216  62.167  1.00  0.00     0.006 C 
BRANCH  10  11
ATOM     11  C   UNL     1      15.642  29.802  61.504  1.00  0.00     0.053 C 
BRANCH  11  12
ATOM     12  C   UNL     1      16.877  29.270  62.160  1.00  0.00     0.041 C 
ATOM     13  O   UNL     1      16.854  28.160  62.755  1.00  0.00    -0.550 OA
ATOM     14  O   UNL     1      18.070  29.978  62.068  1.00  0.00    -0.550 OA
ENDBRANCH  11  12
ENDBRANCH  10  11
ENDBRANCH   9  10
ENDBRANCH   8   9
ENDBRANCH   7   8
ENDBRANCH   6   7
ENDBRANCH   5   6
ENDBRANCH   4   5
ENDBRANCH   3   4
ENDBRANCH   2   3
ENDBRANCH   1   2
BRANCH   1  15
ATOM     15  C   UNL     1      17.125  32.896  57.307  1.00  0.00     0.000 C 
BRANCH  15  16
ATOM     16  C   UNL     1      17.241  32.529  55.818  1.00  0.00     0.000 C 
BRANCH  16  17
ATOM     17  C   UNL     1      17.041  31.027  55.548  1.00  0.00     0.000 C 
BRANCH  17  18
ATOM     18  C   UNL     1      15.914  30.687  54.557  1.00  0.00    -0.000 C 
BRANCH  18  19
ATOM     19  C   UNL     1      14.582  30.356  55.255  1.00  0.00    -0.000 C 
BRANCH  19  20
ATOM     20  C   UNL     1      13.544  31.480  55.102  1.00  0.00    -0.000 C 
BRANCH  20  21
ATOM     21  C   UNL     1      13.983  32.548  54.084  1.00  0.00    -0.000 C 
BRANCH  21  22
ATOM     22  C   UNL     1      13.680  33.980  54.554  1.00  0.00    -0.000 C 
BRANCH  22  23
ATOM     23  C   UNL     1      14.890  34.920  54.407  1.00  0.00    -0.000 C 
BRANCH  23  24
ATOM     24  C   UNL     1      15.071  35.839  55.626  1.00  0.00    -0.000 C 
BRANCH  24  25
ATOM     25  C   UNL     1      16.476  36.453  55.702  1.00  0.00    -0.003 C 
ATOM     26  C   UNL     1      16.698  37.153  57.041  1.00  0.00     0.004 C 
ENDBRANCH  24  25
ENDBRANCH  23  24
ENDBRANCH  22  23
ENDBRANCH  21  22
ENDBRANCH  20  21
ENDBRANCH  19  20
ENDBRANCH  18  19
ENDBRANCH  17  18
ENDBRANCH  16  17
ENDBRANCH  15  16
ENDBRANCH   1  15
TORSDOF 22
ENDMDL
MODEL 2
REMARK VINA RESULT:    -4.854      2.691      4.390
REMARK INTER + INTRA:         -14.789
REMARK INTER:                 -11.239
REMARK INTRA:                  -3.550
REMARK UNBOUND:                -3.692
REMARK SMILES CCCCCCCCCCCCCCCCCCCCCCCC(=O)[O-]
REMARK SMILES IDX 13 1 14 2 15 3 16 4 17 5 18 6 19 7 20 8 21 9 22 10 23 11
REMARK SMILES IDX 24 12 25 13 26 14 12 15 11 16 10 17 9 18 8 19 7 20 6 21 5 22
REMARK SMILES IDX 4 23 3 24 2 25 1 26
REMARK H PARENT
REMARK Flexibility Score: inf
ROOT
ATOM      1  C   UNL     1      14.048  29.978  58.265  1.00  0.00     0.000 C 
ENDROOT
BRANCH   1   2
ATOM      2  C   UNL     1      14.802  30.698  59.397  1.00  0.00     0.000 C 
BRANCH   2   3
ATOM      3  C   UNL     1      16.049  29.923  59.862  1.00  0.00     0.000 C 
BRANCH   3   4
ATOM      4  C   UNL     1      16.968  30.716  60.810  1.00  0.00     0.000 C 
BRANCH   4   5
ATOM      5  C   UNL     1      17.161  30.026  62.169  1.00  0.00     0.000 C 
BRANCH   5   6
ATOM      6  C   UNL     1      16.286  28.767  62.277  1.00  0.00     0.000 C 
BRANCH   6   7
ATOM      7  C   UNL     1      15.070  28.966  63.201  1.00  0.00     0.000 C 
BRANCH   7   8
ATOM      8  C   UNL     1      13.734  29.197  62.469  1.00  0.00     0.000 C 
BRANCH   8   9
ATOM      9  C   UNL     1      13.062  27.921  61.924  1.00  0.00     0.000 C 
BRANCH   9  10
ATOM     10  C   UNL     1      12.060  28.190  60.781  1.00  0.00     0.006 C 
BRANCH  10  11
ATOM     11  C   UNL     1      11.222  29.453  61.023  1.00  0.00     0.053 C 
BRANCH  11  12
ATOM     12  C   UNL     1       9.865  29.305  60.410  1.00  0.00     0.041 C 
ATOM     13  O   UNL     1       8.830  29.495  61.101  1.00  0.00    -0.550 OA
ATOM     14  O   UNL     1       9.746  29.008  59.057  1.00  0.00    -0.550 OA
ENDBRANCH  11  12
ENDBRANCH  10  11
ENDBRANCH   9  10
ENDBRANCH   8   9
ENDBRANCH   7   8
ENDBRANCH   6   7
ENDBRANCH   5   6
ENDBRANCH   4   5
ENDBRANCH   3   4
ENDBRANCH   2   3
ENDBRANCH   1   2
BRANCH   1  15
ATOM     15  C   UNL     1      13.080  30.917  57.525  1.00  0.00     0.000 C 
BRANCH  15  16
ATOM     16  C   UNL     1      13.395  30.996  56.021  1.00  0.00     0.000 C 
BRANCH  16  17
ATOM     17  C   UNL     1      14.702  30.280  55.638  1.00  0.00     0.000 C 
BRANCH  17  18
ATOM     18  C   UNL     1      15.502  30.947  54.505  1.00  0.00    -0.000 C 
BRANCH  18  19
ATOM     19  C   UNL     1      16.867  31.486  54.972  1.00  0.00    -0.000 C 
BRANCH  19  20
ATOM     20  C   UNL     1      17.072  31.332  56.488  1.00  0.00    -0.000 C 
BRANCH  20  21
ATOM     21  C   UNL     1      17.334  32.680  57.183  1.00  0.00    -0.000 C 
BRANCH  21  22
ATOM     22  C   UNL     1      16.045  33.359  57.672  1.00  0.00    -0.000 C 
BRANCH  22  23
ATOM     23  C   UNL     1      15.440  34.309  56.624  1.00  0.00    -0.000 C 
BRANCH  23  24
ATOM     24  C   UNL     1      16.440  35.378  56.154  1.00  0.00    -0.000 C 
BRANCH  24  25
ATOM     25  C   UNL     1      15.946  36.809  56.417  1.00  0.00    -0.003 C 
ATOM     26  C   UNL     1      16.890  37.551  57.358  1.00  0.00     0.004 C 
ENDBRANCH  24  25
ENDBRANCH  23  24
ENDBRANCH  22  23
ENDBRANCH  21  22
ENDBRANCH  20  21
ENDBRANCH  19  20
ENDBRANCH  18  19
ENDBRANCH  17  18
ENDBRANCH  16  17
ENDBRANCH  15  16
ENDBRANCH   1  15
TORSDOF 22
ENDMDL
MODEL 3
REMARK VINA RESULT:    -4.840      2.947      7.757
REMARK INTER + INTRA:         -14.757
REMARK INTER:                 -11.089
REMARK INTRA:                  -3.668
REMARK UNBOUND:                -3.692
REMARK SMILES CCCCCCCCCCCCCCCCCCCCCCCC(=O)[O-]
REMARK SMILES IDX 13 1 14 2 15 3 16 4 17 5 18 6 19 7 20 8 21 9 22 10 23 11
REMARK SMILES IDX 24 12 25 13 26 14 12 15 11 16 10 17 9 18 8 19 7 20 6 21 5 22
REMARK SMILES IDX 4 23 3 24 2 25 1 26
REMARK H PARENT
REMARK Flexibility Score: inf
ROOT
ATOM      1  C   UNL     1      13.897  31.097  57.779  1.00  0.00     0.000 C 
ENDROOT
BRANCH   1   2
ATOM      2  C   UNL     1      13.632  30.987  56.266  1.00  0.00     0.000 C 
BRANCH   2   3
ATOM      3  C   UNL     1      14.736  30.208  55.529  1.00  0.00     0.000 C 
BRANCH   3   4
ATOM      4  C   UNL     1      15.199  30.863  54.213  1.00  0.00     0.000 C 
BRANCH   4   5
ATOM      5  C   UNL     1      16.728  30.947  54.094  1.00  0.00     0.000 C 
BRANCH   5   6
ATOM      6  C   UNL     1      17.390  30.924  55.481  1.00  0.00     0.000 C 
BRANCH   6   7
ATOM      7  C   UNL     1      17.815  32.325  55.960  1.00  0.00     0.000 C 
BRANCH   7   8
ATOM      8  C   UNL     1      17.333  32.697  57.375  1.00  0.00     0.000 C 
BRANCH   8   9
ATOM      9  C   UNL     1      16.275  33.815  57.429  1.00  0.00     0.000 C 
BRANCH   9  10
ATOM     10  C   UNL     1      15.687  34.178  56.048  1.00  0.00     0.006 C 
BRANCH  10  11
ATOM     11  C   UNL     1      15.247  35.646  55.968  1.00  0.00     0.053 C 
BRANCH  11  12
ATOM     12  C   UNL     1      16.439  36.551  55.992  1.00  0.00     0.041 C 
ATOM     13  O   UNL     1      17.060  36.814  54.928  1.00  0.00    -0.550 OA
ATOM     14  O   UNL     1      16.831  37.147  57.184  1.00  0.00    -0.550 OA
ENDBRANCH  11  12
ENDBRANCH  10  11
ENDBRANCH   9  10
ENDBRANCH   8   9
ENDBRANCH   7   8
ENDBRANCH   6   7
ENDBRANCH   5   6
ENDBRANCH   4   5
ENDBRANCH   3   4
ENDBRANCH   2   3
ENDBRANCH   1   2
BRANCH   1  15
ATOM     15  C   UNL     1      14.864  30.010  58.278  1.00  0.00     0.000 C 
BRANCH  15  16
ATOM     16  C   UNL     1      15.616  30.448  59.546  1.00  0.00     0.000 C 
BRANCH  16  17
ATOM     17  C   UNL     1      15.377  29.512  60.745  1.00  0.00     0.000 C 
BRANCH  17  18
ATOM     18  C   UNL     1      14.648  30.155  61.938  1.00  0.00    -0.000 C 
BRANCH  18  19
ATOM     19  C   UNL     1      13.119  29.984  61.870  1.00  0.00    -0.000 C 
BRANCH  19  20
ATOM     20  C   UNL     1      12.701  28.520  61.647  1.00  0.00    -0.000 C 
BRANCH  20  21
ATOM     21  C   UNL     1      11.908  28.331  60.341  1.00  0.00    -0.000 C 
BRANCH  21  22
ATOM     22  C   UNL     1      11.447  29.661  59.726  1.00  0.00    -0.000 C 
BRANCH  22  23
ATOM     23  C   UNL     1      10.143  29.521  58.920  1.00  0.00    -0.000 C 
BRANCH  23  24
ATOM     24  C   UNL     1       9.014  28.871  59.737  1.00  0.00    -0.000 C 
BRANCH  24  25
ATOM     25  C   UNL     1       8.318  29.863  60.681  1.00  0.00    -0.003 C 
ATOM     26  C   UNL     1       8.574  29.502  62.141  1.00  0.00     0.004 C 
ENDBRANCH  24  25
ENDBRANCH  23  24
ENDBRANCH  22  23
ENDBRANCH  21  22
ENDBRANCH  20  21
ENDBRANCH  19  20
ENDBRANCH  18  19
ENDBRANCH  17  18
ENDBRANCH  16  17
ENDBRANCH  15  16
ENDBRANCH   1  15
TORSDOF 22
ENDMDL
MODEL 4
REMARK VINA RESULT:    -4.753      2.698      4.595
REMARK INTER + INTRA:         -14.557
REMARK INTER:                 -10.531
REMARK INTRA:                  -4.026
REMARK UNBOUND:                -3.692
REMARK SMILES CCCCCCCCCCCCCCCCCCCCCCCC(=O)[O-]
REMARK SMILES IDX 13 1 14 2 15 3 16 4 17 5 18 6 19 7 20 8 21 9 22 10 23 11
REMARK SMILES IDX 24 12 25 13 26 14 12 15 11 16 10 17 9 18 8 19 7 20 6 21 5 22
REMARK SMILES IDX 4 23 3 24 2 25 1 26
REMARK H PARENT
REMARK Flexibility Score: inf
ROOT
ATOM      1  C   UNL     1      14.734  31.033  59.133  1.00  0.00     0.000 C 
ENDROOT
BRANCH   1   2
ATOM      2  C   UNL     1      15.845  30.069  59.587  1.00  0.00     0.000 C 
BRANCH   2   3
ATOM      3  C   UNL     1      16.880  30.750  60.502  1.00  0.00     0.000 C 
BRANCH   3   4
ATOM      4  C   UNL     1      16.959  30.151  61.920  1.00  0.00     0.000 C 
BRANCH   4   5
ATOM      5  C   UNL     1      16.491  28.688  61.976  1.00  0.00     0.000 C 
BRANCH   5   6
ATOM      6  C   UNL     1      15.228  28.548  62.840  1.00  0.00     0.000 C 
BRANCH   6   7
ATOM      7  C   UNL     1      14.402  29.847  62.901  1.00  0.00     0.000 C 
BRANCH   7   8
ATOM      8  C   UNL     1      13.086  29.813  62.100  1.00  0.00     0.000 C 
BRANCH   8   9
ATOM      9  C   UNL     1      12.783  28.472  61.404  1.00  0.00     0.000 C 
BRANCH   9  10
ATOM     10  C   UNL     1      11.641  28.558  60.369  1.00  0.00     0.006 C 
BRANCH  10  11
ATOM     11  C   UNL     1      10.564  29.575  60.769  1.00  0.00     0.053 C 
BRANCH  11  12
ATOM     12  C   UNL     1       9.836  30.068  59.558  1.00  0.00     0.041 C 
ATOM     13  O   UNL     1       8.640  30.452  59.647  1.00  0.00    -0.550 OA
ATOM     14  O   UNL     1      10.498  30.154  58.339  1.00  0.00    -0.550 OA
ENDBRANCH  11  12
ENDBRANCH  10  11
ENDBRANCH   9  10
ENDBRANCH   8   9
ENDBRANCH   7   8
ENDBRANCH   6   7
ENDBRANCH   5   6
ENDBRANCH   4   5
ENDBRANCH   3   4
ENDBRANCH   2   3
ENDBRANCH   1   2
BRANCH   1  15
ATOM     15  C   UNL     1      13.936  30.478  57.942  1.00  0.00     0.000 C 
BRANCH  15  16
ATOM     16  C   UNL     1      14.857  30.028  56.794  1.00  0.00     0.000 C 
BRANCH  16  17
ATOM     17  C   UNL     1      14.315  30.403  55.403  1.00  0.00     0.000 C 
BRANCH  17  18
ATOM     18  C   UNL     1      13.003  31.205  55.409  1.00  0.00    -0.000 C 
BRANCH  18  19
ATOM     19  C   UNL     1      12.921  32.230  54.262  1.00  0.00    -0.000 C 
BRANCH  19  20
ATOM     20  C   UNL     1      14.159  33.141  54.199  1.00  0.00    -0.000 C 
BRANCH  20  21
ATOM     21  C   UNL     1      14.124  34.250  55.265  1.00  0.00    -0.000 C 
BRANCH  21  22
ATOM     22  C   UNL     1      14.955  33.905  56.511  1.00  0.00    -0.000 C 
BRANCH  22  23
ATOM     23  C   UNL     1      16.385  33.453  56.163  1.00  0.00    -0.000 C 
BRANCH  23  24
ATOM     24  C   UNL     1      17.195  33.055  57.408  1.00  0.00    -0.000 C 
BRANCH  24  25
ATOM     25  C   UNL     1      18.123  31.858  57.155  1.00  0.00    -0.003 C 
ATOM     26  C   UNL     1      18.130  31.471  55.679  1.00  0.00     0.004 C 
ENDBRANCH  24  25
ENDBRANCH  23  24
ENDBRANCH  22  23
ENDBRANCH  21  22
ENDBRANCH  20  21
ENDBRANCH  19  20
ENDBRANCH  18  19
ENDBRANCH  17  18
ENDBRANCH  16  17
ENDBRANCH  15  16
ENDBRANCH   1  15
TORSDOF 22
ENDMDL
MODEL 5
REMARK VINA RESULT:    -4.713      2.825      7.484
REMARK INTER + INTRA:         -14.467
REMARK INTER:                 -10.520
REMARK INTRA:                  -3.946
REMARK UNBOUND:                -3.692
REMARK SMILES CCCCCCCCCCCCCCCCCCCCCCCC(=O)[O-]
REMARK SMILES IDX 13 1 14 2 15 3 16 4 17 5 18 6 19 7 20 8 21 9 22 10 23 11
REMARK SMILES IDX 24 12 25 13 26 14 12 15 11 16 10 17 9 18 8 19 7 20 6 21 5 22
REMARK SMILES IDX 4 23 3 24 2 25 1 26
REMARK H PARENT
REMARK Flexibility Score: inf
ROOT
ATOM      1  C   UNL     1      16.123  33.353  57.804  1.00  0.00     0.000 C 
ENDROOT
BRANCH   1   2
ATOM      2  C   UNL     1      17.069  32.241  57.317  1.00  0.00     0.000 C 
BRANCH   2   3
ATOM      3  C   UNL     1      17.161  32.176  55.781  1.00  0.00     0.000 C 
BRANCH   3   4
ATOM      4  C   UNL     1      16.947  30.766  55.196  1.00  0.00     0.000 C 
BRANCH   4   5
ATOM      5  C   UNL     1      15.818  30.717  54.155  1.00  0.00     0.000 C 
BRANCH   5   6
ATOM      6  C   UNL     1      14.450  30.554  54.835  1.00  0.00     0.000 C 
BRANCH   6   7
ATOM      7  C   UNL     1      13.470  31.688  54.479  1.00  0.00     0.000 C 
BRANCH   7   8
ATOM      8  C   UNL     1      14.090  32.848  53.678  1.00  0.00     0.000 C 
BRANCH   8   9
ATOM      9  C   UNL     1      13.861  34.249  54.278  1.00  0.00     0.000 C 
BRANCH   9  10
ATOM     10  C   UNL     1      15.151  35.088  54.398  1.00  0.00     0.006 C 
BRANCH  10  11
ATOM     11  C   UNL     1      15.046  36.170  55.482  1.00  0.00     0.053 C 
BRANCH  11  12
ATOM     12  C   UNL     1      16.392  36.453  56.070  1.00  0.00     0.041 C 
ATOM     13  O   UNL     1      17.420  35.891  55.608  1.00  0.00    -0.550 OA
ATOM     14  O   UNL     1      16.518  37.381  57.097  1.00  0.00    -0.550 OA
ENDBRANCH  11  12
ENDBRANCH  10  11
ENDBRANCH   9  10
ENDBRANCH   8   9
ENDBRANCH   7   8
ENDBRANCH   6   7
ENDBRANCH   5   6
ENDBRANCH   4   5
ENDBRANCH   3   4
ENDBRANCH   2   3
ENDBRANCH   1   2
BRANCH   1  15
ATOM     15  C   UNL     1      14.648  33.023  57.523  1.00  0.00     0.000 C 
BRANCH  15  16
ATOM     16  C   UNL     1      14.010  32.221  58.671  1.00  0.00     0.000 C 
BRANCH  16  17
ATOM     17  C   UNL     1      13.723  30.756  58.298  1.00  0.00     0.000 C 
BRANCH  17  18
ATOM     18  C   UNL     1      14.808  29.750  58.723  1.00  0.00    -0.000 C 
BRANCH  18  19
ATOM     19  C   UNL     1      15.565  30.185  59.991  1.00  0.00    -0.000 C 
BRANCH  19  20
ATOM     20  C   UNL     1      15.094  29.428  61.245  1.00  0.00    -0.000 C 
BRANCH  20  21
ATOM     21  C   UNL     1      13.621  29.717  61.583  1.00  0.00    -0.000 C 
BRANCH  21  22
ATOM     22  C   UNL     1      12.744  28.456  61.551  1.00  0.00    -0.000 C 
BRANCH  22  23
ATOM     23  C   UNL     1      11.659  28.516  60.461  1.00  0.00    -0.000 C 
BRANCH  23  24
ATOM     24  C   UNL     1      10.709  29.711  60.642  1.00  0.00    -0.000 C 
BRANCH  24  25
ATOM     25  C   UNL     1       9.998  30.107  59.340  1.00  0.00    -0.003 C 
ATOM     26  C   UNL     1       9.494  28.876  58.593  1.00  0.00     0.004 C 
ENDBRANCH  24  25
ENDBRANCH  23  24
ENDBRANCH  22  23
ENDBRANCH  21  22
ENDBRANCH  20  21
ENDBRANCH  19  20
ENDBRANCH  18  19
ENDBRANCH  17  18
ENDBRANCH  16  17
ENDBRANCH  15  16
ENDBRANCH   1  15
TORSDOF 22
ENDMDL
MODEL 6
REMARK VINA RESULT:    -4.665      2.348      7.069
REMARK INTER + INTRA:         -14.356
REMARK INTER:                 -10.615
REMARK INTRA:                  -3.741
REMARK UNBOUND:                -3.692
REMARK SMILES CCCCCCCCCCCCCCCCCCCCCCCC(=O)[O-]
REMARK SMILES IDX 13 1 14 2 15 3 16 4 17 5 18 6 19 7 20 8 21 9 22 10 23 11
REMARK SMILES IDX 24 12 25 13 26 14 12 15 11 16 10 17 9 18 8 19 7 20 6 21 5 22
REMARK SMILES IDX 4 23 3 24 2 25 1 26
REMARK H PARENT
REMARK Flexibility Score: inf
ROOT
ATOM      1  C   UNL     1      14.946  29.765  57.763  1.00  0.00     0.000 C 
ENDROOT
BRANCH   1   2
ATOM      2  C   UNL     1      15.583  30.247  56.447  1.00  0.00     0.000 C 
BRANCH   2   3
ATOM      3  C   UNL     1      14.620  30.135  55.250  1.00  0.00     0.000 C 
BRANCH   3   4
ATOM      4  C   UNL     1      14.445  31.445  54.458  1.00  0.00     0.000 C 
BRANCH   4   5
ATOM      5  C   UNL     1      13.602  32.488  55.210  1.00  0.00     0.000 C 
BRANCH   5   6
ATOM      6  C   UNL     1      14.382  33.799  55.391  1.00  0.00     0.000 C 
BRANCH   6   7
ATOM      7  C   UNL     1      15.171  33.844  56.713  1.00  0.00     0.000 C 
BRANCH   7   8
ATOM      8  C   UNL     1      16.483  34.650  56.654  1.00  0.00     0.000 C 
BRANCH   8   9
ATOM      9  C   UNL     1      17.358  34.378  55.416  1.00  0.00     0.000 C 
BRANCH   9  10
ATOM     10  C   UNL     1      17.756  32.895  55.253  1.00  0.00     0.006 C 
BRANCH  10  11
ATOM     11  C   UNL     1      18.587  32.379  56.435  1.00  0.00     0.053 C 
BRANCH  11  12
ATOM     12  C   UNL     1      19.495  31.275  55.993  1.00  0.00     0.041 C 
ATOM     13  O   UNL     1      20.658  31.179  56.466  1.00  0.00    -0.550 OA
ATOM     14  O   UNL     1      19.035  30.319  55.095  1.00  0.00    -0.550 OA
ENDBRANCH  11  12
ENDBRANCH  10  11
ENDBRANCH   9  10
ENDBRANCH   8   9
ENDBRANCH   7   8
ENDBRANCH   6   7
ENDBRANCH   5   6
ENDBRANCH   4   5
ENDBRANCH   3   4
ENDBRANCH   2   3
ENDBRANCH   1   2
BRANCH   1  15
ATOM     15  C   UNL     1      14.803  30.903  58.788  1.00  0.00     0.000 C 
BRANCH  15  16
ATOM     16  C   UNL     1      13.371  31.463  58.829  1.00  0.00     0.000 C 
BRANCH  16  17
ATOM     17  C   UNL     1      12.329  30.501  58.232  1.00  0.00     0.000 C 
BRANCH  17  18
ATOM     18  C   UNL     1      10.949  30.529  58.913  1.00  0.00    -0.000 C 
BRANCH  18  19
ATOM     19  C   UNL     1      10.734  29.351  59.881  1.00  0.00    -0.000 C 
BRANCH  19  20
ATOM     20  C   UNL     1      11.991  28.478  60.032  1.00  0.00    -0.000 C 
BRANCH  20  21
ATOM     21  C   UNL     1      12.494  28.423  61.486  1.00  0.00    -0.000 C 
BRANCH  21  22
ATOM     22  C   UNL     1      12.876  29.807  62.037  1.00  0.00    -0.000 C 
BRANCH  22  23
ATOM     23  C   UNL     1      14.394  29.969  62.232  1.00  0.00    -0.000 C 
BRANCH  23  24
ATOM     24  C   UNL     1      15.083  28.646  62.603  1.00  0.00    -0.000 C 
BRANCH  24  25
ATOM     25  C   UNL     1      16.615  28.736  62.538  1.00  0.00    -0.003 C 
ATOM     26  C   UNL     1      17.060  29.994  61.797  1.00  0.00     0.004 C 
ENDBRANCH  24  25
ENDBRANCH  23  24
ENDBRANCH  22  23
ENDBRANCH  21  22
ENDBRANCH  20  21
ENDBRANCH  19  20
ENDBRANCH  18  19
ENDBRANCH  17  18
ENDBRANCH  16  17
ENDBRANCH  15  16
ENDBRANCH   1  15
TORSDOF 22
ENDMDL
MODEL 7
REMARK VINA RESULT:    -4.663      1.321      2.441
REMARK INTER + INTRA:         -14.351
REMARK INTER:                 -12.140
REMARK INTRA:                  -2.212
REMARK UNBOUND:                -3.692
REMARK SMILES CCCCCCCCCCCCCCCCCCCCCCCC(=O)[O-]
REMARK SMILES IDX 13 1 14 2 15 3 16 4 17 5 18 6 19 7 20 8 21 9 22 10 23 11
REMARK SMILES IDX 24 12 25 13 26 14 12 15 11 16 10 17 9 18 8 19 7 20 6 21 5 22
REMARK SMILES IDX 4 23 3 24 2 25 1 26
REMARK H PARENT
REMARK Flexibility Score: inf
ROOT
ATOM      1  C   UNL     1      14.457  30.549  58.937  1.00  0.00     0.000 C 
ENDROOT
BRANCH   1   2
ATOM      2  C   UNL     1      13.099  31.273  58.889  1.00  0.00     0.000 C 
BRANCH   2   3
ATOM      3  C   UNL     1      12.046  30.497  58.077  1.00  0.00     0.000 C 
BRANCH   3   4
ATOM      4  C   UNL     1      10.669  30.399  58.761  1.00  0.00     0.000 C 
BRANCH   4   5
ATOM      5  C   UNL     1      10.514  29.127  59.609  1.00  0.00     0.000 C 
BRANCH   5   6
ATOM      6  C   UNL     1      10.114  29.471  61.052  1.00  0.00     0.000 C 
BRANCH   6   7
ATOM      7  C   UNL     1      11.330  29.743  61.957  1.00  0.00     0.000 C 
BRANCH   7   8
ATOM      8  C   UNL     1      12.528  28.803  61.727  1.00  0.00     0.000 C 
BRANCH   8   9
ATOM      9  C   UNL     1      13.878  29.328  62.252  1.00  0.00     0.000 C 
BRANCH   9  10
ATOM     10  C   UNL     1      14.714  28.260  62.988  1.00  0.00     0.006 C 
BRANCH  10  11
ATOM     11  C   UNL     1      15.975  28.848  63.636  1.00  0.00     0.053 C 
BRANCH  11  12
ATOM     12  C   UNL     1      17.080  28.948  62.632  1.00  0.00     0.041 C 
ATOM     13  O   UNL     1      17.678  27.912  62.238  1.00  0.00    -0.550 OA
ATOM     14  O   UNL     1      17.413  30.184  62.090  1.00  0.00    -0.550 OA
ENDBRANCH  11  12
ENDBRANCH  10  11
ENDBRANCH   9  10
ENDBRANCH   8   9
ENDBRANCH   7   8
ENDBRANCH   6   7
ENDBRANCH   5   6
ENDBRANCH   4   5
ENDBRANCH   3   4
ENDBRANCH   2   3
ENDBRANCH   1   2
BRANCH   1  15
ATOM     15  C   UNL     1      14.726  29.737  57.659  1.00  0.00     0.000 C 
BRANCH  15  16
ATOM     16  C   UNL     1      15.284  30.617  56.527  1.00  0.00     0.000 C 
BRANCH  16  17
ATOM     17  C   UNL     1      14.476  30.507  55.221  1.00  0.00     0.000 C 
BRANCH  17  18
ATOM     18  C   UNL     1      13.565  31.709  54.915  1.00  0.00    -0.000 C 
BRANCH  18  19
ATOM     19  C   UNL     1      14.318  32.879  54.256  1.00  0.00    -0.000 C 
BRANCH  19  20
ATOM     20  C   UNL     1      14.341  34.137  55.141  1.00  0.00    -0.000 C 
BRANCH  20  21
ATOM     21  C   UNL     1      15.748  34.447  55.681  1.00  0.00    -0.000 C 
BRANCH  21  22
ATOM     22  C   UNL     1      15.754  35.590  56.708  1.00  0.00    -0.000 C 
BRANCH  22  23
ATOM     23  C   UNL     1      16.455  36.856  56.183  1.00  0.00    -0.000 C 
BRANCH  23  24
ATOM     24  C   UNL     1      17.078  37.694  57.310  1.00  0.00    -0.000 C 
BRANCH  24  25
ATOM     25  C   UNL     1      17.985  38.816  56.784  1.00  0.00    -0.003 C 
ATOM     26  C   UNL     1      18.519  38.484  55.394  1.00  0.00     0.004 C 
ENDBRANCH  24  25
ENDBRANCH  23  24
ENDBRANCH  22  23
ENDBRANCH  21  22
ENDBRANCH  20  21
ENDBRANCH  19  20
ENDBRANCH  18  19
ENDBRANCH  17  18
ENDBRANCH  16  17
ENDBRANCH  15  16
ENDBRANCH   1  15
TORSDOF 22
ENDMDL
MODEL 8
REMARK VINA RESULT:    -4.643      1.430      2.470
REMARK INTER + INTRA:         -14.307
REMARK INTER:                 -11.164
REMARK INTRA:                  -3.142
REMARK UNBOUND:                -3.692
REMARK SMILES CCCCCCCCCCCCCCCCCCCCCCCC(=O)[O-]
REMARK SMILES IDX 13 1 14 2 15 3 16 4 17 5 18 6 19 7 20 8 21 9 22 10 23 11
REMARK SMILES IDX 24 12 25 13 26 14 12 15 11 16 10 17 9 18 8 19 7 20 6 21 5 22
REMARK SMILES IDX 4 23 3 24 2 25 1 26
REMARK H PARENT
REMARK Flexibility Score: inf
ROOT
ATOM      1  C   UNL     1      16.682  32.917  57.708  1.00  0.00     0.000 C 
ENDROOT
BRANCH   1   2
ATOM      2  C   UNL     1      16.589  31.606  58.508  1.00  0.00     0.000 C 
BRANCH   2   3
ATOM      3  C   UNL     1      15.134  31.148  58.726  1.00  0.00     0.000 C 
BRANCH   3   4
ATOM      4  C   UNL     1      14.564  30.295  57.577  1.00  0.00     0.000 C 
BRANCH   4   5
ATOM      5  C   UNL     1      13.134  30.700  57.186  1.00  0.00     0.000 C 
BRANCH   5   6
ATOM      6  C   UNL     1      12.249  30.866  58.432  1.00  0.00     0.000 C 
BRANCH   6   7
ATOM      7  C   UNL     1      10.898  30.138  58.302  1.00  0.00     0.000 C 
BRANCH   7   8
ATOM      8  C   UNL     1       9.968  30.282  59.522  1.00  0.00     0.000 C 
BRANCH   8   9
ATOM      9  C   UNL     1      10.100  29.167  60.577  1.00  0.00     0.000 C 
BRANCH   9  10
ATOM     10  C   UNL     1      11.154  29.466  61.664  1.00  0.00     0.006 C 
BRANCH  10  11
ATOM     11  C   UNL     1      12.484  28.746  61.403  1.00  0.00     0.053 C 
BRANCH  11  12
ATOM     12  C   UNL     1      13.633  29.594  61.849  1.00  0.00     0.041 C 
ATOM     13  O   UNL     1      13.452  30.803  62.152  1.00  0.00    -0.550 OA
ATOM     14  O   UNL     1      14.898  29.032  61.982  1.00  0.00    -0.550 OA
ENDBRANCH  11  12
ENDBRANCH  10  11
ENDBRANCH   9  10
ENDBRANCH   8   9
ENDBRANCH   7   8
ENDBRANCH   6   7
ENDBRANCH   5   6
ENDBRANCH   4   5
ENDBRANCH   3   4
ENDBRANCH   2   3
ENDBRANCH   1   2
BRANCH   1  15
ATOM     15  C   UNL     1      17.646  32.801  56.515  1.00  0.00     0.000 C 
BRANCH  15  16
ATOM     16  C   UNL     1      17.178  31.744  55.500  1.00  0.00     0.000 C 
BRANCH  16  17
ATOM     17  C   UNL     1      16.359  32.339  54.341  1.00  0.00     0.000 C 
BRANCH  17  18
ATOM     18  C   UNL     1      15.038  31.611  54.035  1.00  0.00    -0.000 C 
BRANCH  18  19
ATOM     19  C   UNL     1      13.814  32.545  54.079  1.00  0.00    -0.000 C 
BRANCH  19  20
ATOM     20  C   UNL     1      13.980  33.683  55.100  1.00  0.00    -0.000 C 
BRANCH  20  21
ATOM     21  C   UNL     1      13.663  35.063  54.495  1.00  0.00    -0.000 C 
BRANCH  21  22
ATOM     22  C   UNL     1      14.773  36.095  54.750  1.00  0.00    -0.000 C 
BRANCH  22  23
ATOM     23  C   UNL     1      15.444  35.916  56.124  1.00  0.00    -0.000 C 
BRANCH  23  24
ATOM     24  C   UNL     1      16.844  36.548  56.180  1.00  0.00    -0.000 C 
BRANCH  24  25
ATOM     25  C   UNL     1      16.964  37.630  57.264  1.00  0.00    -0.003 C 
ATOM     26  C   UNL     1      18.048  38.644  56.910  1.00  0.00     0.004 C 
ENDBRANCH  24  25
ENDBRANCH  23  24
ENDBRANCH  22  23
ENDBRANCH  21  22
ENDBRANCH  20  21
ENDBRANCH  19  20
ENDBRANCH  18  19
ENDBRANCH  17  18
ENDBRANCH  16  17
ENDBRANCH  15  16
ENDBRANCH   1  15
TORSDOF 22
ENDMDL
MODEL 9
REMARK VINA RESULT:    -4.618      2.642      4.709
REMARK INTER + INTRA:         -14.249
REMARK INTER:                 -10.420
REMARK INTRA:                  -3.828
REMARK UNBOUND:                -3.692
REMARK SMILES CCCCCCCCCCCCCCCCCCCCCCCC(=O)[O-]
REMARK SMILES IDX 13 1 14 2 15 3 16 4 17 5 18 6 19 7 20 8 21 9 22 10 23 11
REMARK SMILES IDX 24 12 25 13 26 14 12 15 11 16 10 17 9 18 8 19 7 20 6 21 5 22
REMARK SMILES IDX 4 23 3 24 2 25 1 26
REMARK H PARENT
REMARK Flexibility Score: inf
ROOT
ATOM      1  C   UNL     1      18.464  32.307  55.852  1.00  0.00     0.000 C 
ENDROOT
BRANCH   1   2
ATOM      2  C   UNL     1      18.760  31.043  55.025  1.00  0.00     0.000 C 
BRANCH   2   3
ATOM      3  C   UNL     1      17.503  30.483  54.333  1.00  0.00     0.000 C 
BRANCH   3   4
ATOM      4  C   UNL     1      16.552  31.563  53.783  1.00  0.00     0.000 C 
BRANCH   4   5
ATOM      5  C   UNL     1      15.083  31.310  54.156  1.00  0.00     0.000 C 
BRANCH   5   6
ATOM      6  C   UNL     1      14.958  30.132  55.135  1.00  0.00     0.000 C 
BRANCH   6   7
ATOM      7  C   UNL     1      14.408  30.558  56.510  1.00  0.00     0.000 C 
BRANCH   7   8
ATOM      8  C   UNL     1      14.965  29.758  57.703  1.00  0.00     0.000 C 
BRANCH   8   9
ATOM      9  C   UNL     1      14.778  30.428  59.078  1.00  0.00     0.000 C 
BRANCH   9  10
ATOM     10  C   UNL     1      13.303  30.707  59.435  1.00  0.00     0.006 C 
BRANCH  10  11
ATOM     11  C   UNL     1      12.603  29.479  60.032  1.00  0.00     0.053 C 
BRANCH  11  12
ATOM     12  C   UNL     1      11.152  29.474  59.664  1.00  0.00     0.041 C 
ATOM     13  O   UNL     1      10.356  28.677  60.226  1.00  0.00    -0.550 OA
ATOM     14  O   UNL     1      10.670  30.391  58.737  1.00  0.00    -0.550 OA
ENDBRANCH  11  12
ENDBRANCH  10  11
ENDBRANCH   9  10
ENDBRANCH   8   9
ENDBRANCH   7   8
ENDBRANCH   6   7
ENDBRANCH   5   6
ENDBRANCH   4   5
ENDBRANCH   3   4
ENDBRANCH   2   3
ENDBRANCH   1   2
BRANCH   1  15
ATOM     15  C   UNL     1      17.944  31.970  57.259  1.00  0.00     0.000 C 
BRANCH  15  16
ATOM     16  C   UNL     1      16.896  32.988  57.743  1.00  0.00     0.000 C 
BRANCH  16  17
ATOM     17  C   UNL     1      16.500  34.008  56.661  1.00  0.00     0.000 C 
BRANCH  17  18
ATOM     18  C   UNL     1      14.989  34.275  56.538  1.00  0.00    -0.000 C 
BRANCH  18  19
ATOM     19  C   UNL     1      14.567  34.695  55.118  1.00  0.00    -0.000 C 
BRANCH  19  20
ATOM     20  C   UNL     1      15.178  36.043  54.699  1.00  0.00    -0.000 C 
BRANCH  20  21
ATOM     21  C   UNL     1      16.152  35.901  53.515  1.00  0.00    -0.000 C 
BRANCH  21  22
ATOM     22  C   UNL     1      17.338  36.875  53.599  1.00  0.00    -0.000 C 
BRANCH  22  23
ATOM     23  C   UNL     1      17.996  36.890  54.991  1.00  0.00    -0.000 C 
BRANCH  23  24
ATOM     24  C   UNL     1      18.230  38.315  55.515  1.00  0.00    -0.000 C 
BRANCH  24  25
ATOM     25  C   UNL     1      17.983  38.441  57.025  1.00  0.00    -0.003 C 
ATOM     26  C   UNL     1      16.756  37.639  57.449  1.00  0.00     0.004 C 
ENDBRANCH  24  25
ENDBRANCH  23  24
ENDBRANCH  22  23
ENDBRANCH  21  22
ENDBRANCH  20  21
ENDBRANCH  19  20
ENDBRANCH  18  19
ENDBRANCH  17  18
ENDBRANCH  16  17
ENDBRANCH  15  16
ENDBRANCH   1  15
TORSDOF 22
ENDMDL
