MODEL 1
REMARK VINA RESULT:    -5.029      0.000      0.000
REMARK INTER + INTRA:          -6.098
REMARK INTER:                  -5.911
REMARK INTRA:                  -0.187
REMARK UNBOUND:                -0.187
REMARK SMILES O=c1c(O)c(-c2ccc(O)cc2)oc2cc(O)cc(O)c12
REMARK SMILES IDX 5 1 3 2 2 3 1 4 21 5 19 6 18 7 16 8 15 9 14 10 13 11 6 12
REMARK SMILES IDX 7 13 8 14 9 15 12 16 11 17 10 18 4 20 20 22 17 24
REMARK H PARENT 10 19 4 21 20 23 17 25
REMARK Flexibility Score: inf
ROOT
ATOM      1  C   UNL     1      76.124  89.532  11.611  1.00  0.00     0.180 A 
ATOM      2  C   UNL     1      76.345  90.914  11.768  1.00  0.00     0.208 A 
ATOM      3  C   UNL     1      75.240  91.763  11.932  1.00  0.00     0.238 A 
ATOM      4  O   UNL     1      75.426  93.001  12.085  1.00  0.00    -0.285 OA
ATOM      5  C   UNL     1      73.937  91.223  11.917  1.00  0.00     0.111 A 
ATOM      6  C   UNL     1      72.771  92.010  12.073  1.00  0.00     0.134 A 
ATOM      7  C   UNL     1      71.509  91.399  12.038  1.00  0.00     0.093 A 
ATOM      8  C   UNL     1      71.390  90.020  11.849  1.00  0.00     0.123 A 
ATOM      9  C   UNL     1      72.539  89.237  11.695  1.00  0.00     0.094 A 
ATOM     10  C   UNL     1      73.806  89.828  11.730  1.00  0.00     0.146 A 
ATOM     11  O   UNL     1      74.880  89.060  11.587  1.00  0.00    -0.452 OA
ENDROOT
BRANCH   1  12
ATOM     12  C   UNL     1      77.238  88.569  11.451  1.00  0.00     0.021 A 
ATOM     13  C   UNL     1      78.016  88.537  10.279  1.00  0.00     0.016 A 
ATOM     14  C   UNL     1      79.078  87.636  10.162  1.00  0.00     0.047 A 
ATOM     15  C   UNL     1      79.386  86.768  11.213  1.00  0.00     0.115 A 
ATOM     16  C   UNL     1      77.566  87.709  12.511  1.00  0.00     0.016 A 
ATOM     17  C   UNL     1      78.628  86.809  12.391  1.00  0.00     0.047 A 
BRANCH  15  18
ATOM     18  O   UNL     1      80.446  85.875  11.080  1.00  0.00    -0.508 OA
ATOM     19  H   UNL     1      80.555  85.302  10.252  1.00  0.00     0.293 HD
ENDBRANCH  15  18
ENDBRANCH   1  12
BRANCH   2  20
ATOM     20  O   UNL     1      77.643  91.430  11.729  1.00  0.00    -0.502 OA
ATOM     21  H   UNL     1      78.348  91.178  12.412  1.00  0.00     0.293 HD
ENDBRANCH   2  20
BRANCH   6  22
ATOM     22  O   UNL     1      72.856  93.391  12.261  1.00  0.00    -0.507 OA
ATOM     23  H   UNL     1      72.949  94.030  11.480  1.00  0.00     0.293 HD
ENDBRANCH   6  22
BRANCH   8  24
ATOM     24  O   UNL     1      70.125  89.438  11.817  1.00  0.00    -0.508 OA
ATOM     25  H   UNL     1      69.412  89.755  11.172  1.00  0.00     0.293 HD
ENDBRANCH   8  24
TORSDOF 5
ENDMDL
MODEL 2
REMARK VINA RESULT:    -4.970      2.243      7.085
REMARK INTER + INTRA:          -6.029
REMARK INTER:                  -5.743
REMARK INTRA:                  -0.286
REMARK UNBOUND:                -0.187
REMARK SMILES O=c1c(O)c(-c2ccc(O)cc2)oc2cc(O)cc(O)c12
REMARK SMILES IDX 5 1 3 2 2 3 1 4 21 5 19 6 18 7 16 8 15 9 14 10 13 11 6 12
REMARK SMILES IDX 7 13 8 14 9 15 12 16 11 17 10 18 4 20 20 22 17 24
REMARK H PARENT 10 19 4 21 20 23 17 25
REMARK Flexibility Score: inf
ROOT
ATOM      1  C   UNL     1      76.364  88.655  10.540  1.00  0.00     0.180 A 
ATOM      2  C   UNL     1      77.323  88.191  11.461  1.00  0.00     0.208 A 
ATOM      3  C   UNL     1      78.408  87.437  10.988  1.00  0.00     0.238 A 
ATOM      4  O   UNL     1      79.280  87.025  11.802  1.00  0.00    -0.285 OA
ATOM      5  C   UNL     1      78.506  87.143   9.612  1.00  0.00     0.111 A 
ATOM      6  C   UNL     1      79.565  86.386   9.056  1.00  0.00     0.134 A 
ATOM      7  C   UNL     1      79.587  86.129   7.677  1.00  0.00     0.093 A 
ATOM      8  C   UNL     1      78.573  86.611   6.846  1.00  0.00     0.123 A 
ATOM      9  C   UNL     1      77.524  87.359   7.391  1.00  0.00     0.094 A 
ATOM     10  C   UNL     1      77.486  87.628   8.762  1.00  0.00     0.146 A 
ATOM     11  O   UNL     1      76.481  88.346   9.251  1.00  0.00    -0.452 OA
ENDROOT
BRANCH   1  12
ATOM     12  C   UNL     1      75.202  89.472  10.958  1.00  0.00     0.021 A 
ATOM     13  C   UNL     1      74.016  88.875  11.424  1.00  0.00     0.016 A 
ATOM     14  C   UNL     1      72.941  89.668  11.837  1.00  0.00     0.047 A 
ATOM     15  C   UNL     1      73.040  91.061  11.804  1.00  0.00     0.115 A 
ATOM     16  C   UNL     1      75.302  90.873  10.947  1.00  0.00     0.016 A 
ATOM     17  C   UNL     1      74.225  91.663  11.360  1.00  0.00     0.047 A 
BRANCH  15  18
ATOM     18  O   UNL     1      71.960  91.838  12.216  1.00  0.00    -0.508 OA
ATOM     19  H   UNL     1      71.993  92.378  13.073  1.00  0.00     0.293 HD
ENDBRANCH  15  18
ENDBRANCH   1  12
BRANCH   2  20
ATOM     20  O   UNL     1      77.177  88.454  12.825  1.00  0.00    -0.502 OA
ATOM     21  H   UNL     1      77.233  87.726  13.527  1.00  0.00     0.293 HD
ENDBRANCH   2  20
BRANCH   6  22
ATOM     22  O   UNL     1      80.593  85.889   9.859  1.00  0.00    -0.507 OA
ATOM     23  H   UNL     1      80.405  85.303  10.664  1.00  0.00     0.293 HD
ENDBRANCH   6  22
BRANCH   8  24
ATOM     24  O   UNL     1      78.617  86.340   5.480  1.00  0.00    -0.508 OA
ATOM     25  H   UNL     1      78.167  85.522   5.087  1.00  0.00     0.293 HD
ENDBRANCH   8  24
TORSDOF 5
ENDMDL
MODEL 3
REMARK VINA RESULT:    -4.847      2.065      6.922
REMARK INTER + INTRA:          -5.885
REMARK INTER:                  -5.587
REMARK INTRA:                  -0.298
REMARK UNBOUND:                -0.187
REMARK SMILES O=c1c(O)c(-c2ccc(O)cc2)oc2cc(O)cc(O)c12
REMARK SMILES IDX 5 1 3 2 2 3 1 4 21 5 19 6 18 7 16 8 15 9 14 10 13 11 6 12
REMARK SMILES IDX 7 13 8 14 9 15 12 16 11 17 10 18 4 20 20 22 17 24
REMARK H PARENT 10 19 4 21 20 23 17 25
REMARK Flexibility Score: inf
ROOT
ATOM      1  C   UNL     1      75.954  88.869  10.816  1.00  0.00     0.180 A 
ATOM      2  C   UNL     1      76.833  88.391  11.807  1.00  0.00     0.208 A 
ATOM      3  C   UNL     1      77.903  87.568  11.424  1.00  0.00     0.238 A 
ATOM      4  O   UNL     1      78.705  87.143  12.301  1.00  0.00    -0.285 OA
ATOM      5  C   UNL     1      78.065  87.220  10.067  1.00  0.00     0.111 A 
ATOM      6  C   UNL     1      79.115  86.393   9.599  1.00  0.00     0.134 A 
ATOM      7  C   UNL     1      79.202  86.086   8.233  1.00  0.00     0.093 A 
ATOM      8  C   UNL     1      78.264  86.587   7.329  1.00  0.00     0.123 A 
ATOM      9  C   UNL     1      77.225  87.405   7.785  1.00  0.00     0.094 A 
ATOM     10  C   UNL     1      77.122  87.725   9.142  1.00  0.00     0.146 A 
ATOM     11  O   UNL     1      76.129  88.508   9.547  1.00  0.00    -0.452 OA
ENDROOT
BRANCH   1  12
ATOM     12  C   UNL     1      74.813  89.756  11.137  1.00  0.00     0.021 A 
ATOM     13  C   UNL     1      74.957  91.156  11.160  1.00  0.00     0.016 A 
ATOM     14  C   UNL     1      73.858  91.974  11.442  1.00  0.00     0.047 A 
ATOM     15  C   UNL     1      72.604  91.409  11.691  1.00  0.00     0.115 A 
ATOM     16  C   UNL     1      73.546  89.197  11.368  1.00  0.00     0.016 A 
ATOM     17  C   UNL     1      72.450  90.017  11.651  1.00  0.00     0.047 A 
BRANCH  15  18
ATOM     18  O   UNL     1      71.520  92.237  11.972  1.00  0.00    -0.508 OA
ATOM     19  H   UNL     1      71.484  93.193  11.639  1.00  0.00     0.293 HD
ENDBRANCH  15  18
ENDBRANCH   1  12
BRANCH   2  20
ATOM     20  O   UNL     1      76.622  88.709  13.151  1.00  0.00    -0.502 OA
ATOM     21  H   UNL     1      76.508  89.663  13.471  1.00  0.00     0.293 HD
ENDBRANCH   2  20
BRANCH   6  22
ATOM     22  O   UNL     1      80.068  85.875  10.478  1.00  0.00    -0.507 OA
ATOM     23  H   UNL     1      80.938  86.358  10.665  1.00  0.00     0.293 HD
ENDBRANCH   6  22
BRANCH   8  24
ATOM     24  O   UNL     1      78.372  86.266   5.978  1.00  0.00    -0.508 OA
ATOM     25  H   UNL     1      79.236  86.405   5.467  1.00  0.00     0.293 HD
ENDBRANCH   8  24
TORSDOF 5
ENDMDL
MODEL 4
REMARK VINA RESULT:    -4.827     10.631     14.566
REMARK INTER + INTRA:          -5.861
REMARK INTER:                  -5.704
REMARK INTRA:                  -0.157
REMARK UNBOUND:                -0.187
REMARK SMILES O=c1c(O)c(-c2ccc(O)cc2)oc2cc(O)cc(O)c12
REMARK SMILES IDX 5 1 3 2 2 3 1 4 21 5 19 6 18 7 16 8 15 9 14 10 13 11 6 12
REMARK SMILES IDX 7 13 8 14 9 15 12 16 11 17 10 18 4 20 20 22 17 24
REMARK H PARENT 10 19 4 21 20 23 17 25
REMARK Flexibility Score: inf
ROOT
ATOM      1  C   UNL     1      68.033 100.677   7.206  1.00  0.00     0.180 A 
ATOM      2  C   UNL     1      68.656 101.426   8.224  1.00  0.00     0.208 A 
ATOM      3  C   UNL     1      69.424 100.754   9.187  1.00  0.00     0.238 A 
ATOM      4  O   UNL     1      69.996 101.416  10.097  1.00  0.00    -0.285 OA
ATOM      5  C   UNL     1      69.541  99.350   9.130  1.00  0.00     0.111 A 
ATOM      6  C   UNL     1      70.294  98.598  10.064  1.00  0.00     0.134 A 
ATOM      7  C   UNL     1      70.354  97.201   9.944  1.00  0.00     0.093 A 
ATOM      8  C   UNL     1      69.678  96.544   8.914  1.00  0.00     0.123 A 
ATOM      9  C   UNL     1      68.933  97.283   7.988  1.00  0.00     0.094 A 
ATOM     10  C   UNL     1      68.863  98.675   8.089  1.00  0.00     0.146 A 
ATOM     11  O   UNL     1      68.154  99.352   7.193  1.00  0.00    -0.452 OA
ENDROOT
BRANCH   1  12
ATOM     12  C   UNL     1      67.222 101.314   6.144  1.00  0.00     0.021 A 
ATOM     13  C   UNL     1      67.798 102.196   5.211  1.00  0.00     0.016 A 
ATOM     14  C   UNL     1      67.016 102.765   4.202  1.00  0.00     0.047 A 
ATOM     15  C   UNL     1      65.658 102.454   4.102  1.00  0.00     0.115 A 
ATOM     16  C   UNL     1      65.861 100.990   6.026  1.00  0.00     0.016 A 
ATOM     17  C   UNL     1      65.081 101.562   5.016  1.00  0.00     0.047 A 
BRANCH  15  18
ATOM     18  O   UNL     1      64.891 103.031   3.093  1.00  0.00    -0.508 OA
ATOM     19  H   UNL     1      64.242 102.482   2.541  1.00  0.00     0.293 HD
ENDBRANCH  15  18
ENDBRANCH   1  12
BRANCH   2  20
ATOM     20  O   UNL     1      68.483 102.811   8.287  1.00  0.00    -0.502 OA
ATOM     21  H   UNL     1      69.102 103.412   8.818  1.00  0.00     0.293 HD
ENDBRANCH   2  20
BRANCH   6  22
ATOM     22  O   UNL     1      70.979  99.224  11.106  1.00  0.00    -0.507 OA
ATOM     23  H   UNL     1      71.978  99.385  11.066  1.00  0.00     0.293 HD
ENDBRANCH   6  22
BRANCH   8  24
ATOM     24  O   UNL     1      69.753  95.157   8.818  1.00  0.00    -0.508 OA
ATOM     25  H   UNL     1      69.485  94.668   7.972  1.00  0.00     0.293 HD
ENDBRANCH   8  24
TORSDOF 5
ENDMDL
MODEL 5
REMARK VINA RESULT:    -4.822      1.923      3.525
REMARK INTER + INTRA:          -5.855
REMARK INTER:                  -5.580
REMARK INTRA:                  -0.276
REMARK UNBOUND:                -0.187
REMARK SMILES O=c1c(O)c(-c2ccc(O)cc2)oc2cc(O)cc(O)c12
REMARK SMILES IDX 5 1 3 2 2 3 1 4 21 5 19 6 18 7 16 8 15 9 14 10 13 11 6 12
REMARK SMILES IDX 7 13 8 14 9 15 12 16 11 17 10 18 4 20 20 22 17 24
REMARK H PARENT 10 19 4 21 20 23 17 25
REMARK Flexibility Score: inf
ROOT
ATOM      1  C   UNL     1      75.717  88.393  10.524  1.00  0.00     0.180 A 
ATOM      2  C   UNL     1      74.703  87.577  11.062  1.00  0.00     0.208 A 
ATOM      3  C   UNL     1      73.662  88.177  11.786  1.00  0.00     0.238 A 
ATOM      4  O   UNL     1      72.742  87.457  12.262  1.00  0.00    -0.285 OA
ATOM      5  C   UNL     1      73.661  89.574  11.977  1.00  0.00     0.111 A 
ATOM      6  C   UNL     1      72.650  90.256  12.697  1.00  0.00     0.134 A 
ATOM      7  C   UNL     1      72.725  91.648  12.851  1.00  0.00     0.093 A 
ATOM      8  C   UNL     1      73.787  92.370  12.303  1.00  0.00     0.123 A 
ATOM      9  C   UNL     1      74.789  91.701  11.591  1.00  0.00     0.094 A 
ATOM     10  C   UNL     1      74.730  90.315  11.424  1.00  0.00     0.146 A 
ATOM     11  O   UNL     1      75.691  89.706  10.738  1.00  0.00    -0.452 OA
ENDROOT
BRANCH   1  12
ATOM     12  C   UNL     1      76.839  87.838   9.734  1.00  0.00     0.021 A 
ATOM     13  C   UNL     1      78.075  87.528  10.332  1.00  0.00     0.016 A 
ATOM     14  C   UNL     1      79.110  86.981   9.569  1.00  0.00     0.047 A 
ATOM     15  C   UNL     1      78.924  86.723   8.208  1.00  0.00     0.115 A 
ATOM     16  C   UNL     1      76.652  87.557   8.371  1.00  0.00     0.016 A 
ATOM     17  C   UNL     1      77.690  87.011   7.610  1.00  0.00     0.047 A 
BRANCH  15  18
ATOM     18  O   UNL     1      79.966  86.180   7.461  1.00  0.00    -0.508 OA
ATOM     19  H   UNL     1      80.598  86.767   6.929  1.00  0.00     0.293 HD
ENDBRANCH  15  18
ENDBRANCH   1  12
BRANCH   2  20
ATOM     20  O   UNL     1      74.754  86.190  10.900  1.00  0.00    -0.502 OA
ATOM     21  H   UNL     1      74.752  85.551  11.686  1.00  0.00     0.293 HD
ENDBRANCH   2  20
BRANCH   6  22
ATOM     22  O   UNL     1      71.576  89.563  13.259  1.00  0.00    -0.507 OA
ATOM     23  H   UNL     1      71.656  89.089  14.151  1.00  0.00     0.293 HD
ENDBRANCH   6  22
BRANCH   8  24
ATOM     24  O   UNL     1      73.839  93.752  12.472  1.00  0.00    -0.508 OA
ATOM     25  H   UNL     1      73.454  94.200  13.295  1.00  0.00     0.293 HD
ENDBRANCH   8  24
TORSDOF 5
ENDMDL
MODEL 6
REMARK VINA RESULT:    -4.689     12.086     15.469
REMARK INTER + INTRA:          -5.699
REMARK INTER:                  -5.415
REMARK INTRA:                  -0.284
REMARK UNBOUND:                -0.187
REMARK SMILES O=c1c(O)c(-c2ccc(O)cc2)oc2cc(O)cc(O)c12
REMARK SMILES IDX 5 1 3 2 2 3 1 4 21 5 19 6 18 7 16 8 15 9 14 10 13 11 6 12
REMARK SMILES IDX 7 13 8 14 9 15 12 16 11 17 10 18 4 20 20 22 17 24
REMARK H PARENT 10 19 4 21 20 23 17 25
REMARK Flexibility Score: inf
ROOT
ATOM      1  C   UNL     1      68.123 101.411   7.175  1.00  0.00     0.180 A 
ATOM      2  C   UNL     1      69.060 100.366   7.057  1.00  0.00     0.208 A 
ATOM      3  C   UNL     1      69.817 100.004   8.182  1.00  0.00     0.238 A 
ATOM      4  O   UNL     1      70.652  99.062   8.092  1.00  0.00    -0.285 OA
ATOM      5  C   UNL     1      69.640 100.701   9.395  1.00  0.00     0.111 A 
ATOM      6  C   UNL     1      70.365 100.401  10.574  1.00  0.00     0.134 A 
ATOM      7  C   UNL     1      70.138 101.147  11.739  1.00  0.00     0.093 A 
ATOM      8  C   UNL     1      69.204 102.186  11.750  1.00  0.00     0.123 A 
ATOM      9  C   UNL     1      68.484 102.487  10.588  1.00  0.00     0.094 A 
ATOM     10  C   UNL     1      68.695 101.752   9.418  1.00  0.00     0.146 A 
ATOM     11  O   UNL     1      67.994 102.056   8.331  1.00  0.00    -0.452 OA
ENDROOT
BRANCH   1  12
ATOM     12  C   UNL     1      67.275 101.838   6.039  1.00  0.00     0.021 A 
ATOM     13  C   UNL     1      65.964 101.352   5.880  1.00  0.00     0.016 A 
ATOM     14  C   UNL     1      65.174 101.791   4.813  1.00  0.00     0.047 A 
ATOM     15  C   UNL     1      65.674 102.726   3.903  1.00  0.00     0.115 A 
ATOM     16  C   UNL     1      67.763 102.793   5.132  1.00  0.00     0.016 A 
ATOM     17  C   UNL     1      66.971 103.228   4.066  1.00  0.00     0.047 A 
BRANCH  15  18
ATOM     18  O   UNL     1      64.875 103.151   2.844  1.00  0.00    -0.508 OA
ATOM     19  H   UNL     1      63.976 102.723   2.653  1.00  0.00     0.293 HD
ENDBRANCH  15  18
ENDBRANCH   1  12
BRANCH   2  20
ATOM     20  O   UNL     1      69.252  99.724   5.831  1.00  0.00    -0.502 OA
ATOM     21  H   UNL     1      69.040  98.743   5.693  1.00  0.00     0.293 HD
ENDBRANCH   2  20
BRANCH   6  22
ATOM     22  O   UNL     1      71.307  99.371  10.595  1.00  0.00    -0.507 OA
ATOM     23  H   UNL     1      71.664  98.994  11.465  1.00  0.00     0.293 HD
ENDBRANCH   6  22
BRANCH   8  24
ATOM     24  O   UNL     1      68.998 102.913  12.920  1.00  0.00    -0.508 OA
ATOM     25  H   UNL     1      69.481 103.786  13.093  1.00  0.00     0.293 HD
ENDBRANCH   8  24
TORSDOF 5
ENDMDL
MODEL 7
REMARK VINA RESULT:    -4.680      9.828     12.957
REMARK INTER + INTRA:          -5.688
REMARK INTER:                  -5.507
REMARK INTRA:                  -0.181
REMARK UNBOUND:                -0.187
REMARK SMILES O=c1c(O)c(-c2ccc(O)cc2)oc2cc(O)cc(O)c12
REMARK SMILES IDX 5 1 3 2 2 3 1 4 21 5 19 6 18 7 16 8 15 9 14 10 13 11 6 12
REMARK SMILES IDX 7 13 8 14 9 15 12 16 11 17 10 18 4 20 20 22 17 24
REMARK H PARENT 10 19 4 21 20 23 17 25
REMARK Flexibility Score: inf
ROOT
ATOM      1  C   UNL     1      81.683  87.169   0.866  1.00  0.00     0.180 A 
ATOM      2  C   UNL     1      82.957  87.347   1.439  1.00  0.00     0.208 A 
ATOM      3  C   UNL     1      83.096  87.235   2.831  1.00  0.00     0.238 A 
ATOM      4  O   UNL     1      84.235  87.381   3.355  1.00  0.00    -0.285 OA
ATOM      5  C   UNL     1      81.962  86.968   3.626  1.00  0.00     0.111 A 
ATOM      6  C   UNL     1      82.017  86.843   5.035  1.00  0.00     0.134 A 
ATOM      7  C   UNL     1      80.842  86.585   5.756  1.00  0.00     0.093 A 
ATOM      8  C   UNL     1      79.617  86.451   5.099  1.00  0.00     0.123 A 
ATOM      9  C   UNL     1      79.557  86.573   3.707  1.00  0.00     0.094 A 
ATOM     10  C   UNL     1      80.718  86.828   2.970  1.00  0.00     0.146 A 
ATOM     11  O   UNL     1      80.633  86.933   1.649  1.00  0.00    -0.452 OA
ENDROOT
BRANCH   1  12
ATOM     12  C   UNL     1      81.458  87.254  -0.595  1.00  0.00     0.021 A 
ATOM     13  C   UNL     1      81.118  86.117  -1.352  1.00  0.00     0.016 A 
ATOM     14  C   UNL     1      80.886  86.227  -2.726  1.00  0.00     0.047 A 
ATOM     15  C   UNL     1      80.977  87.470  -3.359  1.00  0.00     0.115 A 
ATOM     16  C   UNL     1      81.527  88.502  -1.234  1.00  0.00     0.016 A 
ATOM     17  C   UNL     1      81.296  88.609  -2.609  1.00  0.00     0.047 A 
BRANCH  15  18
ATOM     18  O   UNL     1      80.745  87.563  -4.729  1.00  0.00    -0.508 OA
ATOM     19  H   UNL     1      80.832  86.756  -5.337  1.00  0.00     0.293 HD
ENDBRANCH  15  18
ENDBRANCH   1  12
BRANCH   2  20
ATOM     20  O   UNL     1      84.055  87.660   0.634  1.00  0.00    -0.502 OA
ATOM     21  H   UNL     1      84.981  87.812   1.015  1.00  0.00     0.293 HD
ENDBRANCH   2  20
BRANCH   6  22
ATOM     22  O   UNL     1      83.225  86.974   5.722  1.00  0.00    -0.507 OA
ATOM     23  H   UNL     1      83.682  87.871   5.830  1.00  0.00     0.293 HD
ENDBRANCH   6  22
BRANCH   8  24
ATOM     24  O   UNL     1      78.464  86.197   5.839  1.00  0.00    -0.508 OA
ATOM     25  H   UNL     1      78.023  85.285   5.835  1.00  0.00     0.293 HD
ENDBRANCH   8  24
TORSDOF 5
ENDMDL
MODEL 8
REMARK VINA RESULT:    -4.678      5.224      8.269
REMARK INTER + INTRA:          -5.685
REMARK INTER:                  -5.895
REMARK INTRA:                   0.210
REMARK UNBOUND:                -0.187
REMARK SMILES O=c1c(O)c(-c2ccc(O)cc2)oc2cc(O)cc(O)c12
REMARK SMILES IDX 5 1 3 2 2 3 1 4 21 5 19 6 18 7 16 8 15 9 14 10 13 11 6 12
REMARK SMILES IDX 7 13 8 14 9 15 12 16 11 17 10 18 4 20 20 22 17 24
REMARK H PARENT 10 19 4 21 20 23 17 25
REMARK Flexibility Score: inf
ROOT
ATOM      1  C   UNL     1      79.954  86.602   5.960  1.00  0.00     0.180 A 
ATOM      2  C   UNL     1      80.925  86.226   6.909  1.00  0.00     0.208 A 
ATOM      3  C   UNL     1      80.583  86.240   8.270  1.00  0.00     0.238 A 
ATOM      4  O   UNL     1      81.440  85.895   9.129  1.00  0.00    -0.285 OA
ATOM      5  C   UNL     1      79.290  86.647   8.660  1.00  0.00     0.111 A 
ATOM      6  C   UNL     1      78.868  86.693  10.011  1.00  0.00     0.134 A 
ATOM      7  C   UNL     1      77.567  87.117  10.318  1.00  0.00     0.093 A 
ATOM      8  C   UNL     1      76.683  87.497   9.306  1.00  0.00     0.123 A 
ATOM      9  C   UNL     1      77.095  87.454   7.970  1.00  0.00     0.094 A 
ATOM     10  C   UNL     1      78.387  87.031   7.643  1.00  0.00     0.146 A 
ATOM     11  O   UNL     1      78.750  86.994   6.366  1.00  0.00    -0.452 OA
ENDROOT
BRANCH   1  12
ATOM     12  C   UNL     1      80.232  86.595   4.505  1.00  0.00     0.021 A 
ATOM     13  C   UNL     1      81.487  86.978   3.997  1.00  0.00     0.016 A 
ATOM     14  C   UNL     1      81.733  86.940   2.621  1.00  0.00     0.047 A 
ATOM     15  C   UNL     1      80.739  86.507   1.739  1.00  0.00     0.115 A 
ATOM     16  C   UNL     1      79.245  86.143   3.615  1.00  0.00     0.016 A 
ATOM     17  C   UNL     1      79.494  86.106   2.240  1.00  0.00     0.047 A 
BRANCH  15  18
ATOM     18  O   UNL     1      80.998  86.476   0.371  1.00  0.00    -0.508 OA
ATOM     19  H   UNL     1      81.936  86.340   0.013  1.00  0.00     0.293 HD
ENDBRANCH  15  18
ENDBRANCH   1  12
BRANCH   2  20
ATOM     20  O   UNL     1      82.213  85.875   6.500  1.00  0.00    -0.502 OA
ATOM     21  H   UNL     1      82.457  84.932   6.223  1.00  0.00     0.293 HD
ENDBRANCH   2  20
BRANCH   6  22
ATOM     22  O   UNL     1      79.728  86.321  11.046  1.00  0.00    -0.507 OA
ATOM     23  H   UNL     1      80.464  86.936  11.374  1.00  0.00     0.293 HD
ENDBRANCH   6  22
BRANCH   8  24
ATOM     24  O   UNL     1      75.397  87.917   9.639  1.00  0.00    -0.508 OA
ATOM     25  H   UNL     1      74.913  87.551  10.450  1.00  0.00     0.293 HD
ENDBRANCH   8  24
TORSDOF 5
ENDMDL
MODEL 9
REMARK VINA RESULT:    -4.535      3.075      7.324
REMARK INTER + INTRA:          -5.517
REMARK INTER:                  -5.226
REMARK INTRA:                  -0.291
REMARK UNBOUND:                -0.187
REMARK SMILES O=c1c(O)c(-c2ccc(O)cc2)oc2cc(O)cc(O)c12
REMARK SMILES IDX 5 1 3 2 2 3 1 4 21 5 19 6 18 7 16 8 15 9 14 10 13 11 6 12
REMARK SMILES IDX 7 13 8 14 9 15 12 16 11 17 10 18 4 20 20 22 17 24
REMARK H PARENT 10 19 4 21 20 23 17 25
REMARK Flexibility Score: inf
ROOT
ATOM      1  C   UNL     1      77.373  88.506  10.747  1.00  0.00     0.180 A 
ATOM      2  C   UNL     1      76.595  88.154   9.628  1.00  0.00     0.208 A 
ATOM      3  C   UNL     1      77.188  87.411   8.596  1.00  0.00     0.238 A 
ATOM      4  O   UNL     1      76.498  87.080   7.593  1.00  0.00    -0.285 OA
ATOM      5  C   UNL     1      78.549  87.051   8.690  1.00  0.00     0.111 A 
ATOM      6  C   UNL     1      79.223  86.306   7.692  1.00  0.00     0.134 A 
ATOM      7  C   UNL     1      80.581  85.995   7.855  1.00  0.00     0.093 A 
ATOM      8  C   UNL     1      81.277  86.413   8.992  1.00  0.00     0.123 A 
ATOM      9  C   UNL     1      80.615  87.149   9.981  1.00  0.00     0.094 A 
ATOM     10  C   UNL     1      79.261  87.467   9.838  1.00  0.00     0.146 A 
ATOM     11  O   UNL     1      78.657  88.162  10.795  1.00  0.00    -0.452 OA
ENDROOT
BRANCH   1  12
ATOM     12  C   UNL     1      76.814  89.273  11.884  1.00  0.00     0.021 A 
ATOM     13  C   UNL     1      76.306  88.625  13.026  1.00  0.00     0.016 A 
ATOM     14  C   UNL     1      75.807  89.372  14.097  1.00  0.00     0.047 A 
ATOM     15  C   UNL     1      75.820  90.768  14.050  1.00  0.00     0.115 A 
ATOM     16  C   UNL     1      76.843  90.676  11.853  1.00  0.00     0.016 A 
ATOM     17  C   UNL     1      76.342  91.420  12.925  1.00  0.00     0.047 A 
BRANCH  15  18
ATOM     18  O   UNL     1      75.317  91.498  15.124  1.00  0.00    -0.508 OA
ATOM     19  H   UNL     1      74.964  91.041  15.957  1.00  0.00     0.293 HD
ENDBRANCH  15  18
ENDBRANCH   1  12
BRANCH   2  20
ATOM     20  O   UNL     1      75.263  88.566   9.536  1.00  0.00    -0.502 OA
ATOM     21  H   UNL     1      74.690  88.374   8.723  1.00  0.00     0.293 HD
ENDBRANCH   2  20
BRANCH   6  22
ATOM     22  O   UNL     1      78.557  85.875   6.543  1.00  0.00    -0.507 OA
ATOM     23  H   UNL     1      78.104  84.970   6.498  1.00  0.00     0.293 HD
ENDBRANCH   6  22
BRANCH   8  24
ATOM     24  O   UNL     1      82.625  86.092   9.129  1.00  0.00    -0.508 OA
ATOM     25  H   UNL     1      83.312  86.384   8.444  1.00  0.00     0.293 HD
ENDBRANCH   8  24
TORSDOF 5
ENDMDL
