MODEL 1
REMARK VINA RESULT:    -6.831      0.000      0.000
REMARK INTER + INTRA:         -12.559
REMARK INTER:                 -10.425
REMARK INTRA:                  -2.135
REMARK UNBOUND:                -2.135
REMARK SMILES CC(=O)CCC=C(C)CCC=C(C)CCC=C(C)C
REMARK SMILES IDX 10 1 11 2 12 3 13 4 14 5 15 6 16 7 18 8 17 9 19 10 9 11 7 12
REMARK SMILES IDX 6 13 8 14 5 15 4 16 2 17 3 18 1 19
REMARK H PARENT
REMARK Flexibility Score: inf
ROOT
ATOM      1  C   UNL     1      -2.968 -10.308  28.334  1.00  0.00     0.032 C 
ENDROOT
BRANCH   1   2
ATOM      2  C   UNL     1      -3.258 -11.755  28.012  1.00  0.00    -0.028 C 
ATOM      3  C   UNL     1      -3.450 -12.251  26.769  1.00  0.00    -0.077 C 
ATOM      4  C   UNL     1      -3.314 -11.393  25.535  1.00  0.00     0.039 C 
BRANCH   3   5
ATOM      5  C   UNL     1      -3.814 -13.711  26.611  1.00  0.00     0.034 C 
BRANCH   5   6
ATOM      6  C   UNL     1      -4.332 -14.290  27.932  1.00  0.00     0.032 C 
BRANCH   6   7
ATOM      7  C   UNL     1      -5.811 -14.579  27.846  1.00  0.00    -0.028 C 
ATOM      8  C   UNL     1      -8.071 -15.093  28.714  1.00  0.00     0.039 C 
ATOM      9  C   UNL     1      -6.611 -14.780  28.917  1.00  0.00    -0.080 C 
ATOM     10  C   UNL     1      -6.101 -14.662  30.332  1.00  0.00     0.039 C 
ENDBRANCH   6   7
ENDBRANCH   5   6
ENDBRANCH   3   5
ENDBRANCH   1   2
BRANCH   1  11
ATOM     11  C   UNL     1      -3.091 -10.033  29.839  1.00  0.00     0.034 C 
BRANCH  11  12
ATOM     12  C   UNL     1      -4.409 -10.536  30.402  1.00  0.00    -0.077 C 
ATOM     13  C   UNL     1      -4.495 -11.464  31.383  1.00  0.00    -0.028 C 
ATOM     14  C   UNL     1      -5.689 -10.000  29.816  1.00  0.00     0.039 C 
BRANCH  13  15
ATOM     15  C   UNL     1      -3.322 -12.070  32.113  1.00  0.00     0.035 C 
BRANCH  15  16
ATOM     16  C   UNL     1      -2.791 -13.298  31.367  1.00  0.00     0.079 C 
BRANCH  16  17
ATOM     17  C   UNL     1      -1.329 -13.134  31.048  1.00  0.00     0.130 C 
ATOM     18  O   UNL     1      -0.604 -12.548  31.838  1.00  0.00    -0.300 OA
ATOM     19  C   UNL     1      -0.736 -13.683  29.785  1.00  0.00     0.087 C 
ENDBRANCH  16  17
ENDBRANCH  15  16
ENDBRANCH  13  15
ENDBRANCH  11  12
ENDBRANCH   1  11
TORSDOF 9
ENDMDL
MODEL 2
REMARK VINA RESULT:    -6.725      1.245      3.978
REMARK INTER + INTRA:         -12.397
REMARK INTER:                 -10.786
REMARK INTRA:                  -1.611
REMARK UNBOUND:                -2.135
REMARK SMILES CC(=O)CCC=C(C)CCC=C(C)CCC=C(C)C
REMARK SMILES IDX 10 1 11 2 12 3 13 4 14 5 15 6 16 7 18 8 17 9 19 10 9 11 7 12
REMARK SMILES IDX 6 13 8 14 5 15 4 16 2 17 3 18 1 19
REMARK H PARENT
REMARK Flexibility Score: inf
ROOT
ATOM      1  C   UNL     1      -6.234 -14.747  31.283  1.00  0.00     0.032 C 
ENDROOT
BRANCH   1   2
ATOM      2  C   UNL     1      -5.709 -14.541  29.883  1.00  0.00    -0.028 C 
ATOM      3  C   UNL     1      -6.422 -14.731  28.750  1.00  0.00    -0.077 C 
ATOM      4  C   UNL     1      -7.883 -15.110  28.778  1.00  0.00     0.039 C 
BRANCH   3   5
ATOM      5  C   UNL     1      -5.733 -14.563  27.413  1.00  0.00     0.034 C 
BRANCH   5   6
ATOM      6  C   UNL     1      -4.227 -14.354  27.598  1.00  0.00     0.032 C 
BRANCH   6   7
ATOM      7  C   UNL     1      -3.693 -13.375  26.582  1.00  0.00    -0.028 C 
ATOM      8  C   UNL     1      -3.095 -11.150  25.679  1.00  0.00     0.039 C 
ATOM      9  C   UNL     1      -3.617 -12.040  26.777  1.00  0.00    -0.080 C 
ATOM     10  C   UNL     1      -4.002 -11.398  28.087  1.00  0.00     0.039 C 
ENDBRANCH   6   7
ENDBRANCH   5   6
ENDBRANCH   3   5
ENDBRANCH   1   2
BRANCH   1  11
ATOM     11  C   UNL     1      -5.106 -14.673  32.322  1.00  0.00     0.034 C 
BRANCH  11  12
ATOM     12  C   UNL     1      -4.872 -13.253  32.806  1.00  0.00    -0.077 C 
ATOM     13  C   UNL     1      -3.925 -12.436  32.290  1.00  0.00    -0.028 C 
ATOM     14  C   UNL     1      -5.715 -12.736  33.943  1.00  0.00     0.039 C 
BRANCH  13  15
ATOM     15  C   UNL     1      -3.029 -12.770  31.124  1.00  0.00     0.035 C 
BRANCH  15  16
ATOM     16  C   UNL     1      -1.772 -13.509  31.596  1.00  0.00     0.079 C 
BRANCH  16  17
ATOM     17  C   UNL     1      -0.579 -13.105  30.771  1.00  0.00     0.130 C 
ATOM     18  O   UNL     1       0.423 -12.685  31.330  1.00  0.00    -0.300 OA
ATOM     19  C   UNL     1      -0.587 -13.216  29.275  1.00  0.00     0.087 C 
ENDBRANCH  16  17
ENDBRANCH  15  16
ENDBRANCH  13  15
ENDBRANCH  11  12
ENDBRANCH   1  11
TORSDOF 9
ENDMDL
MODEL 3
REMARK VINA RESULT:    -6.684      1.517      3.566
REMARK INTER + INTRA:         -12.336
REMARK INTER:                 -10.235
REMARK INTRA:                  -2.101
REMARK UNBOUND:                -2.135
REMARK SMILES CC(=O)CCC=C(C)CCC=C(C)CCC=C(C)C
REMARK SMILES IDX 10 1 11 2 12 3 13 4 14 5 15 6 16 7 18 8 17 9 19 10 9 11 7 12
REMARK SMILES IDX 6 13 8 14 5 15 4 16 2 17 3 18 1 19
REMARK H PARENT
REMARK Flexibility Score: inf
ROOT
ATOM      1  C   UNL     1      -2.946 -10.615  31.664  1.00  0.00     0.032 C 
ENDROOT
BRANCH   1   2
ATOM      2  C   UNL     1      -3.556 -11.997  31.655  1.00  0.00    -0.028 C 
ATOM      3  C   UNL     1      -4.564 -12.406  32.457  1.00  0.00    -0.077 C 
ATOM      4  C   UNL     1      -5.251 -11.468  33.421  1.00  0.00     0.039 C 
BRANCH   3   5
ATOM      5  C   UNL     1      -5.016 -13.848  32.389  1.00  0.00     0.034 C 
BRANCH   5   6
ATOM      6  C   UNL     1      -4.949 -14.374  30.952  1.00  0.00     0.032 C 
BRANCH   6   7
ATOM      7  C   UNL     1      -6.318 -14.777  30.465  1.00  0.00    -0.028 C 
ATOM      8  C   UNL     1      -8.104 -15.164  28.795  1.00  0.00     0.039 C 
ATOM      9  C   UNL     1      -6.698 -14.770  29.168  1.00  0.00    -0.080 C 
ATOM     10  C   UNL     1      -5.742 -14.417  28.054  1.00  0.00     0.039 C 
ENDBRANCH   6   7
ENDBRANCH   5   6
ENDBRANCH   3   5
ENDBRANCH   1   2
BRANCH   1  11
ATOM     11  C   UNL     1      -2.804 -10.056  30.241  1.00  0.00     0.034 C 
BRANCH  11  12
ATOM     12  C   UNL     1      -3.915 -10.543  29.327  1.00  0.00    -0.077 C 
ATOM     13  C   UNL     1      -3.710 -11.387  28.289  1.00  0.00    -0.028 C 
ATOM     14  C   UNL     1      -5.313 -10.034  29.564  1.00  0.00     0.039 C 
BRANCH  13  15
ATOM     15  C   UNL     1      -2.392 -12.028  27.937  1.00  0.00     0.035 C 
BRANCH  15  16
ATOM     16  C   UNL     1      -2.310 -13.451  28.499  1.00  0.00     0.079 C 
BRANCH  16  17
ATOM     17  C   UNL     1      -0.917 -13.750  28.987  1.00  0.00     0.130 C 
ATOM     18  O   UNL     1      -0.162 -14.403  28.283  1.00  0.00    -0.300 OA
ATOM     19  C   UNL     1      -0.430 -13.254  30.316  1.00  0.00     0.087 C 
ENDBRANCH  16  17
ENDBRANCH  15  16
ENDBRANCH  13  15
ENDBRANCH  11  12
ENDBRANCH   1  11
TORSDOF 9
ENDMDL
MODEL 4
REMARK VINA RESULT:    -6.543      2.317      4.751
REMARK INTER + INTRA:         -12.120
REMARK INTER:                 -10.439
REMARK INTRA:                  -1.681
REMARK UNBOUND:                -2.135
REMARK SMILES CC(=O)CCC=C(C)CCC=C(C)CCC=C(C)C
REMARK SMILES IDX 10 1 11 2 12 3 13 4 14 5 15 6 16 7 18 8 17 9 19 10 9 11 7 12
REMARK SMILES IDX 6 13 8 14 5 15 4 16 2 17 3 18 1 19
REMARK H PARENT
REMARK Flexibility Score: inf
ROOT
ATOM      1  C   UNL     1      -2.543 -12.519  27.429  1.00  0.00     0.032 C 
ENDROOT
BRANCH   1   2
ATOM      2  C   UNL     1      -2.090 -12.511  28.870  1.00  0.00    -0.028 C 
ATOM      3  C   UNL     1      -1.183 -13.359  29.404  1.00  0.00    -0.077 C 
ATOM      4  C   UNL     1      -0.456 -14.384  28.567  1.00  0.00     0.039 C 
BRANCH   3   5
ATOM      5  C   UNL     1      -0.890 -13.281  30.886  1.00  0.00     0.034 C 
BRANCH   5   6
ATOM      6  C   UNL     1      -2.032 -12.583  31.632  1.00  0.00     0.032 C 
BRANCH   6   7
ATOM      7  C   UNL     1      -3.129 -13.563  31.970  1.00  0.00    -0.028 C 
ATOM      8  C   UNL     1      -5.329 -14.284  32.844  1.00  0.00     0.039 C 
ATOM      9  C   UNL     1      -4.315 -13.218  32.518  1.00  0.00    -0.080 C 
ATOM     10  C   UNL     1      -4.688 -11.780  32.783  1.00  0.00     0.039 C 
ENDBRANCH   6   7
ENDBRANCH   5   6
ENDBRANCH   3   5
ENDBRANCH   1   2
BRANCH   1  11
ATOM     11  C   UNL     1      -3.908 -11.835  27.266  1.00  0.00     0.034 C 
BRANCH  11  12
ATOM     12  C   UNL     1      -4.601 -11.628  28.602  1.00  0.00    -0.077 C 
ATOM     13  C   UNL     1      -5.432 -12.539  29.159  1.00  0.00    -0.028 C 
ATOM     14  C   UNL     1      -4.382 -10.327  29.328  1.00  0.00     0.039 C 
BRANCH  13  15
ATOM     15  C   UNL     1      -5.726 -13.907  28.597  1.00  0.00     0.035 C 
BRANCH  15  16
ATOM     16  C   UNL     1      -6.268 -14.839  29.686  1.00  0.00     0.079 C 
BRANCH  16  17
ATOM     17  C   UNL     1      -7.306 -15.771  29.117  1.00  0.00     0.130 C 
ATOM     18  O   UNL     1      -7.077 -16.971  29.076  1.00  0.00    -0.300 OA
ATOM     19  C   UNL     1      -8.621 -15.262  28.608  1.00  0.00     0.087 C 
ENDBRANCH  16  17
ENDBRANCH  15  16
ENDBRANCH  13  15
ENDBRANCH  11  12
ENDBRANCH   1  11
TORSDOF 9
ENDMDL
MODEL 5
REMARK VINA RESULT:    -6.366      2.069      4.992
REMARK INTER + INTRA:         -11.850
REMARK INTER:                  -9.355
REMARK INTRA:                  -2.495
REMARK UNBOUND:                -2.135
REMARK SMILES CC(=O)CCC=C(C)CCC=C(C)CCC=C(C)C
REMARK SMILES IDX 10 1 11 2 12 3 13 4 14 5 15 6 16 7 18 8 17 9 19 10 9 11 7 12
REMARK SMILES IDX 6 13 8 14 5 15 4 16 2 17 3 18 1 19
REMARK H PARENT
REMARK Flexibility Score: inf
ROOT
ATOM      1  C   UNL     1      -3.153 -10.671  27.666  1.00  0.00     0.032 C 
ENDROOT
BRANCH   1   2
ATOM      2  C   UNL     1      -4.090 -10.581  28.847  1.00  0.00    -0.028 C 
ATOM      3  C   UNL     1      -3.710 -10.374  30.128  1.00  0.00    -0.077 C 
ATOM      4  C   UNL     1      -2.268 -10.131  30.504  1.00  0.00     0.039 C 
BRANCH   3   5
ATOM      5  C   UNL     1      -4.760 -10.390  31.216  1.00  0.00     0.034 C 
BRANCH   5   6
ATOM      6  C   UNL     1      -4.224 -11.068  32.481  1.00  0.00     0.032 C 
BRANCH   6   7
ATOM      7  C   UNL     1      -4.849 -12.429  32.665  1.00  0.00    -0.028 C 
ATOM      8  C   UNL     1      -4.992 -14.895  32.499  1.00  0.00     0.039 C 
ATOM      9  C   UNL     1      -4.264 -13.591  32.297  1.00  0.00    -0.080 C 
ATOM     10  C   UNL     1      -2.870 -13.640  31.722  1.00  0.00     0.039 C 
ENDBRANCH   6   7
ENDBRANCH   5   6
ENDBRANCH   3   5
ENDBRANCH   1   2
BRANCH   1  11
ATOM     11  C   UNL     1      -3.251 -12.038  26.975  1.00  0.00     0.034 C 
BRANCH  11  12
ATOM     12  C   UNL     1      -2.932 -13.179  27.925  1.00  0.00    -0.077 C 
ATOM     13  C   UNL     1      -3.854 -14.069  28.357  1.00  0.00    -0.028 C 
ATOM     14  C   UNL     1      -1.522 -13.307  28.441  1.00  0.00     0.039 C 
BRANCH  13  15
ATOM     15  C   UNL     1      -5.293 -14.118  27.909  1.00  0.00     0.035 C 
BRANCH  15  16
ATOM     16  C   UNL     1      -6.242 -14.018  29.108  1.00  0.00     0.079 C 
BRANCH  16  17
ATOM     17  C   UNL     1      -7.142 -15.223  29.174  1.00  0.00     0.130 C 
ATOM     18  O   UNL     1      -6.750 -16.236  29.733  1.00  0.00    -0.300 OA
ATOM     19  C   UNL     1      -8.518 -15.207  28.576  1.00  0.00     0.087 C 
ENDBRANCH  16  17
ENDBRANCH  15  16
ENDBRANCH  13  15
ENDBRANCH  11  12
ENDBRANCH   1  11
TORSDOF 9
ENDMDL
MODEL 6
REMARK VINA RESULT:    -6.275      2.376      5.038
REMARK INTER + INTRA:         -11.712
REMARK INTER:                 -10.009
REMARK INTRA:                  -1.703
REMARK UNBOUND:                -2.135
REMARK SMILES CC(=O)CCC=C(C)CCC=C(C)CCC=C(C)C
REMARK SMILES IDX 10 1 11 2 12 3 13 4 14 5 15 6 16 7 18 8 17 9 19 10 9 11 7 12
REMARK SMILES IDX 6 13 8 14 5 15 4 16 2 17 3 18 1 19
REMARK H PARENT
REMARK Flexibility Score: inf
ROOT
ATOM      1  C   UNL     1      -3.094 -12.868  32.189  1.00  0.00     0.032 C 
ENDROOT
BRANCH   1   2
ATOM      2  C   UNL     1      -2.447 -13.400  30.933  1.00  0.00    -0.028 C 
ATOM      3  C   UNL     1      -1.138 -13.275  30.620  1.00  0.00    -0.077 C 
ATOM      4  C   UNL     1      -0.148 -12.635  31.562  1.00  0.00     0.039 C 
BRANCH   3   5
ATOM      5  C   UNL     1      -0.651 -13.791  29.284  1.00  0.00     0.034 C 
BRANCH   5   6
ATOM      6  C   UNL     1      -1.824 -14.008  28.323  1.00  0.00     0.032 C 
BRANCH   6   7
ATOM      7  C   UNL     1      -2.170 -12.728  27.602  1.00  0.00    -0.028 C 
ATOM      8  C   UNL     1      -3.369 -11.299  25.975  1.00  0.00     0.039 C 
ATOM      9  C   UNL     1      -3.127 -12.623  26.653  1.00  0.00    -0.080 C 
ATOM     10  C   UNL     1      -4.006 -13.788  26.269  1.00  0.00     0.039 C 
ENDBRANCH   6   7
ENDBRANCH   5   6
ENDBRANCH   3   5
ENDBRANCH   1   2
BRANCH   1  11
ATOM     11  C   UNL     1      -4.537 -12.415  31.929  1.00  0.00     0.034 C 
BRANCH  11  12
ATOM     12  C   UNL     1      -4.744 -11.977  30.489  1.00  0.00    -0.077 C 
ATOM     13  C   UNL     1      -5.278 -12.775  29.536  1.00  0.00    -0.028 C 
ATOM     14  C   UNL     1      -4.299 -10.593  30.091  1.00  0.00     0.039 C 
BRANCH  13  15
ATOM     15  C   UNL     1      -5.818 -14.164  29.767  1.00  0.00     0.035 C 
BRANCH  15  16
ATOM     16  C   UNL     1      -6.518 -14.693  28.511  1.00  0.00     0.079 C 
BRANCH  16  17
ATOM     17  C   UNL     1      -7.617 -15.654  28.881  1.00  0.00     0.130 C 
ATOM     18  O   UNL     1      -8.782 -15.310  28.755  1.00  0.00    -0.300 OA
ATOM     19  C   UNL     1      -7.313 -17.031  29.392  1.00  0.00     0.087 C 
ENDBRANCH  16  17
ENDBRANCH  15  16
ENDBRANCH  13  15
ENDBRANCH  11  12
ENDBRANCH   1  11
TORSDOF 9
ENDMDL
MODEL 7
REMARK VINA RESULT:    -6.142      1.677      3.019
REMARK INTER + INTRA:         -11.507
REMARK INTER:                  -9.644
REMARK INTRA:                  -1.863
REMARK UNBOUND:                -2.135
REMARK SMILES CC(=O)CCC=C(C)CCC=C(C)CCC=C(C)C
REMARK SMILES IDX 10 1 11 2 12 3 13 4 14 5 15 6 16 7 18 8 17 9 19 10 9 11 7 12
REMARK SMILES IDX 6 13 8 14 5 15 4 16 2 17 3 18 1 19
REMARK H PARENT
REMARK Flexibility Score: inf
ROOT
ATOM      1  C   UNL     1      -1.330 -13.008  28.454  1.00  0.00     0.032 C 
ENDROOT
BRANCH   1   2
ATOM      2  C   UNL     1      -2.578 -13.767  28.071  1.00  0.00    -0.028 C 
ATOM      3  C   UNL     1      -3.505 -13.341  27.183  1.00  0.00    -0.077 C 
ATOM      4  C   UNL     1      -3.339 -12.056  26.408  1.00  0.00     0.039 C 
BRANCH   3   5
ATOM      5  C   UNL     1      -4.747 -14.175  26.962  1.00  0.00     0.034 C 
BRANCH   5   6
ATOM      6  C   UNL     1      -5.300 -14.693  28.293  1.00  0.00     0.032 C 
BRANCH   6   7
ATOM      7  C   UNL     1      -6.797 -14.514  28.357  1.00  0.00    -0.028 C 
ATOM      8  C   UNL     1      -9.143 -15.194  28.754  1.00  0.00     0.039 C 
ATOM      9  C   UNL     1      -7.662 -15.472  28.759  1.00  0.00    -0.080 C 
ATOM     10  C   UNL     1      -7.194 -16.816  29.261  1.00  0.00     0.039 C 
ENDBRANCH   6   7
ENDBRANCH   5   6
ENDBRANCH   3   5
ENDBRANCH   1   2
BRANCH   1  11
ATOM     11  C   UNL     1      -1.581 -12.086  29.656  1.00  0.00     0.034 C 
BRANCH  11  12
ATOM     12  C   UNL     1      -1.234 -12.761  30.971  1.00  0.00    -0.077 C 
ATOM     13  C   UNL     1      -2.146 -13.384  31.753  1.00  0.00    -0.028 C 
ATOM     14  C   UNL     1       0.194 -12.706  31.449  1.00  0.00     0.039 C 
BRANCH  13  15
ATOM     15  C   UNL     1      -3.601 -13.575  31.409  1.00  0.00     0.035 C 
BRANCH  15  16
ATOM     16  C   UNL     1      -4.483 -12.615  32.215  1.00  0.00     0.079 C 
BRANCH  16  17
ATOM     17  C   UNL     1      -4.705 -11.334  31.454  1.00  0.00     0.130 C 
ATOM     18  O   UNL     1      -4.630 -10.266  32.043  1.00  0.00    -0.300 OA
ATOM     19  C   UNL     1      -5.006 -11.338  29.985  1.00  0.00     0.087 C 
ENDBRANCH  16  17
ENDBRANCH  15  16
ENDBRANCH  13  15
ENDBRANCH  11  12
ENDBRANCH   1  11
TORSDOF 9
ENDMDL
MODEL 8
REMARK VINA RESULT:    -6.074      1.865      3.826
REMARK INTER + INTRA:         -11.404
REMARK INTER:                  -8.871
REMARK INTRA:                  -2.533
REMARK UNBOUND:                -2.135
REMARK SMILES CC(=O)CCC=C(C)CCC=C(C)CCC=C(C)C
REMARK SMILES IDX 10 1 11 2 12 3 13 4 14 5 15 6 16 7 18 8 17 9 19 10 9 11 7 12
REMARK SMILES IDX 6 13 8 14 5 15 4 16 2 17 3 18 1 19
REMARK H PARENT
REMARK Flexibility Score: inf
ROOT
ATOM      1  C   UNL     1      -1.891  -9.886  30.521  1.00  0.00     0.032 C 
ENDROOT
BRANCH   1   2
ATOM      2  C   UNL     1      -1.592 -11.254  29.953  1.00  0.00    -0.028 C 
ATOM      3  C   UNL     1      -1.002 -12.264  30.630  1.00  0.00    -0.077 C 
ATOM      4  C   UNL     1      -0.637 -12.143  32.090  1.00  0.00     0.039 C 
BRANCH   3   5
ATOM      5  C   UNL     1      -0.694 -13.553  29.901  1.00  0.00     0.034 C 
BRANCH   5   6
ATOM      6  C   UNL     1      -1.170 -13.485  28.447  1.00  0.00     0.032 C 
BRANCH   6   7
ATOM      7  C   UNL     1      -2.577 -14.013  28.318  1.00  0.00    -0.028 C 
ATOM      8  C   UNL     1      -4.938 -14.009  27.576  1.00  0.00     0.039 C 
ATOM      9  C   UNL     1      -3.557 -13.408  27.611  1.00  0.00    -0.080 C 
ATOM     10  C   UNL     1      -3.308 -12.155  26.807  1.00  0.00     0.039 C 
ENDBRANCH   6   7
ENDBRANCH   5   6
ENDBRANCH   3   5
ENDBRANCH   1   2
BRANCH   1  11
ATOM     11  C   UNL     1      -3.211  -9.880  31.303  1.00  0.00     0.034 C 
BRANCH  11  12
ATOM     12  C   UNL     1      -4.321 -10.593  30.551  1.00  0.00    -0.077 C 
ATOM     13  C   UNL     1      -4.767 -11.828  30.875  1.00  0.00    -0.028 C 
ATOM     14  C   UNL     1      -4.934  -9.905  29.358  1.00  0.00     0.039 C 
BRANCH  13  15
ATOM     15  C   UNL     1      -4.303 -12.638  32.059  1.00  0.00     0.035 C 
BRANCH  15  16
ATOM     16  C   UNL     1      -4.200 -14.123  31.697  1.00  0.00     0.079 C 
BRANCH  16  17
ATOM     17  C   UNL     1      -5.554 -14.780  31.763  1.00  0.00     0.130 C 
ATOM     18  O   UNL     1      -6.008 -15.112  32.848  1.00  0.00    -0.300 OA
ATOM     19  C   UNL     1      -6.365 -15.028  30.526  1.00  0.00     0.087 C 
ENDBRANCH  16  17
ENDBRANCH  15  16
ENDBRANCH  13  15
ENDBRANCH  11  12
ENDBRANCH   1  11
TORSDOF 9
ENDMDL
MODEL 9
REMARK VINA RESULT:    -6.025      2.445      3.854
REMARK INTER + INTRA:         -11.329
REMARK INTER:                  -9.571
REMARK INTRA:                  -1.758
REMARK UNBOUND:                -2.135
REMARK SMILES CC(=O)CCC=C(C)CCC=C(C)CCC=C(C)C
REMARK SMILES IDX 10 1 11 2 12 3 13 4 14 5 15 6 16 7 18 8 17 9 19 10 9 11 7 12
REMARK SMILES IDX 6 13 8 14 5 15 4 16 2 17 3 18 1 19
REMARK H PARENT
REMARK Flexibility Score: inf
ROOT
ATOM      1  C   UNL     1      -2.676 -10.121  30.433  1.00  0.00     0.032 C 
ENDROOT
BRANCH   1   2
ATOM      2  C   UNL     1      -2.813 -11.078  29.273  1.00  0.00    -0.028 C 
ATOM      3  C   UNL     1      -3.980 -11.428  28.688  1.00  0.00    -0.077 C 
ATOM      4  C   UNL     1      -5.298 -10.820  29.104  1.00  0.00     0.039 C 
BRANCH   3   5
ATOM      5  C   UNL     1      -3.966 -12.464  27.585  1.00  0.00     0.034 C 
BRANCH   5   6
ATOM      6  C   UNL     1      -4.198 -13.868  28.152  1.00  0.00     0.032 C 
BRANCH   6   7
ATOM      7  C   UNL     1      -5.643 -14.275  27.999  1.00  0.00    -0.028 C 
ATOM      8  C   UNL     1      -7.873 -15.034  28.759  1.00  0.00     0.039 C 
ATOM      9  C   UNL     1      -6.452 -14.613  29.028  1.00  0.00    -0.080 C 
ATOM     10  C   UNL     1      -5.993 -14.545  30.465  1.00  0.00     0.039 C 
ENDBRANCH   6   7
ENDBRANCH   5   6
ENDBRANCH   3   5
ENDBRANCH   1   2
BRANCH   1  11
ATOM     11  C   UNL     1      -2.302 -10.858  31.727  1.00  0.00     0.034 C 
BRANCH  11  12
ATOM     12  C   UNL     1      -3.272 -11.984  32.040  1.00  0.00    -0.077 C 
ATOM     13  C   UNL     1      -4.509 -11.781  32.550  1.00  0.00    -0.028 C 
ATOM     14  C   UNL     1      -2.824 -13.403  31.803  1.00  0.00     0.039 C 
BRANCH  13  15
ATOM     15  C   UNL     1      -5.136 -10.434  32.804  1.00  0.00     0.035 C 
BRANCH  15  16
ATOM     16  C   UNL     1      -5.277 -10.172  34.307  1.00  0.00     0.079 C 
BRANCH  16  17
ATOM     17  C   UNL     1      -6.519 -10.832  34.845  1.00  0.00     0.130 C 
ATOM     18  O   UNL     1      -6.524 -12.040  35.032  1.00  0.00    -0.300 OA
ATOM     19  C   UNL     1      -7.751 -10.039  35.168  1.00  0.00     0.087 C 
ENDBRANCH  16  17
ENDBRANCH  15  16
ENDBRANCH  13  15
ENDBRANCH  11  12
ENDBRANCH   1  11
TORSDOF 9
ENDMDL
