MODEL 1
REMARK VINA RESULT:    -5.194      0.000      0.000
REMARK INTER + INTRA:         -11.801
REMARK INTER:                  -9.749
REMARK INTRA:                  -2.052
REMARK UNBOUND:                -2.052
REMARK SMILES O=C([O-])CCCCCCCCCCCCCCC(=O)[O-]
REMARK SMILES IDX 10 1 9 2 8 3 7 4 6 5 5 6 4 7 2 8 1 9 3 10 11 11 12 12 13 13
REMARK SMILES IDX 14 14 15 15 16 16 17 17 18 18 19 19 20 20
REMARK H PARENT
REMARK Flexibility Score: inf
ROOT
ATOM      1  C   UNL     1      55.988  36.042  43.209  1.00  0.00     0.000 C 
ENDROOT
BRANCH   1   2
ATOM      2  C   UNL     1      55.100  37.288  43.115  1.00  0.00     0.000 C 
BRANCH   2   3
ATOM      3  C   UNL     1      54.095  37.160  41.959  1.00  0.00     0.000 C 
BRANCH   3   4
ATOM      4  C   UNL     1      52.634  37.216  42.434  1.00  0.00     0.000 C 
BRANCH   4   5
ATOM      5  C   UNL     1      52.473  37.955  43.775  1.00  0.00     0.000 C 
BRANCH   5   6
ATOM      6  C   UNL     1      51.776  37.089  44.843  1.00  0.00     0.006 C 
BRANCH   6   7
ATOM      7  C   UNL     1      52.752  36.395  45.807  1.00  0.00     0.053 C 
BRANCH   7   8
ATOM      8  C   UNL     1      52.597  36.875  47.216  1.00  0.00     0.041 C 
ATOM      9  O   UNL     1      53.408  37.710  47.694  1.00  0.00    -0.550 OA
ATOM     10  O   UNL     1      51.544  36.412  47.996  1.00  0.00    -0.550 OA
ENDBRANCH   7   8
ENDBRANCH   6   7
ENDBRANCH   5   6
ENDBRANCH   4   5
ENDBRANCH   3   4
ENDBRANCH   2   3
ENDBRANCH   1   2
BRANCH   1  11
ATOM     11  C   UNL     1      55.584  34.994  42.166  1.00  0.00     0.000 C 
BRANCH  11  12
ATOM     12  C   UNL     1      55.354  33.625  42.823  1.00  0.00     0.000 C 
BRANCH  12  13
ATOM     13  C   UNL     1      54.028  33.550  43.600  1.00  0.00     0.000 C 
BRANCH  13  14
ATOM     14  C   UNL     1      52.758  33.625  42.731  1.00  0.00     0.000 C 
BRANCH  14  15
ATOM     15  C   UNL     1      51.436  33.773  43.511  1.00  0.00     0.000 C 
BRANCH  15  16
ATOM     16  C   UNL     1      50.424  32.632  43.295  1.00  0.00     0.006 C 
BRANCH  16  17
ATOM     17  C   UNL     1      50.660  31.868  41.986  1.00  0.00     0.053 C 
BRANCH  17  18
ATOM     18  C   UNL     1      50.953  30.429  42.268  1.00  0.00     0.041 C 
ATOM     19  O   UNL     1      51.677  29.762  41.482  1.00  0.00    -0.550 OA
ATOM     20  O   UNL     1      50.385  29.808  43.374  1.00  0.00    -0.550 OA
ENDBRANCH  17  18
ENDBRANCH  16  17
ENDBRANCH  15  16
ENDBRANCH  14  15
ENDBRANCH  13  14
ENDBRANCH  12  13
ENDBRANCH  11  12
ENDBRANCH   1  11
TORSDOF 15
ENDMDL
MODEL 2
REMARK VINA RESULT:    -5.135      2.710      4.938
REMARK INTER + INTRA:         -11.691
REMARK INTER:                  -9.997
REMARK INTRA:                  -1.693
REMARK UNBOUND:                -2.052
REMARK SMILES O=C([O-])CCCCCCCCCCCCCCC(=O)[O-]
REMARK SMILES IDX 10 1 9 2 8 3 7 4 6 5 5 6 4 7 2 8 1 9 3 10 11 11 12 12 13 13
REMARK SMILES IDX 14 14 15 15 16 16 17 17 18 18 19 19 20 20
REMARK H PARENT
REMARK Flexibility Score: inf
ROOT
ATOM      1  C   UNL     1      54.614  30.213  42.580  1.00  0.00     0.000 C 
ENDROOT
BRANCH   1   2
ATOM      2  C   UNL     1      55.443  31.080  43.534  1.00  0.00     0.000 C 
BRANCH   2   3
ATOM      3  C   UNL     1      54.880  32.508  43.609  1.00  0.00     0.000 C 
BRANCH   3   4
ATOM      4  C   UNL     1      55.642  33.495  42.711  1.00  0.00     0.000 C 
BRANCH   4   5
ATOM      5  C   UNL     1      54.862  34.800  42.467  1.00  0.00     0.000 C 
BRANCH   5   6
ATOM      6  C   UNL     1      54.694  35.633  43.753  1.00  0.00     0.006 C 
BRANCH   6   7
ATOM      7  C   UNL     1      54.695  37.151  43.508  1.00  0.00     0.053 C 
BRANCH   7   8
ATOM      8  C   UNL     1      53.663  37.566  42.507  1.00  0.00     0.041 C 
ATOM      9  O   UNL     1      53.974  38.332  41.558  1.00  0.00    -0.550 OA
ATOM     10  O   UNL     1      52.362  37.091  42.612  1.00  0.00    -0.550 OA
ENDBRANCH   7   8
ENDBRANCH   6   7
ENDBRANCH   5   6
ENDBRANCH   4   5
ENDBRANCH   3   4
ENDBRANCH   2   3
ENDBRANCH   1   2
BRANCH   1  11
ATOM     11  C   UNL     1      53.240  29.890  43.180  1.00  0.00     0.000 C 
BRANCH  11  12
ATOM     12  C   UNL     1      52.133  30.026  42.123  1.00  0.00     0.000 C 
BRANCH  12  13
ATOM     13  C   UNL     1      50.734  30.195  42.742  1.00  0.00     0.000 C 
BRANCH  13  14
ATOM     14  C   UNL     1      50.151  31.619  42.654  1.00  0.00     0.000 C 
BRANCH  14  15
ATOM     15  C   UNL     1      51.161  32.719  42.273  1.00  0.00     0.000 C 
BRANCH  15  16
ATOM     16  C   UNL     1      51.521  33.693  43.411  1.00  0.00     0.006 C 
BRANCH  16  17
ATOM     17  C   UNL     1      50.364  33.909  44.395  1.00  0.00     0.053 C 
BRANCH  17  18
ATOM     18  C   UNL     1      50.525  35.214  45.109  1.00  0.00     0.041 C 
ATOM     19  O   UNL     1      49.583  36.050  45.125  1.00  0.00    -0.550 OA
ATOM     20  O   UNL     1      51.735  35.530  45.715  1.00  0.00    -0.550 OA
ENDBRANCH  17  18
ENDBRANCH  16  17
ENDBRANCH  15  16
ENDBRANCH  14  15
ENDBRANCH  13  14
ENDBRANCH  12  13
ENDBRANCH  11  12
ENDBRANCH   1  11
TORSDOF 15
ENDMDL
MODEL 3
REMARK VINA RESULT:    -5.078      1.225      6.262
REMARK INTER + INTRA:         -11.584
REMARK INTER:                 -10.036
REMARK INTRA:                  -1.548
REMARK UNBOUND:                -2.052
REMARK SMILES O=C([O-])CCCCCCCCCCCCCCC(=O)[O-]
REMARK SMILES IDX 10 1 9 2 8 3 7 4 6 5 5 6 4 7 2 8 1 9 3 10 11 11 12 12 13 13
REMARK SMILES IDX 14 14 15 15 16 16 17 17 18 18 19 19 20 20
REMARK H PARENT
REMARK Flexibility Score: inf
ROOT
ATOM      1  C   UNL     1      55.594  34.156  42.426  1.00  0.00     0.000 C 
ENDROOT
BRANCH   1   2
ATOM      2  C   UNL     1      54.716  33.203  43.245  1.00  0.00     0.000 C 
BRANCH   2   3
ATOM      3  C   UNL     1      53.388  33.873  43.631  1.00  0.00     0.000 C 
BRANCH   3   4
ATOM      4  C   UNL     1      52.314  33.736  42.541  1.00  0.00     0.000 C 
BRANCH   4   5
ATOM      5  C   UNL     1      51.060  32.992  43.033  1.00  0.00     0.000 C 
BRANCH   5   6
ATOM      6  C   UNL     1      50.674  31.816  42.114  1.00  0.00     0.006 C 
BRANCH   6   7
ATOM      7  C   UNL     1      50.519  30.479  42.856  1.00  0.00     0.053 C 
BRANCH   7   8
ATOM      8  C   UNL     1      51.633  29.528  42.551  1.00  0.00     0.041 C 
ATOM      9  O   UNL     1      52.103  28.791  43.458  1.00  0.00    -0.550 OA
ATOM     10  O   UNL     1      52.142  29.442  41.262  1.00  0.00    -0.550 OA
ENDBRANCH   7   8
ENDBRANCH   6   7
ENDBRANCH   5   6
ENDBRANCH   4   5
ENDBRANCH   3   4
ENDBRANCH   2   3
ENDBRANCH   1   2
BRANCH   1  11
ATOM     11  C   UNL     1      55.573  35.571  43.015  1.00  0.00     0.000 C 
BRANCH  11  12
ATOM     12  C   UNL     1      55.911  36.618  41.944  1.00  0.00     0.000 C 
BRANCH  12  13
ATOM     13  C   UNL     1      54.718  37.528  41.601  1.00  0.00     0.000 C 
BRANCH  13  14
ATOM     14  C   UNL     1      53.463  37.313  42.470  1.00  0.00     0.000 C 
BRANCH  14  15
ATOM     15  C   UNL     1      53.158  38.445  43.471  1.00  0.00     0.000 C 
BRANCH  15  16
ATOM     16  C   UNL     1      54.009  38.423  44.755  1.00  0.00     0.006 C 
BRANCH  16  17
ATOM     17  C   UNL     1      53.180  38.135  46.013  1.00  0.00     0.053 C 
BRANCH  17  18
ATOM     18  C   UNL     1      52.939  36.665  46.152  1.00  0.00     0.041 C 
ATOM     19  O   UNL     1      53.876  35.898  46.500  1.00  0.00    -0.550 OA
ATOM     20  O   UNL     1      51.691  36.134  45.850  1.00  0.00    -0.550 OA
ENDBRANCH  17  18
ENDBRANCH  16  17
ENDBRANCH  15  16
ENDBRANCH  14  15
ENDBRANCH  13  14
ENDBRANCH  12  13
ENDBRANCH  11  12
ENDBRANCH   1  11
TORSDOF 15
ENDMDL
MODEL 4
REMARK VINA RESULT:    -5.060      2.951      6.302
REMARK INTER + INTRA:         -11.549
REMARK INTER:                  -9.789
REMARK INTRA:                  -1.761
REMARK UNBOUND:                -2.052
REMARK SMILES O=C([O-])CCCCCCCCCCCCCCC(=O)[O-]
REMARK SMILES IDX 10 1 9 2 8 3 7 4 6 5 5 6 4 7 2 8 1 9 3 10 11 11 12 12 13 13
REMARK SMILES IDX 14 14 15 15 16 16 17 17 18 18 19 19 20 20
REMARK H PARENT
REMARK Flexibility Score: inf
ROOT
ATOM      1  C   UNL     1      52.288  29.867  42.066  1.00  0.00     0.000 C 
ENDROOT
BRANCH   1   2
ATOM      2  C   UNL     1      53.246  29.852  43.262  1.00  0.00     0.000 C 
BRANCH   2   3
ATOM      3  C   UNL     1      54.685  30.156  42.819  1.00  0.00     0.000 C 
BRANCH   3   4
ATOM      4  C   UNL     1      55.306  31.336  43.585  1.00  0.00     0.000 C 
BRANCH   4   5
ATOM      5  C   UNL     1      54.608  32.674  43.281  1.00  0.00     0.000 C 
BRANCH   5   6
ATOM      6  C   UNL     1      55.612  33.813  43.012  1.00  0.00     0.006 C 
BRANCH   6   7
ATOM      7  C   UNL     1      55.149  34.797  41.926  1.00  0.00     0.053 C 
BRANCH   7   8
ATOM      8  C   UNL     1      55.811  36.134  42.051  1.00  0.00     0.041 C 
ATOM      9  O   UNL     1      55.805  36.937  41.081  1.00  0.00    -0.550 OA
ATOM     10  O   UNL     1      56.419  36.499  43.245  1.00  0.00    -0.550 OA
ENDBRANCH   7   8
ENDBRANCH   6   7
ENDBRANCH   5   6
ENDBRANCH   4   5
ENDBRANCH   3   4
ENDBRANCH   2   3
ENDBRANCH   1   2
BRANCH   1  11
ATOM     11  C   UNL     1      50.887  30.327  42.485  1.00  0.00     0.000 C 
BRANCH  11  12
ATOM     12  C   UNL     1      50.654  31.797  42.105  1.00  0.00     0.000 C 
BRANCH  12  13
ATOM     13  C   UNL     1      50.602  32.730  43.329  1.00  0.00     0.000 C 
BRANCH  13  14
ATOM     14  C   UNL     1      51.499  33.979  43.234  1.00  0.00     0.000 C 
BRANCH  14  15
ATOM     15  C   UNL     1      51.744  34.713  44.568  1.00  0.00     0.000 C 
BRANCH  15  16
ATOM     16  C   UNL     1      52.717  35.904  44.483  1.00  0.00     0.006 C 
BRANCH  16  17
ATOM     17  C   UNL     1      53.815  35.851  45.553  1.00  0.00     0.053 C 
BRANCH  17  18
ATOM     18  C   UNL     1      53.375  36.570  46.788  1.00  0.00     0.041 C 
ATOM     19  O   UNL     1      53.706  36.141  47.925  1.00  0.00    -0.550 OA
ATOM     20  O   UNL     1      52.556  37.689  46.687  1.00  0.00    -0.550 OA
ENDBRANCH  17  18
ENDBRANCH  16  17
ENDBRANCH  15  16
ENDBRANCH  14  15
ENDBRANCH  13  14
ENDBRANCH  12  13
ENDBRANCH  11  12
ENDBRANCH   1  11
TORSDOF 15
ENDMDL
MODEL 5
REMARK VINA RESULT:    -5.013      2.578      6.627
REMARK INTER + INTRA:         -11.461
REMARK INTER:                  -9.534
REMARK INTRA:                  -1.927
REMARK UNBOUND:                -2.052
REMARK SMILES O=C([O-])CCCCCCCCCCCCCCC(=O)[O-]
REMARK SMILES IDX 10 1 9 2 8 3 7 4 6 5 5 6 4 7 2 8 1 9 3 10 11 11 12 12 13 13
REMARK SMILES IDX 14 14 15 15 16 16 17 17 18 18 19 19 20 20
REMARK H PARENT
REMARK Flexibility Score: inf
ROOT
ATOM      1  C   UNL     1      51.383  37.169  44.038  1.00  0.00     0.000 C 
ENDROOT
BRANCH   1   2
ATOM      2  C   UNL     1      51.396  36.184  45.212  1.00  0.00     0.000 C 
BRANCH   2   3
ATOM      3  C   UNL     1      51.925  34.810  44.771  1.00  0.00     0.000 C 
BRANCH   3   4
ATOM      4  C   UNL     1      52.477  34.818  43.337  1.00  0.00     0.000 C 
BRANCH   4   5
ATOM      5  C   UNL     1      52.166  33.518  42.574  1.00  0.00     0.000 C 
BRANCH   5   6
ATOM      6  C   UNL     1      50.829  32.885  43.009  1.00  0.00     0.006 C 
BRANCH   6   7
ATOM      7  C   UNL     1      50.299  31.828  42.026  1.00  0.00     0.053 C 
BRANCH   7   8
ATOM      8  C   UNL     1      50.852  30.466  42.305  1.00  0.00     0.041 C 
ATOM      9  O   UNL     1      51.726  29.969  41.548  1.00  0.00    -0.550 OA
ATOM     10  O   UNL     1      50.413  29.751  43.412  1.00  0.00    -0.550 OA
ENDBRANCH   7   8
ENDBRANCH   6   7
ENDBRANCH   5   6
ENDBRANCH   4   5
ENDBRANCH   3   4
ENDBRANCH   2   3
ENDBRANCH   1   2
BRANCH   1  11
ATOM     11  C   UNL     1      51.978  38.522  44.446  1.00  0.00     0.000 C 
BRANCH  11  12
ATOM     12  C   UNL     1      53.124  38.338  45.451  1.00  0.00     0.000 C 
BRANCH  12  13
ATOM     13  C   UNL     1      54.511  38.338  44.782  1.00  0.00     0.000 C 
BRANCH  13  14
ATOM     14  C   UNL     1      55.046  36.946  44.394  1.00  0.00     0.000 C 
BRANCH  14  15
ATOM     15  C   UNL     1      55.917  36.910  43.122  1.00  0.00     0.000 C 
BRANCH  15  16
ATOM     16  C   UNL     1      55.154  36.593  41.822  1.00  0.00     0.006 C 
BRANCH  16  17
ATOM     17  C   UNL     1      55.041  37.805  40.889  1.00  0.00     0.053 C 
BRANCH  17  18
ATOM     18  C   UNL     1      53.741  38.511  41.107  1.00  0.00     0.041 C 
ATOM     19  O   UNL     1      52.658  37.969  40.763  1.00  0.00    -0.550 OA
ATOM     20  O   UNL     1      53.728  39.793  41.646  1.00  0.00    -0.550 OA
ENDBRANCH  17  18
ENDBRANCH  16  17
ENDBRANCH  15  16
ENDBRANCH  14  15
ENDBRANCH  13  14
ENDBRANCH  12  13
ENDBRANCH  11  12
ENDBRANCH   1  11
TORSDOF 15
ENDMDL
MODEL 6
REMARK VINA RESULT:    -5.000      5.262      7.496
REMARK INTER + INTRA:         -11.436
REMARK INTER:                  -9.737
REMARK INTRA:                  -1.699
REMARK UNBOUND:                -2.052
REMARK SMILES O=C([O-])CCCCCCCCCCCCCCC(=O)[O-]
REMARK SMILES IDX 10 1 9 2 8 3 7 4 6 5 5 6 4 7 2 8 1 9 3 10 11 11 12 12 13 13
REMARK SMILES IDX 14 14 15 15 16 16 17 17 18 18 19 19 20 20
REMARK H PARENT
REMARK Flexibility Score: inf
ROOT
ATOM      1  C   UNL     1      55.924  35.741  43.232  1.00  0.00     0.000 C 
ENDROOT
BRANCH   1   2
ATOM      2  C   UNL     1      56.356  36.925  42.360  1.00  0.00     0.000 C 
BRANCH   2   3
ATOM      3  C   UNL     1      55.825  36.776  40.926  1.00  0.00     0.000 C 
BRANCH   3   4
ATOM      4  C   UNL     1      56.389  37.838  39.970  1.00  0.00     0.000 C 
BRANCH   4   5
ATOM      5  C   UNL     1      56.397  37.372  38.503  1.00  0.00     0.000 C 
BRANCH   5   6
ATOM      6  C   UNL     1      57.586  37.948  37.708  1.00  0.00     0.006 C 
BRANCH   6   7
ATOM      7  C   UNL     1      58.730  38.463  38.597  1.00  0.00     0.053 C 
BRANCH   7   8
ATOM      8  C   UNL     1      60.070  38.299  37.951  1.00  0.00     0.041 C 
ATOM      9  O   UNL     1      60.930  39.214  38.037  1.00  0.00    -0.550 OA
ATOM     10  O   UNL     1      60.375  37.129  37.269  1.00  0.00    -0.550 OA
ENDBRANCH   7   8
ENDBRANCH   6   7
ENDBRANCH   5   6
ENDBRANCH   4   5
ENDBRANCH   3   4
ENDBRANCH   2   3
ENDBRANCH   1   2
BRANCH   1  11
ATOM     11  C   UNL     1      55.512  34.542  42.370  1.00  0.00     0.000 C 
BRANCH  11  12
ATOM     12  C   UNL     1      54.213  33.911  42.891  1.00  0.00     0.000 C 
BRANCH  12  13
ATOM     13  C   UNL     1      53.810  34.432  44.282  1.00  0.00     0.000 C 
BRANCH  13  14
ATOM     14  C   UNL     1      52.403  35.055  44.363  1.00  0.00     0.000 C 
BRANCH  14  15
ATOM     15  C   UNL     1      52.372  36.591  44.483  1.00  0.00     0.000 C 
BRANCH  15  16
ATOM     16  C   UNL     1      52.338  37.347  43.142  1.00  0.00     0.006 C 
BRANCH  16  17
ATOM     17  C   UNL     1      53.159  38.643  43.169  1.00  0.00     0.053 C 
BRANCH  17  18
ATOM     18  C   UNL     1      53.238  39.238  41.800  1.00  0.00     0.041 C 
ATOM     19  O   UNL     1      53.643  40.421  41.643  1.00  0.00    -0.550 OA
ATOM     20  O   UNL     1      52.816  38.505  40.697  1.00  0.00    -0.550 OA
ENDBRANCH  17  18
ENDBRANCH  16  17
ENDBRANCH  15  16
ENDBRANCH  14  15
ENDBRANCH  13  14
ENDBRANCH  12  13
ENDBRANCH  11  12
ENDBRANCH   1  11
TORSDOF 15
ENDMDL
MODEL 7
REMARK VINA RESULT:    -4.970      1.310      5.732
REMARK INTER + INTRA:         -11.381
REMARK INTER:                  -8.889
REMARK INTRA:                  -2.492
REMARK UNBOUND:                -2.052
REMARK SMILES O=C([O-])CCCCCCCCCCCCCCC(=O)[O-]
REMARK SMILES IDX 10 1 9 2 8 3 7 4 6 5 5 6 4 7 2 8 1 9 3 10 11 11 12 12 13 13
REMARK SMILES IDX 14 14 15 15 16 16 17 17 18 18 19 19 20 20
REMARK H PARENT
REMARK Flexibility Score: inf
ROOT
ATOM      1  C   UNL     1      55.447  37.001  41.156  1.00  0.00     0.000 C 
ENDROOT
BRANCH   1   2
ATOM      2  C   UNL     1      56.263  36.763  42.432  1.00  0.00     0.000 C 
BRANCH   2   3
ATOM      3  C   UNL     1      56.031  35.346  42.977  1.00  0.00     0.000 C 
BRANCH   3   4
ATOM      4  C   UNL     1      55.007  34.551  42.152  1.00  0.00     0.000 C 
BRANCH   4   5
ATOM      5  C   UNL     1      53.946  33.860  43.028  1.00  0.00     0.000 C 
BRANCH   5   6
ATOM      6  C   UNL     1      52.509  34.143  42.546  1.00  0.00     0.006 C 
BRANCH   6   7
ATOM      7  C   UNL     1      51.444  33.290  43.254  1.00  0.00     0.053 C 
BRANCH   7   8
ATOM      8  C   UNL     1      51.069  32.076  42.464  1.00  0.00     0.041 C 
ATOM      9  O   UNL     1      50.005  32.061  41.791  1.00  0.00    -0.550 OA
ATOM     10  O   UNL     1      51.906  30.967  42.455  1.00  0.00    -0.550 OA
ENDBRANCH   7   8
ENDBRANCH   6   7
ENDBRANCH   5   6
ENDBRANCH   4   5
ENDBRANCH   3   4
ENDBRANCH   2   3
ENDBRANCH   1   2
BRANCH   1  11
ATOM     11  C   UNL     1      54.495  38.192  41.323  1.00  0.00     0.000 C 
BRANCH  11  12
ATOM     12  C   UNL     1      53.052  37.716  41.546  1.00  0.00     0.000 C 
BRANCH  12  13
ATOM     13  C   UNL     1      52.642  37.726  43.030  1.00  0.00     0.000 C 
BRANCH  13  14
ATOM     14  C   UNL     1      53.360  38.779  43.897  1.00  0.00     0.000 C 
BRANCH  14  15
ATOM     15  C   UNL     1      54.107  38.219  45.124  1.00  0.00     0.000 C 
BRANCH  15  16
ATOM     16  C   UNL     1      53.848  36.729  45.417  1.00  0.00     0.006 C 
BRANCH  16  17
ATOM     17  C   UNL     1      53.409  36.476  46.864  1.00  0.00     0.053 C 
BRANCH  17  18
ATOM     18  C   UNL     1      51.921  36.344  46.942  1.00  0.00     0.041 C 
ATOM     19  O   UNL     1      51.330  36.460  48.048  1.00  0.00    -0.550 OA
ATOM     20  O   UNL     1      51.189  36.042  45.799  1.00  0.00    -0.550 OA
ENDBRANCH  17  18
ENDBRANCH  16  17
ENDBRANCH  15  16
ENDBRANCH  14  15
ENDBRANCH  13  14
ENDBRANCH  12  13
ENDBRANCH  11  12
ENDBRANCH   1  11
TORSDOF 15
ENDMDL
MODEL 8
REMARK VINA RESULT:    -4.968      3.746      6.966
REMARK INTER + INTRA:         -11.376
REMARK INTER:                  -9.335
REMARK INTRA:                  -2.041
REMARK UNBOUND:                -2.052
REMARK SMILES O=C([O-])CCCCCCCCCCCCCCC(=O)[O-]
REMARK SMILES IDX 10 1 9 2 8 3 7 4 6 5 5 6 4 7 2 8 1 9 3 10 11 11 12 12 13 13
REMARK SMILES IDX 14 14 15 15 16 16 17 17 18 18 19 19 20 20
REMARK H PARENT
REMARK Flexibility Score: inf
ROOT
ATOM      1  C   UNL     1      50.369  35.411  47.157  1.00  0.00     0.000 C 
ENDROOT
BRANCH   1   2
ATOM      2  C   UNL     1      50.478  35.881  45.702  1.00  0.00     0.000 C 
BRANCH   2   3
ATOM      3  C   UNL     1      50.820  34.709  44.769  1.00  0.00     0.000 C 
BRANCH   3   4
ATOM      4  C   UNL     1      52.312  34.653  44.408  1.00  0.00     0.000 C 
BRANCH   4   5
ATOM      5  C   UNL     1      52.554  34.630  42.888  1.00  0.00     0.000 C 
BRANCH   5   6
ATOM      6  C   UNL     1      54.003  34.246  42.528  1.00  0.00     0.006 C 
BRANCH   6   7
ATOM      7  C   UNL     1      55.053  34.841  43.480  1.00  0.00     0.053 C 
BRANCH   7   8
ATOM      8  C   UNL     1      55.941  35.834  42.798  1.00  0.00     0.041 C 
ATOM      9  O   UNL     1      55.692  36.202  41.619  1.00  0.00    -0.550 OA
ATOM     10  O   UNL     1      57.032  36.369  43.470  1.00  0.00    -0.550 OA
ENDBRANCH   7   8
ENDBRANCH   6   7
ENDBRANCH   5   6
ENDBRANCH   4   5
ENDBRANCH   3   4
ENDBRANCH   2   3
ENDBRANCH   1   2
BRANCH   1  11
ATOM     11  C   UNL     1      51.247  36.263  48.080  1.00  0.00     0.000 C 
BRANCH  11  12
ATOM     12  C   UNL     1      52.558  36.656  47.384  1.00  0.00     0.000 C 
BRANCH  12  13
ATOM     13  C   UNL     1      52.935  38.132  47.607  1.00  0.00     0.000 C 
BRANCH  13  14
ATOM     14  C   UNL     1      53.538  38.843  46.380  1.00  0.00     0.000 C 
BRANCH  14  15
ATOM     15  C   UNL     1      53.843  37.929  45.177  1.00  0.00     0.000 C 
BRANCH  15  16
ATOM     16  C   UNL     1      53.231  38.389  43.841  1.00  0.00     0.006 C 
BRANCH  16  17
ATOM     17  C   UNL     1      52.265  39.570  44.005  1.00  0.00     0.053 C 
BRANCH  17  18
ATOM     18  C   UNL     1      52.634  40.679  43.072  1.00  0.00     0.041 C 
ATOM     19  O   UNL     1      52.124  41.822  43.211  1.00  0.00    -0.550 OA
ATOM     20  O   UNL     1      53.504  40.438  42.015  1.00  0.00    -0.550 OA
ENDBRANCH  17  18
ENDBRANCH  16  17
ENDBRANCH  15  16
ENDBRANCH  14  15
ENDBRANCH  13  14
ENDBRANCH  12  13
ENDBRANCH  11  12
ENDBRANCH   1  11
TORSDOF 15
ENDMDL
MODEL 9
REMARK VINA RESULT:    -4.922      1.718      6.502
REMARK INTER + INTRA:         -11.290
REMARK INTER:                  -9.992
REMARK INTRA:                  -1.298
REMARK UNBOUND:                -2.052
REMARK SMILES O=C([O-])CCCCCCCCCCCCCCC(=O)[O-]
REMARK SMILES IDX 10 1 9 2 8 3 7 4 6 5 5 6 4 7 2 8 1 9 3 10 11 11 12 12 13 13
REMARK SMILES IDX 14 14 15 15 16 16 17 17 18 18 19 19 20 20
REMARK H PARENT
REMARK Flexibility Score: inf
ROOT
ATOM      1  C   UNL     1      55.723  35.030  42.812  1.00  0.00     0.000 C 
ENDROOT
BRANCH   1   2
ATOM      2  C   UNL     1      55.628  33.571  42.352  1.00  0.00     0.000 C 
BRANCH   2   3
ATOM      3  C   UNL     1      54.688  32.766  43.263  1.00  0.00     0.000 C 
BRANCH   3   4
ATOM      4  C   UNL     1      55.332  31.473  43.786  1.00  0.00     0.000 C 
BRANCH   4   5
ATOM      5  C   UNL     1      54.953  30.240  42.945  1.00  0.00     0.000 C 
BRANCH   5   6
ATOM      6  C   UNL     1      53.539  29.718  43.269  1.00  0.00     0.006 C 
BRANCH   6   7
ATOM      7  C   UNL     1      52.563  29.807  42.084  1.00  0.00     0.053 C 
BRANCH   7   8
ATOM      8  C   UNL     1      51.273  30.466  42.458  1.00  0.00     0.041 C 
ATOM      9  O   UNL     1      50.428  29.852  43.162  1.00  0.00    -0.550 OA
ATOM     10  O   UNL     1      51.010  31.765  42.045  1.00  0.00    -0.550 OA
ENDBRANCH   7   8
ENDBRANCH   6   7
ENDBRANCH   5   6
ENDBRANCH   4   5
ENDBRANCH   3   4
ENDBRANCH   2   3
ENDBRANCH   1   2
BRANCH   1  11
ATOM     11  C   UNL     1      54.337  35.682  42.872  1.00  0.00     0.000 C 
BRANCH  11  12
ATOM     12  C   UNL     1      54.406  37.160  42.460  1.00  0.00     0.000 C 
BRANCH  12  13
ATOM     13  C   UNL     1      53.039  37.864  42.528  1.00  0.00     0.000 C 
BRANCH  13  14
ATOM     14  C   UNL     1      52.924  38.961  43.605  1.00  0.00     0.000 C 
BRANCH  14  15
ATOM     15  C   UNL     1      53.929  38.847  44.767  1.00  0.00     0.000 C 
BRANCH  15  16
ATOM     16  C   UNL     1      53.319  38.410  46.112  1.00  0.00     0.006 C 
BRANCH  16  17
ATOM     17  C   UNL     1      53.391  36.893  46.332  1.00  0.00     0.053 C 
BRANCH  17  18
ATOM     18  C   UNL     1      52.021  36.295  46.287  1.00  0.00     0.041 C 
ATOM     19  O   UNL     1      51.355  36.154  47.347  1.00  0.00    -0.550 OA
ATOM     20  O   UNL     1      51.498  35.846  45.081  1.00  0.00    -0.550 OA
ENDBRANCH  17  18
ENDBRANCH  16  17
ENDBRANCH  15  16
ENDBRANCH  14  15
ENDBRANCH  13  14
ENDBRANCH  12  13
ENDBRANCH  11  12
ENDBRANCH   1  11
TORSDOF 15
ENDMDL
