MODEL 1
REMARK VINA RESULT:    -3.984      0.000      0.000
REMARK INTER + INTRA:          -6.511
REMARK INTER:                  -5.382
REMARK INTRA:                  -1.129
REMARK UNBOUND:                -1.129
REMARK SMILES CC(=O)CCC=C(C)CCC=C(C)C
REMARK SMILES IDX 7 1 6 2 8 3 9 4 10 5 11 6 13 7 12 8 14 9 5 10 4 11 2 12 3 13
REMARK SMILES IDX 1 14
REMARK H PARENT
REMARK Flexibility Score: inf
ROOT
ATOM      1  C   UNL     1       6.390  29.275  17.199  1.00  0.00    -0.077 C 
ATOM      2  C   UNL     1       6.927  28.041  17.057  1.00  0.00    -0.028 C 
ATOM      3  C   UNL     1       4.908  29.525  17.041  1.00  0.00     0.039 C 
ENDROOT
BRANCH   1   4
ATOM      4  C   UNL     1       7.298  30.437  17.546  1.00  0.00     0.034 C 
BRANCH   4   5
ATOM      5  C   UNL     1       7.968  31.032  16.300  1.00  0.00     0.032 C 
BRANCH   5   6
ATOM      6  C   UNL     1       9.273  30.341  15.982  1.00  0.00    -0.028 C 
ATOM      7  C   UNL     1      10.872  29.009  14.677  1.00  0.00     0.039 C 
ATOM      8  C   UNL     1       9.497  29.592  14.879  1.00  0.00    -0.080 C 
ATOM      9  C   UNL     1       8.413  29.314  13.865  1.00  0.00     0.039 C 
ENDBRANCH   5   6
ENDBRANCH   4   5
ENDBRANCH   1   4
BRANCH   2  10
ATOM     10  C   UNL     1       6.148  26.806  16.672  1.00  0.00     0.035 C 
BRANCH  10  11
ATOM     11  C   UNL     1       6.112  26.609  15.151  1.00  0.00     0.079 C 
BRANCH  11  12
ATOM     12  C   UNL     1       7.069  25.532  14.707  1.00  0.00     0.130 C 
ATOM     13  O   UNL     1       6.630  24.469  14.293  1.00  0.00    -0.300 OA
ATOM     14  C   UNL     1       8.554  25.738  14.763  1.00  0.00     0.087 C 
ENDBRANCH  11  12
ENDBRANCH  10  11
ENDBRANCH   2  10
TORSDOF 6
ENDMDL
MODEL 2
REMARK VINA RESULT:    -3.983      2.498      4.750
REMARK INTER + INTRA:          -6.509
REMARK INTER:                  -5.589
REMARK INTRA:                  -0.919
REMARK UNBOUND:                -1.129
REMARK SMILES CC(=O)CCC=C(C)CCC=C(C)C
REMARK SMILES IDX 7 1 6 2 8 3 9 4 10 5 11 6 13 7 12 8 14 9 5 10 4 11 2 12 3 13
REMARK SMILES IDX 1 14
REMARK H PARENT
REMARK Flexibility Score: inf
ROOT
ATOM      1  C   UNL     1       8.638  30.485  15.382  1.00  0.00    -0.077 C 
ATOM      2  C   UNL     1       9.849  29.895  15.509  1.00  0.00    -0.028 C 
ATOM      3  C   UNL     1       7.893  30.506  14.067  1.00  0.00     0.039 C 
ENDROOT
BRANCH   1   4
ATOM      4  C   UNL     1       8.000  31.125  16.598  1.00  0.00     0.034 C 
BRANCH   4   5
ATOM      5  C   UNL     1       7.479  30.075  17.590  1.00  0.00     0.032 C 
BRANCH   5   6
ATOM      6  C   UNL     1       6.070  29.644  17.261  1.00  0.00    -0.028 C 
ATOM      7  C   UNL     1       4.265  28.116  16.596  1.00  0.00     0.039 C 
ATOM      8  C   UNL     1       5.723  28.409  16.835  1.00  0.00    -0.080 C 
ATOM      9  C   UNL     1       6.751  27.333  16.578  1.00  0.00     0.039 C 
ENDBRANCH   5   6
ENDBRANCH   4   5
ENDBRANCH   1   4
BRANCH   2  10
ATOM     10  C   UNL     1      10.616  29.259  14.375  1.00  0.00     0.035 C 
BRANCH  10  11
ATOM     11  C   UNL     1      11.025  27.817  14.704  1.00  0.00     0.079 C 
BRANCH  11  12
ATOM     12  C   UNL     1      12.481  27.725  15.082  1.00  0.00     0.130 C 
ATOM     13  O   UNL     1      13.251  28.607  14.731  1.00  0.00    -0.300 OA
ATOM     14  C   UNL     1      13.007  26.571  15.882  1.00  0.00     0.087 C 
ENDBRANCH  11  12
ENDBRANCH  10  11
ENDBRANCH   2  10
TORSDOF 6
ENDMDL
MODEL 3
REMARK VINA RESULT:    -3.978      2.798      4.909
REMARK INTER + INTRA:          -6.502
REMARK INTER:                  -5.895
REMARK INTRA:                  -0.607
REMARK UNBOUND:                -1.129
REMARK SMILES CC(=O)CCC=C(C)CCC=C(C)C
REMARK SMILES IDX 7 1 6 2 8 3 9 4 10 5 11 6 13 7 12 8 14 9 5 10 4 11 2 12 3 13
REMARK SMILES IDX 1 14
REMARK H PARENT
REMARK Flexibility Score: inf
ROOT
ATOM      1  C   UNL     1       9.759  29.337  14.886  1.00  0.00    -0.077 C 
ATOM      2  C   UNL     1       9.406  30.313  15.753  1.00  0.00    -0.028 C 
ATOM      3  C   UNL     1       8.740  28.623  14.028  1.00  0.00     0.039 C 
ENDROOT
BRANCH   1   4
ATOM      4  C   UNL     1      11.222  28.962  14.755  1.00  0.00     0.034 C 
BRANCH   4   5
ATOM      5  C   UNL     1      11.431  27.443  14.825  1.00  0.00     0.032 C 
BRANCH   5   6
ATOM      6  C   UNL     1      12.842  27.090  15.233  1.00  0.00    -0.028 C 
ATOM      7  C   UNL     1      14.673  25.684  16.072  1.00  0.00     0.039 C 
ATOM      8  C   UNL     1      13.215  25.904  15.763  1.00  0.00    -0.080 C 
ATOM      9  C   UNL     1      12.216  24.813  16.067  1.00  0.00     0.039 C 
ENDBRANCH   5   6
ENDBRANCH   4   5
ENDBRANCH   1   4
BRANCH   2  10
ATOM     10  C   UNL     1       7.987  30.757  16.014  1.00  0.00     0.035 C 
BRANCH  10  11
ATOM     11  C   UNL     1       7.496  30.307  17.397  1.00  0.00     0.079 C 
BRANCH  11  12
ATOM     12  C   UNL     1       6.418  29.260  17.290  1.00  0.00     0.130 C 
ATOM     13  O   UNL     1       5.248  29.582  17.442  1.00  0.00    -0.300 OA
ATOM     14  C   UNL     1       6.750  27.826  17.000  1.00  0.00     0.087 C 
ENDBRANCH  11  12
ENDBRANCH  10  11
ENDBRANCH   2  10
TORSDOF 6
ENDMDL
MODEL 4
REMARK VINA RESULT:    -3.830      2.829      5.097
REMARK INTER + INTRA:          -6.302
REMARK INTER:                  -5.476
REMARK INTRA:                  -0.826
REMARK UNBOUND:                -1.129
REMARK SMILES CC(=O)CCC=C(C)CCC=C(C)C
REMARK SMILES IDX 7 1 6 2 8 3 9 4 10 5 11 6 13 7 12 8 14 9 5 10 4 11 2 12 3 13
REMARK SMILES IDX 1 14
REMARK H PARENT
REMARK Flexibility Score: inf
ROOT
ATOM      1  C   UNL     1      10.021  28.162  14.644  1.00  0.00    -0.077 C 
ATOM      2  C   UNL     1      11.358  28.353  14.722  1.00  0.00    -0.028 C 
ATOM      3  C   UNL     1       9.421  26.792  14.423  1.00  0.00     0.039 C 
ENDROOT
BRANCH   1   4
ATOM      4  C   UNL     1       9.096  29.352  14.801  1.00  0.00     0.034 C 
BRANCH   4   5
ATOM      5  C   UNL     1       8.780  29.640  16.275  1.00  0.00     0.032 C 
BRANCH   5   6
ATOM      6  C   UNL     1       7.302  29.855  16.499  1.00  0.00    -0.028 C 
ATOM      7  C   UNL     1       4.993  29.272  17.101  1.00  0.00     0.039 C 
ATOM      8  C   UNL     1       6.431  28.889  16.865  1.00  0.00    -0.080 C 
ATOM      9  C   UNL     1       6.854  27.448  17.025  1.00  0.00     0.039 C 
ENDBRANCH   5   6
ENDBRANCH   4   5
ENDBRANCH   1   4
BRANCH   2  10
ATOM     10  C   UNL     1      12.392  27.268  14.542  1.00  0.00     0.035 C 
BRANCH  10  11
ATOM     11  C   UNL     1      12.857  26.698  15.889  1.00  0.00     0.079 C 
BRANCH  11  12
ATOM     12  C   UNL     1      12.893  25.191  15.871  1.00  0.00     0.130 C 
ATOM     13  O   UNL     1      13.905  24.617  15.495  1.00  0.00    -0.300 OA
ATOM     14  C   UNL     1      11.710  24.378  16.306  1.00  0.00     0.087 C 
ENDBRANCH  11  12
ENDBRANCH  10  11
ENDBRANCH   2  10
TORSDOF 6
ENDMDL
MODEL 5
REMARK VINA RESULT:    -3.807      3.985      6.637
REMARK INTER + INTRA:          -6.271
REMARK INTER:                  -5.628
REMARK INTRA:                  -0.642
REMARK UNBOUND:                -1.129
REMARK SMILES CC(=O)CCC=C(C)CCC=C(C)C
REMARK SMILES IDX 7 1 6 2 8 3 9 4 10 5 11 6 13 7 12 8 14 9 5 10 4 11 2 12 3 13
REMARK SMILES IDX 1 14
REMARK H PARENT
REMARK Flexibility Score: inf
ROOT
ATOM      1  C   UNL     1      12.072  27.901  14.720  1.00  0.00    -0.077 C 
ATOM      2  C   UNL     1      10.785  28.279  14.894  1.00  0.00    -0.028 C 
ATOM      3  C   UNL     1      13.091  28.810  14.072  1.00  0.00     0.039 C 
ENDROOT
BRANCH   1   4
ATOM      4  C   UNL     1      12.510  26.534  15.206  1.00  0.00     0.034 C 
BRANCH   4   5
ATOM      5  C   UNL     1      13.600  26.632  16.282  1.00  0.00     0.032 C 
BRANCH   5   6
ATOM      6  C   UNL     1      14.719  25.648  16.038  1.00  0.00    -0.028 C 
ATOM      7  C   UNL     1      16.987  24.889  15.479  1.00  0.00     0.039 C 
ATOM      8  C   UNL     1      15.962  25.983  15.629  1.00  0.00    -0.080 C 
ATOM      9  C   UNL     1      16.341  27.409  15.305  1.00  0.00     0.039 C 
ENDBRANCH   5   6
ENDBRANCH   4   5
ENDBRANCH   1   4
BRANCH   2  10
ATOM     10  C   UNL     1      10.205  29.591  14.422  1.00  0.00     0.035 C 
BRANCH  10  11
ATOM     11  C   UNL     1       9.781  30.480  15.598  1.00  0.00     0.079 C 
BRANCH  11  12
ATOM     12  C   UNL     1       8.287  30.469  15.793  1.00  0.00     0.130 C 
ATOM     13  O   UNL     1       7.555  30.286  14.831  1.00  0.00    -0.300 OA
ATOM     14  C   UNL     1       7.676  30.679  17.147  1.00  0.00     0.087 C 
ENDBRANCH  11  12
ENDBRANCH  10  11
ENDBRANCH   2  10
TORSDOF 6
ENDMDL
MODEL 6
REMARK VINA RESULT:    -3.743      7.045      9.492
REMARK INTER + INTRA:          -6.184
REMARK INTER:                  -5.711
REMARK INTRA:                  -0.473
REMARK UNBOUND:                -1.129
REMARK SMILES CC(=O)CCC=C(C)CCC=C(C)C
REMARK SMILES IDX 7 1 6 2 8 3 9 4 10 5 11 6 13 7 12 8 14 9 5 10 4 11 2 12 3 13
REMARK SMILES IDX 1 14
REMARK H PARENT
REMARK Flexibility Score: inf
ROOT
ATOM      1  C   UNL     1      15.947  26.950  15.196  1.00  0.00    -0.077 C 
ATOM      2  C   UNL     1      15.291  25.981  15.875  1.00  0.00    -0.028 C 
ATOM      3  C   UNL     1      15.237  28.174  14.665  1.00  0.00     0.039 C 
ENDROOT
BRANCH   1   4
ATOM      4  C   UNL     1      17.440  26.814  14.978  1.00  0.00     0.034 C 
BRANCH   4   5
ATOM      5  C   UNL     1      17.819  25.415  14.470  1.00  0.00     0.032 C 
BRANCH   5   6
ATOM      6  C   UNL     1      18.558  24.619  15.519  1.00  0.00    -0.028 C 
ATOM      7  C   UNL     1      20.487  23.799  16.799  1.00  0.00     0.039 C 
ATOM      8  C   UNL     1      19.900  24.605  15.669  1.00  0.00    -0.080 C 
ATOM      9  C   UNL     1      20.819  25.355  14.734  1.00  0.00     0.039 C 
ENDBRANCH   5   6
ENDBRANCH   4   5
ENDBRANCH   1   4
BRANCH   2  10
ATOM     10  C   UNL     1      13.802  25.968  16.127  1.00  0.00     0.035 C 
BRANCH  10  11
ATOM     11  C   UNL     1      13.090  24.920  15.263  1.00  0.00     0.079 C 
BRANCH  11  12
ATOM     12  C   UNL     1      11.698  24.637  15.767  1.00  0.00     0.130 C 
ATOM     13  O   UNL     1      11.542  23.885  16.718  1.00  0.00    -0.300 OA
ATOM     14  C   UNL     1      10.494  25.262  15.126  1.00  0.00     0.087 C 
ENDBRANCH  11  12
ENDBRANCH  10  11
ENDBRANCH   2  10
TORSDOF 6
ENDMDL
MODEL 7
REMARK VINA RESULT:    -3.724      2.924      3.767
REMARK INTER + INTRA:          -6.159
REMARK INTER:                  -5.579
REMARK INTRA:                  -0.580
REMARK UNBOUND:                -1.129
REMARK SMILES CC(=O)CCC=C(C)CCC=C(C)C
REMARK SMILES IDX 7 1 6 2 8 3 9 4 10 5 11 6 13 7 12 8 14 9 5 10 4 11 2 12 3 13
REMARK SMILES IDX 1 14
REMARK H PARENT
REMARK Flexibility Score: inf
ROOT
ATOM      1  C   UNL     1       4.085  28.106  16.436  1.00  0.00    -0.077 C 
ATOM      2  C   UNL     1       4.551  26.844  16.293  1.00  0.00    -0.028 C 
ATOM      3  C   UNL     1       2.618  28.438  16.287  1.00  0.00     0.039 C 
ENDROOT
BRANCH   1   4
ATOM      4  C   UNL     1       5.059  29.215  16.777  1.00  0.00     0.034 C 
BRANCH   4   5
ATOM      5  C   UNL     1       6.427  28.665  17.205  1.00  0.00     0.032 C 
BRANCH   5   6
ATOM      6  C   UNL     1       7.526  29.682  17.010  1.00  0.00    -0.028 C 
ATOM      7  C   UNL     1       9.435  30.773  15.917  1.00  0.00     0.039 C 
ATOM      8  C   UNL     1       8.429  29.656  16.005  1.00  0.00    -0.080 C 
ATOM      9  C   UNL     1       8.465  28.538  14.990  1.00  0.00     0.039 C 
ENDBRANCH   5   6
ENDBRANCH   4   5
ENDBRANCH   1   4
BRANCH   2  10
ATOM     10  C   UNL     1       3.702  25.654  15.914  1.00  0.00     0.035 C 
BRANCH  10  11
ATOM     11  C   UNL     1       3.817  24.523  16.944  1.00  0.00     0.079 C 
BRANCH  11  12
ATOM     12  C   UNL     1       2.474  24.170  17.533  1.00  0.00     0.130 C 
ATOM     13  O   UNL     1       1.462  24.339  16.869  1.00  0.00    -0.300 OA
ATOM     14  C   UNL     1       2.354  23.614  18.921  1.00  0.00     0.087 C 
ENDBRANCH  11  12
ENDBRANCH  10  11
ENDBRANCH   2  10
TORSDOF 6
ENDMDL
MODEL 8
REMARK VINA RESULT:    -3.701     11.319     14.365
REMARK INTER + INTRA:          -6.128
REMARK INTER:                  -5.343
REMARK INTRA:                  -0.785
REMARK UNBOUND:                -1.129
REMARK SMILES CC(=O)CCC=C(C)CCC=C(C)C
REMARK SMILES IDX 7 1 6 2 8 3 9 4 10 5 11 6 13 7 12 8 14 9 5 10 4 11 2 12 3 13
REMARK SMILES IDX 1 14
REMARK H PARENT
REMARK Flexibility Score: inf
ROOT
ATOM      1  C   UNL     1      11.282  14.784  13.577  1.00  0.00    -0.077 C 
ATOM      2  C   UNL     1       9.942  14.604  13.609  1.00  0.00    -0.028 C 
ATOM      3  C   UNL     1      11.903  16.159  13.488  1.00  0.00     0.039 C 
ENDROOT
BRANCH   1   4
ATOM      4  C   UNL     1      12.190  13.572  13.653  1.00  0.00     0.034 C 
BRANCH   4   5
ATOM      5  C   UNL     1      12.580  13.240  15.100  1.00  0.00     0.032 C 
BRANCH   5   6
ATOM      6  C   UNL     1      14.072  13.062  15.252  1.00  0.00    -0.028 C 
ATOM      7  C   UNL     1      16.377  13.670  15.841  1.00  0.00     0.039 C 
ATOM      8  C   UNL     1      14.918  14.017  15.695  1.00  0.00    -0.080 C 
ATOM      9  C   UNL     1      14.447  15.413  16.029  1.00  0.00     0.039 C 
ENDBRANCH   5   6
ENDBRANCH   4   5
ENDBRANCH   1   4
BRANCH   2  10
ATOM     10  C   UNL     1       8.925  15.715  13.499  1.00  0.00     0.035 C 
BRANCH  10  11
ATOM     11  C   UNL     1       7.986  15.746  14.712  1.00  0.00     0.079 C 
BRANCH  11  12
ATOM     12  C   UNL     1       7.747  17.155  15.193  1.00  0.00     0.130 C 
ATOM     13  O   UNL     1       6.609  17.520  15.449  1.00  0.00    -0.300 OA
ATOM     14  C   UNL     1       8.881  18.123  15.364  1.00  0.00     0.087 C 
ENDBRANCH  11  12
ENDBRANCH  10  11
ENDBRANCH   2  10
TORSDOF 6
ENDMDL
MODEL 9
REMARK VINA RESULT:    -3.700     13.130     16.166
REMARK INTER + INTRA:          -6.126
REMARK INTER:                  -5.408
REMARK INTRA:                  -0.718
REMARK UNBOUND:                -1.129
REMARK SMILES CC(=O)CCC=C(C)CCC=C(C)C
REMARK SMILES IDX 7 1 6 2 8 3 9 4 10 5 11 6 13 7 12 8 14 9 5 10 4 11 2 12 3 13
REMARK SMILES IDX 1 14
REMARK H PARENT
REMARK Flexibility Score: inf
ROOT
ATOM      1  C   UNL     1      12.473  13.172  14.189  1.00  0.00    -0.077 C 
ATOM      2  C   UNL     1      12.950  13.354  15.442  1.00  0.00    -0.028 C 
ATOM      3  C   UNL     1      13.344  13.360  12.968  1.00  0.00     0.039 C 
ENDROOT
BRANCH   1   4
ATOM      4  C   UNL     1      11.030  12.748  14.004  1.00  0.00     0.034 C 
BRANCH   4   5
ATOM      5  C   UNL     1      10.276  13.685  13.050  1.00  0.00     0.032 C 
BRANCH   5   6
ATOM      6  C   UNL     1       9.978  15.019  13.693  1.00  0.00    -0.028 C 
ATOM      7  C   UNL     1       8.615  16.782  14.725  1.00  0.00     0.039 C 
ATOM      8  C   UNL     1       8.745  15.445  14.043  1.00  0.00    -0.080 C 
ATOM      9  C   UNL     1       7.505  14.631  13.755  1.00  0.00     0.039 C 
ENDBRANCH   5   6
ENDBRANCH   4   5
ENDBRANCH   1   4
BRANCH   2  10
ATOM     10  C   UNL     1      14.350  13.815  15.769  1.00  0.00     0.035 C 
BRANCH  10  11
ATOM     11  C   UNL     1      15.275  12.634  16.092  1.00  0.00     0.079 C 
BRANCH  11  12
ATOM     12  C   UNL     1      16.396  12.517  15.092  1.00  0.00     0.130 C 
ATOM     13  O   UNL     1      17.046  13.509  14.796  1.00  0.00    -0.300 OA
ATOM     14  C   UNL     1      16.733  11.204  14.449  1.00  0.00     0.087 C 
ENDBRANCH  11  12
ENDBRANCH  10  11
ENDBRANCH   2  10
TORSDOF 6
ENDMDL
