MODEL 1
REMARK VINA RESULT:    -5.136      0.000      0.000
REMARK INTER + INTRA:         -10.034
REMARK INTER:                  -9.340
REMARK INTRA:                  -0.694
REMARK UNBOUND:                -0.694
REMARK SMILES CCCCCCCCCCCCCCCC(=O)[O-]
REMARK SMILES IDX 9 1 10 2 11 3 12 4 13 5 14 6 15 7 16 8 17 9 18 10 8 11 7 12
REMARK SMILES IDX 6 13 5 14 4 15 3 16 2 17 1 18
REMARK H PARENT
REMARK Flexibility Score: inf
ROOT
ATOM      1  C   UNL     1       2.455  21.130 -13.708  1.00  0.00     0.000 C 
ENDROOT
BRANCH   1   2
ATOM      2  C   UNL     1       2.562  21.000 -15.235  1.00  0.00     0.000 C 
BRANCH   2   3
ATOM      3  C   UNL     1       3.407  22.116 -15.867  1.00  0.00     0.000 C 
BRANCH   3   4
ATOM      4  C   UNL     1       2.930  22.493 -17.278  1.00  0.00     0.000 C 
BRANCH   4   5
ATOM      5  C   UNL     1       1.641  21.747 -17.639  1.00  0.00     0.000 C 
BRANCH   5   6
ATOM      6  C   UNL     1       1.351  21.845 -19.144  1.00  0.00     0.006 C 
BRANCH   6   7
ATOM      7  C   UNL     1       1.386  20.475 -19.834  1.00  0.00     0.053 C 
BRANCH   7   8
ATOM      8  C   UNL     1       2.639  20.288 -20.634  1.00  0.00     0.041 C 
ATOM      9  O   UNL     1       3.346  21.282 -20.945  1.00  0.00    -0.550 OA
ATOM     10  O   UNL     1       3.041  19.012 -21.008  1.00  0.00    -0.550 OA
ENDBRANCH   7   8
ENDBRANCH   6   7
ENDBRANCH   5   6
ENDBRANCH   4   5
ENDBRANCH   3   4
ENDBRANCH   2   3
ENDBRANCH   1   2
BRANCH   1  11
ATOM     11  C   UNL     1       2.112  19.780 -13.064  1.00  0.00     0.000 C 
BRANCH  11  12
ATOM     12  C   UNL     1       1.428  19.978 -11.704  1.00  0.00    -0.000 C 
BRANCH  12  13
ATOM     13  C   UNL     1       2.417  19.923 -10.529  1.00  0.00    -0.000 C 
BRANCH  13  14
ATOM     14  C   UNL     1       2.737  21.312  -9.959  1.00  0.00    -0.000 C 
BRANCH  14  15
ATOM     15  C   UNL     1       1.699  21.724  -8.904  1.00  0.00    -0.000 C 
BRANCH  15  16
ATOM     16  C   UNL     1       1.864  20.970  -7.572  1.00  0.00    -0.000 C 
BRANCH  16  17
ATOM     17  C   UNL     1       0.562  20.771  -6.776  1.00  0.00    -0.003 C 
ATOM     18  C   UNL     1       0.794  20.653  -5.271  1.00  0.00     0.004 C 
ENDBRANCH  16  17
ENDBRANCH  15  16
ENDBRANCH  14  15
ENDBRANCH  13  14
ENDBRANCH  12  13
ENDBRANCH  11  12
ENDBRANCH   1  11
TORSDOF 14
ENDMDL
MODEL 2
REMARK VINA RESULT:    -5.060      9.058     10.752
REMARK INTER + INTRA:          -9.896
REMARK INTER:                  -8.359
REMARK INTRA:                  -1.537
REMARK UNBOUND:                -0.694
REMARK SMILES CCCCCCCCCCCCCCCC(=O)[O-]
REMARK SMILES IDX 9 1 10 2 11 3 12 4 13 5 14 6 15 7 16 8 17 9 18 10 8 11 7 12
REMARK SMILES IDX 6 13 5 14 4 15 3 16 2 17 1 18
REMARK H PARENT
REMARK Flexibility Score: inf
ROOT
ATOM      1  C   UNL     1       9.546  29.737 -13.384  1.00  0.00     0.000 C 
ENDROOT
BRANCH   1   2
ATOM      2  C   UNL     1       8.160  29.608 -12.735  1.00  0.00     0.000 C 
BRANCH   2   3
ATOM      3  C   UNL     1       7.190  28.762 -13.574  1.00  0.00     0.000 C 
BRANCH   3   4
ATOM      4  C   UNL     1       7.490  28.834 -15.079  1.00  0.00     0.000 C 
BRANCH   4   5
ATOM      5  C   UNL     1       6.262  29.316 -15.861  1.00  0.00     0.000 C 
BRANCH   5   6
ATOM      6  C   UNL     1       5.696  30.608 -15.255  1.00  0.00     0.006 C 
BRANCH   6   7
ATOM      7  C   UNL     1       6.566  31.830 -15.574  1.00  0.00     0.053 C 
BRANCH   7   8
ATOM      8  C   UNL     1       5.973  32.665 -16.667  1.00  0.00     0.041 C 
ATOM      9  O   UNL     1       5.753  33.891 -16.479  1.00  0.00    -0.550 OA
ATOM     10  O   UNL     1       5.692  32.097 -17.903  1.00  0.00    -0.550 OA
ENDBRANCH   7   8
ENDBRANCH   6   7
ENDBRANCH   5   6
ENDBRANCH   4   5
ENDBRANCH   3   4
ENDBRANCH   2   3
ENDBRANCH   1   2
BRANCH   1  11
ATOM     11  C   UNL     1      10.486  28.627 -12.896  1.00  0.00     0.000 C 
BRANCH  11  12
ATOM     12  C   UNL     1      10.812  27.644 -14.030  1.00  0.00    -0.000 C 
BRANCH  12  13
ATOM     13  C   UNL     1      10.608  26.178 -13.620  1.00  0.00    -0.000 C 
BRANCH  13  14
ATOM     14  C   UNL     1       9.835  26.033 -12.301  1.00  0.00    -0.000 C 
BRANCH  14  15
ATOM     15  C   UNL     1       8.423  25.483 -12.551  1.00  0.00    -0.000 C 
BRANCH  15  16
ATOM     16  C   UNL     1       8.204  24.088 -11.937  1.00  0.00    -0.000 C 
BRANCH  16  17
ATOM     17  C   UNL     1       8.535  23.983 -10.437  1.00  0.00    -0.003 C 
ATOM     18  C   UNL     1       7.698  22.929  -9.714  1.00  0.00     0.004 C 
ENDBRANCH  16  17
ENDBRANCH  15  16
ENDBRANCH  14  15
ENDBRANCH  13  14
ENDBRANCH  12  13
ENDBRANCH  11  12
ENDBRANCH   1  11
TORSDOF 14
ENDMDL
MODEL 3
REMARK VINA RESULT:    -5.041      9.011     11.756
REMARK INTER + INTRA:          -9.861
REMARK INTER:                  -8.290
REMARK INTRA:                  -1.572
REMARK UNBOUND:                -0.694
REMARK SMILES CCCCCCCCCCCCCCCC(=O)[O-]
REMARK SMILES IDX 9 1 10 2 11 3 12 4 13 5 14 6 15 7 16 8 17 9 18 10 8 11 7 12
REMARK SMILES IDX 6 13 5 14 4 15 3 16 2 17 1 18
REMARK H PARENT
REMARK Flexibility Score: inf
ROOT
ATOM      1  C   UNL     1       9.862  29.320 -14.117  1.00  0.00     0.000 C 
ENDROOT
BRANCH   1   2
ATOM      2  C   UNL     1      10.995  28.283 -14.129  1.00  0.00     0.000 C 
BRANCH   2   3
ATOM      3  C   UNL     1      10.900  27.314 -15.318  1.00  0.00     0.000 C 
BRANCH   3   4
ATOM      4  C   UNL     1      10.750  25.850 -14.878  1.00  0.00     0.000 C 
BRANCH   4   5
ATOM      5  C   UNL     1      10.150  25.758 -13.470  1.00  0.00     0.000 C 
BRANCH   5   6
ATOM      6  C   UNL     1       9.042  24.697 -13.411  1.00  0.00     0.006 C 
BRANCH   6   7
ATOM      7  C   UNL     1       7.933  25.068 -12.417  1.00  0.00     0.053 C 
BRANCH   7   8
ATOM      8  C   UNL     1       8.002  24.236 -11.173  1.00  0.00     0.041 C 
ATOM      9  O   UNL     1       9.009  24.304 -10.420  1.00  0.00    -0.550 OA
ATOM     10  O   UNL     1       6.939  23.410 -10.829  1.00  0.00    -0.550 OA
ENDBRANCH   7   8
ENDBRANCH   6   7
ENDBRANCH   5   6
ENDBRANCH   4   5
ENDBRANCH   3   4
ENDBRANCH   2   3
ENDBRANCH   1   2
BRANCH   1  11
ATOM     11  C   UNL     1       9.113  29.300 -12.778  1.00  0.00     0.000 C 
BRANCH  11  12
ATOM     12  C   UNL     1       7.595  29.228 -12.998  1.00  0.00    -0.000 C 
BRANCH  12  13
ATOM     13  C   UNL     1       7.203  28.238 -14.107  1.00  0.00    -0.000 C 
BRANCH  13  14
ATOM     14  C   UNL     1       6.245  28.853 -15.138  1.00  0.00    -0.000 C 
BRANCH  14  15
ATOM     15  C   UNL     1       6.571  30.336 -15.373  1.00  0.00    -0.000 C 
BRANCH  15  16
ATOM     16  C   UNL     1       5.392  31.270 -15.044  1.00  0.00    -0.000 C 
BRANCH  16  17
ATOM     17  C   UNL     1       5.231  32.467 -15.997  1.00  0.00    -0.003 C 
ATOM     18  C   UNL     1       5.863  32.230 -17.367  1.00  0.00     0.004 C 
ENDBRANCH  16  17
ENDBRANCH  15  16
ENDBRANCH  14  15
ENDBRANCH  13  14
ENDBRANCH  12  13
ENDBRANCH  11  12
ENDBRANCH   1  11
TORSDOF 14
ENDMDL
MODEL 4
REMARK VINA RESULT:    -5.005      4.913     10.224
REMARK INTER + INTRA:          -9.795
REMARK INTER:                  -9.117
REMARK INTRA:                  -0.678
REMARK UNBOUND:                -0.694
REMARK SMILES CCCCCCCCCCCCCCCC(=O)[O-]
REMARK SMILES IDX 9 1 10 2 11 3 12 4 13 5 14 6 15 7 16 8 17 9 18 10 8 11 7 12
REMARK SMILES IDX 6 13 5 14 4 15 3 16 2 17 1 18
REMARK H PARENT
REMARK Flexibility Score: inf
ROOT
ATOM      1  C   UNL     1       2.534  20.824 -14.891  1.00  0.00     0.000 C 
ENDROOT
BRANCH   1   2
ATOM      2  C   UNL     1       2.175  20.858 -13.398  1.00  0.00     0.000 C 
BRANCH   2   3
ATOM      3  C   UNL     1       2.217  19.468 -12.746  1.00  0.00     0.000 C 
BRANCH   3   4
ATOM      4  C   UNL     1       2.182  19.532 -11.211  1.00  0.00     0.000 C 
BRANCH   4   5
ATOM      5  C   UNL     1       1.911  20.962 -10.728  1.00  0.00     0.000 C 
BRANCH   5   6
ATOM      6  C   UNL     1       2.354  21.143  -9.269  1.00  0.00     0.006 C 
BRANCH   6   7
ATOM      7  C   UNL     1       1.217  21.658  -8.376  1.00  0.00     0.053 C 
BRANCH   7   8
ATOM      8  C   UNL     1       0.978  20.755  -7.205  1.00  0.00     0.041 C 
ATOM      9  O   UNL     1       1.767  19.803  -6.968  1.00  0.00    -0.550 OA
ATOM     10  O   UNL     1      -0.098  20.984  -6.357  1.00  0.00    -0.550 OA
ENDBRANCH   7   8
ENDBRANCH   6   7
ENDBRANCH   5   6
ENDBRANCH   4   5
ENDBRANCH   3   4
ENDBRANCH   2   3
ENDBRANCH   1   2
BRANCH   1  11
ATOM     11  C   UNL     1       3.225  22.125 -15.320  1.00  0.00     0.000 C 
BRANCH  11  12
ATOM     12  C   UNL     1       2.927  22.447 -16.792  1.00  0.00    -0.000 C 
BRANCH  12  13
ATOM     13  C   UNL     1       1.662  21.743 -17.307  1.00  0.00    -0.000 C 
BRANCH  13  14
ATOM     14  C   UNL     1       1.283  22.173 -18.732  1.00  0.00    -0.000 C 
BRANCH  14  15
ATOM     15  C   UNL     1       2.126  21.421 -19.773  1.00  0.00    -0.000 C 
BRANCH  15  16
ATOM     16  C   UNL     1       1.551  20.036 -20.125  1.00  0.00    -0.000 C 
BRANCH  16  17
ATOM     17  C   UNL     1       2.576  19.036 -20.689  1.00  0.00    -0.003 C 
ATOM     18  C   UNL     1       3.800  19.715 -21.300  1.00  0.00     0.004 C 
ENDBRANCH  16  17
ENDBRANCH  15  16
ENDBRANCH  14  15
ENDBRANCH  13  14
ENDBRANCH  12  13
ENDBRANCH  11  12
ENDBRANCH   1  11
TORSDOF 14
ENDMDL
MODEL 5
REMARK VINA RESULT:    -4.981      9.390     11.042
REMARK INTER + INTRA:          -9.751
REMARK INTER:                  -8.653
REMARK INTRA:                  -1.098
REMARK UNBOUND:                -0.694
REMARK SMILES CCCCCCCCCCCCCCCC(=O)[O-]
REMARK SMILES IDX 9 1 10 2 11 3 12 4 13 5 14 6 15 7 16 8 17 9 18 10 8 11 7 12
REMARK SMILES IDX 6 13 5 14 4 15 3 16 2 17 1 18
REMARK H PARENT
REMARK Flexibility Score: inf
ROOT
ATOM      1  C   UNL     1       8.612  30.523 -13.489  1.00  0.00     0.000 C 
ENDROOT
BRANCH   1   2
ATOM      2  C   UNL     1       8.998  31.666 -12.538  1.00  0.00     0.000 C 
BRANCH   2   3
ATOM      3  C   UNL     1       7.779  32.458 -12.038  1.00  0.00     0.000 C 
BRANCH   3   4
ATOM      4  C   UNL     1       6.827  32.861 -13.175  1.00  0.00     0.000 C 
BRANCH   4   5
ATOM      5  C   UNL     1       5.426  32.279 -12.950  1.00  0.00     0.000 C 
BRANCH   5   6
ATOM      6  C   UNL     1       4.690  32.085 -14.283  1.00  0.00     0.006 C 
BRANCH   6   7
ATOM      7  C   UNL     1       5.429  32.741 -15.457  1.00  0.00     0.053 C 
BRANCH   7   8
ATOM      8  C   UNL     1       5.846  31.732 -16.484  1.00  0.00     0.041 C 
ATOM      9  O   UNL     1       6.135  30.557 -16.137  1.00  0.00    -0.550 OA
ATOM     10  O   UNL     1       5.884  32.083 -17.828  1.00  0.00    -0.550 OA
ENDBRANCH   7   8
ENDBRANCH   6   7
ENDBRANCH   5   6
ENDBRANCH   4   5
ENDBRANCH   3   4
ENDBRANCH   2   3
ENDBRANCH   1   2
BRANCH   1  11
ATOM     11  C   UNL     1       7.791  29.454 -12.756  1.00  0.00     0.000 C 
BRANCH  11  12
ATOM     12  C   UNL     1       7.374  28.329 -13.715  1.00  0.00    -0.000 C 
BRANCH  12  13
ATOM     13  C   UNL     1       7.427  26.941 -13.058  1.00  0.00    -0.000 C 
BRANCH  13  14
ATOM     14  C   UNL     1       8.845  26.352 -13.032  1.00  0.00    -0.000 C 
BRANCH  14  15
ATOM     15  C   UNL     1       8.802  24.823 -12.887  1.00  0.00    -0.000 C 
BRANCH  15  16
ATOM     16  C   UNL     1       7.830  24.351 -11.790  1.00  0.00    -0.000 C 
BRANCH  16  17
ATOM     17  C   UNL     1       8.494  24.003 -10.445  1.00  0.00    -0.003 C 
ATOM     18  C   UNL     1       7.759  22.901  -9.684  1.00  0.00     0.004 C 
ENDBRANCH  16  17
ENDBRANCH  15  16
ENDBRANCH  14  15
ENDBRANCH  13  14
ENDBRANCH  12  13
ENDBRANCH  11  12
ENDBRANCH   1  11
TORSDOF 14
ENDMDL
MODEL 6
REMARK VINA RESULT:    -4.911      9.787     11.938
REMARK INTER + INTRA:          -9.624
REMARK INTER:                  -8.058
REMARK INTRA:                  -1.566
REMARK UNBOUND:                -0.694
REMARK SMILES CCCCCCCCCCCCCCCC(=O)[O-]
REMARK SMILES IDX 9 1 10 2 11 3 12 4 13 5 14 6 15 7 16 8 17 9 18 10 8 11 7 12
REMARK SMILES IDX 6 13 5 14 4 15 3 16 2 17 1 18
REMARK H PARENT
REMARK Flexibility Score: inf
ROOT
ATOM      1  C   UNL     1       8.269  29.890 -13.109  1.00  0.00     0.000 C 
ENDROOT
BRANCH   1   2
ATOM      2  C   UNL     1       7.359  28.659 -12.992  1.00  0.00     0.000 C 
BRANCH   2   3
ATOM      3  C   UNL     1       8.130  27.337 -13.124  1.00  0.00     0.000 C 
BRANCH   3   4
ATOM      4  C   UNL     1       9.654  27.534 -13.093  1.00  0.00     0.000 C 
BRANCH   4   5
ATOM      5  C   UNL     1      10.344  26.370 -12.372  1.00  0.00     0.000 C 
BRANCH   5   6
ATOM      6  C   UNL     1       9.399  25.168 -12.237  1.00  0.00     0.006 C 
BRANCH   6   7
ATOM      7  C   UNL     1       9.302  24.663 -10.792  1.00  0.00     0.053 C 
BRANCH   7   8
ATOM      8  C   UNL     1       8.090  23.807 -10.582  1.00  0.00     0.041 C 
ATOM      9  O   UNL     1       7.168  23.796 -11.439  1.00  0.00    -0.550 OA
ATOM     10  O   UNL     1       7.995  23.000  -9.456  1.00  0.00    -0.550 OA
ENDBRANCH   7   8
ENDBRANCH   6   7
ENDBRANCH   5   6
ENDBRANCH   4   5
ENDBRANCH   3   4
ENDBRANCH   2   3
ENDBRANCH   1   2
BRANCH   1  11
ATOM     11  C   UNL     1       7.814  30.803 -14.256  1.00  0.00     0.000 C 
BRANCH  11  12
ATOM     12  C   UNL     1       6.404  30.424 -14.732  1.00  0.00    -0.000 C 
BRANCH  12  13
ATOM     13  C   UNL     1       5.564  31.648 -15.129  1.00  0.00    -0.000 C 
BRANCH  13  14
ATOM     14  C   UNL     1       4.374  31.881 -14.187  1.00  0.00    -0.000 C 
BRANCH  14  15
ATOM     15  C   UNL     1       4.626  33.092 -13.275  1.00  0.00    -0.000 C 
BRANCH  15  16
ATOM     16  C   UNL     1       4.926  32.695 -11.818  1.00  0.00    -0.000 C 
BRANCH  16  17
ATOM     17  C   UNL     1       6.408  32.786 -11.415  1.00  0.00    -0.003 C 
ATOM     18  C   UNL     1       7.184  33.823 -12.225  1.00  0.00     0.004 C 
ENDBRANCH  16  17
ENDBRANCH  15  16
ENDBRANCH  14  15
ENDBRANCH  13  14
ENDBRANCH  12  13
ENDBRANCH  11  12
ENDBRANCH   1  11
TORSDOF 14
ENDMDL
MODEL 7
REMARK VINA RESULT:    -4.880      9.201     11.680
REMARK INTER + INTRA:          -9.569
REMARK INTER:                  -7.892
REMARK INTRA:                  -1.677
REMARK UNBOUND:                -0.694
REMARK SMILES CCCCCCCCCCCCCCCC(=O)[O-]
REMARK SMILES IDX 9 1 10 2 11 3 12 4 13 5 14 6 15 7 16 8 17 9 18 10 8 11 7 12
REMARK SMILES IDX 6 13 5 14 4 15 3 16 2 17 1 18
REMARK H PARENT
REMARK Flexibility Score: inf
ROOT
ATOM      1  C   UNL     1      10.126  29.476 -14.276  1.00  0.00     0.000 C 
ENDROOT
BRANCH   1   2
ATOM      2  C   UNL     1       9.633  28.173 -14.923  1.00  0.00     0.000 C 
BRANCH   2   3
ATOM      3  C   UNL     1      10.748  27.127 -15.074  1.00  0.00     0.000 C 
BRANCH   3   4
ATOM      4  C   UNL     1      10.457  25.834 -14.296  1.00  0.00     0.000 C 
BRANCH   4   5
ATOM      5  C   UNL     1      10.373  26.106 -12.790  1.00  0.00     0.000 C 
BRANCH   5   6
ATOM      6  C   UNL     1       9.325  25.203 -12.124  1.00  0.00     0.006 C 
BRANCH   6   7
ATOM      7  C   UNL     1       8.259  24.720 -13.116  1.00  0.00     0.053 C 
BRANCH   7   8
ATOM      8  C   UNL     1       6.954  25.428 -12.916  1.00  0.00     0.041 C 
ATOM      9  O   UNL     1       6.849  26.652 -13.191  1.00  0.00    -0.550 OA
ATOM     10  O   UNL     1       5.846  24.729 -12.456  1.00  0.00    -0.550 OA
ENDBRANCH   7   8
ENDBRANCH   6   7
ENDBRANCH   5   6
ENDBRANCH   4   5
ENDBRANCH   3   4
ENDBRANCH   2   3
ENDBRANCH   1   2
BRANCH   1  11
ATOM     11  C   UNL     1       9.688  29.561 -12.808  1.00  0.00     0.000 C 
BRANCH  11  12
ATOM     12  C   UNL     1       8.199  29.922 -12.699  1.00  0.00    -0.000 C 
BRANCH  12  13
ATOM     13  C   UNL     1       7.943  31.429 -12.857  1.00  0.00    -0.000 C 
BRANCH  13  14
ATOM     14  C   UNL     1       6.511  31.831 -12.473  1.00  0.00    -0.000 C 
BRANCH  14  15
ATOM     15  C   UNL     1       5.702  32.232 -13.716  1.00  0.00    -0.000 C 
BRANCH  15  16
ATOM     16  C   UNL     1       6.525  32.167 -15.015  1.00  0.00    -0.000 C 
BRANCH  16  17
ATOM     17  C   UNL     1       5.992  31.181 -16.070  1.00  0.00    -0.003 C 
ATOM     18  C   UNL     1       6.268  29.721 -15.716  1.00  0.00     0.004 C 
ENDBRANCH  16  17
ENDBRANCH  15  16
ENDBRANCH  14  15
ENDBRANCH  13  14
ENDBRANCH  12  13
ENDBRANCH  11  12
ENDBRANCH   1  11
TORSDOF 14
ENDMDL
MODEL 8
REMARK VINA RESULT:    -4.872      9.609     12.380
REMARK INTER + INTRA:          -9.554
REMARK INTER:                  -8.212
REMARK INTRA:                  -1.341
REMARK UNBOUND:                -0.694
REMARK SMILES CCCCCCCCCCCCCCCC(=O)[O-]
REMARK SMILES IDX 9 1 10 2 11 3 12 4 13 5 14 6 15 7 16 8 17 9 18 10 8 11 7 12
REMARK SMILES IDX 6 13 5 14 4 15 3 16 2 17 1 18
REMARK H PARENT
REMARK Flexibility Score: inf
ROOT
ATOM      1  C   UNL     1       8.939  30.492 -13.329  1.00  0.00     0.000 C 
ENDROOT
BRANCH   1   2
ATOM      2  C   UNL     1       8.588  29.098 -12.786  1.00  0.00     0.000 C 
BRANCH   2   3
ATOM      3  C   UNL     1       7.376  28.473 -13.495  1.00  0.00     0.000 C 
BRANCH   3   4
ATOM      4  C   UNL     1       7.177  26.993 -13.133  1.00  0.00     0.000 C 
BRANCH   4   5
ATOM      5  C   UNL     1       8.519  26.317 -12.830  1.00  0.00     0.000 C 
BRANCH   5   6
ATOM      6  C   UNL     1       8.406  24.790 -12.950  1.00  0.00     0.006 C 
BRANCH   6   7
ATOM      7  C   UNL     1       8.807  24.073 -11.654  1.00  0.00     0.053 C 
BRANCH   7   8
ATOM      8  C   UNL     1       7.610  23.594 -10.891  1.00  0.00     0.041 C 
ATOM      9  O   UNL     1       7.758  22.898  -9.853  1.00  0.00    -0.550 OA
ATOM     10  O   UNL     1       6.333  23.944 -11.309  1.00  0.00    -0.550 OA
ENDBRANCH   7   8
ENDBRANCH   6   7
ENDBRANCH   5   6
ENDBRANCH   4   5
ENDBRANCH   3   4
ENDBRANCH   2   3
ENDBRANCH   1   2
BRANCH   1  11
ATOM     11  C   UNL     1       7.703  31.172 -13.932  1.00  0.00     0.000 C 
BRANCH  11  12
ATOM     12  C   UNL     1       7.092  32.178 -12.945  1.00  0.00    -0.000 C 
BRANCH  12  13
ATOM     13  C   UNL     1       5.559  32.235 -13.031  1.00  0.00    -0.000 C 
BRANCH  13  14
ATOM     14  C   UNL     1       5.028  31.832 -14.414  1.00  0.00    -0.000 C 
BRANCH  14  15
ATOM     15  C   UNL     1       4.257  32.991 -15.064  1.00  0.00    -0.000 C 
BRANCH  15  16
ATOM     16  C   UNL     1       4.772  33.339 -16.473  1.00  0.00    -0.000 C 
BRANCH  16  17
ATOM     17  C   UNL     1       6.107  32.677 -16.855  1.00  0.00    -0.003 C 
ATOM     18  C   UNL     1       7.300  33.624 -16.734  1.00  0.00     0.004 C 
ENDBRANCH  16  17
ENDBRANCH  15  16
ENDBRANCH  14  15
ENDBRANCH  13  14
ENDBRANCH  12  13
ENDBRANCH  11  12
ENDBRANCH   1  11
TORSDOF 14
ENDMDL
MODEL 9
REMARK VINA RESULT:    -4.850      5.193      6.988
REMARK INTER + INTRA:          -9.514
REMARK INTER:                  -7.344
REMARK INTRA:                  -2.170
REMARK UNBOUND:                -0.694
REMARK SMILES CCCCCCCCCCCCCCCC(=O)[O-]
REMARK SMILES IDX 9 1 10 2 11 3 12 4 13 5 14 6 15 7 16 8 17 9 18 10 8 11 7 12
REMARK SMILES IDX 6 13 5 14 4 15 3 16 2 17 1 18
REMARK H PARENT
REMARK Flexibility Score: inf
ROOT
ATOM      1  C   UNL     1       1.231  17.853  -8.596  1.00  0.00     0.000 C 
ENDROOT
BRANCH   1   2
ATOM      2  C   UNL     1       2.478  17.334  -7.864  1.00  0.00     0.000 C 
BRANCH   2   3
ATOM      3  C   UNL     1       3.687  17.167  -8.798  1.00  0.00     0.000 C 
BRANCH   3   4
ATOM      4  C   UNL     1       3.752  18.254  -9.883  1.00  0.00     0.000 C 
BRANCH   4   5
ATOM      5  C   UNL     1       3.841  17.630 -11.280  1.00  0.00     0.000 C 
BRANCH   5   6
ATOM      6  C   UNL     1       2.545  17.860 -12.070  1.00  0.00     0.006 C 
BRANCH   6   7
ATOM      7  C   UNL     1       2.325  19.341 -12.407  1.00  0.00     0.053 C 
BRANCH   7   8
ATOM      8  C   UNL     1       1.032  19.851 -11.847  1.00  0.00     0.041 C 
ATOM      9  O   UNL     1       0.950  21.033 -11.421  1.00  0.00    -0.550 OA
ATOM     10  O   UNL     1      -0.089  19.031 -11.826  1.00  0.00    -0.550 OA
ENDBRANCH   7   8
ENDBRANCH   6   7
ENDBRANCH   5   6
ENDBRANCH   4   5
ENDBRANCH   3   4
ENDBRANCH   2   3
ENDBRANCH   1   2
BRANCH   1  11
ATOM     11  C   UNL     1      -0.051  17.363  -7.911  1.00  0.00     0.000 C 
BRANCH  11  12
ATOM     12  C   UNL     1       0.115  17.341  -6.384  1.00  0.00    -0.000 C 
BRANCH  12  13
ATOM     13  C   UNL     1      -0.241  18.686  -5.730  1.00  0.00    -0.000 C 
BRANCH  13  14
ATOM     14  C   UNL     1       0.918  19.270  -4.908  1.00  0.00    -0.000 C 
BRANCH  14  15
ATOM     15  C   UNL     1       1.302  20.667  -5.418  1.00  0.00    -0.000 C 
BRANCH  15  16
ATOM     16  C   UNL     1       0.576  21.052  -6.720  1.00  0.00    -0.000 C 
BRANCH  16  17
ATOM     17  C   UNL     1       1.503  21.373  -7.906  1.00  0.00    -0.003 C 
ATOM     18  C   UNL     1       2.963  21.008  -7.639  1.00  0.00     0.004 C 
ENDBRANCH  16  17
ENDBRANCH  15  16
ENDBRANCH  14  15
ENDBRANCH  13  14
ENDBRANCH  12  13
ENDBRANCH  11  12
ENDBRANCH   1  11
TORSDOF 14
ENDMDL
