MODEL 1
REMARK VINA RESULT:    -3.412      0.000      0.000
REMARK INTER + INTRA:          -4.928
REMARK INTER:                  -4.608
REMARK INTRA:                  -0.319
REMARK UNBOUND:                -0.319
REMARK SMILES C=C1C(=O)O[C@@H]2[C@@H]1CCC(C)=CCC[C@]1(C)O[C@H]21
REMARK SMILES IDX 6 1 7 2 2 3 1 4 3 5 4 6 5 7 8 8 9 9 10 10 11 11 12 12 18 14
REMARK SMILES IDX 15 15 17 16 16 17 14 18 13 19
REMARK H PARENT
REMARK Flexibility Score: 70.00
ROOT
ATOM      1  C   UNL     1      33.865  29.723  26.142  1.00  0.00     0.216 C 
ATOM      2  C   UNL     1      33.630  31.232  26.567  1.00  0.00     0.070 C 
ATOM      3  C   UNL     1      34.959  31.879  26.284  1.00  0.00     0.037 C 
ATOM      4  C   UNL     1      35.314  33.125  26.606  1.00  0.00     0.021 C 
ATOM      5  C   UNL     1      35.857  30.868  25.796  1.00  0.00     0.334 C 
ATOM      6  O   UNL     1      37.061  31.049  25.475  1.00  0.00    -0.247 OA
ATOM      7  O   UNL     1      35.235  29.644  25.753  1.00  0.00    -0.455 OA
ENDROOT
BRANCH   2   8
ATOM      8  C   UNL     1      32.442  32.044  25.924  1.00  0.00     0.017 C 
BRANCH   8   9
ATOM      9  C   UNL     1      31.027  32.026  26.565  1.00  0.00     0.031 C 
BRANCH   9  10
ATOM     10  C   UNL     1      29.992  31.353  25.671  1.00  0.00    -0.077 C 
ATOM     11  C   UNL     1      29.333  32.172  24.589  1.00  0.00     0.039 C 
ATOM     12  C   UNL     1      29.634  30.051  25.781  1.00  0.00    -0.028 CG0
ATOM     13  G   UNL     1      30.151  29.088  26.820  1.00  0.00     0.000 G0
ENDBRANCH   9  10
ENDBRANCH   8   9
ENDBRANCH   2   8
BRANCH   1  14
ATOM     14  C   UNL     1      33.608  28.623  27.199  1.00  0.00     0.192 C 
ATOM     15  C   UNL     1      32.363  27.795  27.114  1.00  0.00     0.096 C 
ATOM     16  O   UNL     1      32.517  28.833  28.064  1.00  0.00    -0.362 OA
ATOM     17  C   UNL     1      32.385  26.421  27.786  1.00  0.00     0.045 C 
BRANCH  15  18
ATOM     18  C   UNL     1      31.178  28.109  26.185  1.00  0.00     0.042 C 
BRANCH  18  19
ATOM     19  C   UNL     1      30.159  29.068  26.816  1.00  0.00     0.030 CG0
ATOM     20  G   UNL     1      29.642  30.050  25.795  1.00  0.00     0.000 G0
ENDBRANCH  18  19
ENDBRANCH  15  18
ENDBRANCH   1  14
TORSDOF 0
ENDMDL
MODEL 2
REMARK VINA RESULT:    -3.406     10.975     13.166
REMARK INTER + INTRA:          -4.920
REMARK INTER:                  -4.641
REMARK INTRA:                  -0.278
REMARK UNBOUND:                -0.319
REMARK SMILES C=C1C(=O)O[C@@H]2[C@@H]1CCC(C)=CCC[C@]1(C)O[C@H]21
REMARK SMILES IDX 6 1 7 2 2 3 1 4 3 5 4 6 5 7 8 8 9 9 10 10 11 11 12 12 18 14
REMARK SMILES IDX 15 15 17 16 16 17 14 18 13 19
REMARK H PARENT
REMARK Flexibility Score: 70.00
ROOT
ATOM      1  C   UNL     1      46.035  29.409  26.086  1.00  0.00     0.216 C 
ATOM      2  C   UNL     1      44.858  30.465  25.974  1.00  0.00     0.070 C 
ATOM      3  C   UNL     1      44.906  30.878  24.528  1.00  0.00     0.037 C 
ATOM      4  C   UNL     1      44.197  31.860  23.965  1.00  0.00     0.021 C 
ATOM      5  C   UNL     1      45.992  30.182  23.896  1.00  0.00     0.334 C 
ATOM      6  O   UNL     1      46.337  30.299  22.690  1.00  0.00    -0.247 OA
ATOM      7  O   UNL     1      46.646  29.378  24.798  1.00  0.00    -0.455 OA
ENDROOT
BRANCH   2   8
ATOM      8  C   UNL     1      43.401  30.054  26.411  1.00  0.00     0.017 C 
BRANCH   8   9
ATOM      9  C   UNL     1      43.074  29.744  27.898  1.00  0.00     0.031 C 
BRANCH   9  10
ATOM     10  C   UNL     1      42.937  28.250  28.165  1.00  0.00    -0.077 C 
ATOM     11  C   UNL     1      41.702  27.539  27.672  1.00  0.00     0.039 C 
ATOM     12  C   UNL     1      43.872  27.513  28.813  1.00  0.00    -0.028 CG0
ATOM     13  G   UNL     1      45.148  28.050  29.409  1.00  0.00     0.000 G0
ENDBRANCH   9  10
ENDBRANCH   8   9
ENDBRANCH   2   8
BRANCH   1  14
ATOM     14  C   UNL     1      47.145  29.668  27.132  1.00  0.00     0.192 C 
ATOM     15  C   UNL     1      47.342  28.696  28.255  1.00  0.00     0.096 C 
ATOM     16  O   UNL     1      46.713  29.950  28.442  1.00  0.00    -0.362 OA
ATOM     17  C   UNL     1      48.719  28.662  28.921  1.00  0.00     0.045 C 
BRANCH  15  18
ATOM     18  C   UNL     1      46.360  27.564  28.599  1.00  0.00     0.042 C 
BRANCH  18  19
ATOM     19  C   UNL     1      45.151  28.045  29.413  1.00  0.00     0.030 CG0
ATOM     20  G   UNL     1      43.865  27.525  28.822  1.00  0.00     0.000 G0
ENDBRANCH  18  19
ENDBRANCH  15  18
ENDBRANCH   1  14
TORSDOF 0
ENDMDL
MODEL 3
REMARK VINA RESULT:    -3.177      1.524      3.700
REMARK INTER + INTRA:          -4.611
REMARK INTER:                  -4.294
REMARK INTRA:                  -0.317
REMARK UNBOUND:                -0.319
REMARK SMILES C=C1C(=O)O[C@@H]2[C@@H]1CCC(C)=CCC[C@]1(C)O[C@H]21
REMARK SMILES IDX 6 1 7 2 2 3 1 4 3 5 4 6 5 7 8 8 9 9 10 10 11 11 12 12 18 14
REMARK SMILES IDX 15 15 17 16 16 17 14 18 13 19
REMARK H PARENT
REMARK Flexibility Score: 70.00
ROOT
ATOM      1  C   UNL     1      32.919  31.402  26.236  1.00  0.00     0.216 C 
ATOM      2  C   UNL     1      33.898  30.191  25.944  1.00  0.00     0.070 C 
ATOM      3  C   UNL     1      35.253  30.844  25.922  1.00  0.00     0.037 C 
ATOM      4  C   UNL     1      36.404  30.261  25.576  1.00  0.00     0.021 C 
ATOM      5  C   UNL     1      35.078  32.254  26.136  1.00  0.00     0.334 C 
ATOM      6  O   UNL     1      35.998  33.113  26.162  1.00  0.00    -0.247 OA
ATOM      7  O   UNL     1      33.746  32.563  26.277  1.00  0.00    -0.455 OA
ENDROOT
BRANCH   2   8
ATOM      8  C   UNL     1      33.877  28.930  26.889  1.00  0.00     0.017 C 
BRANCH   8   9
ATOM      9  C   UNL     1      32.916  27.742  26.609  1.00  0.00     0.031 C 
BRANCH   9  10
ATOM     10  C   UNL     1      31.864  27.576  27.699  1.00  0.00    -0.077 C 
ATOM     11  C   UNL     1      32.221  26.784  28.932  1.00  0.00     0.039 C 
ATOM     12  C   UNL     1      30.621  28.113  27.633  1.00  0.00    -0.028 CG0
ATOM     13  G   UNL     1      30.070  28.899  26.471  1.00  0.00     0.000 G0
ENDBRANCH   9  10
ENDBRANCH   8   9
ENDBRANCH   2   8
BRANCH   1  14
ATOM     14  C   UNL     1      31.775  31.671  25.228  1.00  0.00     0.192 C 
ATOM     15  C   UNL     1      30.374  31.279  25.581  1.00  0.00     0.096 C 
ATOM     16  O   UNL     1      31.159  30.536  24.668  1.00  0.00    -0.362 OA
ATOM     17  C   UNL     1      29.237  32.013  24.866  1.00  0.00     0.045 C 
BRANCH  15  18
ATOM     18  C   UNL     1      30.001  30.399  26.786  1.00  0.00     0.042 C 
BRANCH  18  19
ATOM     19  C   UNL     1      30.050  28.898  26.470  1.00  0.00     0.030 CG0
ATOM     20  G   UNL     1      30.622  28.123  27.630  1.00  0.00     0.000 G0
ENDBRANCH  18  19
ENDBRANCH  15  18
ENDBRANCH   1  14
TORSDOF 0
ENDMDL
MODEL 4
REMARK VINA RESULT:    -3.167     10.048     12.485
REMARK INTER + INTRA:          -4.597
REMARK INTER:                  -4.323
REMARK INTRA:                  -0.274
REMARK UNBOUND:                -0.319
REMARK SMILES C=C1C(=O)O[C@@H]2[C@@H]1CCC(C)=CCC[C@]1(C)O[C@H]21
REMARK SMILES IDX 6 1 7 2 2 3 1 4 3 5 4 6 5 7 8 8 9 9 10 10 11 11 12 12 18 14
REMARK SMILES IDX 15 15 17 16 16 17 14 18 13 19
REMARK H PARENT
REMARK Flexibility Score: 70.00
ROOT
ATOM      1  C   UNL     1      45.841  28.486  26.535  1.00  0.00     0.216 C 
ATOM      2  C   UNL     1      45.232  29.949  26.585  1.00  0.00     0.070 C 
ATOM      3  C   UNL     1      45.925  30.646  25.444  1.00  0.00     0.037 C 
ATOM      4  C   UNL     1      45.853  31.948  25.156  1.00  0.00     0.021 C 
ATOM      5  C   UNL     1      46.841  29.719  24.839  1.00  0.00     0.334 C 
ATOM      6  O   UNL     1      47.601  29.967  23.867  1.00  0.00    -0.247 OA
ATOM      7  O   UNL     1      46.809  28.509  25.489  1.00  0.00    -0.455 OA
ENDROOT
BRANCH   2   8
ATOM      8  C   UNL     1      43.670  30.144  26.520  1.00  0.00     0.017 C 
BRANCH   8   9
ATOM      9  C   UNL     1      42.766  29.722  27.711  1.00  0.00     0.031 C 
BRANCH   9  10
ATOM     10  C   UNL     1      41.985  28.445  27.426  1.00  0.00    -0.077 C 
ATOM     11  C   UNL     1      40.810  28.514  26.482  1.00  0.00     0.039 C 
ATOM     12  C   UNL     1      42.293  27.239  27.962  1.00  0.00    -0.028 CG0
ATOM     13  G   UNL     1      43.401  26.980  28.951  1.00  0.00     0.000 G0
ENDBRANCH   9  10
ENDBRANCH   8   9
ENDBRANCH   2   8
BRANCH   1  14
ATOM     14  C   UNL     1      46.532  27.943  27.809  1.00  0.00     0.192 C 
ATOM     15  C   UNL     1      45.939  26.771  28.527  1.00  0.00     0.096 C 
ATOM     16  O   UNL     1      45.821  28.094  29.016  1.00  0.00    -0.362 OA
ATOM     17  C   UNL     1      46.875  25.938  29.405  1.00  0.00     0.045 C 
BRANCH  15  18
ATOM     18  C   UNL     1      44.543  26.195  28.236  1.00  0.00     0.042 C 
BRANCH  18  19
ATOM     19  C   UNL     1      43.416  26.978  28.925  1.00  0.00     0.030 CG0
ATOM     20  G   UNL     1      42.278  27.235  27.969  1.00  0.00     0.000 G0
ENDBRANCH  18  19
ENDBRANCH  15  18
ENDBRANCH   1  14
TORSDOF 0
ENDMDL
MODEL 5
REMARK VINA RESULT:    -3.156     12.623     14.282
REMARK INTER + INTRA:          -4.583
REMARK INTER:                  -4.290
REMARK INTRA:                  -0.292
REMARK UNBOUND:                -0.319
REMARK SMILES C=C1C(=O)O[C@@H]2[C@@H]1CCC(C)=CCC[C@]1(C)O[C@H]21
REMARK SMILES IDX 6 1 7 2 2 3 1 4 3 5 4 6 5 7 8 8 9 9 10 10 11 11 12 12 18 14
REMARK SMILES IDX 15 15 17 16 16 17 14 18 13 19
REMARK H PARENT
REMARK Flexibility Score: 70.00
ROOT
ATOM      1  C   UNL     1      46.645  28.923  26.136  1.00  0.00     0.216 C 
ATOM      2  C   UNL     1      45.220  29.606  26.262  1.00  0.00     0.070 C 
ATOM      3  C   UNL     1      45.034  29.735  27.750  1.00  0.00     0.037 C 
ATOM      4  C   UNL     1      43.921  30.130  28.374  1.00  0.00     0.021 C 
ATOM      5  C   UNL     1      46.183  29.167  28.399  1.00  0.00     0.334 C 
ATOM      6  O   UNL     1      46.359  29.087  29.644  1.00  0.00    -0.247 OA
ATOM      7  O   UNL     1      47.073  28.678  27.474  1.00  0.00    -0.455 OA
ENDROOT
BRANCH   2   8
ATOM      8  C   UNL     1      44.944  30.970  25.523  1.00  0.00     0.017 C 
BRANCH   8   9
ATOM      9  C   UNL     1      44.581  30.997  24.013  1.00  0.00     0.031 C 
BRANCH   9  10
ATOM     10  C   UNL     1      45.683  31.616  23.160  1.00  0.00    -0.077 C 
ATOM     11  C   UNL     1      45.781  33.119  23.089  1.00  0.00     0.039 C 
ATOM     12  C   UNL     1      46.596  30.891  22.468  1.00  0.00    -0.028 CG0
ATOM     13  G   UNL     1      46.636  29.386  22.387  1.00  0.00     0.000 G0
ENDBRANCH   9  10
ENDBRANCH   8   9
ENDBRANCH   2   8
BRANCH   1  14
ATOM     14  C   UNL     1      46.745  27.590  25.355  1.00  0.00     0.192 C 
ATOM     15  C   UNL     1      47.410  27.569  24.014  1.00  0.00     0.096 C 
ATOM     16  O   UNL     1      46.004  27.512  24.160  1.00  0.00    -0.362 OA
ATOM     17  C   UNL     1      47.972  26.231  23.529  1.00  0.00     0.045 C 
BRANCH  15  18
ATOM     18  C   UNL     1      47.801  28.829  23.224  1.00  0.00     0.042 C 
BRANCH  18  19
ATOM     19  C   UNL     1      46.645  29.398  22.390  1.00  0.00     0.030 CG0
ATOM     20  G   UNL     1      46.609  30.903  22.478  1.00  0.00     0.000 G0
ENDBRANCH  18  19
ENDBRANCH  15  18
ENDBRANCH   1  14
TORSDOF 0
ENDMDL
MODEL 6
REMARK VINA RESULT:    -3.129      2.723      4.909
REMARK INTER + INTRA:          -4.546
REMARK INTER:                  -4.252
REMARK INTRA:                  -0.294
REMARK UNBOUND:                -0.319
REMARK SMILES C=C1C(=O)O[C@@H]2[C@@H]1CCC(C)=CCC[C@]1(C)O[C@H]21
REMARK SMILES IDX 6 1 7 2 2 3 1 4 3 5 4 6 5 7 8 8 9 9 10 10 11 11 12 12 18 14
REMARK SMILES IDX 15 15 17 16 16 17 14 18 13 19
REMARK H PARENT
REMARK Flexibility Score: 70.00
ROOT
ATOM      1  C   UNL     1      31.435  28.963  25.504  1.00  0.00     0.216 C 
ATOM      2  C   UNL     1      31.426  29.531  26.983  1.00  0.00     0.070 C 
ATOM      3  C   UNL     1      31.460  28.286  27.828  1.00  0.00     0.037 C 
ATOM      4  C   UNL     1      31.328  28.231  29.156  1.00  0.00     0.021 C 
ATOM      5  C   UNL     1      31.452  27.147  26.953  1.00  0.00     0.334 C 
ATOM      6  O   UNL     1      31.457  25.942  27.316  1.00  0.00    -0.247 OA
ATOM      7  O   UNL     1      31.402  27.544  25.638  1.00  0.00    -0.455 OA
ENDROOT
BRANCH   2   8
ATOM      8  C   UNL     1      32.531  30.563  27.426  1.00  0.00     0.017 C 
BRANCH   8   9
ATOM      9  C   UNL     1      32.509  32.026  26.905  1.00  0.00     0.031 C 
BRANCH   9  10
ATOM     10  C   UNL     1      33.607  32.297  25.883  1.00  0.00    -0.077 C 
ATOM     11  C   UNL     1      35.021  32.479  26.376  1.00  0.00     0.039 C 
ATOM     12  C   UNL     1      33.391  32.371  24.547  1.00  0.00    -0.028 CG0
ATOM     13  G   UNL     1      32.048  32.255  23.872  1.00  0.00     0.000 G0
ENDBRANCH   9  10
ENDBRANCH   8   9
ENDBRANCH   2   8
BRANCH   1  14
ATOM     14  C   UNL     1      30.281  29.377  24.560  1.00  0.00     0.192 C 
ATOM     15  C   UNL     1      30.576  30.225  23.361  1.00  0.00     0.096 C 
ATOM     16  O   UNL     1      29.965  30.748  24.526  1.00  0.00    -0.362 OA
ATOM     17  C   UNL     1      29.586  30.164  22.196  1.00  0.00     0.045 C 
BRANCH  15  18
ATOM     18  C   UNL     1      31.919  30.932  23.114  1.00  0.00     0.042 C 
BRANCH  18  19
ATOM     19  C   UNL     1      32.043  32.264  23.866  1.00  0.00     0.030 CG0
ATOM     20  G   UNL     1      33.382  32.372  24.550  1.00  0.00     0.000 G0
ENDBRANCH  18  19
ENDBRANCH  15  18
ENDBRANCH   1  14
TORSDOF 0
ENDMDL
MODEL 7
REMARK VINA RESULT:    -3.126     12.559     14.456
REMARK INTER + INTRA:          -4.542
REMARK INTER:                  -4.230
REMARK INTRA:                  -0.312
REMARK UNBOUND:                -0.319
REMARK SMILES C=C1C(=O)O[C@@H]2[C@@H]1CCC(C)=CCC[C@]1(C)O[C@H]21
REMARK SMILES IDX 6 1 7 2 2 3 1 4 3 5 4 6 5 7 8 8 9 9 10 10 11 11 12 12 18 14
REMARK SMILES IDX 15 15 17 16 16 17 14 18 13 19
REMARK H PARENT
REMARK Flexibility Score: 70.00
ROOT
ATOM      1  C   UNL     1      45.013  30.145  26.139  1.00  0.00     0.216 C 
ATOM      2  C   UNL     1      46.079  29.267  26.917  1.00  0.00     0.070 C 
ATOM      3  C   UNL     1      45.483  29.147  28.294  1.00  0.00     0.037 C 
ATOM      4  C   UNL     1      46.075  28.611  29.365  1.00  0.00     0.021 C 
ATOM      5  C   UNL     1      44.254  29.891  28.320  1.00  0.00     0.334 C 
ATOM      6  O   UNL     1      43.497  30.024  29.318  1.00  0.00    -0.247 OA
ATOM      7  O   UNL     1      44.016  30.481  27.102  1.00  0.00    -0.455 OA
ENDROOT
BRANCH   2   8
ATOM      8  C   UNL     1      46.495  27.861  26.342  1.00  0.00     0.017 C 
BRANCH   8   9
ATOM      9  C   UNL     1      47.628  27.737  25.286  1.00  0.00     0.031 C 
BRANCH   9  10
ATOM     10  C   UNL     1      47.112  27.265  23.931  1.00  0.00    -0.077 C 
ATOM     11  C   UNL     1      46.920  25.786  23.708  1.00  0.00     0.039 C 
ATOM     12  C   UNL     1      46.800  28.102  22.912  1.00  0.00    -0.028 CG0
ATOM     13  G   UNL     1      46.960  29.601  22.932  1.00  0.00     0.000 G0
ENDBRANCH   9  10
ENDBRANCH   8   9
ENDBRANCH   2   8
BRANCH   1  14
ATOM     14  C   UNL     1      45.497  31.460  25.480  1.00  0.00     0.192 C 
ATOM     15  C   UNL     1      45.655  31.524  23.993  1.00  0.00     0.096 C 
ATOM     16  O   UNL     1      46.763  31.419  24.866  1.00  0.00    -0.362 OA
ATOM     17  C   UNL     1      45.594  32.906  23.339  1.00  0.00     0.045 C 
BRANCH  15  18
ATOM     18  C   UNL     1      45.604  30.299  23.065  1.00  0.00     0.042 C 
BRANCH  18  19
ATOM     19  C   UNL     1      46.963  29.603  22.914  1.00  0.00     0.030 CG0
ATOM     20  G   UNL     1      46.803  28.104  22.917  1.00  0.00     0.000 G0
ENDBRANCH  18  19
ENDBRANCH  15  18
ENDBRANCH   1  14
TORSDOF 0
ENDMDL
MODEL 8
REMARK VINA RESULT:    -3.045     12.311     13.953
REMARK INTER + INTRA:          -4.432
REMARK INTER:                  -4.110
REMARK INTRA:                  -0.322
REMARK UNBOUND:                -0.319
REMARK SMILES C=C1C(=O)O[C@@H]2[C@@H]1CCC(C)=CCC[C@]1(C)O[C@H]21
REMARK SMILES IDX 6 1 7 2 2 3 1 4 3 5 4 6 5 7 8 8 9 9 10 10 11 11 12 12 18 14
REMARK SMILES IDX 15 15 17 16 16 17 14 18 13 19
REMARK H PARENT
REMARK Flexibility Score: 70.00
ROOT
ATOM      1  C   UNL     1      45.362  30.277  25.879  1.00  0.00     0.216 C 
ATOM      2  C   UNL     1      45.180  29.151  24.778  1.00  0.00     0.070 C 
ATOM      3  C   UNL     1      45.144  29.933  23.492  1.00  0.00     0.037 C 
ATOM      4  C   UNL     1      44.867  29.445  22.281  1.00  0.00     0.021 C 
ATOM      5  C   UNL     1      45.252  31.330  23.811  1.00  0.00     0.334 C 
ATOM      6  O   UNL     1      45.239  32.276  22.980  1.00  0.00    -0.247 OA
ATOM      7  O   UNL     1      45.340  31.513  25.170  1.00  0.00    -0.455 OA
ENDROOT
BRANCH   2   8
ATOM      8  C   UNL     1      46.211  27.962  24.704  1.00  0.00     0.017 C 
BRANCH   8   9
ATOM      9  C   UNL     1      46.061  26.720  25.625  1.00  0.00     0.031 C 
BRANCH   9  10
ATOM     10  C   UNL     1      47.180  26.620  26.655  1.00  0.00    -0.077 C 
ATOM     11  C   UNL     1      48.498  26.022  26.231  1.00  0.00     0.039 C 
ATOM     12  C   UNL     1      47.067  27.052  27.935  1.00  0.00    -0.028 CG0
ATOM     13  G   UNL     1      45.823  27.640  28.550  1.00  0.00     0.000 G0
ENDBRANCH   9  10
ENDBRANCH   8   9
ENDBRANCH   2   8
BRANCH   1  14
ATOM     14  C   UNL     1      44.311  30.361  27.012  1.00  0.00     0.192 C 
ATOM     15  C   UNL     1      44.681  29.922  28.395  1.00  0.00     0.096 C 
ATOM     16  O   UNL     1      43.869  29.135  27.544  1.00  0.00    -0.362 OA
ATOM     17  C   UNL     1      43.870  30.499  29.556  1.00  0.00     0.045 C 
BRANCH  15  18
ATOM     18  C   UNL     1      45.969  29.156  28.743  1.00  0.00     0.042 C 
BRANCH  18  19
ATOM     19  C   UNL     1      45.828  27.637  28.574  1.00  0.00     0.030 CG0
ATOM     20  G   UNL     1      47.065  27.049  27.945  1.00  0.00     0.000 G0
ENDBRANCH  18  19
ENDBRANCH  15  18
ENDBRANCH   1  14
TORSDOF 0
ENDMDL
MODEL 9
REMARK VINA RESULT:    -3.031     12.246     14.378
REMARK INTER + INTRA:          -4.414
REMARK INTER:                  -4.107
REMARK INTRA:                  -0.307
REMARK UNBOUND:                -0.319
REMARK SMILES C=C1C(=O)O[C@@H]2[C@@H]1CCC(C)=CCC[C@]1(C)O[C@H]21
REMARK SMILES IDX 6 1 7 2 2 3 1 4 3 5 4 6 5 7 8 8 9 9 10 10 11 11 12 12 18 14
REMARK SMILES IDX 15 15 17 16 16 17 14 18 13 19
REMARK H PARENT
REMARK Flexibility Score: 70.00
ROOT
ATOM      1  C   UNL     1      45.629  27.840  26.851  1.00  0.00     0.216 C 
ATOM      2  C   UNL     1      45.275  28.464  28.264  1.00  0.00     0.070 C 
ATOM      3  C   UNL     1      44.347  29.597  27.914  1.00  0.00     0.037 C 
ATOM      4  C   UNL     1      43.878  30.521  28.756  1.00  0.00     0.021 C 
ATOM      5  C   UNL     1      44.214  29.645  26.484  1.00  0.00     0.334 C 
ATOM      6  O   UNL     1      43.527  30.480  25.838  1.00  0.00    -0.247 OA
ATOM      7  O   UNL     1      44.974  28.665  25.891  1.00  0.00    -0.455 OA
ENDROOT
BRANCH   2   8
ATOM      8  C   UNL     1      44.666  27.545  29.389  1.00  0.00     0.017 C 
BRANCH   8   9
ATOM      9  C   UNL     1      45.509  26.407  30.029  1.00  0.00     0.031 C 
BRANCH   9  10
ATOM     10  C   UNL     1      45.108  25.028  29.517  1.00  0.00    -0.077 C 
ATOM     11  C   UNL     1      43.814  24.426  30.006  1.00  0.00     0.039 C 
ATOM     12  C   UNL     1      45.843  24.310  28.633  1.00  0.00    -0.028 CG0
ATOM     13  G   UNL     1      47.176  24.726  28.064  1.00  0.00     0.000 G0
ENDBRANCH   9  10
ENDBRANCH   8   9
ENDBRANCH   2   8
BRANCH   1  14
ATOM     14  C   UNL     1      47.122  27.744  26.453  1.00  0.00     0.192 C 
ATOM     15  C   UNL     1      47.738  26.400  26.217  1.00  0.00     0.096 C 
ATOM     16  O   UNL     1      47.981  27.146  27.395  1.00  0.00    -0.362 OA
ATOM     17  C   UNL     1      48.984  26.344  25.331  1.00  0.00     0.045 C 
BRANCH  15  18
ATOM     18  C   UNL     1      47.062  25.066  26.575  1.00  0.00     0.042 C 
BRANCH  18  19
ATOM     19  C   UNL     1      47.197  24.703  28.060  1.00  0.00     0.030 CG0
ATOM     20  G   UNL     1      45.861  24.316  28.642  1.00  0.00     0.000 G0
ENDBRANCH  18  19
ENDBRANCH  15  18
ENDBRANCH   1  14
TORSDOF 0
ENDMDL
