MODEL 1
REMARK VINA RESULT:    -3.781      0.000      0.000
REMARK INTER + INTRA:          -4.415
REMARK INTER:                  -4.113
REMARK INTRA:                  -0.302
REMARK UNBOUND:                -0.302
REMARK SMILES CC(=O)c1cc(C)ccc1O
REMARK SMILES IDX 7 1 6 2 5 3 4 4 10 5 9 6 8 7 2 8 3 9 1 10 11 11
REMARK H PARENT 11 12
REMARK Flexibility Score: inf
ROOT
ATOM      1  C   UNL     1       6.742  14.586   2.125  1.00  0.00     0.044 C 
ATOM      2  C   UNL     1       8.098  15.211   1.976  1.00  0.00    -0.050 A 
ATOM      3  C   UNL     1       9.203  14.426   1.619  1.00  0.00     0.019 A 
ATOM      4  C   UNL     1      10.473  15.004   1.431  1.00  0.00     0.059 A 
ATOM      5  C   UNL     1      10.623  16.398   1.620  1.00  0.00     0.126 A 
ATOM      6  C   UNL     1       9.509  17.181   1.955  1.00  0.00     0.047 A 
ATOM      7  C   UNL     1       8.254  16.595   2.124  1.00  0.00     0.007 A 
ENDROOT
BRANCH   4   8
ATOM      8  C   UNL     1      11.610  14.124   1.049  1.00  0.00     0.163 C 
ATOM      9  O   UNL     1      12.649  14.111   1.766  1.00  0.00    -0.294 OA
ATOM     10  C   UNL     1      11.575  13.243  -0.162  1.00  0.00     0.093 C 
ENDBRANCH   4   8
BRANCH   5  11
ATOM     11  O   UNL     1      11.871  17.007   1.499  1.00  0.00    -0.507 OA
ATOM     12  H   UNL     1      11.991  18.007   1.615  1.00  0.00     0.293 HD
ENDBRANCH   5  11
TORSDOF 2
ENDMDL
MODEL 2
REMARK VINA RESULT:    -1.565      1.596      3.623
REMARK INTER + INTRA:          -2.004
REMARK INTER:                  -1.723
REMARK INTRA:                  -0.281
REMARK UNBOUND:                -0.302
REMARK SMILES CC(=O)c1cc(C)ccc1O
REMARK SMILES IDX 7 1 6 2 5 3 4 4 10 5 9 6 8 7 2 8 3 9 1 10 11 11
REMARK H PARENT 11 12
REMARK Flexibility Score: inf
ROOT
ATOM      1  C   UNL     1       8.938  13.462  -1.628  1.00  0.00     0.044 C 
ATOM      2  C   UNL     1      10.018  13.832  -0.654  1.00  0.00    -0.050 A 
ATOM      3  C   UNL     1       9.937  15.031   0.069  1.00  0.00     0.019 A 
ATOM      4  C   UNL     1      10.918  15.371   1.021  1.00  0.00     0.059 A 
ATOM      5  C   UNL     1      12.001  14.484   1.231  1.00  0.00     0.126 A 
ATOM      6  C   UNL     1      12.063  13.276   0.522  1.00  0.00     0.047 A 
ATOM      7  C   UNL     1      11.076  12.948  -0.407  1.00  0.00     0.007 A 
ENDROOT
BRANCH   4   8
ATOM      8  C   UNL     1      10.783  16.654   1.761  1.00  0.00     0.163 C 
ATOM      9  O   UNL     1      11.821  17.285   2.099  1.00  0.00    -0.294 OA
ATOM     10  C   UNL     1       9.451  17.236   2.125  1.00  0.00     0.093 C 
ENDBRANCH   4   8
BRANCH   5  11
ATOM     11  O   UNL     1      13.024  14.804   2.123  1.00  0.00    -0.507 OA
ATOM     12  H   UNL     1      12.902  15.501   2.848  1.00  0.00     0.293 HD
ENDBRANCH   5  11
TORSDOF 2
ENDMDL
MODEL 3
REMARK VINA RESULT:    -1.469      1.605      2.020
REMARK INTER + INTRA:          -1.900
REMARK INTER:                  -1.600
REMARK INTRA:                  -0.300
REMARK UNBOUND:                -0.302
REMARK SMILES CC(=O)c1cc(C)ccc1O
REMARK SMILES IDX 7 1 6 2 5 3 4 4 10 5 9 6 8 7 2 8 3 9 1 10 11 11
REMARK H PARENT 11 12
REMARK Flexibility Score: inf
ROOT
ATOM      1  C   UNL     1       7.837  17.755   1.411  1.00  0.00     0.044 C 
ATOM      2  C   UNL     1       9.156  17.041   1.459  1.00  0.00    -0.050 A 
ATOM      3  C   UNL     1       9.321  15.817   0.794  1.00  0.00     0.019 A 
ATOM      4  C   UNL     1      10.565  15.156   0.790  1.00  0.00     0.059 A 
ATOM      5  C   UNL     1      11.651  15.743   1.482  1.00  0.00     0.126 A 
ATOM      6  C   UNL     1      11.485  16.978   2.125  1.00  0.00     0.047 A 
ATOM      7  C   UNL     1      10.250  17.626   2.108  1.00  0.00     0.007 A 
ENDROOT
BRANCH   4   8
ATOM      8  C   UNL     1      10.685  13.862   0.067  1.00  0.00     0.163 C 
ATOM      9  O   UNL     1      11.317  12.911   0.603  1.00  0.00    -0.294 OA
ATOM     10  C   UNL     1      10.081  13.636  -1.285  1.00  0.00     0.093 C 
ENDBRANCH   4   8
BRANCH   5  11
ATOM     11  O   UNL     1      12.886  15.099   1.552  1.00  0.00    -0.507 OA
ATOM     12  H   UNL     1      12.966  14.127   1.829  1.00  0.00     0.293 HD
ENDBRANCH   5  11
TORSDOF 2
ENDMDL
MODEL 4
REMARK VINA RESULT:    -1.435      2.113      3.157
REMARK INTER + INTRA:          -1.862
REMARK INTER:                  -1.557
REMARK INTRA:                  -0.306
REMARK UNBOUND:                -0.302
REMARK SMILES CC(=O)c1cc(C)ccc1O
REMARK SMILES IDX 7 1 6 2 5 3 4 4 10 5 9 6 8 7 2 8 3 9 1 10 11 11
REMARK H PARENT 11 12
REMARK Flexibility Score: inf
ROOT
ATOM      1  C   UNL     1      12.281  18.117   2.121  1.00  0.00     0.044 C 
ATOM      2  C   UNL     1      11.211  17.133   1.747  1.00  0.00    -0.050 A 
ATOM      3  C   UNL     1      11.546  15.944   1.083  1.00  0.00     0.019 A 
ATOM      4  C   UNL     1      10.561  14.989   0.765  1.00  0.00     0.059 A 
ATOM      5  C   UNL     1       9.217  15.253   1.117  1.00  0.00     0.126 A 
ATOM      6  C   UNL     1       8.892  16.433   1.802  1.00  0.00     0.047 A 
ATOM      7  C   UNL     1       9.882  17.363   2.121  1.00  0.00     0.007 A 
ENDROOT
BRANCH   4   8
ATOM      8  C   UNL     1      10.972  13.744   0.063  1.00  0.00     0.163 C 
ATOM      9  O   UNL     1      10.357  13.391  -0.980  1.00  0.00    -0.294 OA
ATOM     10  C   UNL     1      12.100  12.883   0.545  1.00  0.00     0.093 C 
ENDBRANCH   4   8
BRANCH   5  11
ATOM     11  O   UNL     1       8.199  14.363   0.775  1.00  0.00    -0.507 OA
ATOM     12  H   UNL     1       7.304  14.685   0.427  1.00  0.00     0.293 HD
ENDBRANCH   5  11
TORSDOF 2
ENDMDL
