MODEL 1
REMARK VINA RESULT:    -3.712      0.000      0.000
REMARK INTER + INTRA:          -4.767
REMARK INTER:                  -4.580
REMARK INTRA:                  -0.187
REMARK UNBOUND:                -0.187
REMARK SMILES CCCCCC(=O)[O-]
REMARK SMILES IDX 4 1 5 2 6 3 7 4 8 5 3 6 2 7 1 8
REMARK H PARENT
REMARK Flexibility Score: inf
ROOT
ATOM      1  C   UNL     1      -2.094   7.003   5.070  1.00  0.00     0.006 C 
ENDROOT
BRANCH   1   2
ATOM      2  C   UNL     1      -2.776   5.659   4.779  1.00  0.00     0.053 C 
BRANCH   2   3
ATOM      3  C   UNL     1      -3.366   5.054   6.016  1.00  0.00     0.041 C 
ATOM      4  O   UNL     1      -3.600   5.774   7.022  1.00  0.00    -0.550 OA
ATOM      5  O   UNL     1      -3.627   3.691   6.069  1.00  0.00    -0.550 OA
ENDBRANCH   2   3
ENDBRANCH   1   2
BRANCH   1   6
ATOM      6  C   UNL     1      -2.908   8.194   4.543  1.00  0.00     0.000 C 
BRANCH   6   7
ATOM      7  C   UNL     1      -3.149   9.227   5.650  1.00  0.00    -0.003 C 
ATOM      8  C   UNL     1      -2.311   8.914   6.887  1.00  0.00     0.004 C 
ENDBRANCH   6   7
ENDBRANCH   1   6
TORSDOF 4
ENDMDL
MODEL 2
REMARK VINA RESULT:    -3.611      1.781      3.481
REMARK INTER + INTRA:          -4.642
REMARK INTER:                  -4.433
REMARK INTRA:                  -0.210
REMARK UNBOUND:                -0.187
REMARK SMILES CCCCCC(=O)[O-]
REMARK SMILES IDX 4 1 5 2 6 3 7 4 8 5 3 6 2 7 1 8
REMARK H PARENT
REMARK Flexibility Score: inf
ROOT
ATOM      1  C   UNL     1      -2.625   7.850   5.289  1.00  0.00     0.006 C 
ENDROOT
BRANCH   1   2
ATOM      2  C   UNL     1      -2.040   8.302   6.635  1.00  0.00     0.053 C 
BRANCH   2   3
ATOM      3  C   UNL     1      -3.078   8.317   7.716  1.00  0.00     0.041 C 
ATOM      4  O   UNL     1      -3.608   9.403   8.069  1.00  0.00    -0.550 OA
ATOM      5  O   UNL     1      -3.434   7.137   8.355  1.00  0.00    -0.550 OA
ENDBRANCH   2   3
ENDBRANCH   1   2
BRANCH   1   6
ATOM      6  C   UNL     1      -2.156   6.442   4.895  1.00  0.00     0.000 C 
BRANCH   6   7
ATOM      7  C   UNL     1      -3.339   5.470   4.822  1.00  0.00    -0.003 C 
ATOM      8  C   UNL     1      -3.329   4.498   5.999  1.00  0.00     0.004 C 
ENDBRANCH   6   7
ENDBRANCH   1   6
TORSDOF 4
ENDMDL
MODEL 3
REMARK VINA RESULT:    -3.420      2.619      4.249
REMARK INTER + INTRA:          -4.407
REMARK INTER:                  -4.324
REMARK INTRA:                  -0.084
REMARK UNBOUND:                -0.187
REMARK SMILES CCCCCC(=O)[O-]
REMARK SMILES IDX 4 1 5 2 6 3 7 4 8 5 3 6 2 7 1 8
REMARK H PARENT
REMARK Flexibility Score: inf
ROOT
ATOM      1  C   UNL     1      -2.660   7.722   6.531  1.00  0.00     0.006 C 
ENDROOT
BRANCH   1   2
ATOM      2  C   UNL     1      -2.262   9.129   7.001  1.00  0.00     0.053 C 
BRANCH   2   3
ATOM      3  C   UNL     1      -1.274   9.080   8.126  1.00  0.00     0.041 C 
ATOM      4  O   UNL     1      -1.459   8.301   9.097  1.00  0.00    -0.550 OA
ATOM      5  O   UNL     1      -0.167   9.918   8.117  1.00  0.00    -0.550 OA
ENDBRANCH   2   3
ENDBRANCH   1   2
BRANCH   1   6
ATOM      6  C   UNL     1      -2.353   7.498   5.042  1.00  0.00     0.000 C 
BRANCH   6   7
ATOM      7  C   UNL     1      -2.391   6.006   4.694  1.00  0.00    -0.003 C 
ATOM      8  C   UNL     1      -3.310   5.241   5.642  1.00  0.00     0.004 C 
ENDBRANCH   6   7
ENDBRANCH   1   6
TORSDOF 4
ENDMDL
MODEL 4
REMARK VINA RESULT:    -3.411     12.662     14.081
REMARK INTER + INTRA:          -4.395
REMARK INTER:                  -4.221
REMARK INTRA:                  -0.175
REMARK UNBOUND:                -0.187
REMARK SMILES CCCCCC(=O)[O-]
REMARK SMILES IDX 4 1 5 2 6 3 7 4 8 5 3 6 2 7 1 8
REMARK H PARENT
REMARK Flexibility Score: inf
ROOT
ATOM      1  C   UNL     1       2.657  -5.118   9.076  1.00  0.00     0.006 C 
ENDROOT
BRANCH   1   2
ATOM      2  C   UNL     1       2.186  -4.832   7.643  1.00  0.00     0.053 C 
BRANCH   2   3
ATOM      3  C   UNL     1       0.835  -5.421   7.373  1.00  0.00     0.041 C 
ATOM      4  O   UNL     1       0.641  -6.656   7.526  1.00  0.00    -0.550 OA
ATOM      5  O   UNL     1      -0.200  -4.613   6.921  1.00  0.00    -0.550 OA
ENDBRANCH   2   3
ENDBRANCH   1   2
BRANCH   1   6
ATOM      6  C   UNL     1       4.053  -5.758   9.111  1.00  0.00     0.000 C 
BRANCH   6   7
ATOM      7  C   UNL     1       4.270  -6.667   7.897  1.00  0.00    -0.003 C 
ATOM      8  C   UNL     1       5.625  -6.402   7.245  1.00  0.00     0.004 C 
ENDBRANCH   6   7
ENDBRANCH   1   6
TORSDOF 4
ENDMDL
MODEL 5
REMARK VINA RESULT:    -3.277     13.845     14.977
REMARK INTER + INTRA:          -4.230
REMARK INTER:                  -4.027
REMARK INTRA:                  -0.203
REMARK UNBOUND:                -0.187
REMARK SMILES CCCCCC(=O)[O-]
REMARK SMILES IDX 4 1 5 2 6 3 7 4 8 5 3 6 2 7 1 8
REMARK H PARENT
REMARK Flexibility Score: inf
ROOT
ATOM      1  C   UNL     1      -5.284   2.938  -6.718  1.00  0.00     0.006 C 
ENDROOT
BRANCH   1   2
ATOM      2  C   UNL     1      -4.121   2.539  -7.637  1.00  0.00     0.053 C 
BRANCH   2   3
ATOM      3  C   UNL     1      -3.448   3.737  -8.235  1.00  0.00     0.041 C 
ATOM      4  O   UNL     1      -4.130   4.622  -8.816  1.00  0.00    -0.550 OA
ATOM      5  O   UNL     1      -2.066   3.860  -8.179  1.00  0.00    -0.550 OA
ENDBRANCH   2   3
ENDBRANCH   1   2
BRANCH   1   6
ATOM      6  C   UNL     1      -6.650   2.567  -7.314  1.00  0.00     0.000 C 
BRANCH   6   7
ATOM      7  C   UNL     1      -6.484   1.702  -8.568  1.00  0.00    -0.003 C 
ATOM      8  C   UNL     1      -7.151   2.351  -9.778  1.00  0.00     0.004 C 
ENDBRANCH   6   7
ENDBRANCH   1   6
TORSDOF 4
ENDMDL
MODEL 6
REMARK VINA RESULT:    -3.266     13.895     14.939
REMARK INTER + INTRA:          -4.217
REMARK INTER:                  -3.966
REMARK INTRA:                  -0.251
REMARK UNBOUND:                -0.187
REMARK SMILES CCCCCC(=O)[O-]
REMARK SMILES IDX 4 1 5 2 6 3 7 4 8 5 3 6 2 7 1 8
REMARK H PARENT
REMARK Flexibility Score: inf
ROOT
ATOM      1  C   UNL     1      -3.651   2.583  -8.223  1.00  0.00     0.006 C 
ENDROOT
BRANCH   1   2
ATOM      2  C   UNL     1      -2.664   3.678  -8.651  1.00  0.00     0.053 C 
BRANCH   2   3
ATOM      3  C   UNL     1      -3.365   4.959  -8.984  1.00  0.00     0.041 C 
ATOM      4  O   UNL     1      -3.008   6.036  -8.439  1.00  0.00    -0.550 OA
ATOM      5  O   UNL     1      -4.435   4.958  -9.870  1.00  0.00    -0.550 OA
ENDBRANCH   2   3
ENDBRANCH   1   2
BRANCH   1   6
ATOM      6  C   UNL     1      -4.496   3.003  -7.011  1.00  0.00     0.000 C 
BRANCH   6   7
ATOM      7  C   UNL     1      -5.986   2.747  -7.267  1.00  0.00    -0.003 C 
ATOM      8  C   UNL     1      -6.194   1.926  -8.537  1.00  0.00     0.004 C 
ENDBRANCH   6   7
ENDBRANCH   1   6
TORSDOF 4
ENDMDL
MODEL 7
REMARK VINA RESULT:    -3.250     14.105     14.806
REMARK INTER + INTRA:          -4.198
REMARK INTER:                  -4.038
REMARK INTRA:                  -0.160
REMARK UNBOUND:                -0.187
REMARK SMILES CCCCCC(=O)[O-]
REMARK SMILES IDX 4 1 5 2 6 3 7 4 8 5 3 6 2 7 1 8
REMARK H PARENT
REMARK Flexibility Score: inf
ROOT
ATOM      1  C   UNL     1      -4.766   3.153  -6.926  1.00  0.00     0.006 C 
ENDROOT
BRANCH   1   2
ATOM      2  C   UNL     1      -6.230   2.694  -6.982  1.00  0.00     0.053 C 
BRANCH   2   3
ATOM      3  C   UNL     1      -6.645   2.329  -8.375  1.00  0.00     0.041 C 
ATOM      4  O   UNL     1      -6.921   3.229  -9.210  1.00  0.00    -0.550 OA
ATOM      5  O   UNL     1      -6.760   0.993  -8.739  1.00  0.00    -0.550 OA
ENDBRANCH   2   3
ENDBRANCH   1   2
BRANCH   1   6
ATOM      6  C   UNL     1      -3.835   2.226  -7.721  1.00  0.00     0.000 C 
BRANCH   6   7
ATOM      7  C   UNL     1      -3.008   3.019  -8.738  1.00  0.00    -0.003 C 
ATOM      8  C   UNL     1      -3.007   4.509  -8.406  1.00  0.00     0.004 C 
ENDBRANCH   6   7
ENDBRANCH   1   6
TORSDOF 4
ENDMDL
MODEL 8
REMARK VINA RESULT:    -3.196     13.511     14.738
REMARK INTER + INTRA:          -4.131
REMARK INTER:                  -3.990
REMARK INTRA:                  -0.140
REMARK UNBOUND:                -0.187
REMARK SMILES CCCCCC(=O)[O-]
REMARK SMILES IDX 4 1 5 2 6 3 7 4 8 5 3 6 2 7 1 8
REMARK H PARENT
REMARK Flexibility Score: inf
ROOT
ATOM      1  C   UNL     1       2.988  -5.249   8.788  1.00  0.00     0.006 C 
ENDROOT
BRANCH   1   2
ATOM      2  C   UNL     1       4.151  -6.120   8.294  1.00  0.00     0.053 C 
BRANCH   2   3
ATOM      3  C   UNL     1       4.064  -7.518   8.827  1.00  0.00     0.041 C 
ATOM      4  O   UNL     1       3.145  -7.834   9.627  1.00  0.00    -0.550 OA
ATOM      5  O   UNL     1       5.018  -8.461   8.467  1.00  0.00    -0.550 OA
ENDBRANCH   2   3
ENDBRANCH   1   2
BRANCH   1   6
ATOM      6  C   UNL     1       2.005  -4.898   7.661  1.00  0.00     0.000 C 
BRANCH   6   7
ATOM      7  C   UNL     1       0.901  -5.956   7.547  1.00  0.00    -0.003 C 
ATOM      8  C   UNL     1      -0.440  -5.318   7.193  1.00  0.00     0.004 C 
ENDBRANCH   6   7
ENDBRANCH   1   6
TORSDOF 4
ENDMDL
MODEL 9
REMARK VINA RESULT:    -3.167     13.484     14.723
REMARK INTER + INTRA:          -4.095
REMARK INTER:                  -4.020
REMARK INTRA:                  -0.075
REMARK UNBOUND:                -0.187
REMARK SMILES CCCCCC(=O)[O-]
REMARK SMILES IDX 4 1 5 2 6 3 7 4 8 5 3 6 2 7 1 8
REMARK H PARENT
REMARK Flexibility Score: inf
ROOT
ATOM      1  C   UNL     1       3.080  -5.952   8.730  1.00  0.00     0.006 C 
ENDROOT
BRANCH   1   2
ATOM      2  C   UNL     1       3.963  -6.889   7.892  1.00  0.00     0.053 C 
BRANCH   2   3
ATOM      3  C   UNL     1       5.360  -6.365   7.758  1.00  0.00     0.041 C 
ATOM      4  O   UNL     1       5.916  -5.789   8.730  1.00  0.00    -0.550 OA
ATOM      5  O   UNL     1       6.035  -6.483   6.550  1.00  0.00    -0.550 OA
ENDBRANCH   2   3
ENDBRANCH   1   2
BRANCH   1   6
ATOM      6  C   UNL     1       2.026  -5.230   7.878  1.00  0.00     0.000 C 
BRANCH   6   7
ATOM      7  C   UNL     1       0.850  -6.160   7.557  1.00  0.00    -0.003 C 
ATOM      8  C   UNL     1      -0.398  -5.362   7.187  1.00  0.00     0.004 C 
ENDBRANCH   6   7
ENDBRANCH   1   6
TORSDOF 4
ENDMDL
