MODEL 1
REMARK VINA RESULT:    -3.500      0.000      0.000
REMARK INTER + INTRA:          -4.745
REMARK INTER:                  -4.728
REMARK INTRA:                  -0.017
REMARK UNBOUND:                -0.017
REMARK SMILES C=C1C(=O)O[C@@H]2[C@H]1CCC(C)=CCC[C@@]1(C)O[C@@H]21
REMARK SMILES IDX 6 1 7 2 2 3 1 4 3 5 4 6 5 7 8 8 9 9 10 10 11 11 12 12 18 14
REMARK SMILES IDX 15 15 17 16 16 17 14 18 13 19
REMARK H PARENT
REMARK Flexibility Score: 70.00
ROOT
ATOM      1  C   UNL     1      -7.357 -23.595 -18.419  1.00  0.00     0.216 C 
ATOM      2  C   UNL     1      -6.376 -22.728 -17.531  1.00  0.00     0.070 C 
ATOM      3  C   UNL     1      -6.747 -23.149 -16.137  1.00  0.00     0.037 C 
ATOM      4  C   UNL     1      -6.062 -22.877 -15.025  1.00  0.00     0.021 C 
ATOM      5  C   UNL     1      -7.947 -23.940 -16.207  1.00  0.00     0.334 C 
ATOM      6  O   UNL     1      -8.587 -24.397 -15.224  1.00  0.00    -0.247 OA
ATOM      7  O   UNL     1      -8.319 -24.138 -17.517  1.00  0.00    -0.455 OA
ENDROOT
BRANCH   2   8
ATOM      8  C   UNL     1      -6.510 -21.188 -17.643  1.00  0.00     0.017 C 
BRANCH   8   9
ATOM      9  C   UNL     1      -5.223 -20.370 -17.869  1.00  0.00     0.031 C 
BRANCH   9  10
ATOM     10  C   UNL     1      -5.030 -19.753 -19.242  1.00  0.00    -0.077 C 
ATOM     11  C   UNL     1      -4.963 -18.245 -19.319  1.00  0.00     0.039 C 
ATOM     12  C   UNL     1      -5.102 -20.425 -20.421  1.00  0.00    -0.028 CG0
ATOM     13  G   UNL     1      -4.856 -21.897 -20.702  1.00  0.00     0.000 G0
ENDBRANCH   9  10
ENDBRANCH   8   9
ENDBRANCH   2   8
BRANCH   1  14
ATOM     14  C   UNL     1      -8.104 -22.853 -19.536  1.00  0.00     0.192 C 
ATOM     15  C   UNL     1      -7.482 -22.458 -20.851  1.00  0.00     0.096 C 
ATOM     16  O   UNL     1      -8.196 -23.667 -20.682  1.00  0.00    -0.362 OA
ATOM     17  C   UNL     1      -8.293 -21.513 -21.747  1.00  0.00     0.045 C 
BRANCH  15  18
ATOM     18  C   UNL     1      -6.027 -22.736 -21.313  1.00  0.00     0.042 C 
BRANCH  18  19
ATOM     19  C   UNL     1      -4.876 -21.914 -20.704  1.00  0.00     0.030 CG0
ATOM     20  G   UNL     1      -5.088 -20.438 -20.420  1.00  0.00     0.000 G0
ENDBRANCH  18  19
ENDBRANCH  15  18
ENDBRANCH   1  14
TORSDOF 0
ENDMDL
MODEL 2
REMARK VINA RESULT:    -3.131      1.720      3.859
REMARK INTER + INTRA:          -4.247
REMARK INTER:                  -3.613
REMARK INTRA:                  -0.634
REMARK UNBOUND:                -0.017
REMARK SMILES C=C1C(=O)O[C@@H]2[C@H]1CCC(C)=CCC[C@@]1(C)O[C@@H]21
REMARK SMILES IDX 6 1 7 2 2 3 1 4 3 5 4 6 5 7 8 8 9 9 10 10 11 11 12 12 18 14
REMARK SMILES IDX 15 15 17 16 16 17 14 18 13 19
REMARK H PARENT
REMARK Flexibility Score: 70.00
ROOT
ATOM      1  C   UNL     1      -8.132 -23.378 -18.505  1.00  0.00     0.216 C 
ATOM      2  C   UNL     1      -7.436 -23.811 -19.858  1.00  0.00     0.070 C 
ATOM      3  C   UNL     1      -8.323 -24.928 -20.333  1.00  0.00     0.037 C 
ATOM      4  C   UNL     1      -8.303 -25.488 -21.543  1.00  0.00     0.021 C 
ATOM      5  C   UNL     1      -9.236 -25.262 -19.272  1.00  0.00     0.334 C 
ATOM      6  O   UNL     1     -10.072 -26.204 -19.289  1.00  0.00    -0.247 OA
ATOM      7  O   UNL     1      -9.076 -24.405 -18.208  1.00  0.00    -0.455 OA
ENDROOT
BRANCH   2   8
ATOM      8  C   UNL     1      -5.981 -24.332 -19.759  1.00  0.00     0.017 C 
BRANCH   8   9
ATOM      9  C   UNL     1      -4.891 -23.570 -20.539  1.00  0.00     0.031 C 
BRANCH   9  10
ATOM     10  C   UNL     1      -5.257 -22.197 -21.073  1.00  0.00    -0.077 C 
ATOM     11  C   UNL     1      -5.723 -22.115 -22.508  1.00  0.00     0.039 C 
ATOM     12  C   UNL     1      -5.021 -21.019 -20.435  1.00  0.00    -0.028 CG0
ATOM     13  G   UNL     1      -4.869 -20.747 -18.949  1.00  0.00     0.000 G0
ENDBRANCH   9  10
ENDBRANCH   8   9
ENDBRANCH   2   8
BRANCH   1  14
ATOM     14  C   UNL     1      -7.211 -23.199 -17.290  1.00  0.00     0.192 C 
ATOM     15  C   UNL     1      -6.289 -22.022 -17.094  1.00  0.00     0.096 C 
ATOM     16  O   UNL     1      -7.595 -22.061 -16.553  1.00  0.00    -0.362 OA
ATOM     17  C   UNL     1      -5.267 -22.122 -15.955  1.00  0.00     0.045 C 
BRANCH  15  18
ATOM     18  C   UNL     1      -6.120 -20.806 -18.041  1.00  0.00     0.042 C 
BRANCH  18  19
ATOM     19  C   UNL     1      -4.875 -20.724 -18.945  1.00  0.00     0.030 CG0
ATOM     20  G   UNL     1      -5.017 -21.002 -20.431  1.00  0.00     0.000 G0
ENDBRANCH  18  19
ENDBRANCH  15  18
ENDBRANCH   1  14
TORSDOF 0
ENDMDL
MODEL 3
REMARK VINA RESULT:    -3.129      2.161      3.231
REMARK INTER + INTRA:          -4.243
REMARK INTER:                  -4.238
REMARK INTRA:                  -0.005
REMARK UNBOUND:                -0.017
REMARK SMILES C=C1C(=O)O[C@@H]2[C@H]1CCC(C)=CCC[C@@]1(C)O[C@@H]21
REMARK SMILES IDX 6 1 7 2 2 3 1 4 3 5 4 6 5 7 8 8 9 9 10 10 11 11 12 12 18 14
REMARK SMILES IDX 15 15 17 16 16 17 14 18 13 19
REMARK H PARENT
REMARK Flexibility Score: 70.00
ROOT
ATOM      1  C   UNL     1      -7.315 -23.959 -18.383  1.00  0.00     0.216 C 
ATOM      2  C   UNL     1      -6.179 -22.975 -18.877  1.00  0.00     0.070 C 
ATOM      3  C   UNL     1      -5.940 -22.124 -17.662  1.00  0.00     0.037 C 
ATOM      4  C   UNL     1      -4.921 -21.283 -17.479  1.00  0.00     0.021 C 
ATOM      5  C   UNL     1      -6.976 -22.405 -16.702  1.00  0.00     0.334 C 
ATOM      6  O   UNL     1      -7.136 -21.819 -15.599  1.00  0.00    -0.247 OA
ATOM      7  O   UNL     1      -7.791 -23.416 -17.154  1.00  0.00    -0.455 OA
ENDROOT
BRANCH   2   8
ATOM      8  C   UNL     1      -6.525 -22.055 -20.075  1.00  0.00     0.017 C 
BRANCH   8   9
ATOM      9  C   UNL     1      -5.527 -21.999 -21.248  1.00  0.00     0.031 C 
BRANCH   9  10
ATOM     10  C   UNL     1      -5.940 -22.680 -22.539  1.00  0.00    -0.077 C 
ATOM     11  C   UNL     1      -6.086 -21.809 -23.765  1.00  0.00     0.039 C 
ATOM     12  C   UNL     1      -6.372 -23.965 -22.644  1.00  0.00    -0.028 CG0
ATOM     13  G   UNL     1      -6.079 -25.152 -21.744  1.00  0.00     0.000 G0
ENDBRANCH   9  10
ENDBRANCH   8   9
ENDBRANCH   2   8
BRANCH   1  14
ATOM     14  C   UNL     1      -8.512 -24.149 -19.326  1.00  0.00     0.192 C 
ATOM     15  C   UNL     1      -8.487 -25.014 -20.560  1.00  0.00     0.096 C 
ATOM     16  O   UNL     1      -8.936 -25.492 -19.307  1.00  0.00    -0.362 OA
ATOM     17  C   UNL     1      -9.682 -24.898 -21.514  1.00  0.00     0.045 C 
BRANCH  15  18
ATOM     18  C   UNL     1      -7.295 -25.861 -21.078  1.00  0.00     0.042 C 
BRANCH  18  19
ATOM     19  C   UNL     1      -6.106 -25.151 -21.752  1.00  0.00     0.030 CG0
ATOM     20  G   UNL     1      -6.370 -23.964 -22.662  1.00  0.00     0.000 G0
ENDBRANCH  18  19
ENDBRANCH  15  18
ENDBRANCH   1  14
TORSDOF 0
ENDMDL
MODEL 4
REMARK VINA RESULT:    -2.582      3.768      6.017
REMARK INTER + INTRA:          -3.505
REMARK INTER:                  -4.991
REMARK INTRA:                   1.486
REMARK UNBOUND:                -0.017
REMARK SMILES C=C1C(=O)O[C@@H]2[C@H]1CCC(C)=CCC[C@@]1(C)O[C@@H]21
REMARK SMILES IDX 6 1 7 2 2 3 1 4 3 5 4 6 5 7 8 8 9 9 10 10 11 11 12 12 18 14
REMARK SMILES IDX 15 15 17 16 16 17 14 18 13 19
REMARK H PARENT
REMARK Flexibility Score: 70.00
ROOT
ATOM      1  C   UNL     1      -7.406 -22.983 -23.231  1.00  0.00     0.216 C 
ATOM      2  C   UNL     1      -8.524 -22.171 -22.461  1.00  0.00     0.070 C 
ATOM      3  C   UNL     1      -8.802 -21.034 -23.404  1.00  0.00     0.037 C 
ATOM      4  C   UNL     1      -9.825 -20.182 -23.329  1.00  0.00     0.021 C 
ATOM      5  C   UNL     1      -7.800 -21.048 -24.437  1.00  0.00     0.334 C 
ATOM      6  O   UNL     1      -7.675 -20.194 -25.354  1.00  0.00    -0.247 OA
ATOM      7  O   UNL     1      -6.971 -22.136 -24.291  1.00  0.00    -0.455 OA
ENDROOT
BRANCH   2   8
ATOM      8  C   UNL     1      -8.138 -21.592 -21.077  1.00  0.00     0.017 C 
BRANCH   8   9
ATOM      9  C   UNL     1      -7.383 -22.514 -20.099  1.00  0.00     0.031 C 
BRANCH   9  10
ATOM     10  C   UNL     1      -8.222 -23.429 -19.226  1.00  0.00    -0.077 C 
ATOM     11  C   UNL     1      -8.628 -22.907 -17.868  1.00  0.00     0.039 C 
ATOM     12  C   UNL     1      -8.477 -24.740 -19.482  1.00  0.00    -0.028 CG0
ATOM     13  G   UNL     1      -8.497 -25.471 -20.813  1.00  0.00     0.000 G0
ENDBRANCH   9  10
ENDBRANCH   8   9
ENDBRANCH   2   8
BRANCH   1  14
ATOM     14  C   UNL     1      -6.179 -23.404 -22.410  1.00  0.00     0.192 C 
ATOM     15  C   UNL     1      -6.086 -24.687 -21.625  1.00  0.00     0.096 C 
ATOM     16  O   UNL     1      -5.610 -24.573 -22.951  1.00  0.00    -0.362 OA
ATOM     17  C   UNL     1      -4.894 -24.833 -20.670  1.00  0.00     0.045 C 
BRANCH  15  18
ATOM     18  C   UNL     1      -7.168 -25.793 -21.520  1.00  0.00     0.042 C 
BRANCH  18  19
ATOM     19  C   UNL     1      -8.499 -25.479 -20.811  1.00  0.00     0.030 CG0
ATOM     20  G   UNL     1      -8.475 -24.757 -19.475  1.00  0.00     0.000 G0
ENDBRANCH  18  19
ENDBRANCH  15  18
ENDBRANCH   1  14
TORSDOF 0
ENDMDL
MODEL 5
REMARK VINA RESULT:    -2.403      2.389      3.844
REMARK INTER + INTRA:          -3.263
REMARK INTER:                  -3.264
REMARK INTRA:                   0.001
REMARK UNBOUND:                -0.017
REMARK SMILES C=C1C(=O)O[C@@H]2[C@H]1CCC(C)=CCC[C@@]1(C)O[C@@H]21
REMARK SMILES IDX 6 1 7 2 2 3 1 4 3 5 4 6 5 7 8 8 9 9 10 10 11 11 12 12 18 14
REMARK SMILES IDX 15 15 17 16 16 17 14 18 13 19
REMARK H PARENT
REMARK Flexibility Score: 70.00
ROOT
ATOM      1  C   UNL     1      -5.603 -23.346 -19.305  1.00  0.00     0.216 C 
ATOM      2  C   UNL     1      -5.840 -21.911 -19.929  1.00  0.00     0.070 C 
ATOM      3  C   UNL     1      -5.995 -21.052 -18.705  1.00  0.00     0.037 C 
ATOM      4  C   UNL     1      -5.994 -19.719 -18.676  1.00  0.00     0.021 C 
ATOM      5  C   UNL     1      -6.100 -21.914 -17.557  1.00  0.00     0.334 C 
ATOM      6  O   UNL     1      -6.316 -21.541 -16.374  1.00  0.00    -0.247 OA
ATOM      7  O   UNL     1      -5.932 -23.229 -17.924  1.00  0.00    -0.455 OA
ENDROOT
BRANCH   2   8
ATOM      8  C   UNL     1      -7.090 -21.739 -20.827  1.00  0.00     0.017 C 
BRANCH   8   9
ATOM      9  C   UNL     1      -6.892 -21.113 -22.221  1.00  0.00     0.031 C 
BRANCH   9  10
ATOM     10  C   UNL     1      -7.064 -22.028 -23.419  1.00  0.00    -0.077 C 
ATOM     11  C   UNL     1      -8.219 -21.740 -24.349  1.00  0.00     0.039 C 
ATOM     12  C   UNL     1      -6.386 -23.190 -23.622  1.00  0.00    -0.028 CG0
ATOM     13  G   UNL     1      -5.023 -23.608 -23.101  1.00  0.00     0.000 G0
ENDBRANCH   9  10
ENDBRANCH   8   9
ENDBRANCH   2   8
BRANCH   1  14
ATOM     14  C   UNL     1      -6.425 -24.496 -19.905  1.00  0.00     0.192 C 
ATOM     15  C   UNL     1      -6.113 -25.161 -21.221  1.00  0.00     0.096 C 
ATOM     16  O   UNL     1      -5.640 -25.663 -19.987  1.00  0.00    -0.362 OA
ATOM     17  C   UNL     1      -7.171 -26.119 -21.783  1.00  0.00     0.045 C 
BRANCH  15  18
ATOM     18  C   UNL     1      -4.933 -24.834 -22.173  1.00  0.00     0.042 C 
BRANCH  18  19
ATOM     19  C   UNL     1      -5.033 -23.609 -23.100  1.00  0.00     0.030 CG0
ATOM     20  G   UNL     1      -6.389 -23.203 -23.649  1.00  0.00     0.000 G0
ENDBRANCH  18  19
ENDBRANCH  15  18
ENDBRANCH   1  14
TORSDOF 0
ENDMDL
MODEL 6
REMARK VINA RESULT:    -1.272      3.111      5.878
REMARK INTER + INTRA:          -1.736
REMARK INTER:                  -4.786
REMARK INTRA:                   3.050
REMARK UNBOUND:                -0.017
REMARK SMILES C=C1C(=O)O[C@@H]2[C@H]1CCC(C)=CCC[C@@]1(C)O[C@@H]21
REMARK SMILES IDX 6 1 7 2 2 3 1 4 3 5 4 6 5 7 8 8 9 9 10 10 11 11 12 12 18 14
REMARK SMILES IDX 15 15 17 16 16 17 14 18 13 19
REMARK H PARENT
REMARK Flexibility Score: 70.00
ROOT
ATOM      1  C   UNL     1      -6.959 -21.299 -21.121  1.00  0.00     0.216 C 
ATOM      2  C   UNL     1      -5.769 -21.943 -21.940  1.00  0.00     0.070 C 
ATOM      3  C   UNL     1      -6.342 -22.027 -23.327  1.00  0.00     0.037 C 
ATOM      4  C   UNL     1      -5.663 -22.293 -24.443  1.00  0.00     0.021 C 
ATOM      5  C   UNL     1      -7.747 -21.724 -23.255  1.00  0.00     0.334 C 
ATOM      6  O   UNL     1      -8.562 -21.774 -24.213  1.00  0.00    -0.247 OA
ATOM      7  O   UNL     1      -8.099 -21.366 -21.974  1.00  0.00    -0.455 OA
ENDROOT
BRANCH   2   8
ATOM      8  C   UNL     1      -5.304 -23.355 -21.502  1.00  0.00     0.017 C 
BRANCH   8   9
ATOM      9  C   UNL     1      -5.913 -24.569 -22.231  1.00  0.00     0.031 C 
BRANCH   9  10
ATOM     10  C   UNL     1      -6.111 -25.834 -21.417  1.00  0.00    -0.077 C 
ATOM     11  C   UNL     1      -4.909 -26.730 -21.226  1.00  0.00     0.039 C 
ATOM     12  C   UNL     1      -7.312 -26.323 -21.008  1.00  0.00    -0.028 CG0
ATOM     13  G   UNL     1      -8.614 -25.583 -20.759  1.00  0.00     0.000 G0
ENDBRANCH   9  10
ENDBRANCH   8   9
ENDBRANCH   2   8
BRANCH   1  14
ATOM     14  C   UNL     1      -7.311 -21.969 -19.785  1.00  0.00     0.192 C 
ATOM     15  C   UNL     1      -8.115 -23.238 -19.662  1.00  0.00     0.096 C 
ATOM     16  O   UNL     1      -6.702 -23.237 -19.703  1.00  0.00    -0.362 OA
ATOM     17  C   UNL     1      -8.579 -23.633 -18.254  1.00  0.00     0.045 C 
BRANCH  15  18
ATOM     18  C   UNL     1      -8.700 -24.085 -20.822  1.00  0.00     0.042 C 
BRANCH  18  19
ATOM     19  C   UNL     1      -8.638 -25.621 -20.737  1.00  0.00     0.030 CG0
ATOM     20  G   UNL     1      -7.320 -26.326 -21.003  1.00  0.00     0.000 G0
ENDBRANCH  18  19
ENDBRANCH  15  18
ENDBRANCH   1  14
TORSDOF 0
ENDMDL
