MODEL 1
REMARK VINA RESULT:    -3.816      0.000      0.000
REMARK INTER + INTRA:          -5.966
REMARK INTER:                  -5.378
REMARK INTRA:                  -0.588
REMARK UNBOUND:                -0.588
REMARK SMILES CCCCCCCCC(=O)[O-]
REMARK SMILES IDX 6 1 7 2 8 3 9 4 10 5 11 6 5 7 4 8 3 9 2 10 1 11
REMARK H PARENT
REMARK Flexibility Score: inf
ROOT
ATOM      1  C   UNL     1      51.832 -50.887  -8.281  1.00  0.00     0.000 C 
ENDROOT
BRANCH   1   2
ATOM      2  C   UNL     1      52.636 -51.310  -9.516  1.00  0.00     0.006 C 
BRANCH   2   3
ATOM      3  C   UNL     1      51.738 -51.402 -10.753  1.00  0.00     0.053 C 
BRANCH   3   4
ATOM      4  C   UNL     1      52.508 -51.061 -11.988  1.00  0.00     0.041 C 
ATOM      5  O   UNL     1      53.489 -51.768 -12.339  1.00  0.00    -0.550 OA
ATOM      6  O   UNL     1      52.174 -49.932 -12.725  1.00  0.00    -0.550 OA
ENDBRANCH   3   4
ENDBRANCH   2   3
ENDBRANCH   1   2
BRANCH   1   7
ATOM      7  C   UNL     1      51.838 -49.358  -8.118  1.00  0.00     0.000 C 
BRANCH   7   8
ATOM      8  C   UNL     1      52.843 -48.668  -9.053  1.00  0.00    -0.000 C 
BRANCH   8   9
ATOM      9  C   UNL     1      52.173 -47.650  -9.992  1.00  0.00    -0.000 C 
BRANCH   9  10
ATOM     10  C   UNL     1      50.704 -47.387  -9.624  1.00  0.00    -0.003 C 
ATOM     11  C   UNL     1      49.757 -47.565 -10.811  1.00  0.00     0.004 C 
ENDBRANCH   9  10
ENDBRANCH   8   9
ENDBRANCH   7   8
ENDBRANCH   1   7
TORSDOF 7
ENDMDL
MODEL 2
REMARK VINA RESULT:    -3.798      1.219      1.943
REMARK INTER + INTRA:          -5.940
REMARK INTER:                  -5.259
REMARK INTRA:                  -0.680
REMARK UNBOUND:                -0.588
REMARK SMILES CCCCCCCCC(=O)[O-]
REMARK SMILES IDX 6 1 7 2 8 3 9 4 10 5 11 6 5 7 4 8 3 9 2 10 1 11
REMARK H PARENT
REMARK Flexibility Score: inf
ROOT
ATOM      1  C   UNL     1      53.293 -51.393  -9.306  1.00  0.00     0.000 C 
ENDROOT
BRANCH   1   2
ATOM      2  C   UNL     1      53.254 -51.322 -10.836  1.00  0.00     0.006 C 
BRANCH   2   3
ATOM      3  C   UNL     1      51.813 -51.262 -11.349  1.00  0.00     0.053 C 
BRANCH   3   4
ATOM      4  C   UNL     1      51.786 -51.278 -12.844  1.00  0.00     0.041 C 
ATOM      5  O   UNL     1      52.858 -51.187 -13.498  1.00  0.00    -0.550 OA
ATOM      6  O   UNL     1      50.572 -51.344 -13.516  1.00  0.00    -0.550 OA
ENDBRANCH   3   4
ENDBRANCH   2   3
ENDBRANCH   1   2
BRANCH   1   7
ATOM      7  C   UNL     1      51.907 -51.734  -8.735  1.00  0.00     0.000 C 
BRANCH   7   8
ATOM      8  C   UNL     1      51.328 -50.602  -7.873  1.00  0.00    -0.000 C 
BRANCH   8   9
ATOM      9  C   UNL     1      52.048 -49.261  -8.097  1.00  0.00    -0.000 C 
BRANCH   9  10
ATOM     10  C   UNL     1      51.243 -48.303  -8.989  1.00  0.00    -0.003 C 
ATOM     11  C   UNL     1      52.067 -47.740 -10.147  1.00  0.00     0.004 C 
ENDBRANCH   9  10
ENDBRANCH   8   9
ENDBRANCH   7   8
ENDBRANCH   1   7
TORSDOF 7
ENDMDL
MODEL 3
REMARK VINA RESULT:    -3.732      1.341      3.069
REMARK INTER + INTRA:          -5.848
REMARK INTER:                  -5.177
REMARK INTRA:                  -0.671
REMARK UNBOUND:                -0.588
REMARK SMILES CCCCCCCCC(=O)[O-]
REMARK SMILES IDX 6 1 7 2 8 3 9 4 10 5 11 6 5 7 4 8 3 9 2 10 1 11
REMARK H PARENT
REMARK Flexibility Score: inf
ROOT
ATOM      1  C   UNL     1      51.949 -48.172 -10.526  1.00  0.00     0.000 C 
ENDROOT
BRANCH   1   2
ATOM      2  C   UNL     1      51.012 -48.609 -11.657  1.00  0.00     0.006 C 
BRANCH   2   3
ATOM      3  C   UNL     1      51.777 -49.371 -12.743  1.00  0.00     0.053 C 
BRANCH   3   4
ATOM      4  C   UNL     1      51.922 -50.812 -12.370  1.00  0.00     0.041 C 
ATOM      5  O   UNL     1      53.057 -51.284 -12.098  1.00  0.00    -0.550 OA
ATOM      6  O   UNL     1      50.811 -51.645 -12.370  1.00  0.00    -0.550 OA
ENDBRANCH   3   4
ENDBRANCH   2   3
ENDBRANCH   1   2
BRANCH   1   7
ATOM      7  C   UNL     1      51.281 -48.361  -9.155  1.00  0.00     0.000 C 
BRANCH   7   8
ATOM      8  C   UNL     1      52.187 -49.092  -8.152  1.00  0.00    -0.000 C 
BRANCH   8   9
ATOM      9  C   UNL     1      52.675 -50.453  -8.680  1.00  0.00    -0.000 C 
BRANCH   9  10
ATOM     10  C   UNL     1      51.540 -51.482  -8.793  1.00  0.00    -0.003 C 
ATOM     11  C   UNL     1      50.917 -51.826  -7.440  1.00  0.00     0.004 C 
ENDBRANCH   9  10
ENDBRANCH   8   9
ENDBRANCH   7   8
ENDBRANCH   1   7
TORSDOF 7
ENDMDL
MODEL 4
REMARK VINA RESULT:    -3.719      1.903      3.815
REMARK INTER + INTRA:          -5.828
REMARK INTER:                  -5.099
REMARK INTRA:                  -0.729
REMARK UNBOUND:                -0.588
REMARK SMILES CCCCCCCCC(=O)[O-]
REMARK SMILES IDX 6 1 7 2 8 3 9 4 10 5 11 6 5 7 4 8 3 9 2 10 1 11
REMARK H PARENT
REMARK Flexibility Score: inf
ROOT
ATOM      1  C   UNL     1      52.102 -49.360  -8.168  1.00  0.00     0.000 C 
ENDROOT
BRANCH   1   2
ATOM      2  C   UNL     1      51.349 -48.381  -9.075  1.00  0.00     0.006 C 
BRANCH   2   3
ATOM      3  C   UNL     1      52.304 -47.690 -10.051  1.00  0.00     0.053 C 
BRANCH   3   4
ATOM      4  C   UNL     1      51.538 -46.973 -11.117  1.00  0.00     0.041 C 
ATOM      5  O   UNL     1      51.607 -47.356 -12.314  1.00  0.00    -0.550 OA
ATOM      6  O   UNL     1      50.785 -45.850 -10.795  1.00  0.00    -0.550 OA
ENDBRANCH   3   4
ENDBRANCH   2   3
ENDBRANCH   1   2
BRANCH   1   7
ATOM      7  C   UNL     1      51.360 -50.703  -8.073  1.00  0.00     0.000 C 
BRANCH   7   8
ATOM      8  C   UNL     1      51.901 -51.748  -9.061  1.00  0.00    -0.000 C 
BRANCH   8   9
ATOM      9  C   UNL     1      53.245 -51.331  -9.685  1.00  0.00    -0.000 C 
BRANCH   9  10
ATOM     10  C   UNL     1      53.219 -51.372 -11.220  1.00  0.00    -0.003 C 
ATOM     11  C   UNL     1      51.865 -50.962 -11.800  1.00  0.00     0.004 C 
ENDBRANCH   9  10
ENDBRANCH   8   9
ENDBRANCH   7   8
ENDBRANCH   1   7
TORSDOF 7
ENDMDL
MODEL 5
REMARK VINA RESULT:    -3.704      2.033      3.712
REMARK INTER + INTRA:          -5.808
REMARK INTER:                  -5.160
REMARK INTRA:                  -0.648
REMARK UNBOUND:                -0.588
REMARK SMILES CCCCCCCCC(=O)[O-]
REMARK SMILES IDX 6 1 7 2 8 3 9 4 10 5 11 6 5 7 4 8 3 9 2 10 1 11
REMARK H PARENT
REMARK Flexibility Score: inf
ROOT
ATOM      1  C   UNL     1      51.305 -48.290  -9.105  1.00  0.00     0.000 C 
ENDROOT
BRANCH   1   2
ATOM      2  C   UNL     1      50.627 -47.941 -10.435  1.00  0.00     0.006 C 
BRANCH   2   3
ATOM      3  C   UNL     1      51.318 -48.644 -11.607  1.00  0.00     0.053 C 
BRANCH   3   4
ATOM      4  C   UNL     1      51.735 -47.650 -12.643  1.00  0.00     0.041 C 
ATOM      5  O   UNL     1      52.299 -46.578 -12.303  1.00  0.00    -0.550 OA
ATOM      6  O   UNL     1      51.455 -47.886 -13.984  1.00  0.00    -0.550 OA
ENDBRANCH   3   4
ENDBRANCH   2   3
ENDBRANCH   1   2
BRANCH   1   7
ATOM      7  C   UNL     1      52.715 -48.855  -9.338  1.00  0.00     0.000 C 
BRANCH   7   8
ATOM      8  C   UNL     1      52.952 -50.177  -8.592  1.00  0.00    -0.000 C 
BRANCH   8   9
ATOM      9  C   UNL     1      52.521 -51.405  -9.413  1.00  0.00    -0.000 C 
BRANCH   9  10
ATOM     10  C   UNL     1      51.267 -52.085  -8.841  1.00  0.00    -0.003 C 
ATOM     11  C   UNL     1      50.936 -51.618  -7.424  1.00  0.00     0.004 C 
ENDBRANCH   9  10
ENDBRANCH   8   9
ENDBRANCH   7   8
ENDBRANCH   1   7
TORSDOF 7
ENDMDL
MODEL 6
REMARK VINA RESULT:    -3.665      2.779      4.825
REMARK INTER + INTRA:          -5.752
REMARK INTER:                  -5.341
REMARK INTRA:                  -0.411
REMARK UNBOUND:                -0.588
REMARK SMILES CCCCCCCCC(=O)[O-]
REMARK SMILES IDX 6 1 7 2 8 3 9 4 10 5 11 6 5 7 4 8 3 9 2 10 1 11
REMARK H PARENT
REMARK Flexibility Score: inf
ROOT
ATOM      1  C   UNL     1      50.949 -48.129  -9.379  1.00  0.00     0.000 C 
ENDROOT
BRANCH   1   2
ATOM      2  C   UNL     1      50.294 -47.810 -10.728  1.00  0.00     0.006 C 
BRANCH   2   3
ATOM      3  C   UNL     1      49.327 -46.630 -10.605  1.00  0.00     0.053 C 
BRANCH   3   4
ATOM      4  C   UNL     1      47.977 -46.999 -11.133  1.00  0.00     0.041 C 
ATOM      5  O   UNL     1      46.940 -46.482 -10.641  1.00  0.00    -0.550 OA
ATOM      6  O   UNL     1      47.861 -47.953 -12.137  1.00  0.00    -0.550 OA
ENDBRANCH   3   4
ENDBRANCH   2   3
ENDBRANCH   1   2
BRANCH   1   7
ATOM      7  C   UNL     1      52.437 -48.469  -9.558  1.00  0.00     0.000 C 
BRANCH   7   8
ATOM      8  C   UNL     1      52.906 -49.586  -8.612  1.00  0.00    -0.000 C 
BRANCH   8   9
ATOM      9  C   UNL     1      52.972 -50.958  -9.305  1.00  0.00    -0.000 C 
BRANCH   9  10
ATOM     10  C   UNL     1      51.697 -51.788  -9.090  1.00  0.00    -0.003 C 
ATOM     11  C   UNL     1      51.077 -51.572  -7.710  1.00  0.00     0.004 C 
ENDBRANCH   9  10
ENDBRANCH   8   9
ENDBRANCH   7   8
ENDBRANCH   1   7
TORSDOF 7
ENDMDL
MODEL 7
REMARK VINA RESULT:    -3.653      1.790      3.577
REMARK INTER + INTRA:          -5.735
REMARK INTER:                  -4.989
REMARK INTRA:                  -0.746
REMARK UNBOUND:                -0.588
REMARK SMILES CCCCCCCCC(=O)[O-]
REMARK SMILES IDX 6 1 7 2 8 3 9 4 10 5 11 6 5 7 4 8 3 9 2 10 1 11
REMARK H PARENT
REMARK Flexibility Score: inf
ROOT
ATOM      1  C   UNL     1      51.397 -48.898  -8.487  1.00  0.00     0.000 C 
ENDROOT
BRANCH   1   2
ATOM      2  C   UNL     1      51.022 -47.664  -9.315  1.00  0.00     0.006 C 
BRANCH   2   3
ATOM      3  C   UNL     1      52.053 -47.405 -10.417  1.00  0.00     0.053 C 
BRANCH   3   4
ATOM      4  C   UNL     1      51.466 -47.689 -11.763  1.00  0.00     0.041 C 
ATOM      5  O   UNL     1      50.407 -48.362 -11.863  1.00  0.00    -0.550 OA
ATOM      6  O   UNL     1      52.115 -47.252 -12.910  1.00  0.00    -0.550 OA
ENDBRANCH   3   4
ENDBRANCH   2   3
ENDBRANCH   1   2
BRANCH   1   7
ATOM      7  C   UNL     1      52.910 -49.161  -8.546  1.00  0.00     0.000 C 
BRANCH   7   8
ATOM      8  C   UNL     1      53.244 -50.598  -8.973  1.00  0.00    -0.000 C 
BRANCH   8   9
ATOM      9  C   UNL     1      51.988 -51.424  -9.302  1.00  0.00    -0.000 C 
BRANCH   9  10
ATOM     10  C   UNL     1      51.695 -51.477 -10.809  1.00  0.00    -0.003 C 
ATOM     11  C   UNL     1      52.938 -51.222 -11.662  1.00  0.00     0.004 C 
ENDBRANCH   9  10
ENDBRANCH   8   9
ENDBRANCH   7   8
ENDBRANCH   1   7
TORSDOF 7
ENDMDL
MODEL 8
REMARK VINA RESULT:    -3.632      2.492      3.543
REMARK INTER + INTRA:          -5.706
REMARK INTER:                  -5.308
REMARK INTRA:                  -0.399
REMARK UNBOUND:                -0.588
REMARK SMILES CCCCCCCCC(=O)[O-]
REMARK SMILES IDX 6 1 7 2 8 3 9 4 10 5 11 6 5 7 4 8 3 9 2 10 1 11
REMARK H PARENT
REMARK Flexibility Score: inf
ROOT
ATOM      1  C   UNL     1      52.324 -48.123  -9.837  1.00  0.00     0.000 C 
ENDROOT
BRANCH   1   2
ATOM      2  C   UNL     1      52.819 -49.280  -8.961  1.00  0.00     0.006 C 
BRANCH   2   3
ATOM      3  C   UNL     1      51.740 -49.719  -7.968  1.00  0.00     0.053 C 
BRANCH   3   4
ATOM      4  C   UNL     1      51.371 -51.151  -8.194  1.00  0.00     0.041 C 
ATOM      5  O   UNL     1      50.913 -51.844  -7.248  1.00  0.00    -0.550 OA
ATOM      6  O   UNL     1      51.579 -51.734  -9.438  1.00  0.00    -0.550 OA
ENDBRANCH   3   4
ENDBRANCH   2   3
ENDBRANCH   1   2
BRANCH   1   7
ATOM      7  C   UNL     1      50.978 -47.585  -9.328  1.00  0.00     0.000 C 
BRANCH   7   8
ATOM      8  C   UNL     1      49.903 -47.546 -10.426  1.00  0.00    -0.000 C 
BRANCH   8   9
ATOM      9  C   UNL     1      49.243 -46.163 -10.558  1.00  0.00    -0.000 C 
BRANCH   9  10
ATOM     10  C   UNL     1      50.270 -45.022 -10.603  1.00  0.00    -0.003 C 
ATOM     11  C   UNL     1      49.894 -43.852  -9.693  1.00  0.00     0.004 C 
ENDBRANCH   9  10
ENDBRANCH   8   9
ENDBRANCH   7   8
ENDBRANCH   1   7
TORSDOF 7
ENDMDL
MODEL 9
REMARK VINA RESULT:    -3.589      2.829      4.754
REMARK INTER + INTRA:          -5.646
REMARK INTER:                  -5.136
REMARK INTRA:                  -0.510
REMARK UNBOUND:                -0.588
REMARK SMILES CCCCCCCCC(=O)[O-]
REMARK SMILES IDX 6 1 7 2 8 3 9 4 10 5 11 6 5 7 4 8 3 9 2 10 1 11
REMARK H PARENT
REMARK Flexibility Score: inf
ROOT
ATOM      1  C   UNL     1      50.998 -47.982  -9.294  1.00  0.00     0.000 C 
ENDROOT
BRANCH   1   2
ATOM      2  C   UNL     1      50.211 -47.936 -10.608  1.00  0.00     0.006 C 
BRANCH   2   3
ATOM      3  C   UNL     1      49.314 -46.697 -10.670  1.00  0.00     0.053 C 
BRANCH   3   4
ATOM      4  C   UNL     1      50.134 -45.467 -10.900  1.00  0.00     0.041 C 
ATOM      5  O   UNL     1      50.816 -45.348 -11.952  1.00  0.00    -0.550 OA
ATOM      6  O   UNL     1      50.183 -44.473  -9.931  1.00  0.00    -0.550 OA
ENDBRANCH   3   4
ENDBRANCH   2   3
ENDBRANCH   1   2
BRANCH   1   7
ATOM      7  C   UNL     1      52.452 -48.418  -9.537  1.00  0.00     0.000 C 
BRANCH   7   8
ATOM      8  C   UNL     1      52.906 -49.525  -8.574  1.00  0.00    -0.000 C 
BRANCH   8   9
ATOM      9  C   UNL     1      53.080 -50.884  -9.276  1.00  0.00    -0.000 C 
BRANCH   9  10
ATOM     10  C   UNL     1      51.887 -51.824  -9.041  1.00  0.00    -0.003 C 
ATOM     11  C   UNL     1      51.103 -51.479  -7.775  1.00  0.00     0.004 C 
ENDBRANCH   9  10
ENDBRANCH   8   9
ENDBRANCH   7   8
ENDBRANCH   1   7
TORSDOF 7
ENDMDL
