MODEL 1
REMARK VINA RESULT:    -3.649      0.000      0.000
REMARK INTER + INTRA:         -10.061
REMARK INTER:                  -7.062
REMARK INTRA:                  -2.999
REMARK UNBOUND:                -2.999
REMARK SMILES CCCCCCCCCCCCCCCCCC(=O)[O-]
REMARK SMILES IDX 10 1 11 2 12 3 13 4 14 5 15 6 16 7 17 8 18 9 19 10 20 11
REMARK SMILES IDX 9 12 8 13 7 14 6 15 5 16 4 17 3 18 2 19 1 20
REMARK H PARENT
REMARK Flexibility Score: inf
ROOT
ATOM      1  C   UNL     1     183.245 195.553 174.967  1.00  0.00     0.000 C 
ENDROOT
BRANCH   1   2
ATOM      2  C   UNL     1     182.613 194.163 174.766  1.00  0.00     0.000 C 
BRANCH   2   3
ATOM      3  C   UNL     1     181.631 194.121 173.583  1.00  0.00     0.000 C 
BRANCH   3   4
ATOM      4  C   UNL     1     180.213 193.711 174.009  1.00  0.00     0.000 C 
BRANCH   4   5
ATOM      5  C   UNL     1     179.116 194.476 173.247  1.00  0.00     0.000 C 
BRANCH   5   6
ATOM      6  C   UNL     1     179.693 195.300 172.076  1.00  0.00     0.000 C 
BRANCH   6   7
ATOM      7  C   UNL     1     179.167 194.873 170.694  1.00  0.00     0.006 C 
BRANCH   7   8
ATOM      8  C   UNL     1     179.017 193.350 170.518  1.00  0.00     0.053 C 
BRANCH   8   9
ATOM      9  C   UNL     1     180.275 192.687 170.037  1.00  0.00     0.041 C 
ATOM     10  O   UNL     1     181.049 192.121 170.853  1.00  0.00    -0.550 OA
ATOM     11  O   UNL     1     180.554 192.631 168.678  1.00  0.00    -0.550 OA
ENDBRANCH   8   9
ENDBRANCH   7   8
ENDBRANCH   6   7
ENDBRANCH   5   6
ENDBRANCH   4   5
ENDBRANCH   3   4
ENDBRANCH   2   3
ENDBRANCH   1   2
BRANCH   1  12
ATOM     12  C   UNL     1     182.349 196.745 174.574  1.00  0.00     0.000 C 
BRANCH  12  13
ATOM     13  C   UNL     1     181.562 197.388 175.735  1.00  0.00    -0.000 C 
BRANCH  13  14
ATOM     14  C   UNL     1     180.072 197.003 175.798  1.00  0.00    -0.000 C 
BRANCH  14  15
ATOM     15  C   UNL     1     179.522 196.787 177.220  1.00  0.00    -0.000 C 
BRANCH  15  16
ATOM     16  C   UNL     1     179.153 195.318 177.525  1.00  0.00    -0.000 C 
BRANCH  16  17
ATOM     17  C   UNL     1     180.393 194.416 177.643  1.00  0.00    -0.000 C 
BRANCH  17  18
ATOM     18  C   UNL     1     181.386 194.901 178.714  1.00  0.00    -0.000 C 
BRANCH  18  19
ATOM     19  C   UNL     1     182.844 194.460 178.493  1.00  0.00    -0.003 C 
ATOM     20  C   UNL     1     183.842 195.611 178.611  1.00  0.00     0.004 C 
ENDBRANCH  18  19
ENDBRANCH  17  18
ENDBRANCH  16  17
ENDBRANCH  15  16
ENDBRANCH  14  15
ENDBRANCH  13  14
ENDBRANCH  12  13
ENDBRANCH   1  12
TORSDOF 16
ENDMDL
MODEL 2
REMARK VINA RESULT:    -3.528      3.218      4.952
REMARK INTER + INTRA:          -9.826
REMARK INTER:                  -6.619
REMARK INTRA:                  -3.207
REMARK UNBOUND:                -2.999
REMARK SMILES CCCCCCCCCCCCCCCCCC(=O)[O-]
REMARK SMILES IDX 10 1 11 2 12 3 13 4 14 5 15 6 16 7 17 8 18 9 19 10 20 11
REMARK SMILES IDX 9 12 8 13 7 14 6 15 5 16 4 17 3 18 2 19 1 20
REMARK H PARENT
REMARK Flexibility Score: inf
ROOT
ATOM      1  C   UNL     1     183.341 196.800 178.478  1.00  0.00     0.000 C 
ENDROOT
BRANCH   1   2
ATOM      2  C   UNL     1     183.180 195.619 177.503  1.00  0.00     0.000 C 
BRANCH   2   3
ATOM      3  C   UNL     1     182.622 194.356 178.183  1.00  0.00     0.000 C 
BRANCH   3   4
ATOM      4  C   UNL     1     181.264 193.928 177.606  1.00  0.00     0.000 C 
BRANCH   4   5
ATOM      5  C   UNL     1     180.075 194.409 178.457  1.00  0.00     0.000 C 
BRANCH   5   6
ATOM      6  C   UNL     1     179.229 195.469 177.721  1.00  0.00     0.000 C 
BRANCH   6   7
ATOM      7  C   UNL     1     179.453 195.498 176.198  1.00  0.00     0.006 C 
BRANCH   7   8
ATOM      8  C   UNL     1     179.998 196.838 175.667  1.00  0.00     0.053 C 
BRANCH   8   9
ATOM      9  C   UNL     1     180.830 196.685 174.427  1.00  0.00     0.041 C 
ATOM     10  O   UNL     1     180.307 196.291 173.352  1.00  0.00    -0.550 OA
ATOM     11  O   UNL     1     182.171 197.048 174.443  1.00  0.00    -0.550 OA
ENDBRANCH   8   9
ENDBRANCH   7   8
ENDBRANCH   6   7
ENDBRANCH   5   6
ENDBRANCH   4   5
ENDBRANCH   3   4
ENDBRANCH   2   3
ENDBRANCH   1   2
BRANCH   1  12
ATOM     12  C   UNL     1     182.106 197.713 178.612  1.00  0.00     0.000 C 
BRANCH  12  13
ATOM     13  C   UNL     1     181.371 197.631 179.966  1.00  0.00    -0.000 C 
BRANCH  13  14
ATOM     14  C   UNL     1     182.080 196.783 181.038  1.00  0.00    -0.000 C 
BRANCH  14  15
ATOM     15  C   UNL     1     181.178 195.758 181.750  1.00  0.00    -0.000 C 
BRANCH  15  16
ATOM     16  C   UNL     1     181.762 194.329 181.773  1.00  0.00    -0.000 C 
BRANCH  16  17
ATOM     17  C   UNL     1     183.269 194.318 182.081  1.00  0.00    -0.000 C 
BRANCH  17  18
ATOM     18  C   UNL     1     184.003 193.126 181.442  1.00  0.00    -0.000 C 
BRANCH  18  19
ATOM     19  C   UNL     1     185.486 193.378 181.114  1.00  0.00    -0.003 C 
ATOM     20  C   UNL     1     185.706 194.628 180.263  1.00  0.00     0.004 C 
ENDBRANCH  18  19
ENDBRANCH  17  18
ENDBRANCH  16  17
ENDBRANCH  15  16
ENDBRANCH  14  15
ENDBRANCH  13  14
ENDBRANCH  12  13
ENDBRANCH   1  12
TORSDOF 16
ENDMDL
MODEL 3
REMARK VINA RESULT:    -3.510      8.681     11.385
REMARK INTER + INTRA:          -9.791
REMARK INTER:                  -7.469
REMARK INTRA:                  -2.322
REMARK UNBOUND:                -2.999
REMARK SMILES CCCCCCCCCCCCCCCCCC(=O)[O-]
REMARK SMILES IDX 10 1 11 2 12 3 13 4 14 5 15 6 16 7 17 8 18 9 19 10 20 11
REMARK SMILES IDX 9 12 8 13 7 14 6 15 5 16 4 17 3 18 2 19 1 20
REMARK H PARENT
REMARK Flexibility Score: inf
ROOT
ATOM      1  C   UNL     1     187.477 185.022 168.388  1.00  0.00     0.000 C 
ENDROOT
BRANCH   1   2
ATOM      2  C   UNL     1     186.003 185.389 168.640  1.00  0.00     0.000 C 
BRANCH   2   3
ATOM      3  C   UNL     1     185.628 186.772 168.081  1.00  0.00     0.000 C 
BRANCH   3   4
ATOM      4  C   UNL     1     185.088 187.718 169.164  1.00  0.00     0.000 C 
BRANCH   4   5
ATOM      5  C   UNL     1     184.615 186.974 170.425  1.00  0.00     0.000 C 
BRANCH   5   6
ATOM      6  C   UNL     1     183.181 187.375 170.829  1.00  0.00     0.000 C 
BRANCH   6   7
ATOM      7  C   UNL     1     182.392 188.080 169.710  1.00  0.00     0.006 C 
BRANCH   7   8
ATOM      8  C   UNL     1     181.903 189.494 170.077  1.00  0.00     0.053 C 
BRANCH   8   9
ATOM      9  C   UNL     1     180.460 189.529 170.489  1.00  0.00     0.041 C 
ATOM     10  O   UNL     1     179.876 190.629 170.674  1.00  0.00    -0.550 OA
ATOM     11  O   UNL     1     179.740 188.346 170.598  1.00  0.00    -0.550 OA
ENDBRANCH   8   9
ENDBRANCH   7   8
ENDBRANCH   6   7
ENDBRANCH   5   6
ENDBRANCH   4   5
ENDBRANCH   3   4
ENDBRANCH   2   3
ENDBRANCH   1   2
BRANCH   1  12
ATOM     12  C   UNL     1     188.220 185.937 167.394  1.00  0.00     0.000 C 
BRANCH  12  13
ATOM     13  C   UNL     1     189.689 186.245 167.753  1.00  0.00    -0.000 C 
BRANCH  13  14
ATOM     14  C   UNL     1     189.970 187.712 168.126  1.00  0.00    -0.000 C 
BRANCH  14  15
ATOM     15  C   UNL     1     188.726 188.528 168.522  1.00  0.00    -0.000 C 
BRANCH  15  16
ATOM     16  C   UNL     1     188.624 188.807 170.037  1.00  0.00    -0.000 C 
BRANCH  16  17
ATOM     17  C   UNL     1     188.234 187.553 170.838  1.00  0.00    -0.000 C 
BRANCH  17  18
ATOM     18  C   UNL     1     189.425 186.920 171.580  1.00  0.00    -0.000 C 
BRANCH  18  19
ATOM     19  C   UNL     1     189.149 185.533 172.184  1.00  0.00    -0.003 C 
ATOM     20  C   UNL     1     190.045 184.439 171.606  1.00  0.00     0.004 C 
ENDBRANCH  18  19
ENDBRANCH  17  18
ENDBRANCH  16  17
ENDBRANCH  15  16
ENDBRANCH  14  15
ENDBRANCH  13  14
ENDBRANCH  12  13
ENDBRANCH   1  12
TORSDOF 16
ENDMDL
MODEL 4
REMARK VINA RESULT:    -3.509      8.702     11.861
REMARK INTER + INTRA:          -9.789
REMARK INTER:                  -7.595
REMARK INTRA:                  -2.194
REMARK UNBOUND:                -2.999
REMARK SMILES CCCCCCCCCCCCCCCCCC(=O)[O-]
REMARK SMILES IDX 10 1 11 2 12 3 13 4 14 5 15 6 16 7 17 8 18 9 19 10 20 11
REMARK SMILES IDX 9 12 8 13 7 14 6 15 5 16 4 17 3 18 2 19 1 20
REMARK H PARENT
REMARK Flexibility Score: inf
ROOT
ATOM      1  C   UNL     1     187.399 184.895 168.220  1.00  0.00     0.000 C 
ENDROOT
BRANCH   1   2
ATOM      2  C   UNL     1     188.033 185.754 167.112  1.00  0.00     0.000 C 
BRANCH   2   3
ATOM      3  C   UNL     1     189.349 186.419 167.551  1.00  0.00     0.000 C 
BRANCH   3   4
ATOM      4  C   UNL     1     189.330 187.944 167.363  1.00  0.00     0.000 C 
BRANCH   4   5
ATOM      5  C   UNL     1     189.578 188.711 168.674  1.00  0.00     0.000 C 
BRANCH   5   6
ATOM      6  C   UNL     1     188.265 188.995 169.433  1.00  0.00     0.000 C 
BRANCH   6   7
ATOM      7  C   UNL     1     188.013 188.049 170.621  1.00  0.00     0.006 C 
BRANCH   7   8
ATOM      8  C   UNL     1     189.272 187.314 171.119  1.00  0.00     0.053 C 
BRANCH   8   9
ATOM      9  C   UNL     1     188.986 185.925 171.612  1.00  0.00     0.041 C 
ATOM     10  O   UNL     1     189.517 184.929 171.055  1.00  0.00    -0.550 OA
ATOM     11  O   UNL     1     188.187 185.737 172.733  1.00  0.00    -0.550 OA
ENDBRANCH   8   9
ENDBRANCH   7   8
ENDBRANCH   6   7
ENDBRANCH   5   6
ENDBRANCH   4   5
ENDBRANCH   3   4
ENDBRANCH   2   3
ENDBRANCH   1   2
BRANCH   1  12
ATOM     12  C   UNL     1     186.047 185.406 168.756  1.00  0.00     0.000 C 
BRANCH  12  13
ATOM     13  C   UNL     1     185.555 186.733 168.141  1.00  0.00    -0.000 C 
BRANCH  13  14
ATOM     14  C   UNL     1     184.818 187.667 169.120  1.00  0.00    -0.000 C 
BRANCH  14  15
ATOM     15  C   UNL     1     184.433 187.019 170.463  1.00  0.00    -0.000 C 
BRANCH  15  16
ATOM     16  C   UNL     1     182.980 187.313 170.898  1.00  0.00    -0.000 C 
BRANCH  16  17
ATOM     17  C   UNL     1     182.163 187.993 169.786  1.00  0.00    -0.000 C 
BRANCH  17  18
ATOM     18  C   UNL     1     181.301 189.159 170.304  1.00  0.00    -0.000 C 
BRANCH  18  19
ATOM     19  C   UNL     1     181.497 190.491 169.558  1.00  0.00    -0.003 C 
ATOM     20  C   UNL     1     180.228 190.977 168.860  1.00  0.00     0.004 C 
ENDBRANCH  18  19
ENDBRANCH  17  18
ENDBRANCH  16  17
ENDBRANCH  15  16
ENDBRANCH  14  15
ENDBRANCH  13  14
ENDBRANCH  12  13
ENDBRANCH   1  12
TORSDOF 16
ENDMDL
MODEL 5
REMARK VINA RESULT:    -3.417      4.602      7.705
REMARK INTER + INTRA:          -9.611
REMARK INTER:                  -6.518
REMARK INTRA:                  -3.093
REMARK UNBOUND:                -2.999
REMARK SMILES CCCCCCCCCCCCCCCCCC(=O)[O-]
REMARK SMILES IDX 10 1 11 2 12 3 13 4 14 5 15 6 16 7 17 8 18 9 19 10 20 11
REMARK SMILES IDX 9 12 8 13 7 14 6 15 5 16 4 17 3 18 2 19 1 20
REMARK H PARENT
REMARK Flexibility Score: inf
ROOT
ATOM      1  C   UNL     1     182.685 194.361 178.489  1.00  0.00     0.000 C 
ENDROOT
BRANCH   1   2
ATOM      2  C   UNL     1     181.194 194.246 178.122  1.00  0.00     0.000 C 
BRANCH   2   3
ATOM      3  C   UNL     1     180.265 194.433 179.333  1.00  0.00     0.000 C 
BRANCH   3   4
ATOM      4  C   UNL     1     180.952 194.085 180.662  1.00  0.00     0.000 C 
BRANCH   4   5
ATOM      5  C   UNL     1     180.905 195.239 181.679  1.00  0.00     0.000 C 
BRANCH   5   6
ATOM      6  C   UNL     1     182.315 195.636 182.167  1.00  0.00     0.000 C 
BRANCH   6   7
ATOM      7  C   UNL     1     183.251 194.439 182.410  1.00  0.00     0.006 C 
BRANCH   7   8
ATOM      8  C   UNL     1     184.628 194.567 181.731  1.00  0.00     0.053 C 
BRANCH   8   9
ATOM      9  C   UNL     1     185.193 193.246 181.294  1.00  0.00     0.041 C 
ATOM     10  O   UNL     1     186.239 193.201 180.595  1.00  0.00    -0.550 OA
ATOM     11  O   UNL     1     184.604 192.064 181.721  1.00  0.00    -0.550 OA
ENDBRANCH   8   9
ENDBRANCH   7   8
ENDBRANCH   6   7
ENDBRANCH   5   6
ENDBRANCH   4   5
ENDBRANCH   3   4
ENDBRANCH   2   3
ENDBRANCH   1   2
BRANCH   1  12
ATOM     12  C   UNL     1     183.380 195.653 178.016  1.00  0.00     0.000 C 
BRANCH  12  13
ATOM     13  C   UNL     1     183.140 196.893 178.903  1.00  0.00    -0.000 C 
BRANCH  13  14
ATOM     14  C   UNL     1     181.961 197.782 178.469  1.00  0.00    -0.000 C 
BRANCH  14  15
ATOM     15  C   UNL     1     181.851 198.012 176.950  1.00  0.00    -0.000 C 
BRANCH  15  16
ATOM     16  C   UNL     1     180.584 197.394 176.320  1.00  0.00    -0.000 C 
BRANCH  16  17
ATOM     17  C   UNL     1     180.915 196.417 175.180  1.00  0.00    -0.000 C 
BRANCH  17  18
ATOM     18  C   UNL     1     182.289 196.685 174.540  1.00  0.00    -0.000 C 
BRANCH  18  19
ATOM     19  C   UNL     1     183.191 195.447 174.399  1.00  0.00    -0.003 C 
ATOM     20  C   UNL     1     182.449 194.134 174.646  1.00  0.00     0.004 C 
ENDBRANCH  18  19
ENDBRANCH  17  18
ENDBRANCH  16  17
ENDBRANCH  15  16
ENDBRANCH  14  15
ENDBRANCH  13  14
ENDBRANCH  12  13
ENDBRANCH   1  12
TORSDOF 16
ENDMDL
MODEL 6
REMARK VINA RESULT:    -3.382     11.086     12.901
REMARK INTER + INTRA:          -9.544
REMARK INTER:                  -6.696
REMARK INTRA:                  -2.849
REMARK UNBOUND:                -2.999
REMARK SMILES CCCCCCCCCCCCCCCCCC(=O)[O-]
REMARK SMILES IDX 10 1 11 2 12 3 13 4 14 5 15 6 16 7 17 8 18 9 19 10 20 11
REMARK SMILES IDX 9 12 8 13 7 14 6 15 5 16 4 17 3 18 2 19 1 20
REMARK H PARENT
REMARK Flexibility Score: inf
ROOT
ATOM      1  C   UNL     1     189.999 187.545 170.536  1.00  0.00     0.000 C 
ENDROOT
BRANCH   1   2
ATOM      2  C   UNL     1     189.831 188.283 169.196  1.00  0.00     0.000 C 
BRANCH   2   3
ATOM      3  C   UNL     1     188.424 188.879 169.015  1.00  0.00     0.000 C 
BRANCH   3   4
ATOM      4  C   UNL     1     187.520 188.634 170.231  1.00  0.00     0.000 C 
BRANCH   4   5
ATOM      5  C   UNL     1     186.135 188.084 169.845  1.00  0.00     0.000 C 
BRANCH   5   6
ATOM      6  C   UNL     1     186.053 186.553 170.021  1.00  0.00     0.000 C 
BRANCH   6   7
ATOM      7  C   UNL     1     185.949 185.777 168.695  1.00  0.00     0.006 C 
BRANCH   7   8
ATOM      8  C   UNL     1     187.182 184.912 168.372  1.00  0.00     0.053 C 
BRANCH   8   9
ATOM      9  C   UNL     1     188.076 185.527 167.335  1.00  0.00     0.041 C 
ATOM     10  O   UNL     1     189.266 185.135 167.206  1.00  0.00    -0.550 OA
ATOM     11  O   UNL     1     187.573 186.483 166.463  1.00  0.00    -0.550 OA
ENDBRANCH   8   9
ENDBRANCH   7   8
ENDBRANCH   6   7
ENDBRANCH   5   6
ENDBRANCH   4   5
ENDBRANCH   3   4
ENDBRANCH   2   3
ENDBRANCH   1   2
BRANCH   1  12
ATOM     12  C   UNL     1     190.320 186.041 170.423  1.00  0.00     0.000 C 
BRANCH  12  13
ATOM     13  C   UNL     1     189.383 185.105 171.214  1.00  0.00    -0.000 C 
BRANCH  13  14
ATOM     14  C   UNL     1     188.643 185.771 172.389  1.00  0.00    -0.000 C 
BRANCH  14  15
ATOM     15  C   UNL     1     189.182 185.401 173.783  1.00  0.00    -0.000 C 
BRANCH  15  16
ATOM     16  C   UNL     1     190.512 186.100 174.138  1.00  0.00    -0.000 C 
BRANCH  16  17
ATOM     17  C   UNL     1     191.515 185.143 174.805  1.00  0.00    -0.000 C 
BRANCH  17  18
ATOM     18  C   UNL     1     191.605 183.780 174.097  1.00  0.00    -0.000 C 
BRANCH  18  19
ATOM     19  C   UNL     1     192.388 183.788 172.772  1.00  0.00    -0.003 C 
ATOM     20  C   UNL     1     193.659 184.634 172.834  1.00  0.00     0.004 C 
ENDBRANCH  18  19
ENDBRANCH  17  18
ENDBRANCH  16  17
ENDBRANCH  15  16
ENDBRANCH  14  15
ENDBRANCH  13  14
ENDBRANCH  12  13
ENDBRANCH   1  12
TORSDOF 16
ENDMDL
MODEL 7
REMARK VINA RESULT:    -3.372     11.109     13.838
REMARK INTER + INTRA:          -9.525
REMARK INTER:                  -6.639
REMARK INTRA:                  -2.885
REMARK UNBOUND:                -2.999
REMARK SMILES CCCCCCCCCCCCCCCCCC(=O)[O-]
REMARK SMILES IDX 10 1 11 2 12 3 13 4 14 5 15 6 16 7 17 8 18 9 19 10 20 11
REMARK SMILES IDX 9 12 8 13 7 14 6 15 5 16 4 17 3 18 2 19 1 20
REMARK H PARENT
REMARK Flexibility Score: inf
ROOT
ATOM      1  C   UNL     1     187.796 184.895 168.612  1.00  0.00     0.000 C 
ENDROOT
BRANCH   1   2
ATOM      2  C   UNL     1     189.271 185.181 168.277  1.00  0.00     0.000 C 
BRANCH   2   3
ATOM      3  C   UNL     1     190.134 185.409 169.530  1.00  0.00     0.000 C 
BRANCH   3   4
ATOM      4  C   UNL     1     189.543 184.741 170.781  1.00  0.00     0.000 C 
BRANCH   4   5
ATOM      5  C   UNL     1     189.197 185.751 171.890  1.00  0.00     0.000 C 
BRANCH   5   6
ATOM      6  C   UNL     1     190.245 186.879 171.992  1.00  0.00     0.000 C 
BRANCH   6   7
ATOM      7  C   UNL     1     191.349 186.612 173.031  1.00  0.00     0.006 C 
BRANCH   7   8
ATOM      8  C   UNL     1     190.837 186.023 174.358  1.00  0.00     0.053 C 
BRANCH   8   9
ATOM      9  C   UNL     1     191.574 184.782 174.774  1.00  0.00     0.041 C 
ATOM     10  O   UNL     1     191.160 183.647 174.421  1.00  0.00    -0.550 OA
ATOM     11  O   UNL     1     192.758 184.886 175.491  1.00  0.00    -0.550 OA
ENDBRANCH   8   9
ENDBRANCH   7   8
ENDBRANCH   6   7
ENDBRANCH   5   6
ENDBRANCH   4   5
ENDBRANCH   3   4
ENDBRANCH   2   3
ENDBRANCH   1   2
BRANCH   1  12
ATOM     12  C   UNL     1     186.768 185.626 167.725  1.00  0.00     0.000 C 
BRANCH  12  13
ATOM     13  C   UNL     1     185.861 186.634 168.462  1.00  0.00    -0.000 C 
BRANCH  13  14
ATOM     14  C   UNL     1     186.074 186.705 169.985  1.00  0.00    -0.000 C 
BRANCH  14  15
ATOM     15  C   UNL     1     186.692 188.023 170.489  1.00  0.00    -0.000 C 
BRANCH  15  16
ATOM     16  C   UNL     1     187.310 188.886 169.367  1.00  0.00    -0.000 C 
BRANCH  16  17
ATOM     17  C   UNL     1     188.844 188.781 169.327  1.00  0.00    -0.000 C 
BRANCH  17  18
ATOM     18  C   UNL     1     189.406 188.763 167.894  1.00  0.00    -0.000 C 
BRANCH  18  19
ATOM     19  C   UNL     1     190.918 189.029 167.787  1.00  0.00    -0.003 C 
ATOM     20  C   UNL     1     191.651 188.856 169.117  1.00  0.00     0.004 C 
ENDBRANCH  18  19
ENDBRANCH  17  18
ENDBRANCH  16  17
ENDBRANCH  15  16
ENDBRANCH  14  15
ENDBRANCH  13  14
ENDBRANCH  12  13
ENDBRANCH   1  12
TORSDOF 16
ENDMDL
MODEL 8
REMARK VINA RESULT:    -3.341      1.307      2.313
REMARK INTER + INTRA:          -9.464
REMARK INTER:                  -7.173
REMARK INTRA:                  -2.290
REMARK UNBOUND:                -2.999
REMARK SMILES CCCCCCCCCCCCCCCCCC(=O)[O-]
REMARK SMILES IDX 10 1 11 2 12 3 13 4 14 5 15 6 16 7 17 8 18 9 19 10 20 11
REMARK SMILES IDX 9 12 8 13 7 14 6 15 5 16 4 17 3 18 2 19 1 20
REMARK H PARENT
REMARK Flexibility Score: inf
ROOT
ATOM      1  C   UNL     1     181.876 194.007 173.877  1.00  0.00     0.000 C 
ENDROOT
BRANCH   1   2
ATOM      2  C   UNL     1     180.425 193.659 174.253  1.00  0.00     0.000 C 
BRANCH   2   3
ATOM      3  C   UNL     1     179.390 194.381 173.372  1.00  0.00     0.000 C 
BRANCH   3   4
ATOM      4  C   UNL     1     180.030 195.073 172.159  1.00  0.00     0.000 C 
BRANCH   4   5
ATOM      5  C   UNL     1     179.193 194.925 170.876  1.00  0.00     0.000 C 
BRANCH   5   6
ATOM      6  C   UNL     1     179.370 193.536 170.228  1.00  0.00     0.000 C 
BRANCH   6   7
ATOM      7  C   UNL     1     180.817 193.227 169.802  1.00  0.00     0.006 C 
BRANCH   7   8
ATOM      8  C   UNL     1     181.501 192.130 170.641  1.00  0.00     0.053 C 
BRANCH   8   9
ATOM      9  C   UNL     1     181.148 190.741 170.194  1.00  0.00     0.041 C 
ATOM     10  O   UNL     1     180.346 190.040 170.865  1.00  0.00    -0.550 OA
ATOM     11  O   UNL     1     181.650 190.250 168.996  1.00  0.00    -0.550 OA
ENDBRANCH   8   9
ENDBRANCH   7   8
ENDBRANCH   6   7
ENDBRANCH   5   6
ENDBRANCH   4   5
ENDBRANCH   3   4
ENDBRANCH   2   3
ENDBRANCH   1   2
BRANCH   1  12
ATOM     12  C   UNL     1     182.621 194.899 174.891  1.00  0.00     0.000 C 
BRANCH  12  13
ATOM     13  C   UNL     1     182.622 196.407 174.566  1.00  0.00    -0.000 C 
BRANCH  13  14
ATOM     14  C   UNL     1     181.869 197.289 175.578  1.00  0.00    -0.000 C 
BRANCH  14  15
ATOM     15  C   UNL     1     180.333 197.217 175.480  1.00  0.00    -0.000 C 
BRANCH  15  16
ATOM     16  C   UNL     1     179.632 197.072 176.848  1.00  0.00    -0.000 C 
BRANCH  16  17
ATOM     17  C   UNL     1     179.126 195.641 177.099  1.00  0.00    -0.000 C 
BRANCH  17  18
ATOM     18  C   UNL     1     180.203 194.723 177.704  1.00  0.00    -0.000 C 
BRANCH  18  19
ATOM     19  C   UNL     1     179.971 194.334 179.175  1.00  0.00    -0.003 C 
ATOM     20  C   UNL     1     181.080 194.824 180.105  1.00  0.00     0.004 C 
ENDBRANCH  18  19
ENDBRANCH  17  18
ENDBRANCH  16  17
ENDBRANCH  15  16
ENDBRANCH  14  15
ENDBRANCH  13  14
ENDBRANCH  12  13
ENDBRANCH   1  12
TORSDOF 16
ENDMDL
MODEL 9
REMARK VINA RESULT:    -3.331      2.430      4.459
REMARK INTER + INTRA:          -9.445
REMARK INTER:                  -6.382
REMARK INTRA:                  -3.063
REMARK UNBOUND:                -2.999
REMARK SMILES CCCCCCCCCCCCCCCCCC(=O)[O-]
REMARK SMILES IDX 10 1 11 2 12 3 13 4 14 5 15 6 16 7 17 8 18 9 19 10 20 11
REMARK SMILES IDX 9 12 8 13 7 14 6 15 5 16 4 17 3 18 2 19 1 20
REMARK H PARENT
REMARK Flexibility Score: inf
ROOT
ATOM      1  C   UNL     1     181.181 193.955 177.570  1.00  0.00     0.000 C 
ENDROOT
BRANCH   1   2
ATOM      2  C   UNL     1     180.099 194.837 178.219  1.00  0.00     0.000 C 
BRANCH   2   3
ATOM      3  C   UNL     1     179.256 195.604 177.186  1.00  0.00     0.000 C 
BRANCH   3   4
ATOM      4  C   UNL     1     179.638 197.090 177.101  1.00  0.00     0.000 C 
BRANCH   4   5
ATOM      5  C   UNL     1     180.069 197.515 175.687  1.00  0.00     0.000 C 
BRANCH   5   6
ATOM      6  C   UNL     1     181.595 197.721 175.585  1.00  0.00     0.000 C 
BRANCH   6   7
ATOM      7  C   UNL     1     182.291 196.755 174.609  1.00  0.00     0.006 C 
BRANCH   7   8
ATOM      8  C   UNL     1     181.325 195.984 173.689  1.00  0.00     0.053 C 
BRANCH   8   9
ATOM      9  C   UNL     1     181.387 194.497 173.887  1.00  0.00     0.041 C 
ATOM     10  O   UNL     1     180.354 193.853 174.209  1.00  0.00    -0.550 OA
ATOM     11  O   UNL     1     182.571 193.813 173.643  1.00  0.00    -0.550 OA
ENDBRANCH   8   9
ENDBRANCH   7   8
ENDBRANCH   6   7
ENDBRANCH   5   6
ENDBRANCH   4   5
ENDBRANCH   3   4
ENDBRANCH   2   3
ENDBRANCH   1   2
BRANCH   1  12
ATOM     12  C   UNL     1     182.584 194.591 177.487  1.00  0.00     0.000 C 
BRANCH  12  13
ATOM     13  C   UNL     1     183.352 194.668 178.822  1.00  0.00    -0.000 C 
BRANCH  13  14
ATOM     14  C   UNL     1     184.083 196.000 179.073  1.00  0.00    -0.000 C 
BRANCH  14  15
ATOM     15  C   UNL     1     183.241 197.260 178.796  1.00  0.00    -0.000 C 
BRANCH  15  16
ATOM     16  C   UNL     1     182.091 197.470 179.804  1.00  0.00    -0.000 C 
BRANCH  16  17
ATOM     17  C   UNL     1     182.570 197.392 181.263  1.00  0.00    -0.000 C 
BRANCH  17  18
ATOM     18  C   UNL     1     181.543 196.727 182.197  1.00  0.00    -0.000 C 
BRANCH  18  19
ATOM     19  C   UNL     1     181.001 195.374 181.704  1.00  0.00    -0.003 C 
ATOM     20  C   UNL     1     181.924 194.202 182.036  1.00  0.00     0.004 C 
ENDBRANCH  18  19
ENDBRANCH  17  18
ENDBRANCH  16  17
ENDBRANCH  15  16
ENDBRANCH  14  15
ENDBRANCH  13  14
ENDBRANCH  12  13
ENDBRANCH   1  12
TORSDOF 16
ENDMDL
