MODEL 1
REMARK VINA RESULT:    -3.572      0.000      0.000
REMARK INTER + INTRA:          -5.030
REMARK INTER:                  -4.825
REMARK INTRA:                  -0.205
REMARK UNBOUND:                -0.205
REMARK SMILES CCCCCCC=CC(=O)[O-]
REMARK SMILES IDX 5 1 6 2 7 3 8 4 9 5 10 6 11 7 4 8 3 9 2 10 1 11
REMARK H PARENT
REMARK Flexibility Score: inf
ROOT
ATOM      1  C   UNL     1       6.700  11.925  40.120  1.00  0.00     0.004 C 
ENDROOT
BRANCH   1   2
ATOM      2  C   UNL     1       7.362  12.377  41.430  1.00  0.00     0.027 C 
BRANCH   2   3
ATOM      3  C   UNL     1       8.796  11.932  41.508  1.00  0.00    -0.025 C 
ATOM      4  C   UNL     1       9.552  12.180  42.583  1.00  0.00     0.020 C 
BRANCH   4   5
ATOM      5  C   UNL     1      10.964  11.773  42.665  1.00  0.00     0.064 C 
ATOM      6  O   UNL     1      11.286  10.613  43.037  1.00  0.00    -0.545 OA
ATOM      7  O   UNL     1      11.957  12.682  42.326  1.00  0.00    -0.545 OA
ENDBRANCH   4   5
ENDBRANCH   2   3
ENDBRANCH   1   2
BRANCH   1   8
ATOM      8  C   UNL     1       5.294  11.316  40.297  1.00  0.00     0.000 C 
BRANCH   8   9
ATOM      9  C   UNL     1       4.507  11.098  38.989  1.00  0.00    -0.000 C 
BRANCH   9  10
ATOM     10  C   UNL     1       4.744   9.738  38.308  1.00  0.00    -0.003 C 
ATOM     11  C   UNL     1       5.003   8.610  39.305  1.00  0.00     0.004 C 
ENDBRANCH   9  10
ENDBRANCH   8   9
ENDBRANCH   1   8
TORSDOF 6
ENDMDL
MODEL 2
REMARK VINA RESULT:    -3.485     12.760     14.092
REMARK INTER + INTRA:          -4.913
REMARK INTER:                  -4.377
REMARK INTRA:                  -0.536
REMARK UNBOUND:                -0.205
REMARK SMILES CCCCCCC=CC(=O)[O-]
REMARK SMILES IDX 5 1 6 2 7 3 8 4 9 5 10 6 11 7 4 8 3 9 2 10 1 11
REMARK H PARENT
REMARK Flexibility Score: inf
ROOT
ATOM      1  C   UNL     1      14.248   1.392  38.108  1.00  0.00     0.004 C 
ENDROOT
BRANCH   1   2
ATOM      2  C   UNL     1      15.500   0.634  37.642  1.00  0.00     0.027 C 
BRANCH   2   3
ATOM      3  C   UNL     1      15.262  -0.082  36.342  1.00  0.00    -0.025 C 
ATOM      4  C   UNL     1      15.211   0.575  35.177  1.00  0.00     0.020 C 
BRANCH   4   5
ATOM      5  C   UNL     1      14.954  -0.107  33.899  1.00  0.00     0.064 C 
ATOM      6  O   UNL     1      13.806  -0.108  33.381  1.00  0.00    -0.545 OA
ATOM      7  O   UNL     1      15.995  -0.759  33.252  1.00  0.00    -0.545 OA
ENDBRANCH   4   5
ENDBRANCH   2   3
ENDBRANCH   1   2
BRANCH   1   8
ATOM      8  C   UNL     1      14.401   2.926  38.112  1.00  0.00     0.000 C 
BRANCH   8   9
ATOM      9  C   UNL     1      15.852   3.439  38.212  1.00  0.00    -0.000 C 
BRANCH   9  10
ATOM     10  C   UNL     1      16.232   4.518  37.182  1.00  0.00    -0.003 C 
ATOM     11  C   UNL     1      15.089   4.857  36.227  1.00  0.00     0.004 C 
ENDBRANCH   9  10
ENDBRANCH   8   9
ENDBRANCH   1   8
TORSDOF 6
ENDMDL
MODEL 3
REMARK VINA RESULT:    -3.463     11.282     13.174
REMARK INTER + INTRA:          -4.883
REMARK INTER:                  -4.705
REMARK INTRA:                  -0.178
REMARK UNBOUND:                -0.205
REMARK SMILES CCCCCCC=CC(=O)[O-]
REMARK SMILES IDX 5 1 6 2 7 3 8 4 9 5 10 6 11 7 4 8 3 9 2 10 1 11
REMARK H PARENT
REMARK Flexibility Score: inf
ROOT
ATOM      1  C   UNL     1      10.942  -0.263  44.979  1.00  0.00     0.004 C 
ENDROOT
BRANCH   1   2
ATOM      2  C   UNL     1       9.936   0.500  45.854  1.00  0.00     0.027 C 
BRANCH   2   3
ATOM      3  C   UNL     1       8.568   0.526  45.230  1.00  0.00    -0.025 C 
ATOM      4  C   UNL     1       7.870   1.661  45.114  1.00  0.00     0.020 C 
BRANCH   4   5
ATOM      5  C   UNL     1       6.520   1.699  44.528  1.00  0.00     0.064 C 
ATOM      6  O   UNL     1       5.761   0.695  44.577  1.00  0.00    -0.545 OA
ATOM      7  O   UNL     1       6.077   2.860  43.912  1.00  0.00    -0.545 OA
ENDBRANCH   4   5
ENDBRANCH   2   3
ENDBRANCH   1   2
BRANCH   1   8
ATOM      8  C   UNL     1      12.364  -0.341  45.570  1.00  0.00     0.000 C 
BRANCH   8   9
ATOM      9  C   UNL     1      13.468  -0.736  44.567  1.00  0.00    -0.000 C 
BRANCH   9  10
ATOM     10  C   UNL     1      14.813  -0.014  44.764  1.00  0.00    -0.003 C 
ATOM     11  C   UNL     1      14.756   1.065  45.844  1.00  0.00     0.004 C 
ENDBRANCH   9  10
ENDBRANCH   8   9
ENDBRANCH   1   8
TORSDOF 6
ENDMDL
MODEL 4
REMARK VINA RESULT:    -3.454     13.501     14.813
REMARK INTER + INTRA:          -4.870
REMARK INTER:                  -4.165
REMARK INTRA:                  -0.705
REMARK UNBOUND:                -0.205
REMARK SMILES CCCCCCC=CC(=O)[O-]
REMARK SMILES IDX 5 1 6 2 7 3 8 4 9 5 10 6 11 7 4 8 3 9 2 10 1 11
REMARK H PARENT
REMARK Flexibility Score: inf
ROOT
ATOM      1  C   UNL     1      17.506   0.647  37.935  1.00  0.00     0.004 C 
ENDROOT
BRANCH   1   2
ATOM      2  C   UNL     1      17.063  -0.443  36.948  1.00  0.00     0.027 C 
BRANCH   2   3
ATOM      3  C   UNL     1      16.594   0.146  35.647  1.00  0.00    -0.025 C 
ATOM      4  C   UNL     1      15.483  -0.287  35.039  1.00  0.00     0.020 C 
BRANCH   4   5
ATOM      5  C   UNL     1      15.023   0.262  33.753  1.00  0.00     0.064 C 
ATOM      6  O   UNL     1      15.710   1.111  33.125  1.00  0.00    -0.545 OA
ATOM      7  O   UNL     1      13.814  -0.164  33.223  1.00  0.00    -0.545 OA
ENDBRANCH   4   5
ENDBRANCH   2   3
ENDBRANCH   1   2
BRANCH   1   8
ATOM      8  C   UNL     1      16.420   1.068  38.945  1.00  0.00     0.000 C 
BRANCH   8   9
ATOM      9  C   UNL     1      15.707   2.398  38.623  1.00  0.00    -0.000 C 
BRANCH   9  10
ATOM     10  C   UNL     1      14.315   2.251  37.984  1.00  0.00    -0.003 C 
ATOM     11  C   UNL     1      13.713   0.861  38.185  1.00  0.00     0.004 C 
ENDBRANCH   9  10
ENDBRANCH   8   9
ENDBRANCH   1   8
TORSDOF 6
ENDMDL
MODEL 5
REMARK VINA RESULT:    -3.451     11.044     12.889
REMARK INTER + INTRA:          -4.866
REMARK INTER:                  -4.665
REMARK INTRA:                  -0.201
REMARK UNBOUND:                -0.205
REMARK SMILES CCCCCCC=CC(=O)[O-]
REMARK SMILES IDX 5 1 6 2 7 3 8 4 9 5 10 6 11 7 4 8 3 9 2 10 1 11
REMARK H PARENT
REMARK Flexibility Score: inf
ROOT
ATOM      1  C   UNL     1      10.039   0.218  45.273  1.00  0.00     0.004 C 
ENDROOT
BRANCH   1   2
ATOM      2  C   UNL     1       8.626   0.130  45.868  1.00  0.00     0.027 C 
BRANCH   2   3
ATOM      3  C   UNL     1       7.741   1.233  45.358  1.00  0.00    -0.025 C 
ATOM      4  C   UNL     1       6.615   0.975  44.682  1.00  0.00     0.020 C 
BRANCH   4   5
ATOM      5  C   UNL     1       5.750   2.043  44.156  1.00  0.00     0.064 C 
ATOM      6  O   UNL     1       6.210   3.190  43.909  1.00  0.00    -0.545 OA
ATOM      7  O   UNL     1       4.407   1.782  43.926  1.00  0.00    -0.545 OA
ENDBRANCH   4   5
ENDBRANCH   2   3
ENDBRANCH   1   2
BRANCH   1   8
ATOM      8  C   UNL     1      11.138   0.568  46.296  1.00  0.00     0.000 C 
BRANCH   8   9
ATOM      9  C   UNL     1      12.481  -0.162  46.089  1.00  0.00    -0.000 C 
BRANCH   9  10
ATOM     10  C   UNL     1      12.725  -0.680  44.661  1.00  0.00    -0.003 C 
ATOM     11  C   UNL     1      14.151  -0.431  44.174  1.00  0.00     0.004 C 
ENDBRANCH   9  10
ENDBRANCH   8   9
ENDBRANCH   1   8
TORSDOF 6
ENDMDL
MODEL 6
REMARK VINA RESULT:    -3.420     11.098     12.878
REMARK INTER + INTRA:          -4.825
REMARK INTER:                  -4.651
REMARK INTRA:                  -0.174
REMARK UNBOUND:                -0.205
REMARK SMILES CCCCCCC=CC(=O)[O-]
REMARK SMILES IDX 5 1 6 2 7 3 8 4 9 5 10 6 11 7 4 8 3 9 2 10 1 11
REMARK H PARENT
REMARK Flexibility Score: inf
ROOT
ATOM      1  C   UNL     1       9.536   0.435  46.185  1.00  0.00     0.004 C 
ENDROOT
BRANCH   1   2
ATOM      2  C   UNL     1       8.131  -0.178  46.098  1.00  0.00     0.027 C 
BRANCH   2   3
ATOM      3  C   UNL     1       7.099   0.852  45.730  1.00  0.00    -0.025 C 
ATOM      4  C   UNL     1       6.776   1.098  44.455  1.00  0.00     0.020 C 
BRANCH   4   5
ATOM      5  C   UNL     1       5.787   2.120  44.076  1.00  0.00     0.064 C 
ATOM      6  O   UNL     1       4.560   1.843  44.007  1.00  0.00    -0.545 OA
ATOM      7  O   UNL     1       6.213   3.409  43.791  1.00  0.00    -0.545 OA
ENDBRANCH   4   5
ENDBRANCH   2   3
ENDBRANCH   1   2
BRANCH   1   8
ATOM      8  C   UNL     1      10.515  -0.065  45.104  1.00  0.00     0.000 C 
BRANCH   8   9
ATOM      9  C   UNL     1      11.980  -0.210  45.564  1.00  0.00    -0.000 C 
BRANCH   9  10
ATOM     10  C   UNL     1      12.868  -1.064  44.642  1.00  0.00    -0.003 C 
ATOM     11  C   UNL     1      14.253  -0.458  44.423  1.00  0.00     0.004 C 
ENDBRANCH   9  10
ENDBRANCH   8   9
ENDBRANCH   1   8
TORSDOF 6
ENDMDL
MODEL 7
REMARK VINA RESULT:    -3.399     12.742     14.261
REMARK INTER + INTRA:          -4.796
REMARK INTER:                  -4.097
REMARK INTRA:                  -0.699
REMARK UNBOUND:                -0.205
REMARK SMILES CCCCCCC=CC(=O)[O-]
REMARK SMILES IDX 5 1 6 2 7 3 8 4 9 5 10 6 11 7 4 8 3 9 2 10 1 11
REMARK H PARENT
REMARK Flexibility Score: inf
ROOT
ATOM      1  C   UNL     1      14.469   2.694  38.147  1.00  0.00     0.004 C 
ENDROOT
BRANCH   1   2
ATOM      2  C   UNL     1      14.020   1.239  38.354  1.00  0.00     0.027 C 
BRANCH   2   3
ATOM      3  C   UNL     1      14.290   0.398  37.137  1.00  0.00    -0.025 C 
ATOM      4  C   UNL     1      15.099   0.818  36.157  1.00  0.00     0.020 C 
BRANCH   4   5
ATOM      5  C   UNL     1      15.355   0.018  34.949  1.00  0.00     0.064 C 
ATOM      6  O   UNL     1      16.483  -0.502  34.740  1.00  0.00    -0.545 OA
ATOM      7  O   UNL     1      14.336  -0.167  34.025  1.00  0.00    -0.545 OA
ENDBRANCH   4   5
ENDBRANCH   2   3
ENDBRANCH   1   2
BRANCH   1   8
ATOM      8  C   UNL     1      15.565   3.164  39.123  1.00  0.00     0.000 C 
BRANCH   8   9
ATOM      9  C   UNL     1      16.119   2.071  40.060  1.00  0.00    -0.000 C 
BRANCH   9  10
ATOM     10  C   UNL     1      17.577   1.659  39.785  1.00  0.00    -0.003 C 
ATOM     11  C   UNL     1      17.689   0.478  38.822  1.00  0.00     0.004 C 
ENDBRANCH   9  10
ENDBRANCH   8   9
ENDBRANCH   1   8
TORSDOF 6
ENDMDL
MODEL 8
REMARK VINA RESULT:    -3.363     10.783     11.841
REMARK INTER + INTRA:          -4.748
REMARK INTER:                  -4.515
REMARK INTRA:                  -0.233
REMARK UNBOUND:                -0.205
REMARK SMILES CCCCCCC=CC(=O)[O-]
REMARK SMILES IDX 5 1 6 2 7 3 8 4 9 5 10 6 11 7 4 8 3 9 2 10 1 11
REMARK H PARENT
REMARK Flexibility Score: inf
ROOT
ATOM      1  C   UNL     1       9.026   1.413  46.087  1.00  0.00     0.004 C 
ENDROOT
BRANCH   1   2
ATOM      2  C   UNL     1       9.594   0.106  45.513  1.00  0.00     0.027 C 
BRANCH   2   3
ATOM      3  C   UNL     1      11.081   0.014  45.713  1.00  0.00    -0.025 C 
ATOM      4  C   UNL     1      11.895  -0.424  44.745  1.00  0.00     0.020 C 
BRANCH   4   5
ATOM      5  C   UNL     1      13.349  -0.543  44.933  1.00  0.00     0.064 C 
ATOM      6  O   UNL     1      13.975  -1.563  44.537  1.00  0.00    -0.545 OA
ATOM      7  O   UNL     1      14.044   0.485  45.555  1.00  0.00    -0.545 OA
ENDBRANCH   4   5
ENDBRANCH   2   3
ENDBRANCH   1   2
BRANCH   1   8
ATOM      8  C   UNL     1       7.497   1.554  45.951  1.00  0.00     0.000 C 
BRANCH   8   9
ATOM      9  C   UNL     1       6.945   1.340  44.527  1.00  0.00    -0.000 C 
BRANCH   9  10
ATOM     10  C   UNL     1       5.994   2.442  44.027  1.00  0.00    -0.003 C 
ATOM     11  C   UNL     1       6.549   3.849  44.240  1.00  0.00     0.004 C 
ENDBRANCH   9  10
ENDBRANCH   8   9
ENDBRANCH   1   8
TORSDOF 6
ENDMDL
MODEL 9
REMARK VINA RESULT:    -3.341     11.680     12.617
REMARK INTER + INTRA:          -4.717
REMARK INTER:                  -4.198
REMARK INTRA:                  -0.519
REMARK UNBOUND:                -0.205
REMARK SMILES CCCCCCC=CC(=O)[O-]
REMARK SMILES IDX 5 1 6 2 7 3 8 4 9 5 10 6 11 7 4 8 3 9 2 10 1 11
REMARK H PARENT
REMARK Flexibility Score: inf
ROOT
ATOM      1  C   UNL     1      14.186   2.263  38.084  1.00  0.00     0.004 C 
ENDROOT
BRANCH   1   2
ATOM      2  C   UNL     1      15.486   2.957  38.516  1.00  0.00     0.027 C 
BRANCH   2   3
ATOM      3  C   UNL     1      15.947   3.956  37.491  1.00  0.00    -0.025 C 
ATOM      4  C   UNL     1      15.109   4.471  36.585  1.00  0.00     0.020 C 
BRANCH   4   5
ATOM      5  C   UNL     1      15.549   5.431  35.560  1.00  0.00     0.064 C 
ATOM      6  O   UNL     1      15.830   6.622  35.861  1.00  0.00    -0.545 OA
ATOM      7  O   UNL     1      15.658   5.017  34.240  1.00  0.00    -0.545 OA
ENDBRANCH   4   5
ENDBRANCH   2   3
ENDBRANCH   1   2
BRANCH   1   8
ATOM      8  C   UNL     1      14.347   0.765  37.753  1.00  0.00     0.000 C 
BRANCH   8   9
ATOM      9  C   UNL     1      15.592   0.411  36.914  1.00  0.00    -0.000 C 
BRANCH   9  10
ATOM     10  C   UNL     1      15.535   0.866  35.445  1.00  0.00    -0.003 C 
ATOM     11  C   UNL     1      14.802  -0.125  34.543  1.00  0.00     0.004 C 
ENDBRANCH   9  10
ENDBRANCH   8   9
ENDBRANCH   1   8
TORSDOF 6
ENDMDL
