MODEL 1
REMARK VINA RESULT:    -3.602      0.000      0.000
REMARK INTER + INTRA:          -4.267
REMARK INTER:                  -5.075
REMARK INTRA:                   0.809
REMARK UNBOUND:                 0.809
REMARK SMILES CC1=CCC(=C(C)C)C(=O)CC(C)=CCC1
REMARK SMILES IDX 12 1 14 2 13 3 15 4 16 5 2 6 1 7 3 8 11 10 9 11 10 12 5 13
REMARK SMILES IDX 6 14 7 15 8 16 4 17
REMARK H PARENT
REMARK Flexibility Score: 60.00
ROOT
ATOM      1  C   UNL     1      -2.711  28.668  31.199  1.00  0.00    -0.070 C 
ATOM      2  C   UNL     1      -1.463  28.229  30.912  1.00  0.00    -0.027 C 
ATOM      3  C   UNL     1      -2.851  30.069  31.741  1.00  0.00     0.039 C 
ENDROOT
BRANCH   2   4
ATOM      4  C   UNL     1      -1.103  26.913  30.268  1.00  0.00     0.032 C 
BRANCH   4   5
ATOM      5  C   UNL     1      -0.489  27.087  28.866  1.00  0.00     0.034 C 
BRANCH   5   6
ATOM      6  C   UNL     1      -1.460  26.709  27.765  1.00  0.00    -0.077 C 
ATOM      7  C   UNL     1      -1.318  25.352  27.121  1.00  0.00     0.039 C 
ATOM      8  C   UNL     1      -2.432  27.529  27.306  1.00  0.00    -0.023 CG0
ATOM      9  G   UNL     1      -2.707  28.930  27.796  1.00  0.00     0.000 G0
ENDBRANCH   5   6
ENDBRANCH   4   5
ENDBRANCH   2   4
BRANCH   1  10
ATOM     10  C   UNL     1      -3.970  27.855  30.943  1.00  0.00     0.111 C 
BRANCH  10  11
ATOM     11  C   UNL     1      -4.307  27.803  29.472  1.00  0.00     0.163 C 
ATOM     12  O   UNL     1      -4.794  26.736  29.012  1.00  0.00    -0.294 OA
BRANCH  11  13
ATOM     13  C   UNL     1      -4.030  28.954  28.556  1.00  0.00    -0.002 C 
ATOM     14  C   UNL     1      -4.887  30.015  28.456  1.00  0.00    -0.069 C 
ATOM     15  C   UNL     1      -4.619  31.157  27.499  1.00  0.00     0.039 C 
ATOM     16  C   UNL     1      -6.124  30.120  29.319  1.00  0.00     0.039 C 
BRANCH  13  17
ATOM     17  C   UNL     1      -2.716  28.930  27.796  1.00  0.00     0.066 CG0
ATOM     18  G   UNL     1      -2.429  27.529  27.314  1.00  0.00     0.000 G0
ENDBRANCH  13  17
ENDBRANCH  11  13
ENDBRANCH  10  11
ENDBRANCH   1  10
TORSDOF 0
ENDMDL
MODEL 2
REMARK VINA RESULT:    -2.948      1.437      4.103
REMARK INTER + INTRA:          -3.346
REMARK INTER:                  -4.524
REMARK INTRA:                   1.179
REMARK UNBOUND:                 0.809
REMARK SMILES CC1=CCC(=C(C)C)C(=O)CC(C)=CCC1
REMARK SMILES IDX 12 1 14 2 13 3 15 4 16 5 2 6 1 7 3 8 11 10 9 11 10 12 5 13
REMARK SMILES IDX 6 14 7 15 8 16 4 17
REMARK H PARENT
REMARK Flexibility Score: 60.00
ROOT
ATOM      1  C   UNL     1      -3.506  28.994  30.983  1.00  0.00    -0.070 C 
ATOM      2  C   UNL     1      -4.572  29.643  30.456  1.00  0.00    -0.027 C 
ATOM      3  C   UNL     1      -2.653  29.747  31.974  1.00  0.00     0.039 C 
ENDROOT
BRANCH   2   4
ATOM      4  C   UNL     1      -5.612  29.054  29.533  1.00  0.00     0.032 C 
BRANCH   4   5
ATOM      5  C   UNL     1      -5.557  29.656  28.117  1.00  0.00     0.034 C 
BRANCH   5   6
ATOM      6  C   UNL     1      -4.153  30.071  27.725  1.00  0.00    -0.077 C 
ATOM      7  C   UNL     1      -3.865  31.540  27.542  1.00  0.00     0.039 C 
ATOM      8  C   UNL     1      -3.145  29.196  27.503  1.00  0.00    -0.023 CG0
ATOM      9  G   UNL     1      -3.245  27.694  27.599  1.00  0.00     0.000 G0
ENDBRANCH   5   6
ENDBRANCH   4   5
ENDBRANCH   2   4
BRANCH   1  10
ATOM     10  C   UNL     1      -3.168  27.543  30.681  1.00  0.00     0.111 C 
BRANCH  10  11
ATOM     11  C   UNL     1      -1.948  27.430  29.800  1.00  0.00     0.163 C 
ATOM     12  O   UNL     1      -0.820  27.650  30.316  1.00  0.00    -0.294 OA
BRANCH  11  13
ATOM     13  C   UNL     1      -2.053  27.119  28.339  1.00  0.00    -0.002 C 
ATOM     14  C   UNL     1      -1.154  26.301  27.712  1.00  0.00    -0.069 C 
ATOM     15  C   UNL     1      -1.244  26.022  26.227  1.00  0.00     0.039 C 
ATOM     16  C   UNL     1      -0.046  25.608  28.475  1.00  0.00     0.039 C 
BRANCH  13  17
ATOM     17  C   UNL     1      -3.247  27.690  27.596  1.00  0.00     0.066 CG0
ATOM     18  G   UNL     1      -3.134  29.193  27.524  1.00  0.00     0.000 G0
ENDBRANCH  13  17
ENDBRANCH  11  13
ENDBRANCH  10  11
ENDBRANCH   1  10
TORSDOF 0
ENDMDL
MODEL 3
REMARK VINA RESULT:    -1.433      1.711      3.700
REMARK INTER + INTRA:          -1.211
REMARK INTER:                  -3.067
REMARK INTRA:                   1.856
REMARK UNBOUND:                 0.809
REMARK SMILES CC1=CCC(=C(C)C)C(=O)CC(C)=CCC1
REMARK SMILES IDX 12 1 14 2 13 3 15 4 16 5 2 6 1 7 3 8 11 10 9 11 10 12 5 13
REMARK SMILES IDX 6 14 7 15 8 16 4 17
REMARK H PARENT
REMARK Flexibility Score: 60.00
ROOT
ATOM      1  C   UNL     1      -1.772  26.634  28.100  1.00  0.00    -0.070 C 
ATOM      2  C   UNL     1      -0.840  27.131  28.947  1.00  0.00    -0.027 C 
ATOM      3  C   UNL     1      -1.337  25.555  27.139  1.00  0.00     0.039 C 
ENDROOT
BRANCH   2   4
ATOM      4  C   UNL     1      -1.077  28.132  30.053  1.00  0.00     0.032 C 
BRANCH   4   5
ATOM      5  C   UNL     1      -2.335  27.811  30.882  1.00  0.00     0.034 C 
BRANCH   5   6
ATOM      6  C   UNL     1      -3.025  29.065  31.383  1.00  0.00    -0.077 C 
ATOM      7  C   UNL     1      -2.377  29.840  32.503  1.00  0.00     0.039 C 
ATOM      8  C   UNL     1      -4.206  29.517  30.901  1.00  0.00    -0.023 CG0
ATOM      9  G   UNL     1      -5.021  28.863  29.812  1.00  0.00     0.000 G0
ENDBRANCH   5   6
ENDBRANCH   4   5
ENDBRANCH   2   4
BRANCH   1  10
ATOM     10  C   UNL     1      -3.233  27.055  28.113  1.00  0.00     0.111 C 
BRANCH  10  11
ATOM     11  C   UNL     1      -3.388  28.531  27.836  1.00  0.00     0.163 C 
ATOM     12  O   UNL     1      -2.532  29.090  27.099  1.00  0.00    -0.294 OA
BRANCH  11  13
ATOM     13  C   UNL     1      -4.486  29.340  28.452  1.00  0.00    -0.002 C 
ATOM     14  C   UNL     1      -5.041  30.409  27.804  1.00  0.00    -0.069 C 
ATOM     15  C   UNL     1      -6.125  31.246  28.449  1.00  0.00     0.039 C 
ATOM     16  C   UNL     1      -4.626  30.788  26.399  1.00  0.00     0.039 C 
BRANCH  13  17
ATOM     17  C   UNL     1      -5.013  28.878  29.799  1.00  0.00     0.066 CG0
ATOM     18  G   UNL     1      -4.210  29.513  30.908  1.00  0.00     0.000 G0
ENDBRANCH  13  17
ENDBRANCH  11  13
ENDBRANCH  10  11
ENDBRANCH   1  10
TORSDOF 0
ENDMDL
MODEL 4
REMARK VINA RESULT:    -1.377      1.514      4.246
REMARK INTER + INTRA:          -1.132
REMARK INTER:                  -3.472
REMARK INTRA:                   2.340
REMARK UNBOUND:                 0.809
REMARK SMILES CC1=CCC(=C(C)C)C(=O)CC(C)=CCC1
REMARK SMILES IDX 12 1 14 2 13 3 15 4 16 5 2 6 1 7 3 8 11 10 9 11 10 12 5 13
REMARK SMILES IDX 6 14 7 15 8 16 4 17
REMARK H PARENT
REMARK Flexibility Score: 60.00
ROOT
ATOM      1  C   UNL     1      -1.997  26.642  27.825  1.00  0.00    -0.070 C 
ATOM      2  C   UNL     1      -2.207  27.728  27.044  1.00  0.00    -0.027 C 
ATOM      3  C   UNL     1      -1.406  25.416  27.171  1.00  0.00     0.039 C 
ENDROOT
BRANCH   2   4
ATOM      4  C   UNL     1      -2.686  29.083  27.506  1.00  0.00     0.032 C 
BRANCH   4   5
ATOM      5  C   UNL     1      -4.196  29.285  27.282  1.00  0.00     0.034 C 
BRANCH   5   6
ATOM      6  C   UNL     1      -4.753  30.417  28.124  1.00  0.00    -0.077 C 
ATOM      7  C   UNL     1      -4.712  31.815  27.560  1.00  0.00     0.039 C 
ATOM      8  C   UNL     1      -5.262  30.250  29.366  1.00  0.00    -0.023 CG0
ATOM      9  G   UNL     1      -5.356  28.941  30.111  1.00  0.00     0.000 G0
ENDBRANCH   5   6
ENDBRANCH   4   5
ENDBRANCH   2   4
BRANCH   1  10
ATOM     10  C   UNL     1      -2.260  26.616  29.322  1.00  0.00     0.111 C 
BRANCH  10  11
ATOM     11  C   UNL     1      -3.671  27.043  29.645  1.00  0.00     0.163 C 
ATOM     12  O   UNL     1      -4.616  26.293  29.284  1.00  0.00    -0.294 OA
BRANCH  11  13
ATOM     13  C   UNL     1      -3.967  28.343  30.327  1.00  0.00    -0.002 C 
ATOM     14  C   UNL     1      -3.015  29.009  31.049  1.00  0.00    -0.069 C 
ATOM     15  C   UNL     1      -3.333  30.302  31.767  1.00  0.00     0.039 C 
ATOM     16  C   UNL     1      -1.591  28.506  31.137  1.00  0.00     0.039 C 
BRANCH  13  17
ATOM     17  C   UNL     1      -5.351  28.930  30.121  1.00  0.00     0.066 CG0
ATOM     18  G   UNL     1      -5.248  30.226  29.354  1.00  0.00     0.000 G0
ENDBRANCH  13  17
ENDBRANCH  11  13
ENDBRANCH  10  11
ENDBRANCH   1  10
TORSDOF 0
ENDMDL
