MODEL 1
REMARK VINA RESULT:    -3.267      0.000      0.000
REMARK INTER + INTRA:          -5.808
REMARK INTER:                  -4.986
REMARK INTRA:                  -0.822
REMARK UNBOUND:                -0.822
REMARK SMILES O=C([O-])CCCCCCCCC(=O)[O-]
REMARK SMILES IDX 7 1 6 2 5 3 4 4 2 5 1 6 3 7 8 8 9 9 10 10 11 11 12 12 13 13
REMARK SMILES IDX 14 14
REMARK H PARENT
REMARK Flexibility Score: inf
ROOT
ATOM      1  C   UNL     1      -0.479  -3.643   7.045  1.00  0.00     0.000 C 
ENDROOT
BRANCH   1   2
ATOM      2  C   UNL     1      -1.741  -4.427   7.433  1.00  0.00     0.000 C 
BRANCH   2   3
ATOM      3  C   UNL     1      -2.978  -3.521   7.411  1.00  0.00     0.006 C 
BRANCH   3   4
ATOM      4  C   UNL     1      -3.073  -2.752   6.090  1.00  0.00     0.053 C 
BRANCH   4   5
ATOM      5  C   UNL     1      -4.146  -3.331   5.223  1.00  0.00     0.041 C 
ATOM      6  O   UNL     1      -4.947  -4.182   5.690  1.00  0.00    -0.550 OA
ATOM      7  O   UNL     1      -4.231  -2.967   3.885  1.00  0.00    -0.550 OA
ENDBRANCH   4   5
ENDBRANCH   3   4
ENDBRANCH   2   3
ENDBRANCH   1   2
BRANCH   1   8
ATOM      8  C   UNL     1       0.320  -3.161   8.266  1.00  0.00     0.000 C 
BRANCH   8   9
ATOM      9  C   UNL     1       0.457  -1.632   8.318  1.00  0.00     0.000 C 
BRANCH   9  10
ATOM     10  C   UNL     1       0.182  -1.010   6.941  1.00  0.00     0.006 C 
BRANCH  10  11
ATOM     11  C   UNL     1      -0.912   0.065   6.997  1.00  0.00     0.053 C 
BRANCH  11  12
ATOM     12  C   UNL     1      -0.519   1.297   6.241  1.00  0.00     0.041 C 
ATOM     13  O   UNL     1       0.476   1.277   5.468  1.00  0.00    -0.550 OA
ATOM     14  O   UNL     1      -1.233   2.477   6.416  1.00  0.00    -0.550 OA
ENDBRANCH  11  12
ENDBRANCH  10  11
ENDBRANCH   9  10
ENDBRANCH   8   9
ENDBRANCH   1   8
TORSDOF 9
ENDMDL
MODEL 2
REMARK VINA RESULT:    -3.202      1.281      5.176
REMARK INTER + INTRA:          -5.709
REMARK INTER:                  -5.131
REMARK INTRA:                  -0.578
REMARK UNBOUND:                -0.822
REMARK SMILES O=C([O-])CCCCCCCCC(=O)[O-]
REMARK SMILES IDX 7 1 6 2 5 3 4 4 2 5 1 6 3 7 8 8 9 9 10 10 11 11 12 12 13 13
REMARK SMILES IDX 14 14
REMARK H PARENT
REMARK Flexibility Score: inf
ROOT
ATOM      1  C   UNL     1       0.724  -1.690   8.316  1.00  0.00     0.000 C 
ENDROOT
BRANCH   1   2
ATOM      2  C   UNL     1       0.486  -0.314   8.957  1.00  0.00     0.000 C 
BRANCH   2   3
ATOM      3  C   UNL     1       1.187   0.792   8.158  1.00  0.00     0.006 C 
BRANCH   3   4
ATOM      4  C   UNL     1       0.224   1.942   7.850  1.00  0.00     0.053 C 
BRANCH   4   5
ATOM      5  C   UNL     1      -0.312   1.818   6.459  1.00  0.00     0.041 C 
ATOM      6  O   UNL     1      -1.492   2.174   6.201  1.00  0.00    -0.550 OA
ATOM      7  O   UNL     1       0.474   1.263   5.458  1.00  0.00    -0.550 OA
ENDBRANCH   4   5
ENDBRANCH   3   4
ENDBRANCH   2   3
ENDBRANCH   1   2
BRANCH   1   8
ATOM      8  C   UNL     1      -0.163  -1.934   7.086  1.00  0.00     0.000 C 
BRANCH   8   9
ATOM      9  C   UNL     1      -0.606  -3.399   6.956  1.00  0.00     0.000 C 
BRANCH   9  10
ATOM     10  C   UNL     1      -2.130  -3.498   6.792  1.00  0.00     0.006 C 
BRANCH  10  11
ATOM     11  C   UNL     1      -2.777  -2.130   6.536  1.00  0.00     0.053 C 
BRANCH  11  12
ATOM     12  C   UNL     1      -3.940  -2.232   5.598  1.00  0.00     0.041 C 
ATOM     13  O   UNL     1      -4.979  -1.550   5.800  1.00  0.00    -0.550 OA
ATOM     14  O   UNL     1      -3.888  -3.107   4.520  1.00  0.00    -0.550 OA
ENDBRANCH  11  12
ENDBRANCH  10  11
ENDBRANCH   9  10
ENDBRANCH   8   9
ENDBRANCH   1   8
TORSDOF 9
ENDMDL
MODEL 3
REMARK VINA RESULT:    -3.160      0.693      5.013
REMARK INTER + INTRA:          -5.644
REMARK INTER:                  -4.917
REMARK INTRA:                  -0.727
REMARK UNBOUND:                -0.822
REMARK SMILES O=C([O-])CCCCCCCCC(=O)[O-]
REMARK SMILES IDX 7 1 6 2 5 3 4 4 2 5 1 6 3 7 8 8 9 9 10 10 11 11 12 12 13 13
REMARK SMILES IDX 14 14
REMARK H PARENT
REMARK Flexibility Score: inf
ROOT
ATOM      1  C   UNL     1       0.437  -3.125   8.195  1.00  0.00     0.000 C 
ENDROOT
BRANCH   1   2
ATOM      2  C   UNL     1       0.741  -1.621   8.256  1.00  0.00     0.000 C 
BRANCH   2   3
ATOM      3  C   UNL     1       0.212  -0.903   7.009  1.00  0.00     0.006 C 
BRANCH   3   4
ATOM      4  C   UNL     1      -0.621   0.324   7.393  1.00  0.00     0.053 C 
BRANCH   4   5
ATOM      5  C   UNL     1      -0.579   1.347   6.303  1.00  0.00     0.041 C 
ATOM      6  O   UNL     1       0.435   1.443   5.562  1.00  0.00    -0.550 OA
ATOM      7  O   UNL     1      -1.638   2.230   6.136  1.00  0.00    -0.550 OA
ENDBRANCH   4   5
ENDBRANCH   3   4
ENDBRANCH   2   3
ENDBRANCH   1   2
BRANCH   1   8
ATOM      8  C   UNL     1      -0.478  -3.498   7.019  1.00  0.00     0.000 C 
BRANCH   8   9
ATOM      9  C   UNL     1      -1.680  -4.351   7.451  1.00  0.00     0.000 C 
BRANCH   9  10
ATOM     10  C   UNL     1      -2.995  -3.578   7.267  1.00  0.00     0.006 C 
BRANCH  10  11
ATOM     11  C   UNL     1      -2.939  -2.612   6.077  1.00  0.00     0.053 C 
BRANCH  11  12
ATOM     12  C   UNL     1      -4.229  -2.593   5.315  1.00  0.00     0.041 C 
ATOM     13  O   UNL     1      -5.216  -1.945   5.755  1.00  0.00    -0.550 OA
ATOM     14  O   UNL     1      -4.351  -3.319   4.137  1.00  0.00    -0.550 OA
ENDBRANCH  11  12
ENDBRANCH  10  11
ENDBRANCH   9  10
ENDBRANCH   8   9
ENDBRANCH   1   8
TORSDOF 9
ENDMDL
MODEL 4
REMARK VINA RESULT:    -3.126      3.665      4.618
REMARK INTER + INTRA:          -5.593
REMARK INTER:                  -5.172
REMARK INTRA:                  -0.421
REMARK UNBOUND:                -0.822
REMARK SMILES O=C([O-])CCCCCCCCC(=O)[O-]
REMARK SMILES IDX 7 1 6 2 5 3 4 4 2 5 1 6 3 7 8 8 9 9 10 10 11 11 12 12 13 13
REMARK SMILES IDX 14 14
REMARK H PARENT
REMARK Flexibility Score: inf
ROOT
ATOM      1  C   UNL     1       1.408  -3.020   8.698  1.00  0.00     0.000 C 
ENDROOT
BRANCH   1   2
ATOM      2  C   UNL     1       2.440  -4.148   8.540  1.00  0.00     0.000 C 
BRANCH   2   3
ATOM      3  C   UNL     1       1.958  -5.194   7.527  1.00  0.00     0.006 C 
BRANCH   3   4
ATOM      4  C   UNL     1       3.106  -6.112   7.098  1.00  0.00     0.053 C 
BRANCH   4   5
ATOM      5  C   UNL     1       2.667  -7.015   5.989  1.00  0.00     0.041 C 
ATOM      6  O   UNL     1       1.923  -8.001   6.231  1.00  0.00    -0.550 OA
ATOM      7  O   UNL     1       3.119  -6.797   4.694  1.00  0.00    -0.550 OA
ENDBRANCH   4   5
ENDBRANCH   3   4
ENDBRANCH   2   3
ENDBRANCH   1   2
BRANCH   1   8
ATOM      8  C   UNL     1       0.118  -3.280   7.904  1.00  0.00     0.000 C 
BRANCH   8   9
ATOM      9  C   UNL     1      -0.123  -2.232   6.808  1.00  0.00     0.000 C 
BRANCH   9  10
ATOM     10  C   UNL     1       0.320  -0.838   7.276  1.00  0.00     0.006 C 
BRANCH  10  11
ATOM     11  C   UNL     1      -0.830   0.178   7.245  1.00  0.00     0.053 C 
BRANCH  11  12
ATOM     12  C   UNL     1      -0.556   1.298   6.288  1.00  0.00     0.041 C 
ATOM     13  O   UNL     1       0.455   1.259   5.538  1.00  0.00    -0.550 OA
ATOM     14  O   UNL     1      -1.400   2.401   6.251  1.00  0.00    -0.550 OA
ENDBRANCH  11  12
ENDBRANCH  10  11
ENDBRANCH   9  10
ENDBRANCH   8   9
ENDBRANCH   1   8
TORSDOF 9
ENDMDL
MODEL 5
REMARK VINA RESULT:    -3.071      2.217      4.704
REMARK INTER + INTRA:          -5.509
REMARK INTER:                  -4.446
REMARK INTRA:                  -1.063
REMARK UNBOUND:                -0.822
REMARK SMILES O=C([O-])CCCCCCCCC(=O)[O-]
REMARK SMILES IDX 7 1 6 2 5 3 4 4 2 5 1 6 3 7 8 8 9 9 10 10 11 11 12 12 13 13
REMARK SMILES IDX 14 14
REMARK H PARENT
REMARK Flexibility Score: inf
ROOT
ATOM      1  C   UNL     1       0.793  -2.015   8.275  1.00  0.00     0.000 C 
ENDROOT
BRANCH   1   2
ATOM      2  C   UNL     1       0.571  -0.633   8.906  1.00  0.00     0.000 C 
BRANCH   2   3
ATOM      3  C   UNL     1       1.131   0.477   8.007  1.00  0.00     0.006 C 
BRANCH   3   4
ATOM      4  C   UNL     1       0.137   1.635   7.880  1.00  0.00     0.053 C 
BRANCH   4   5
ATOM      5  C   UNL     1      -0.314   1.784   6.461  1.00  0.00     0.041 C 
ATOM      6  O   UNL     1      -1.402   2.360   6.199  1.00  0.00    -0.550 OA
ATOM      7  O   UNL     1       0.444   1.243   5.430  1.00  0.00    -0.550 OA
ENDBRANCH   4   5
ENDBRANCH   3   4
ENDBRANCH   2   3
ENDBRANCH   1   2
BRANCH   1   8
ATOM      8  C   UNL     1      -0.028  -2.221   6.992  1.00  0.00     0.000 C 
BRANCH   8   9
ATOM      9  C   UNL     1      -1.149  -3.257   7.166  1.00  0.00     0.000 C 
BRANCH   9  10
ATOM     10  C   UNL     1      -2.503  -2.567   7.391  1.00  0.00     0.006 C 
BRANCH  10  11
ATOM     11  C   UNL     1      -2.549  -1.163   6.773  1.00  0.00     0.053 C 
BRANCH  11  12
ATOM     12  C   UNL     1      -3.264  -0.190   7.660  1.00  0.00     0.041 C 
ATOM     13  O   UNL     1      -4.207   0.509   7.203  1.00  0.00    -0.550 OA
ATOM     14  O   UNL     1      -2.864  -0.030   8.981  1.00  0.00    -0.550 OA
ENDBRANCH  11  12
ENDBRANCH  10  11
ENDBRANCH   9  10
ENDBRANCH   8   9
ENDBRANCH   1   8
TORSDOF 9
ENDMDL
MODEL 6
REMARK VINA RESULT:    -3.024     11.529     13.549
REMARK INTER + INTRA:          -5.437
REMARK INTER:                  -4.844
REMARK INTRA:                  -0.594
REMARK UNBOUND:                -0.822
REMARK SMILES O=C([O-])CCCCCCCCC(=O)[O-]
REMARK SMILES IDX 7 1 6 2 5 3 4 4 2 5 1 6 3 7 8 8 9 9 10 10 11 11 12 12 13 13
REMARK SMILES IDX 14 14
REMARK H PARENT
REMARK Flexibility Score: inf
ROOT
ATOM      1  C   UNL     1      -7.892   0.694  -2.373  1.00  0.00     0.000 C 
ENDROOT
BRANCH   1   2
ATOM      2  C   UNL     1      -8.824   0.962  -3.564  1.00  0.00     0.000 C 
BRANCH   2   3
ATOM      3  C   UNL     1      -8.866   2.458  -3.901  1.00  0.00     0.006 C 
BRANCH   3   4
ATOM      4  C   UNL     1      -8.499   2.701  -5.368  1.00  0.00     0.053 C 
BRANCH   4   5
ATOM      5  C   UNL     1      -7.055   3.071  -5.491  1.00  0.00     0.041 C 
ATOM      6  O   UNL     1      -6.538   3.236  -6.627  1.00  0.00    -0.550 OA
ATOM      7  O   UNL     1      -6.266   3.184  -4.354  1.00  0.00    -0.550 OA
ENDBRANCH   4   5
ENDBRANCH   3   4
ENDBRANCH   2   3
ENDBRANCH   1   2
BRANCH   1   8
ATOM      8  C   UNL     1      -6.733  -0.252  -2.727  1.00  0.00     0.000 C 
BRANCH   8   9
ATOM      9  C   UNL     1      -6.853  -0.830  -4.145  1.00  0.00     0.000 C 
BRANCH   9  10
ATOM     10  C   UNL     1      -5.660  -1.742  -4.468  1.00  0.00     0.006 C 
BRANCH  10  11
ATOM     11  C   UNL     1      -5.957  -3.217  -4.168  1.00  0.00     0.053 C 
BRANCH  11  12
ATOM     12  C   UNL     1      -5.849  -4.067  -5.397  1.00  0.00     0.041 C 
ATOM     13  O   UNL     1      -6.888  -4.448  -5.998  1.00  0.00    -0.550 OA
ATOM     14  O   UNL     1      -4.601  -4.465  -5.858  1.00  0.00    -0.550 OA
ENDBRANCH  11  12
ENDBRANCH  10  11
ENDBRANCH   9  10
ENDBRANCH   8   9
ENDBRANCH   1   8
TORSDOF 9
ENDMDL
MODEL 7
REMARK VINA RESULT:    -2.999      3.936      6.420
REMARK INTER + INTRA:          -5.399
REMARK INTER:                  -4.966
REMARK INTRA:                  -0.433
REMARK UNBOUND:                -0.822
REMARK SMILES O=C([O-])CCCCCCCCC(=O)[O-]
REMARK SMILES IDX 7 1 6 2 5 3 4 4 2 5 1 6 3 7 8 8 9 9 10 10 11 11 12 12 13 13
REMARK SMILES IDX 14 14
REMARK H PARENT
REMARK Flexibility Score: inf
ROOT
ATOM      1  C   UNL     1       0.348  -3.443   7.559  1.00  0.00     0.000 C 
ENDROOT
BRANCH   1   2
ATOM      2  C   UNL     1       0.132  -2.012   7.046  1.00  0.00     0.000 C 
BRANCH   2   3
ATOM      3  C   UNL     1       0.343  -0.989   8.169  1.00  0.00     0.006 C 
BRANCH   3   4
ATOM      4  C   UNL     1       0.942   0.311   7.623  1.00  0.00     0.053 C 
BRANCH   4   5
ATOM      5  C   UNL     1      -0.026   0.987   6.704  1.00  0.00     0.041 C 
ATOM      6  O   UNL     1       0.375   1.498   5.626  1.00  0.00    -0.550 OA
ATOM      7  O   UNL     1      -1.364   1.096   7.061  1.00  0.00    -0.550 OA
ENDBRANCH   4   5
ENDBRANCH   3   4
ENDBRANCH   2   3
ENDBRANCH   1   2
BRANCH   1   8
ATOM      8  C   UNL     1       1.465  -3.535   8.610  1.00  0.00     0.000 C 
BRANCH   8   9
ATOM      9  C   UNL     1       2.260  -4.846   8.516  1.00  0.00     0.000 C 
BRANCH   9  10
ATOM     10  C   UNL     1       2.009  -5.544   7.171  1.00  0.00     0.006 C 
BRANCH  10  11
ATOM     11  C   UNL     1       3.291  -6.146   6.581  1.00  0.00     0.053 C 
BRANCH  11  12
ATOM     12  C   UNL     1       2.993  -7.134   5.495  1.00  0.00     0.041 C 
ATOM     13  O   UNL     1       2.377  -8.200   5.760  1.00  0.00    -0.550 OA
ATOM     14  O   UNL     1       3.425  -6.892   4.197  1.00  0.00    -0.550 OA
ENDBRANCH  11  12
ENDBRANCH  10  11
ENDBRANCH   9  10
ENDBRANCH   8   9
ENDBRANCH   1   8
TORSDOF 9
ENDMDL
MODEL 8
REMARK VINA RESULT:    -2.999      1.929      2.922
REMARK INTER + INTRA:          -5.399
REMARK INTER:                  -4.603
REMARK INTRA:                  -0.796
REMARK UNBOUND:                -0.822
REMARK SMILES O=C([O-])CCCCCCCCC(=O)[O-]
REMARK SMILES IDX 7 1 6 2 5 3 4 4 2 5 1 6 3 7 8 8 9 9 10 10 11 11 12 12 13 13
REMARK SMILES IDX 14 14
REMARK H PARENT
REMARK Flexibility Score: inf
ROOT
ATOM      1  C   UNL     1       1.063  -2.484   9.933  1.00  0.00     0.000 C 
ENDROOT
BRANCH   1   2
ATOM      2  C   UNL     1       1.482  -3.223   8.654  1.00  0.00     0.000 C 
BRANCH   2   3
ATOM      3  C   UNL     1       0.254  -3.642   7.835  1.00  0.00     0.006 C 
BRANCH   3   4
ATOM      4  C   UNL     1      -0.171  -2.528   6.873  1.00  0.00     0.053 C 
BRANCH   4   5
ATOM      5  C   UNL     1      -1.643  -2.282   6.975  1.00  0.00     0.041 C 
ATOM      6  O   UNL     1      -2.460  -3.171   6.619  1.00  0.00    -0.550 OA
ATOM      7  O   UNL     1      -2.113  -1.053   7.417  1.00  0.00    -0.550 OA
ENDBRANCH   4   5
ENDBRANCH   3   4
ENDBRANCH   2   3
ENDBRANCH   1   2
BRANCH   1   8
ATOM      8  C   UNL     1       1.569  -1.033   9.973  1.00  0.00     0.000 C 
BRANCH   8   9
ATOM      9  C   UNL     1       0.545  -0.033   9.414  1.00  0.00     0.000 C 
BRANCH   9  10
ATOM     10  C   UNL     1       1.153   0.790   8.269  1.00  0.00     0.006 C 
BRANCH  10  11
ATOM     11  C   UNL     1       0.254   1.963   7.856  1.00  0.00     0.053 C 
BRANCH  11  12
ATOM     12  C   UNL     1      -0.270   1.797   6.462  1.00  0.00     0.041 C 
ATOM     13  O   UNL     1      -1.457   2.118   6.188  1.00  0.00    -0.550 OA
ATOM     14  O   UNL     1       0.543   1.256   5.474  1.00  0.00    -0.550 OA
ENDBRANCH  11  12
ENDBRANCH  10  11
ENDBRANCH   9  10
ENDBRANCH   8   9
ENDBRANCH   1   8
TORSDOF 9
ENDMDL
MODEL 9
REMARK VINA RESULT:    -2.952      1.661      2.607
REMARK INTER + INTRA:          -5.327
REMARK INTER:                  -4.745
REMARK INTRA:                  -0.582
REMARK UNBOUND:                -0.822
REMARK SMILES O=C([O-])CCCCCCCCC(=O)[O-]
REMARK SMILES IDX 7 1 6 2 5 3 4 4 2 5 1 6 3 7 8 8 9 9 10 10 11 11 12 12 13 13
REMARK SMILES IDX 14 14
REMARK H PARENT
REMARK Flexibility Score: inf
ROOT
ATOM      1  C   UNL     1       0.249  -0.839   7.656  1.00  0.00     0.000 C 
ENDROOT
BRANCH   1   2
ATOM      2  C   UNL     1      -0.445  -2.094   7.106  1.00  0.00     0.000 C 
BRANCH   2   3
ATOM      3  C   UNL     1      -1.968  -1.914   7.084  1.00  0.00     0.006 C 
BRANCH   3   4
ATOM      4  C   UNL     1      -2.645  -3.054   6.318  1.00  0.00     0.053 C 
BRANCH   4   5
ATOM      5  C   UNL     1      -3.808  -2.538   5.530  1.00  0.00     0.041 C 
ATOM      6  O   UNL     1      -4.611  -1.719   6.049  1.00  0.00    -0.550 OA
ATOM      7  O   UNL     1      -4.033  -2.999   4.240  1.00  0.00    -0.550 OA
ENDBRANCH   4   5
ENDBRANCH   3   4
ENDBRANCH   2   3
ENDBRANCH   1   2
BRANCH   1   8
ATOM      8  C   UNL     1       0.914   0.003   6.555  1.00  0.00     0.000 C 
BRANCH   8   9
ATOM      9  C   UNL     1       0.078   1.230   6.162  1.00  0.00     0.000 C 
BRANCH   9  10
ATOM     10  C   UNL     1      -0.100   2.177   7.357  1.00  0.00     0.006 C 
BRANCH  10  11
ATOM     11  C   UNL     1      -1.572   2.322   7.769  1.00  0.00     0.053 C 
BRANCH  11  12
ATOM     12  C   UNL     1      -2.476   2.412   6.578  1.00  0.00     0.041 C 
ATOM     13  O   UNL     1      -2.568   3.489   5.932  1.00  0.00    -0.550 OA
ATOM     14  O   UNL     1      -3.242   1.315   6.203  1.00  0.00    -0.550 OA
ENDBRANCH  11  12
ENDBRANCH  10  11
ENDBRANCH   9  10
ENDBRANCH   8   9
ENDBRANCH   1   8
TORSDOF 9
ENDMDL
