MODEL 1
REMARK VINA RESULT:    -2.943      0.000      0.000
REMARK INTER + INTRA:          -3.949
REMARK INTER:                  -3.803
REMARK INTRA:                  -0.146
REMARK UNBOUND:                -0.146
REMARK SMILES CCCCCCC(=O)[O-]
REMARK SMILES IDX 5 1 6 2 7 3 8 4 9 5 4 6 3 7 2 8 1 9
REMARK H PARENT
REMARK Flexibility Score: inf
ROOT
ATOM      1  C   UNL     1      10.636  40.923 152.837  1.00  0.00     0.006 C 
ENDROOT
BRANCH   1   2
ATOM      2  C   UNL     1      11.785  41.904 152.587  1.00  0.00     0.053 C 
BRANCH   2   3
ATOM      3  C   UNL     1      11.919  42.857 153.732  1.00  0.00     0.041 C 
ATOM      4  O   UNL     1      12.728  43.819 153.664  1.00  0.00    -0.550 OA
ATOM      5  O   UNL     1      11.115  42.713 154.855  1.00  0.00    -0.550 OA
ENDBRANCH   2   3
ENDBRANCH   1   2
BRANCH   1   6
ATOM      6  C   UNL     1      10.611  39.822 151.770  1.00  0.00     0.000 C 
BRANCH   6   7
ATOM      7  C   UNL     1      11.997  39.630 151.144  1.00  0.00    -0.000 C 
BRANCH   7   8
ATOM      8  C   UNL     1      11.916  38.766 149.880  1.00  0.00    -0.003 C 
ATOM      9  C   UNL     1      13.122  37.838 149.768  1.00  0.00     0.004 C 
ENDBRANCH   7   8
ENDBRANCH   6   7
ENDBRANCH   1   6
TORSDOF 5
ENDMDL
MODEL 2
REMARK VINA RESULT:    -2.877      2.621      4.749
REMARK INTER + INTRA:          -3.864
REMARK INTER:                  -3.508
REMARK INTRA:                  -0.356
REMARK UNBOUND:                -0.146
REMARK SMILES CCCCCCC(=O)[O-]
REMARK SMILES IDX 5 1 6 2 7 3 8 4 9 5 4 6 3 7 2 8 1 9
REMARK H PARENT
REMARK Flexibility Score: inf
ROOT
ATOM      1  C   UNL     1      11.520  42.228 151.465  1.00  0.00     0.006 C 
ENDROOT
BRANCH   1   2
ATOM      2  C   UNL     1      11.917  40.791 151.815  1.00  0.00     0.053 C 
BRANCH   2   3
ATOM      3  C   UNL     1      10.705  39.918 151.901  1.00  0.00     0.041 C 
ATOM      4  O   UNL     1      10.506  39.024 151.038  1.00  0.00    -0.550 OA
ATOM      5  O   UNL     1       9.821  40.058 152.964  1.00  0.00    -0.550 OA
ENDBRANCH   2   3
ENDBRANCH   1   2
BRANCH   1   6
ATOM      6  C   UNL     1      12.227  43.233 152.382  1.00  0.00     0.000 C 
BRANCH   6   7
ATOM      7  C   UNL     1      12.066  42.841 153.856  1.00  0.00    -0.000 C 
BRANCH   7   8
ATOM      8  C   UNL     1      10.671  43.211 154.374  1.00  0.00    -0.003 C 
ATOM      9  C   UNL     1      10.291  42.366 155.586  1.00  0.00     0.004 C 
ENDBRANCH   7   8
ENDBRANCH   6   7
ENDBRANCH   1   6
TORSDOF 5
ENDMDL
MODEL 3
REMARK VINA RESULT:    -2.847      4.945      6.365
REMARK INTER + INTRA:          -3.825
REMARK INTER:                  -3.638
REMARK INTRA:                  -0.188
REMARK UNBOUND:                -0.146
REMARK SMILES CCCCCCC(=O)[O-]
REMARK SMILES IDX 5 1 6 2 7 3 8 4 9 5 4 6 3 7 2 8 1 9
REMARK H PARENT
REMARK Flexibility Score: inf
ROOT
ATOM      1  C   UNL     1      10.494  37.616 150.018  1.00  0.00     0.006 C 
ENDROOT
BRANCH   1   2
ATOM      2  C   UNL     1       9.029  37.307 149.695  1.00  0.00     0.053 C 
BRANCH   2   3
ATOM      3  C   UNL     1       8.816  35.831 149.584  1.00  0.00     0.041 C 
ATOM      4  O   UNL     1       9.794  35.042 149.668  1.00  0.00    -0.550 OA
ATOM      5  O   UNL     1       7.532  35.322 149.439  1.00  0.00    -0.550 OA
ENDBRANCH   2   3
ENDBRANCH   1   2
BRANCH   1   6
ATOM      6  C   UNL     1      10.752  39.127 150.011  1.00  0.00     0.000 C 
BRANCH   6   7
ATOM      7  C   UNL     1      11.914  39.492 150.942  1.00  0.00    -0.000 C 
BRANCH   7   8
ATOM      8  C   UNL     1      11.519  40.622 151.899  1.00  0.00    -0.003 C 
ATOM      9  C   UNL     1      10.220  40.296 152.631  1.00  0.00     0.004 C 
ENDBRANCH   7   8
ENDBRANCH   6   7
ENDBRANCH   1   6
TORSDOF 5
ENDMDL
MODEL 4
REMARK VINA RESULT:    -2.807      3.278      5.166
REMARK INTER + INTRA:          -3.774
REMARK INTER:                  -3.567
REMARK INTRA:                  -0.207
REMARK UNBOUND:                -0.146
REMARK SMILES CCCCCCC(=O)[O-]
REMARK SMILES IDX 5 1 6 2 7 3 8 4 9 5 4 6 3 7 2 8 1 9
REMARK H PARENT
REMARK Flexibility Score: inf
ROOT
ATOM      1  C   UNL     1      10.599  39.785 151.843  1.00  0.00     0.006 C 
ENDROOT
BRANCH   1   2
ATOM      2  C   UNL     1      11.956  39.699 151.138  1.00  0.00     0.053 C 
BRANCH   2   3
ATOM      3  C   UNL     1      11.874  38.796 149.949  1.00  0.00     0.041 C 
ATOM      4  O   UNL     1      11.013  37.878 149.910  1.00  0.00    -0.550 OA
ATOM      5  O   UNL     1      12.713  38.999 148.861  1.00  0.00    -0.550 OA
ENDBRANCH   2   3
ENDBRANCH   1   2
BRANCH   1   6
ATOM      6  C   UNL     1      10.545  40.992 152.788  1.00  0.00     0.000 C 
BRANCH   6   7
ATOM      7  C   UNL     1      11.755  41.910 152.578  1.00  0.00    -0.000 C 
BRANCH   7   8
ATOM      8  C   UNL     1      12.038  42.744 153.833  1.00  0.00    -0.003 C 
ATOM      9  C   UNL     1      10.841  42.738 154.780  1.00  0.00     0.004 C 
ENDBRANCH   7   8
ENDBRANCH   6   7
ENDBRANCH   1   6
TORSDOF 5
ENDMDL
MODEL 5
REMARK VINA RESULT:    -2.807      3.388      4.226
REMARK INTER + INTRA:          -3.773
REMARK INTER:                  -3.645
REMARK INTRA:                  -0.129
REMARK UNBOUND:                -0.146
REMARK SMILES CCCCCCC(=O)[O-]
REMARK SMILES IDX 5 1 6 2 7 3 8 4 9 5 4 6 3 7 2 8 1 9
REMARK H PARENT
REMARK Flexibility Score: inf
ROOT
ATOM      1  C   UNL     1      10.268  38.562 150.049  1.00  0.00     0.006 C 
ENDROOT
BRANCH   1   2
ATOM      2  C   UNL     1       9.655  39.579 151.016  1.00  0.00     0.053 C 
BRANCH   2   3
ATOM      3  C   UNL     1      10.694  40.102 151.956  1.00  0.00     0.041 C 
ATOM      4  O   UNL     1      10.376  40.444 153.125  1.00  0.00    -0.550 OA
ATOM      5  O   UNL     1      12.024  40.162 151.559  1.00  0.00    -0.550 OA
ENDBRANCH   2   3
ENDBRANCH   1   2
BRANCH   1   6
ATOM      6  C   UNL     1       9.310  37.390 149.804  1.00  0.00     0.000 C 
BRANCH   6   7
ATOM      7  C   UNL     1      10.033  36.047 149.953  1.00  0.00    -0.000 C 
BRANCH   7   8
ATOM      8  C   UNL     1       9.083  34.876 149.677  1.00  0.00    -0.003 C 
ATOM      9  C   UNL     1       7.922  35.306 148.786  1.00  0.00     0.004 C 
ENDBRANCH   7   8
ENDBRANCH   6   7
ENDBRANCH   1   6
TORSDOF 5
ENDMDL
MODEL 6
REMARK VINA RESULT:    -2.796      2.050      2.624
REMARK INTER + INTRA:          -3.760
REMARK INTER:                  -3.444
REMARK INTRA:                  -0.315
REMARK UNBOUND:                -0.146
REMARK SMILES CCCCCCC(=O)[O-]
REMARK SMILES IDX 5 1 6 2 7 3 8 4 9 5 4 6 3 7 2 8 1 9
REMARK H PARENT
REMARK Flexibility Score: inf
ROOT
ATOM      1  C   UNL     1      12.089  42.272 153.186  1.00  0.00     0.006 C 
ENDROOT
BRANCH   1   2
ATOM      2  C   UNL     1      11.275  43.130 154.159  1.00  0.00     0.053 C 
BRANCH   2   3
ATOM      3  C   UNL     1      10.249  42.298 154.860  1.00  0.00     0.041 C 
ATOM      4  O   UNL     1      10.070  42.424 156.099  1.00  0.00    -0.550 OA
ATOM      5  O   UNL     1       9.452  41.420 154.136  1.00  0.00    -0.550 OA
ENDBRANCH   2   3
ENDBRANCH   1   2
BRANCH   1   6
ATOM      6  C   UNL     1      11.858  42.715 151.736  1.00  0.00     0.000 C 
BRANCH   6   7
ATOM      7  C   UNL     1      11.919  41.520 150.778  1.00  0.00    -0.000 C 
BRANCH   7   8
ATOM      8  C   UNL     1      11.874  40.195 151.549  1.00  0.00    -0.003 C 
ATOM      9  C   UNL     1      10.606  39.411 151.226  1.00  0.00     0.004 C 
ENDBRANCH   7   8
ENDBRANCH   6   7
ENDBRANCH   1   6
TORSDOF 5
ENDMDL
MODEL 7
REMARK VINA RESULT:    -2.746      3.711      5.258
REMARK INTER + INTRA:          -3.694
REMARK INTER:                  -3.331
REMARK INTRA:                  -0.363
REMARK UNBOUND:                -0.146
REMARK SMILES CCCCCCC(=O)[O-]
REMARK SMILES IDX 5 1 6 2 7 3 8 4 9 5 4 6 3 7 2 8 1 9
REMARK H PARENT
REMARK Flexibility Score: inf
ROOT
ATOM      1  C   UNL     1      11.664  39.494 149.132  1.00  0.00     0.006 C 
ENDROOT
BRANCH   1   2
ATOM      2  C   UNL     1      11.646  38.233 150.002  1.00  0.00     0.053 C 
BRANCH   2   3
ATOM      3  C   UNL     1      10.289  37.606 149.987  1.00  0.00     0.041 C 
ATOM      4  O   UNL     1       9.258  38.326 149.941  1.00  0.00    -0.550 OA
ATOM      5  O   UNL     1      10.162  36.222 149.973  1.00  0.00    -0.550 OA
ENDBRANCH   2   3
ENDBRANCH   1   2
BRANCH   1   6
ATOM      6  C   UNL     1      11.850  40.752 149.990  1.00  0.00     0.000 C 
BRANCH   6   7
ATOM      7  C   UNL     1      12.019  40.389 151.470  1.00  0.00    -0.000 C 
BRANCH   7   8
ATOM      8  C   UNL     1      11.032  41.171 152.344  1.00  0.00    -0.003 C 
ATOM      9  C   UNL     1       9.943  40.257 152.899  1.00  0.00     0.004 C 
ENDBRANCH   7   8
ENDBRANCH   6   7
ENDBRANCH   1   6
TORSDOF 5
ENDMDL
MODEL 8
REMARK VINA RESULT:    -2.692      1.737      2.168
REMARK INTER + INTRA:          -3.625
REMARK INTER:                  -3.229
REMARK INTRA:                  -0.396
REMARK UNBOUND:                -0.146
REMARK SMILES CCCCCCC(=O)[O-]
REMARK SMILES IDX 5 1 6 2 7 3 8 4 9 5 4 6 3 7 2 8 1 9
REMARK H PARENT
REMARK Flexibility Score: inf
ROOT
ATOM      1  C   UNL     1       9.787  42.178 153.350  1.00  0.00     0.006 C 
ENDROOT
BRANCH   1   2
ATOM      2  C   UNL     1      10.675  42.837 154.410  1.00  0.00     0.053 C 
BRANCH   2   3
ATOM      3  C   UNL     1      11.980  43.259 153.813  1.00  0.00     0.041 C 
ATOM      4  O   UNL     1      13.062  42.971 154.388  1.00  0.00    -0.550 OA
ATOM      5  O   UNL     1      12.004  43.926 152.594  1.00  0.00    -0.550 OA
ENDBRANCH   2   3
ENDBRANCH   1   2
BRANCH   1   6
ATOM      6  C   UNL     1       9.930  40.652 153.384  1.00  0.00     0.000 C 
BRANCH   6   7
ATOM      7  C   UNL     1      10.245  40.097 151.990  1.00  0.00    -0.000 C 
BRANCH   7   8
ATOM      8  C   UNL     1      11.746  40.184 151.689  1.00  0.00    -0.003 C 
ATOM      9  C   UNL     1      12.018  41.093 150.495  1.00  0.00     0.004 C 
ENDBRANCH   7   8
ENDBRANCH   6   7
ENDBRANCH   1   6
TORSDOF 5
ENDMDL
MODEL 9
REMARK VINA RESULT:    -2.673      1.658      2.616
REMARK INTER + INTRA:          -3.600
REMARK INTER:                  -3.198
REMARK INTRA:                  -0.402
REMARK UNBOUND:                -0.146
REMARK SMILES CCCCCCC(=O)[O-]
REMARK SMILES IDX 5 1 6 2 7 3 8 4 9 5 4 6 3 7 2 8 1 9
REMARK H PARENT
REMARK Flexibility Score: inf
ROOT
ATOM      1  C   UNL     1      12.450  42.789 151.216  1.00  0.00     0.006 C 
ENDROOT
BRANCH   1   2
ATOM      2  C   UNL     1      11.363  43.689 151.811  1.00  0.00     0.053 C 
BRANCH   2   3
ATOM      3  C   UNL     1      11.578  43.870 153.280  1.00  0.00     0.041 C 
ATOM      4  O   UNL     1      10.984  44.792 153.898  1.00  0.00    -0.550 OA
ATOM      5  O   UNL     1      12.394  42.988 153.977  1.00  0.00    -0.550 OA
ENDBRANCH   2   3
ENDBRANCH   1   2
BRANCH   1   6
ATOM      6  C   UNL     1      11.838  41.544 150.563  1.00  0.00     0.000 C 
BRANCH   6   7
ATOM      7  C   UNL     1      11.949  40.327 151.487  1.00  0.00    -0.000 C 
BRANCH   7   8
ATOM      8  C   UNL     1      10.565  39.749 151.806  1.00  0.00    -0.003 C 
ATOM      9  C   UNL     1       9.961  40.413 153.039  1.00  0.00     0.004 C 
ENDBRANCH   7   8
ENDBRANCH   6   7
ENDBRANCH   1   6
TORSDOF 5
ENDMDL
