MODEL 1
REMARK VINA RESULT:    -4.279      0.000      0.000
REMARK INTER + INTRA:          -9.810
REMARK INTER:                  -7.782
REMARK INTRA:                  -2.028
REMARK UNBOUND:                -2.028
REMARK SMILES CCCCCCCCCCCCCC[C@@H](C)C(=O)[O-]
REMARK SMILES IDX 9 1 10 2 11 3 12 4 13 5 14 6 15 7 16 8 17 9 18 10 19 11 8 12
REMARK SMILES IDX 7 13 6 14 5 15 4 16 3 17 2 18 1 19
REMARK H PARENT
REMARK Flexibility Score: inf
ROOT
ATOM      1  C   UNL     1      -2.173  58.939  48.883  1.00  0.00     0.000 C 
ENDROOT
BRANCH   1   2
ATOM      2  C   UNL     1      -3.307  59.980  48.933  1.00  0.00     0.000 C 
BRANCH   2   3
ATOM      3  C   UNL     1      -4.030  60.138  47.585  1.00  0.00     0.000 C 
BRANCH   3   4
ATOM      4  C   UNL     1      -3.756  61.500  46.926  1.00  0.00     0.000 C 
BRANCH   4   5
ATOM      5  C   UNL     1      -3.994  61.475  45.405  1.00  0.00     0.001 C 
BRANCH   5   6
ATOM      6  C   UNL     1      -2.935  62.276  44.624  1.00  0.00     0.009 C 
BRANCH   6   7
ATOM      7  C   UNL     1      -1.692  62.669  45.456  1.00  0.00     0.032 C 
ATOM      8  C   UNL     1      -0.416  62.127  44.801  1.00  0.00     0.014 C 
BRANCH   7   9
ATOM      9  C   UNL     1      -1.586  64.160  45.626  1.00  0.00     0.044 C 
ATOM     10  O   UNL     1      -0.479  64.697  45.901  1.00  0.00    -0.550 OA
ATOM     11  O   UNL     1      -2.715  64.956  45.476  1.00  0.00    -0.550 OA
ENDBRANCH   7   9
ENDBRANCH   6   7
ENDBRANCH   5   6
ENDBRANCH   4   5
ENDBRANCH   3   4
ENDBRANCH   2   3
ENDBRANCH   1   2
BRANCH   1  12
ATOM     12  C   UNL     1      -2.633  57.469  48.955  1.00  0.00     0.000 C 
BRANCH  12  13
ATOM     13  C   UNL     1      -1.959  56.520  47.942  1.00  0.00    -0.000 C 
BRANCH  13  14
ATOM     14  C   UNL     1      -2.872  56.021  46.808  1.00  0.00    -0.000 C 
BRANCH  14  15
ATOM     15  C   UNL     1      -3.640  57.161  46.116  1.00  0.00    -0.000 C 
BRANCH  15  16
ATOM     16  C   UNL     1      -2.945  57.647  44.833  1.00  0.00    -0.000 C 
BRANCH  16  17
ATOM     17  C   UNL     1      -1.771  58.597  45.118  1.00  0.00    -0.000 C 
BRANCH  17  18
ATOM     18  C   UNL     1      -0.429  57.892  44.886  1.00  0.00    -0.003 C 
ATOM     19  C   UNL     1       0.429  58.657  43.882  1.00  0.00     0.004 C 
ENDBRANCH  17  18
ENDBRANCH  16  17
ENDBRANCH  15  16
ENDBRANCH  14  15
ENDBRANCH  13  14
ENDBRANCH  12  13
ENDBRANCH   1  12
TORSDOF 14
ENDMDL
MODEL 2
REMARK VINA RESULT:    -4.161      1.785      4.693
REMARK INTER + INTRA:          -9.594
REMARK INTER:                  -7.715
REMARK INTRA:                  -1.879
REMARK UNBOUND:                -2.028
REMARK SMILES CCCCCCCCCCCCCC[C@@H](C)C(=O)[O-]
REMARK SMILES IDX 9 1 10 2 11 3 12 4 13 5 14 6 15 7 16 8 17 9 18 10 19 11 8 12
REMARK SMILES IDX 7 13 6 14 5 15 4 16 3 17 2 18 1 19
REMARK H PARENT
REMARK Flexibility Score: inf
ROOT
ATOM      1  C   UNL     1      -2.067  58.792  48.876  1.00  0.00     0.000 C 
ENDROOT
BRANCH   1   2
ATOM      2  C   UNL     1      -2.258  57.294  49.176  1.00  0.00     0.000 C 
BRANCH   2   3
ATOM      3  C   UNL     1      -2.389  56.443  47.902  1.00  0.00     0.000 C 
BRANCH   3   4
ATOM      4  C   UNL     1      -1.573  57.012  46.729  1.00  0.00     0.000 C 
BRANCH   4   5
ATOM      5  C   UNL     1      -2.462  57.424  45.541  1.00  0.00     0.001 C 
BRANCH   5   6
ATOM      6  C   UNL     1      -1.647  57.943  44.340  1.00  0.00     0.009 C 
BRANCH   6   7
ATOM      7  C   UNL     1      -0.177  58.288  44.670  1.00  0.00     0.032 C 
ATOM      8  C   UNL     1       0.759  57.728  43.593  1.00  0.00     0.014 C 
BRANCH   7   9
ATOM      9  C   UNL     1       0.029  59.772  44.805  1.00  0.00     0.044 C 
ATOM     10  O   UNL     1      -0.120  60.341  45.920  1.00  0.00    -0.550 OA
ATOM     11  O   UNL     1       0.390  60.525  43.695  1.00  0.00    -0.550 OA
ENDBRANCH   7   9
ENDBRANCH   6   7
ENDBRANCH   5   6
ENDBRANCH   4   5
ENDBRANCH   3   4
ENDBRANCH   2   3
ENDBRANCH   1   2
BRANCH   1  12
ATOM     12  C   UNL     1      -3.359  59.634  48.902  1.00  0.00     0.000 C 
BRANCH  12  13
ATOM     13  C   UNL     1      -4.028  59.853  47.529  1.00  0.00    -0.000 C 
BRANCH  13  14
ATOM     14  C   UNL     1      -3.633  61.155  46.811  1.00  0.00    -0.000 C 
BRANCH  14  15
ATOM     15  C   UNL     1      -3.504  60.980  45.288  1.00  0.00    -0.000 C 
BRANCH  15  16
ATOM     16  C   UNL     1      -3.349  62.321  44.551  1.00  0.00    -0.000 C 
BRANCH  16  17
ATOM     17  C   UNL     1      -2.067  63.071  44.946  1.00  0.00    -0.000 C 
BRANCH  17  18
ATOM     18  C   UNL     1      -2.349  64.564  45.154  1.00  0.00    -0.003 C 
ATOM     19  C   UNL     1      -3.325  64.784  46.307  1.00  0.00     0.004 C 
ENDBRANCH  17  18
ENDBRANCH  16  17
ENDBRANCH  15  16
ENDBRANCH  14  15
ENDBRANCH  13  14
ENDBRANCH  12  13
ENDBRANCH   1  12
TORSDOF 14
ENDMDL
MODEL 3
REMARK VINA RESULT:    -4.146      1.257      4.130
REMARK INTER + INTRA:          -9.568
REMARK INTER:                  -7.365
REMARK INTRA:                  -2.203
REMARK UNBOUND:                -2.028
REMARK SMILES CCCCCCCCCCCCCC[C@@H](C)C(=O)[O-]
REMARK SMILES IDX 9 1 10 2 11 3 12 4 13 5 14 6 15 7 16 8 17 9 18 10 19 11 8 12
REMARK SMILES IDX 7 13 6 14 5 15 4 16 3 17 2 18 1 19
REMARK H PARENT
REMARK Flexibility Score: inf
ROOT
ATOM      1  C   UNL     1      -0.951  57.986  45.028  1.00  0.00     0.000 C 
ENDROOT
BRANCH   1   2
ATOM      2  C   UNL     1      -0.100  57.838  43.753  1.00  0.00     0.000 C 
BRANCH   2   3
ATOM      3  C   UNL     1       0.844  59.030  43.525  1.00  0.00     0.000 C 
BRANCH   3   4
ATOM      4  C   UNL     1       0.688  60.118  44.601  1.00  0.00     0.000 C 
BRANCH   4   5
ATOM      5  C   UNL     1       0.054  61.406  44.045  1.00  0.00     0.001 C 
BRANCH   5   6
ATOM      6  C   UNL     1      -0.196  62.465  45.136  1.00  0.00     0.009 C 
BRANCH   6   7
ATOM      7  C   UNL     1      -1.094  63.641  44.688  1.00  0.00     0.032 C 
ATOM      8  C   UNL     1      -1.055  63.794  43.162  1.00  0.00     0.014 C 
BRANCH   7   9
ATOM      9  C   UNL     1      -2.516  63.462  45.147  1.00  0.00     0.044 C 
ATOM     10  O   UNL     1      -2.899  63.943  46.247  1.00  0.00    -0.550 OA
ATOM     11  O   UNL     1      -3.417  62.765  44.353  1.00  0.00    -0.550 OA
ENDBRANCH   7   9
ENDBRANCH   6   7
ENDBRANCH   5   6
ENDBRANCH   4   5
ENDBRANCH   3   4
ENDBRANCH   2   3
ENDBRANCH   1   2
BRANCH   1  12
ATOM     12  C   UNL     1      -2.476  57.958  44.801  1.00  0.00     0.000 C 
BRANCH  12  13
ATOM     13  C   UNL     1      -3.239  59.198  45.310  1.00  0.00    -0.000 C 
BRANCH  13  14
ATOM     14  C   UNL     1      -2.540  59.978  46.438  1.00  0.00    -0.000 C 
BRANCH  14  15
ATOM     15  C   UNL     1      -3.525  60.514  47.492  1.00  0.00    -0.000 C 
BRANCH  15  16
ATOM     16  C   UNL     1      -3.461  59.728  48.812  1.00  0.00    -0.000 C 
BRANCH  16  17
ATOM     17  C   UNL     1      -2.282  58.744  48.861  1.00  0.00    -0.000 C 
BRANCH  17  18
ATOM     18  C   UNL     1      -2.780  57.296  48.935  1.00  0.00    -0.003 C 
ATOM     19  C   UNL     1      -1.869  56.358  48.147  1.00  0.00     0.004 C 
ENDBRANCH  17  18
ENDBRANCH  16  17
ENDBRANCH  15  16
ENDBRANCH  14  15
ENDBRANCH  13  14
ENDBRANCH  12  13
ENDBRANCH   1  12
TORSDOF 14
ENDMDL
MODEL 4
REMARK VINA RESULT:    -4.108     13.134     14.611
REMARK INTER + INTRA:          -9.498
REMARK INTER:                  -8.249
REMARK INTRA:                  -1.248
REMARK UNBOUND:                -2.028
REMARK SMILES CCCCCCCCCCCCCC[C@@H](C)C(=O)[O-]
REMARK SMILES IDX 9 1 10 2 11 3 12 4 13 5 14 6 15 7 16 8 17 9 18 10 19 11 8 12
REMARK SMILES IDX 7 13 6 14 5 15 4 16 3 17 2 18 1 19
REMARK H PARENT
REMARK Flexibility Score: inf
ROOT
ATOM      1  C   UNL     1       7.197  59.228  56.584  1.00  0.00     0.000 C 
ENDROOT
BRANCH   1   2
ATOM      2  C   UNL     1       6.443  60.496  57.027  1.00  0.00     0.000 C 
BRANCH   2   3
ATOM      3  C   UNL     1       6.475  60.706  58.550  1.00  0.00     0.000 C 
BRANCH   3   4
ATOM      4  C   UNL     1       7.202  62.001  58.951  1.00  0.00     0.000 C 
BRANCH   4   5
ATOM      5  C   UNL     1       8.540  62.176  58.209  1.00  0.00     0.001 C 
BRANCH   5   6
ATOM      6  C   UNL     1       9.310  63.433  58.660  1.00  0.00     0.009 C 
BRANCH   6   7
ATOM      7  C   UNL     1      10.189  64.070  57.559  1.00  0.00     0.032 C 
ATOM      8  C   UNL     1      10.211  63.180  56.310  1.00  0.00     0.014 C 
BRANCH   7   9
ATOM      9  C   UNL     1       9.711  65.450  57.196  1.00  0.00     0.044 C 
ATOM     10  O   UNL     1      10.302  66.119  56.306  1.00  0.00    -0.550 OA
ATOM     11  O   UNL     1       8.607  65.992  57.841  1.00  0.00    -0.550 OA
ENDBRANCH   7   9
ENDBRANCH   6   7
ENDBRANCH   5   6
ENDBRANCH   4   5
ENDBRANCH   3   4
ENDBRANCH   2   3
ENDBRANCH   1   2
BRANCH   1  12
ATOM     12  C   UNL     1       7.907  59.334  55.220  1.00  0.00     0.000 C 
BRANCH  12  13
ATOM     13  C   UNL     1       8.254  60.768  54.770  1.00  0.00    -0.000 C 
BRANCH  13  14
ATOM     14  C   UNL     1       8.012  61.061  53.278  1.00  0.00    -0.000 C 
BRANCH  14  15
ATOM     15  C   UNL     1       9.206  61.761  52.606  1.00  0.00    -0.000 C 
BRANCH  15  16
ATOM     16  C   UNL     1       8.781  62.648  51.424  1.00  0.00    -0.000 C 
BRANCH  16  17
ATOM     17  C   UNL     1       7.307  62.453  51.036  1.00  0.00    -0.000 C 
BRANCH  17  18
ATOM     18  C   UNL     1       7.158  62.289  49.518  1.00  0.00    -0.003 C 
ATOM     19  C   UNL     1       8.502  61.978  48.863  1.00  0.00     0.004 C 
ENDBRANCH  17  18
ENDBRANCH  16  17
ENDBRANCH  15  16
ENDBRANCH  14  15
ENDBRANCH  13  14
ENDBRANCH  12  13
ENDBRANCH   1  12
TORSDOF 14
ENDMDL
MODEL 5
REMARK VINA RESULT:    -4.093      3.091      6.341
REMARK INTER + INTRA:          -9.471
REMARK INTER:                  -7.544
REMARK INTRA:                  -1.926
REMARK UNBOUND:                -2.028
REMARK SMILES CCCCCCCCCCCCCC[C@@H](C)C(=O)[O-]
REMARK SMILES IDX 9 1 10 2 11 3 12 4 13 5 14 6 15 7 16 8 17 9 18 10 19 11 8 12
REMARK SMILES IDX 7 13 6 14 5 15 4 16 3 17 2 18 1 19
REMARK H PARENT
REMARK Flexibility Score: inf
ROOT
ATOM      1  C   UNL     1      -0.114  60.167  45.174  1.00  0.00     0.000 C 
ENDROOT
BRANCH   1   2
ATOM      2  C   UNL     1      -1.430  60.172  45.973  1.00  0.00     0.000 C 
BRANCH   2   3
ATOM      3  C   UNL     1      -2.673  60.070  45.073  1.00  0.00     0.000 C 
BRANCH   3   4
ATOM      4  C   UNL     1      -3.769  59.179  45.681  1.00  0.00     0.000 C 
BRANCH   4   5
ATOM      5  C   UNL     1      -3.518  57.682  45.427  1.00  0.00     0.001 C 
BRANCH   5   6
ATOM      6  C   UNL     1      -3.885  56.803  46.638  1.00  0.00     0.009 C 
BRANCH   6   7
ATOM      7  C   UNL     1      -2.673  56.349  47.485  1.00  0.00     0.032 C 
ATOM      8  C   UNL     1      -1.365  56.607  46.729  1.00  0.00     0.014 C 
BRANCH   7   9
ATOM      9  C   UNL     1      -2.637  57.041  48.821  1.00  0.00     0.044 C 
ATOM     10  O   UNL     1      -2.677  56.375  49.890  1.00  0.00    -0.550 OA
ATOM     11  O   UNL     1      -2.556  58.427  48.880  1.00  0.00    -0.550 OA
ENDBRANCH   7   9
ENDBRANCH   6   7
ENDBRANCH   5   6
ENDBRANCH   4   5
ENDBRANCH   3   4
ENDBRANCH   2   3
ENDBRANCH   1   2
BRANCH   1  12
ATOM     12  C   UNL     1       0.782  61.404  45.386  1.00  0.00     0.000 C 
BRANCH  12  13
ATOM     13  C   UNL     1       0.052  62.762  45.328  1.00  0.00    -0.000 C 
BRANCH  13  14
ATOM     14  C   UNL     1      -0.737  63.025  44.033  1.00  0.00    -0.000 C 
BRANCH  14  15
ATOM     15  C   UNL     1      -1.692  64.225  44.149  1.00  0.00    -0.000 C 
BRANCH  15  16
ATOM     16  C   UNL     1      -3.146  63.857  43.811  1.00  0.00    -0.000 C 
BRANCH  16  17
ATOM     17  C   UNL     1      -4.125  64.206  44.943  1.00  0.00    -0.000 C 
BRANCH  17  18
ATOM     18  C   UNL     1      -3.422  64.165  46.306  1.00  0.00    -0.003 C 
ATOM     19  C   UNL     1      -3.766  62.887  47.065  1.00  0.00     0.004 C 
ENDBRANCH  17  18
ENDBRANCH  16  17
ENDBRANCH  15  16
ENDBRANCH  14  15
ENDBRANCH  13  14
ENDBRANCH  12  13
ENDBRANCH   1  12
TORSDOF 14
ENDMDL
MODEL 6
REMARK VINA RESULT:    -4.048     14.269     15.759
REMARK INTER + INTRA:          -9.389
REMARK INTER:                  -7.825
REMARK INTRA:                  -1.564
REMARK UNBOUND:                -2.028
REMARK SMILES CCCCCCCCCCCCCC[C@@H](C)C(=O)[O-]
REMARK SMILES IDX 9 1 10 2 11 3 12 4 13 5 14 6 15 7 16 8 17 9 18 10 19 11 8 12
REMARK SMILES IDX 7 13 6 14 5 15 4 16 3 17 2 18 1 19
REMARK H PARENT
REMARK Flexibility Score: inf
ROOT
ATOM      1  C   UNL     1       7.857  61.862  60.644  1.00  0.00     0.000 C 
ENDROOT
BRANCH   1   2
ATOM      2  C   UNL     1       8.585  62.297  59.359  1.00  0.00     0.000 C 
BRANCH   2   3
ATOM      3  C   UNL     1      10.114  62.175  59.472  1.00  0.00     0.000 C 
BRANCH   3   4
ATOM      4  C   UNL     1      10.850  62.999  58.402  1.00  0.00     0.000 C 
BRANCH   4   5
ATOM      5  C   UNL     1       9.912  63.473  57.277  1.00  0.00     0.001 C 
BRANCH   5   6
ATOM      6  C   UNL     1      10.535  63.315  55.877  1.00  0.00     0.009 C 
BRANCH   6   7
ATOM      7  C   UNL     1      10.706  64.642  55.103  1.00  0.00     0.032 C 
ATOM      8  C   UNL     1      11.601  65.608  55.888  1.00  0.00     0.014 C 
BRANCH   7   9
ATOM      9  C   UNL     1      11.280  64.415  53.730  1.00  0.00     0.044 C 
ATOM     10  O   UNL     1      12.436  63.933  53.590  1.00  0.00    -0.550 OA
ATOM     11  O   UNL     1      10.530  64.735  52.605  1.00  0.00    -0.550 OA
ENDBRANCH   7   9
ENDBRANCH   6   7
ENDBRANCH   5   6
ENDBRANCH   4   5
ENDBRANCH   3   4
ENDBRANCH   2   3
ENDBRANCH   1   2
BRANCH   1  12
ATOM     12  C   UNL     1       6.362  61.525  60.465  1.00  0.00     0.000 C 
BRANCH  12  13
ATOM     13  C   UNL     1       6.054  60.453  59.400  1.00  0.00    -0.000 C 
BRANCH  13  14
ATOM     14  C   UNL     1       4.835  60.750  58.508  1.00  0.00    -0.000 C 
BRANCH  14  15
ATOM     15  C   UNL     1       5.202  60.872  57.018  1.00  0.00    -0.000 C 
BRANCH  15  16
ATOM     16  C   UNL     1       6.545  60.201  56.685  1.00  0.00    -0.000 C 
BRANCH  16  17
ATOM     17  C   UNL     1       7.462  61.098  55.838  1.00  0.00    -0.000 C 
BRANCH  17  18
ATOM     18  C   UNL     1       8.220  60.271  54.792  1.00  0.00    -0.003 C 
ATOM     19  C   UNL     1       8.672  61.142  53.623  1.00  0.00     0.004 C 
ENDBRANCH  17  18
ENDBRANCH  16  17
ENDBRANCH  15  16
ENDBRANCH  14  15
ENDBRANCH  13  14
ENDBRANCH  12  13
ENDBRANCH   1  12
TORSDOF 14
ENDMDL
MODEL 7
REMARK VINA RESULT:    -4.014      1.447      3.912
REMARK INTER + INTRA:          -9.327
REMARK INTER:                  -7.470
REMARK INTRA:                  -1.857
REMARK UNBOUND:                -2.028
REMARK SMILES CCCCCCCCCCCCCC[C@@H](C)C(=O)[O-]
REMARK SMILES IDX 9 1 10 2 11 3 12 4 13 5 14 6 15 7 16 8 17 9 18 10 19 11 8 12
REMARK SMILES IDX 7 13 6 14 5 15 4 16 3 17 2 18 1 19
REMARK H PARENT
REMARK Flexibility Score: inf
ROOT
ATOM      1  C   UNL     1      -1.190  59.210  45.286  1.00  0.00     0.000 C 
ENDROOT
BRANCH   1   2
ATOM      2  C   UNL     1       0.075  59.581  44.491  1.00  0.00     0.000 C 
BRANCH   2   3
ATOM      3  C   UNL     1       0.327  61.098  44.446  1.00  0.00     0.000 C 
BRANCH   3   4
ATOM      4  C   UNL     1      -0.774  61.899  45.161  1.00  0.00     0.000 C 
BRANCH   4   5
ATOM      5  C   UNL     1      -0.620  63.417  44.960  1.00  0.00     0.001 C 
BRANCH   5   6
ATOM      6  C   UNL     1      -1.727  64.226  45.664  1.00  0.00     0.009 C 
BRANCH   6   7
ATOM      7  C   UNL     1      -3.157  63.693  45.420  1.00  0.00     0.032 C 
ATOM      8  C   UNL     1      -4.125  64.258  46.467  1.00  0.00     0.014 C 
BRANCH   7   9
ATOM      9  C   UNL     1      -3.647  64.029  44.037  1.00  0.00     0.044 C 
ATOM     10  O   UNL     1      -4.007  65.203  43.751  1.00  0.00    -0.550 OA
ATOM     11  O   UNL     1      -3.700  63.040  43.063  1.00  0.00    -0.550 OA
ENDBRANCH   7   9
ENDBRANCH   6   7
ENDBRANCH   5   6
ENDBRANCH   4   5
ENDBRANCH   3   4
ENDBRANCH   2   3
ENDBRANCH   1   2
BRANCH   1  12
ATOM     12  C   UNL     1      -1.774  57.818  44.970  1.00  0.00     0.000 C 
BRANCH  12  13
ATOM     13  C   UNL     1      -3.288  57.667  45.229  1.00  0.00    -0.000 C 
BRANCH  13  14
ATOM     14  C   UNL     1      -3.659  56.808  46.451  1.00  0.00    -0.000 C 
BRANCH  14  15
ATOM     15  C   UNL     1      -2.489  56.634  47.435  1.00  0.00    -0.000 C 
BRANCH  15  16
ATOM     16  C   UNL     1      -2.734  57.348  48.775  1.00  0.00    -0.000 C 
BRANCH  16  17
ATOM     17  C   UNL     1      -2.243  58.804  48.770  1.00  0.00    -0.000 C 
BRANCH  17  18
ATOM     18  C   UNL     1      -3.424  59.779  48.866  1.00  0.00    -0.003 C 
ATOM     19  C   UNL     1      -3.608  60.551  47.562  1.00  0.00     0.004 C 
ENDBRANCH  17  18
ENDBRANCH  16  17
ENDBRANCH  15  16
ENDBRANCH  14  15
ENDBRANCH  13  14
ENDBRANCH  12  13
ENDBRANCH   1  12
TORSDOF 14
ENDMDL
MODEL 8
REMARK VINA RESULT:    -3.951      1.841      3.737
REMARK INTER + INTRA:          -9.214
REMARK INTER:                  -7.328
REMARK INTRA:                  -1.885
REMARK UNBOUND:                -2.028
REMARK SMILES CCCCCCCCCCCCCC[C@@H](C)C(=O)[O-]
REMARK SMILES IDX 9 1 10 2 11 3 12 4 13 5 14 6 15 7 16 8 17 9 18 10 19 11 8 12
REMARK SMILES IDX 7 13 6 14 5 15 4 16 3 17 2 18 1 19
REMARK H PARENT
REMARK Flexibility Score: inf
ROOT
ATOM      1  C   UNL     1      -2.121  59.673  45.256  1.00  0.00     0.000 C 
ENDROOT
BRANCH   1   2
ATOM      2  C   UNL     1      -3.405  60.500  45.453  1.00  0.00     0.000 C 
BRANCH   2   3
ATOM      3  C   UNL     1      -3.294  61.919  44.871  1.00  0.00     0.000 C 
BRANCH   3   4
ATOM      4  C   UNL     1      -2.187  62.747  45.546  1.00  0.00     0.000 C 
BRANCH   4   5
ATOM      5  C   UNL     1      -1.282  63.460  44.526  1.00  0.00     0.001 C 
BRANCH   5   6
ATOM      6  C   UNL     1      -0.338  62.491  43.788  1.00  0.00     0.009 C 
BRANCH   6   7
ATOM      7  C   UNL     1       1.160  62.694  44.110  1.00  0.00     0.032 C 
ATOM      8  C   UNL     1       1.557  64.161  43.906  1.00  0.00     0.014 C 
BRANCH   7   9
ATOM      9  C   UNL     1       1.491  62.265  45.514  1.00  0.00     0.044 C 
ATOM     10  O   UNL     1       1.129  61.136  45.941  1.00  0.00    -0.550 OA
ATOM     11  O   UNL     1       2.205  63.116  46.348  1.00  0.00    -0.550 OA
ENDBRANCH   7   9
ENDBRANCH   6   7
ENDBRANCH   5   6
ENDBRANCH   4   5
ENDBRANCH   3   4
ENDBRANCH   2   3
ENDBRANCH   1   2
BRANCH   1  12
ATOM     12  C   UNL     1      -2.347  58.172  44.982  1.00  0.00     0.000 C 
BRANCH  12  13
ATOM     13  C   UNL     1      -3.683  57.603  45.504  1.00  0.00    -0.000 C 
BRANCH  13  14
ATOM     14  C   UNL     1      -3.552  56.488  46.556  1.00  0.00    -0.000 C 
BRANCH  14  15
ATOM     15  C   UNL     1      -2.093  56.230  46.973  1.00  0.00    -0.000 C 
BRANCH  15  16
ATOM     16  C   UNL     1      -1.861  56.454  48.477  1.00  0.00    -0.000 C 
BRANCH  16  17
ATOM     17  C   UNL     1      -2.798  57.518  49.069  1.00  0.00    -0.000 C 
BRANCH  17  18
ATOM     18  C   UNL     1      -2.232  58.927  48.852  1.00  0.00    -0.003 C 
ATOM     19  C   UNL     1      -3.313  59.989  49.030  1.00  0.00     0.004 C 
ENDBRANCH  17  18
ENDBRANCH  16  17
ENDBRANCH  15  16
ENDBRANCH  14  15
ENDBRANCH  13  14
ENDBRANCH  12  13
ENDBRANCH   1  12
TORSDOF 14
ENDMDL
MODEL 9
REMARK VINA RESULT:    -3.871      3.195      6.483
REMARK INTER + INTRA:          -9.067
REMARK INTER:                  -7.167
REMARK INTRA:                  -1.900
REMARK UNBOUND:                -2.028
REMARK SMILES CCCCCCCCCCCCCC[C@@H](C)C(=O)[O-]
REMARK SMILES IDX 9 1 10 2 11 3 12 4 13 5 14 6 15 7 16 8 17 9 18 10 19 11 8 12
REMARK SMILES IDX 7 13 6 14 5 15 4 16 3 17 2 18 1 19
REMARK H PARENT
REMARK Flexibility Score: inf
ROOT
ATOM      1  C   UNL     1       0.715  60.419  44.747  1.00  0.00     0.000 C 
ENDROOT
BRANCH   1   2
ATOM      2  C   UNL     1       0.711  59.205  43.799  1.00  0.00     0.000 C 
BRANCH   2   3
ATOM      3  C   UNL     1      -0.286  58.116  44.230  1.00  0.00     0.000 C 
BRANCH   3   4
ATOM      4  C   UNL     1      -1.221  58.587  45.356  1.00  0.00     0.000 C 
BRANCH   4   5
ATOM      5  C   UNL     1      -2.674  58.123  45.145  1.00  0.00     0.001 C 
BRANCH   5   6
ATOM      6  C   UNL     1      -3.457  58.000  46.466  1.00  0.00     0.009 C 
BRANCH   6   7
ATOM      7  C   UNL     1      -2.609  58.247  47.734  1.00  0.00     0.032 C 
ATOM      8  C   UNL     1      -3.347  59.181  48.699  1.00  0.00     0.014 C 
BRANCH   7   9
ATOM      9  C   UNL     1      -2.265  56.959  48.432  1.00  0.00     0.044 C 
ATOM     10  O   UNL     1      -2.582  56.779  49.639  1.00  0.00    -0.550 OA
ATOM     11  O   UNL     1      -1.595  55.955  47.743  1.00  0.00    -0.550 OA
ENDBRANCH   7   9
ENDBRANCH   6   7
ENDBRANCH   5   6
ENDBRANCH   4   5
ENDBRANCH   3   4
ENDBRANCH   2   3
ENDBRANCH   1   2
BRANCH   1  12
ATOM     12  C   UNL     1       0.146  61.719  44.144  1.00  0.00     0.000 C 
BRANCH  12  13
ATOM     13  C   UNL     1      -0.874  62.463  45.030  1.00  0.00    -0.000 C 
BRANCH  13  14
ATOM     14  C   UNL     1      -2.342  62.047  44.826  1.00  0.00    -0.000 C 
BRANCH  14  15
ATOM     15  C   UNL     1      -3.058  61.719  46.148  1.00  0.00    -0.000 C 
BRANCH  15  16
ATOM     16  C   UNL     1      -3.752  62.945  46.764  1.00  0.00    -0.000 C 
BRANCH  16  17
ATOM     17  C   UNL     1      -4.110  64.012  45.717  1.00  0.00    -0.000 C 
BRANCH  17  18
ATOM     18  C   UNL     1      -3.925  65.423  46.289  1.00  0.00    -0.003 C 
ATOM     19  C   UNL     1      -2.456  65.709  46.586  1.00  0.00     0.004 C 
ENDBRANCH  17  18
ENDBRANCH  16  17
ENDBRANCH  15  16
ENDBRANCH  14  15
ENDBRANCH  13  14
ENDBRANCH  12  13
ENDBRANCH   1  12
TORSDOF 14
ENDMDL
