MODEL 1
REMARK VINA RESULT:    -3.044      0.000      0.000
REMARK INTER + INTRA:          -3.886
REMARK INTER:                  -3.755
REMARK INTRA:                  -0.131
REMARK UNBOUND:                -0.131
REMARK SMILES CCCCCC(=O)[O-]
REMARK SMILES IDX 4 1 5 2 6 3 7 4 8 5 3 6 2 7 1 8
REMARK H PARENT
REMARK Flexibility Score: inf
ROOT
ATOM      1  C   UNL     1      61.566  32.841  60.270  1.00  0.00     0.006 C 
ENDROOT
BRANCH   1   2
ATOM      2  C   UNL     1      62.370  31.548  60.464  1.00  0.00     0.053 C 
BRANCH   2   3
ATOM      3  C   UNL     1      61.639  30.560  61.319  1.00  0.00     0.041 C 
ATOM      4  O   UNL     1      60.525  30.860  61.823  1.00  0.00    -0.550 OA
ATOM      5  O   UNL     1      62.172  29.295  61.533  1.00  0.00    -0.550 OA
ENDBRANCH   2   3
ENDBRANCH   1   2
BRANCH   1   6
ATOM      6  C   UNL     1      62.441  34.096  60.407  1.00  0.00     0.000 C 
BRANCH   6   7
ATOM      7  C   UNL     1      63.897  33.719  60.700  1.00  0.00    -0.003 C 
ATOM      8  C   UNL     1      64.659  34.894  61.307  1.00  0.00     0.004 C 
ENDBRANCH   6   7
ENDBRANCH   1   6
TORSDOF 4
ENDMDL
MODEL 2
REMARK VINA RESULT:    -3.026     12.652     13.646
REMARK INTER + INTRA:          -3.865
REMARK INTER:                  -3.761
REMARK INTRA:                  -0.104
REMARK UNBOUND:                -0.131
REMARK SMILES CCCCCC(=O)[O-]
REMARK SMILES IDX 4 1 5 2 6 3 7 4 8 5 3 6 2 7 1 8
REMARK H PARENT
REMARK Flexibility Score: inf
ROOT
ATOM      1  C   UNL     1      56.309  28.825  50.465  1.00  0.00     0.006 C 
ENDROOT
BRANCH   1   2
ATOM      2  C   UNL     1      57.681  28.249  50.090  1.00  0.00     0.053 C 
BRANCH   2   3
ATOM      3  C   UNL     1      58.713  29.322  49.935  1.00  0.00     0.041 C 
ATOM      4  O   UNL     1      59.032  30.042  50.918  1.00  0.00    -0.550 OA
ATOM      5  O   UNL     1      59.348  29.507  48.714  1.00  0.00    -0.550 OA
ENDBRANCH   2   3
ENDBRANCH   1   2
BRANCH   1   6
ATOM      6  C   UNL     1      55.157  27.889  50.067  1.00  0.00     0.000 C 
BRANCH   6   7
ATOM      7  C   UNL     1      55.681  26.492  49.719  1.00  0.00    -0.003 C 
ATOM      8  C   UNL     1      54.597  25.644  49.061  1.00  0.00     0.004 C 
ENDBRANCH   6   7
ENDBRANCH   1   6
TORSDOF 4
ENDMDL
MODEL 3
REMARK VINA RESULT:    -3.021      1.071      1.362
REMARK INTER + INTRA:          -3.858
REMARK INTER:                  -3.757
REMARK INTRA:                  -0.101
REMARK UNBOUND:                -0.131
REMARK SMILES CCCCCC(=O)[O-]
REMARK SMILES IDX 4 1 5 2 6 3 7 4 8 5 3 6 2 7 1 8
REMARK H PARENT
REMARK Flexibility Score: inf
ROOT
ATOM      1  C   UNL     1      61.598  33.723  60.143  1.00  0.00     0.006 C 
ENDROOT
BRANCH   1   2
ATOM      2  C   UNL     1      62.103  32.323  60.519  1.00  0.00     0.053 C 
BRANCH   2   3
ATOM      3  C   UNL     1      60.977  31.348  60.675  1.00  0.00     0.041 C 
ATOM      4  O   UNL     1      60.730  30.840  61.801  1.00  0.00    -0.550 OA
ATOM      5  O   UNL     1      60.178  31.026  59.585  1.00  0.00    -0.550 OA
ENDBRANCH   2   3
ENDBRANCH   1   2
BRANCH   1   6
ATOM      6  C   UNL     1      62.581  34.827  60.560  1.00  0.00     0.000 C 
BRANCH   6   7
ATOM      7  C   UNL     1      63.994  34.262  60.742  1.00  0.00    -0.003 C 
ATOM      8  C   UNL     1      64.897  35.258  61.464  1.00  0.00     0.004 C 
ENDBRANCH   6   7
ENDBRANCH   1   6
TORSDOF 4
ENDMDL
MODEL 4
REMARK VINA RESULT:    -2.916      1.654      1.929
REMARK INTER + INTRA:          -3.729
REMARK INTER:                  -3.683
REMARK INTRA:                  -0.046
REMARK UNBOUND:                -0.131
REMARK SMILES CCCCCC(=O)[O-]
REMARK SMILES IDX 4 1 5 2 6 3 7 4 8 5 3 6 2 7 1 8
REMARK H PARENT
REMARK Flexibility Score: inf
ROOT
ATOM      1  C   UNL     1      61.273  31.759  60.130  1.00  0.00     0.006 C 
ENDROOT
BRANCH   1   2
ATOM      2  C   UNL     1      61.151  30.891  61.390  1.00  0.00     0.053 C 
BRANCH   2   3
ATOM      3  C   UNL     1      62.144  29.770  61.393  1.00  0.00     0.041 C 
ATOM      4  O   UNL     1      61.751  28.575  61.349  1.00  0.00    -0.550 OA
ATOM      5  O   UNL     1      63.506  30.046  61.410  1.00  0.00    -0.550 OA
ENDBRANCH   2   3
ENDBRANCH   1   2
BRANCH   1   6
ATOM      6  C   UNL     1      62.161  32.992  60.358  1.00  0.00     0.000 C 
BRANCH   6   7
ATOM      7  C   UNL     1      61.372  34.285  60.132  1.00  0.00    -0.003 C 
ATOM      8  C   UNL     1      62.117  35.492  60.696  1.00  0.00     0.004 C 
ENDBRANCH   6   7
ENDBRANCH   1   6
TORSDOF 4
ENDMDL
MODEL 5
REMARK VINA RESULT:    -2.915      1.306      2.109
REMARK INTER + INTRA:          -3.728
REMARK INTER:                  -3.620
REMARK INTRA:                  -0.108
REMARK UNBOUND:                -0.131
REMARK SMILES CCCCCC(=O)[O-]
REMARK SMILES IDX 4 1 5 2 6 3 7 4 8 5 3 6 2 7 1 8
REMARK H PARENT
REMARK Flexibility Score: inf
ROOT
ATOM      1  C   UNL     1      62.931  33.087  60.205  1.00  0.00     0.006 C 
ENDROOT
BRANCH   1   2
ATOM      2  C   UNL     1      61.544  32.438  60.307  1.00  0.00     0.053 C 
BRANCH   2   3
ATOM      3  C   UNL     1      61.588  31.147  61.066  1.00  0.00     0.041 C 
ATOM      4  O   UNL     1      62.592  30.392  60.974  1.00  0.00    -0.550 OA
ATOM      5  O   UNL     1      60.535  30.793  61.900  1.00  0.00    -0.550 OA
ENDBRANCH   2   3
ENDBRANCH   1   2
BRANCH   1   6
ATOM      6  C   UNL     1      62.917  34.559  60.644  1.00  0.00     0.000 C 
BRANCH   6   7
ATOM      7  C   UNL     1      61.535  35.184  60.422  1.00  0.00    -0.003 C 
ATOM      8  C   UNL     1      61.552  36.681  60.719  1.00  0.00     0.004 C 
ENDBRANCH   6   7
ENDBRANCH   1   6
TORSDOF 4
ENDMDL
MODEL 6
REMARK VINA RESULT:    -2.892      3.720      4.981
REMARK INTER + INTRA:          -3.700
REMARK INTER:                  -3.595
REMARK INTRA:                  -0.104
REMARK UNBOUND:                -0.131
REMARK SMILES CCCCCC(=O)[O-]
REMARK SMILES IDX 4 1 5 2 6 3 7 4 8 5 3 6 2 7 1 8
REMARK H PARENT
REMARK Flexibility Score: inf
ROOT
ATOM      1  C   UNL     1      62.484  34.966  60.674  1.00  0.00     0.006 C 
ENDROOT
BRANCH   1   2
ATOM      2  C   UNL     1      63.924  34.517  60.953  1.00  0.00     0.053 C 
BRANCH   2   3
ATOM      3  C   UNL     1      64.831  35.681  61.213  1.00  0.00     0.041 C 
ATOM      4  O   UNL     1      66.024  35.655  60.812  1.00  0.00    -0.550 OA
ATOM      5  O   UNL     1      64.349  36.807  61.866  1.00  0.00    -0.550 OA
ENDBRANCH   2   3
ENDBRANCH   1   2
BRANCH   1   6
ATOM      6  C   UNL     1      61.610  33.820  60.143  1.00  0.00     0.000 C 
BRANCH   6   7
ATOM      7  C   UNL     1      62.240  32.459  60.460  1.00  0.00    -0.003 C 
ATOM      8  C   UNL     1      61.176  31.437  60.853  1.00  0.00     0.004 C 
ENDBRANCH   6   7
ENDBRANCH   1   6
TORSDOF 4
ENDMDL
MODEL 7
REMARK VINA RESULT:    -2.880      2.982      4.421
REMARK INTER + INTRA:          -3.685
REMARK INTER:                  -3.624
REMARK INTRA:                  -0.061
REMARK UNBOUND:                -0.131
REMARK SMILES CCCCCC(=O)[O-]
REMARK SMILES IDX 4 1 5 2 6 3 7 4 8 5 3 6 2 7 1 8
REMARK H PARENT
REMARK Flexibility Score: inf
ROOT
ATOM      1  C   UNL     1      62.130  32.682  60.357  1.00  0.00     0.006 C 
ENDROOT
BRANCH   1   2
ATOM      2  C   UNL     1      61.628  34.119  60.155  1.00  0.00     0.053 C 
BRANCH   2   3
ATOM      3  C   UNL     1      62.585  35.127  60.713  1.00  0.00     0.041 C 
ATOM      4  O   UNL     1      62.220  36.320  60.884  1.00  0.00    -0.550 OA
ATOM      5  O   UNL     1      63.869  34.743  61.076  1.00  0.00    -0.550 OA
ENDBRANCH   2   3
ENDBRANCH   1   2
BRANCH   1   6
ATOM      6  C   UNL     1      61.024  31.642  60.126  1.00  0.00     0.000 C 
BRANCH   6   7
ATOM      7  C   UNL     1      60.818  30.774  61.371  1.00  0.00    -0.003 C 
ATOM      8  C   UNL     1      61.957  29.772  61.540  1.00  0.00     0.004 C 
ENDBRANCH   6   7
ENDBRANCH   1   6
TORSDOF 4
ENDMDL
MODEL 8
REMARK VINA RESULT:    -2.828     12.455     13.418
REMARK INTER + INTRA:          -3.620
REMARK INTER:                  -3.521
REMARK INTRA:                  -0.099
REMARK UNBOUND:                -0.131
REMARK SMILES CCCCCC(=O)[O-]
REMARK SMILES IDX 4 1 5 2 6 3 7 4 8 5 3 6 2 7 1 8
REMARK H PARENT
REMARK Flexibility Score: inf
ROOT
ATOM      1  C   UNL     1      57.230  28.528  50.338  1.00  0.00     0.006 C 
ENDROOT
BRANCH   1   2
ATOM      2  C   UNL     1      58.698  28.109  50.497  1.00  0.00     0.053 C 
BRANCH   2   3
ATOM      3  C   UNL     1      59.530  28.540  49.329  1.00  0.00     0.041 C 
ATOM      4  O   UNL     1      60.449  27.795  48.897  1.00  0.00    -0.550 OA
ATOM      5  O   UNL     1      59.271  29.749  48.696  1.00  0.00    -0.550 OA
ENDBRANCH   2   3
ENDBRANCH   1   2
BRANCH   1   6
ATOM      6  C   UNL     1      56.312  27.332  50.045  1.00  0.00     0.000 C 
BRANCH   6   7
ATOM      7  C   UNL     1      54.851  27.777  49.931  1.00  0.00    -0.003 C 
ATOM      8  C   UNL     1      54.704  29.269  50.216  1.00  0.00     0.004 C 
ENDBRANCH   6   7
ENDBRANCH   1   6
TORSDOF 4
ENDMDL
MODEL 9
REMARK VINA RESULT:    -2.801     12.879     13.275
REMARK INTER + INTRA:          -3.587
REMARK INTER:                  -3.502
REMARK INTRA:                  -0.085
REMARK UNBOUND:                -0.131
REMARK SMILES CCCCCC(=O)[O-]
REMARK SMILES IDX 4 1 5 2 6 3 7 4 8 5 3 6 2 7 1 8
REMARK H PARENT
REMARK Flexibility Score: inf
ROOT
ATOM      1  C   UNL     1      57.832  28.108  50.099  1.00  0.00     0.006 C 
ENDROOT
BRANCH   1   2
ATOM      2  C   UNL     1      56.399  28.555  50.419  1.00  0.00     0.053 C 
BRANCH   2   3
ATOM      3  C   UNL     1      55.382  27.610  49.859  1.00  0.00     0.041 C 
ATOM      4  O   UNL     1      54.224  28.018  49.579  1.00  0.00    -0.550 OA
ATOM      5  O   UNL     1      55.722  26.286  49.614  1.00  0.00    -0.550 OA
ENDBRANCH   2   3
ENDBRANCH   1   2
BRANCH   1   6
ATOM      6  C   UNL     1      58.716  29.275  49.637  1.00  0.00     0.000 C 
BRANCH   6   7
ATOM      7  C   UNL     1      59.967  28.764  48.914  1.00  0.00    -0.003 C 
ATOM      8  C   UNL     1      60.231  27.296  49.240  1.00  0.00     0.004 C 
ENDBRANCH   6   7
ENDBRANCH   1   6
TORSDOF 4
ENDMDL
