MODEL 1
REMARK VINA RESULT:    -4.515      0.000      0.000
REMARK INTER + INTRA:          -6.645
REMARK INTER:                  -5.834
REMARK INTRA:                  -0.811
REMARK UNBOUND:                -0.811
REMARK SMILES CO[C@@]1(CO)O[C@H](CO)[C@H](O)[C@@H]1O
REMARK SMILES IDX 3 1 12 2 10 3 7 4 6 5 2 6 1 7 4 8 5 9 13 11 11 13 8 15 9 16
REMARK H PARENT 5 10 13 12 11 14 9 17
REMARK Flexibility Score: inf
ROOT
ATOM      1  C   UNL     1      30.931  10.610  29.936  1.00  0.00     0.221 C 
ATOM      2  C   UNL     1      29.853   9.509  30.066  1.00  0.00     0.207 C 
ATOM      3  C   UNL     1      30.241   8.507  29.007  1.00  0.00     0.180 C 
ATOM      4  C   UNL     1      31.753   8.690  28.977  1.00  0.00     0.179 C 
ATOM      5  O   UNL     1      32.048  10.039  29.263  1.00  0.00    -0.337 OA
ENDROOT
BRANCH   1   6
ATOM      6  O   UNL     1      31.275  11.034  31.254  1.00  0.00    -0.349 OA
ATOM      7  C   UNL     1      30.998  12.402  31.481  1.00  0.00     0.198 C 
ENDBRANCH   1   6
BRANCH   1   8
ATOM      8  C   UNL     1      30.432  11.817  29.098  1.00  0.00     0.224 C 
BRANCH   8   9
ATOM      9  O   UNL     1      30.257  11.464  27.751  1.00  0.00    -0.391 OA
ATOM     10  H   UNL     1      30.789  12.106  27.214  1.00  0.00     0.210 HD
ENDBRANCH   8   9
ENDBRANCH   1   8
BRANCH   2  11
ATOM     11  O   UNL     1      28.542   9.989  29.895  1.00  0.00    -0.385 OA
ATOM     12  H   UNL     1      27.995   9.579  30.615  1.00  0.00     0.211 HD
ENDBRANCH   2  11
BRANCH   3  13
ATOM     13  O   UNL     1      29.666   8.841  27.767  1.00  0.00    -0.387 OA
ATOM     14  H   UNL     1      29.262   8.009  27.406  1.00  0.00     0.211 HD
ENDBRANCH   3  13
BRANCH   4  15
ATOM     15  C   UNL     1      32.391   8.279  27.642  1.00  0.00     0.191 C 
BRANCH  15  16
ATOM     16  O   UNL     1      32.091   9.220  26.648  1.00  0.00    -0.394 OA
ATOM     17  H   UNL     1      31.258   8.909  26.205  1.00  0.00     0.210 HD
ENDBRANCH  15  16
ENDBRANCH   4  15
TORSDOF 7
ENDMDL
MODEL 2
REMARK VINA RESULT:    -4.422      1.443      3.524
REMARK INTER + INTRA:          -6.526
REMARK INTER:                  -5.732
REMARK INTRA:                  -0.794
REMARK UNBOUND:                -0.811
REMARK SMILES CO[C@@]1(CO)O[C@H](CO)[C@H](O)[C@@H]1O
REMARK SMILES IDX 3 1 12 2 10 3 7 4 6 5 2 6 1 7 4 8 5 9 13 11 11 13 8 15 9 16
REMARK H PARENT 5 10 13 12 11 14 9 17
REMARK Flexibility Score: inf
ROOT
ATOM      1  C   UNL     1      30.857   8.427  28.699  1.00  0.00     0.221 C 
ATOM      2  C   UNL     1      30.995   9.311  29.959  1.00  0.00     0.207 C 
ATOM      3  C   UNL     1      30.278  10.583  29.580  1.00  0.00     0.180 C 
ATOM      4  C   UNL     1      29.227  10.045  28.618  1.00  0.00     0.179 C 
ATOM      5  O   UNL     1      29.769   8.937  27.935  1.00  0.00    -0.337 OA
ENDROOT
BRANCH   1   6
ATOM      6  O   UNL     1      30.611   7.091  29.133  1.00  0.00    -0.349 OA
ATOM      7  C   UNL     1      29.964   7.032  30.389  1.00  0.00     0.198 C 
ENDBRANCH   1   6
BRANCH   1   8
ATOM      8  C   UNL     1      32.130   8.475  27.811  1.00  0.00     0.224 C 
BRANCH   8   9
ATOM      9  O   UNL     1      31.938   9.301  26.692  1.00  0.00    -0.391 OA
ATOM     10  H   UNL     1      32.840   9.540  26.354  1.00  0.00     0.210 HD
ENDBRANCH   8   9
ENDBRANCH   1   8
BRANCH   2  11
ATOM     11  O   UNL     1      32.331   9.541  30.335  1.00  0.00    -0.385 OA
ATOM     12  H   UNL     1      32.493   8.997  31.150  1.00  0.00     0.211 HD
ENDBRANCH   2  11
BRANCH   3  13
ATOM     13  O   UNL     1      31.150  11.476  28.931  1.00  0.00    -0.387 OA
ATOM     14  H   UNL     1      31.102  11.268  27.962  1.00  0.00     0.211 HD
ENDBRANCH   3  13
BRANCH   4  15
ATOM     15  C   UNL     1      28.726  11.093  27.614  1.00  0.00     0.191 C 
BRANCH  15  16
ATOM     16  O   UNL     1      29.539  11.103  26.473  1.00  0.00    -0.394 OA
ATOM     17  H   UNL     1      29.002  10.705  25.737  1.00  0.00     0.210 HD
ENDBRANCH  15  16
ENDBRANCH   4  15
TORSDOF 7
ENDMDL
MODEL 3
REMARK VINA RESULT:    -4.300     10.384     12.117
REMARK INTER + INTRA:          -6.367
REMARK INTER:                  -5.550
REMARK INTRA:                  -0.817
REMARK UNBOUND:                -0.811
REMARK SMILES CO[C@@]1(CO)O[C@H](CO)[C@H](O)[C@@H]1O
REMARK SMILES IDX 3 1 12 2 10 3 7 4 6 5 2 6 1 7 4 8 5 9 13 11 11 13 8 15 9 16
REMARK H PARENT 5 10 13 12 11 14 9 17
REMARK Flexibility Score: inf
ROOT
ATOM      1  C   UNL     1      28.061  18.017  19.715  1.00  0.00     0.221 C 
ATOM      2  C   UNL     1      28.336  18.973  20.898  1.00  0.00     0.207 C 
ATOM      3  C   UNL     1      29.351  18.227  21.728  1.00  0.00     0.180 C 
ATOM      4  C   UNL     1      30.079  17.434  20.650  1.00  0.00     0.179 C 
ATOM      5  O   UNL     1      29.158  17.112  19.632  1.00  0.00    -0.337 OA
ENDROOT
BRANCH   1   6
ATOM      6  O   UNL     1      27.947  18.811  18.536  1.00  0.00    -0.349 OA
ATOM      7  C   UNL     1      26.694  18.669  17.897  1.00  0.00     0.198 C 
ENDBRANCH   1   6
BRANCH   1   8
ATOM      8  C   UNL     1      26.768  17.185  19.928  1.00  0.00     0.224 C 
BRANCH   8   9
ATOM      9  O   UNL     1      27.067  15.879  20.349  1.00  0.00    -0.391 OA
ATOM     10  H   UNL     1      27.315  15.365  19.537  1.00  0.00     0.210 HD
ENDBRANCH   8   9
ENDBRANCH   1   8
BRANCH   2  11
ATOM     11  O   UNL     1      27.182  19.300  21.632  1.00  0.00    -0.385 OA
ATOM     12  H   UNL     1      26.427  19.298  20.987  1.00  0.00     0.211 HD
ENDBRANCH   2  11
BRANCH   3  13
ATOM     13  O   UNL     1      28.717  17.370  22.646  1.00  0.00    -0.387 OA
ATOM     14  H   UNL     1      29.399  16.711  22.940  1.00  0.00     0.211 HD
ENDBRANCH   3  13
BRANCH   4  15
ATOM     15  C   UNL     1      30.751  16.159  21.178  1.00  0.00     0.191 C 
BRANCH  15  16
ATOM     16  O   UNL     1      29.788  15.184  21.468  1.00  0.00    -0.394 OA
ATOM     17  H   UNL     1      29.592  15.257  22.440  1.00  0.00     0.210 HD
ENDBRANCH  15  16
ENDBRANCH   4  15
TORSDOF 7
ENDMDL
MODEL 4
REMARK VINA RESULT:    -4.256     10.502     12.461
REMARK INTER + INTRA:          -6.311
REMARK INTER:                  -5.465
REMARK INTRA:                  -0.846
REMARK UNBOUND:                -0.811
REMARK SMILES CO[C@@]1(CO)O[C@H](CO)[C@H](O)[C@@H]1O
REMARK SMILES IDX 3 1 12 2 10 3 7 4 6 5 2 6 1 7 4 8 5 9 13 11 11 13 8 15 9 16
REMARK H PARENT 5 10 13 12 11 14 9 17
REMARK Flexibility Score: inf
ROOT
ATOM      1  C   UNL     1      21.388   2.748  24.456  1.00  0.00     0.221 C 
ATOM      2  C   UNL     1      22.366   1.791  25.175  1.00  0.00     0.207 C 
ATOM      3  C   UNL     1      22.780   2.564  26.402  1.00  0.00     0.180 C 
ATOM      4  C   UNL     1      21.528   3.392  26.658  1.00  0.00     0.179 C 
ATOM      5  O   UNL     1      20.927   3.691  25.417  1.00  0.00    -0.337 OA
ENDROOT
BRANCH   1   6
ATOM      6  O   UNL     1      20.316   1.962  23.938  1.00  0.00    -0.349 OA
ATOM      7  C   UNL     1      20.333   1.871  22.528  1.00  0.00     0.198 C 
ENDBRANCH   1   6
BRANCH   1   8
ATOM      8  C   UNL     1      22.079   3.533  23.308  1.00  0.00     0.224 C 
BRANCH   8   9
ATOM      9  O   UNL     1      22.417   4.834  23.713  1.00  0.00    -0.391 OA
ATOM     10  H   UNL     1      22.586   5.357  22.886  1.00  0.00     0.210 HD
ENDBRANCH   8   9
ENDBRANCH   1   8
BRANCH   2  11
ATOM     11  O   UNL     1      23.465   1.417  24.381  1.00  0.00    -0.385 OA
ATOM     12  H   UNL     1      23.224   0.554  23.953  1.00  0.00     0.211 HD
ENDBRANCH   2  11
BRANCH   3  13
ATOM     13  O   UNL     1      23.885   3.390  26.125  1.00  0.00    -0.387 OA
ATOM     14  H   UNL     1      24.618   2.794  25.819  1.00  0.00     0.211 HD
ENDBRANCH   3  13
BRANCH   4  15
ATOM     15  C   UNL     1      21.799   4.685  27.440  1.00  0.00     0.191 C 
BRANCH  15  16
ATOM     16  O   UNL     1      22.398   5.642  26.609  1.00  0.00    -0.394 OA
ATOM     17  H   UNL     1      23.201   5.975  27.091  1.00  0.00     0.210 HD
ENDBRANCH  15  16
ENDBRANCH   4  15
TORSDOF 7
ENDMDL
MODEL 5
REMARK VINA RESULT:    -4.186      9.861     11.329
REMARK INTER + INTRA:          -6.220
REMARK INTER:                  -5.353
REMARK INTRA:                  -0.867
REMARK UNBOUND:                -0.811
REMARK SMILES CO[C@@]1(CO)O[C@H](CO)[C@H](O)[C@@H]1O
REMARK SMILES IDX 3 1 12 2 10 3 7 4 6 5 2 6 1 7 4 8 5 9 13 11 11 13 8 15 9 16
REMARK H PARENT 5 10 13 12 11 14 9 17
REMARK Flexibility Score: inf
ROOT
ATOM      1  C   UNL     1      22.378   3.247  27.303  1.00  0.00     0.221 C 
ATOM      2  C   UNL     1      21.815   4.431  26.485  1.00  0.00     0.207 C 
ATOM      3  C   UNL     1      21.820   3.917  25.067  1.00  0.00     0.180 C 
ATOM      4  C   UNL     1      21.605   2.427  25.300  1.00  0.00     0.179 C 
ATOM      5  O   UNL     1      22.220   2.070  26.518  1.00  0.00    -0.337 OA
ENDROOT
BRANCH   1   6
ATOM      6  O   UNL     1      21.634   3.170  28.518  1.00  0.00    -0.349 OA
ATOM      7  C   UNL     1      22.445   2.887  29.641  1.00  0.00     0.198 C 
ENDBRANCH   1   6
BRANCH   1   8
ATOM      8  C   UNL     1      23.889   3.419  27.611  1.00  0.00     0.224 C 
BRANCH   8   9
ATOM      9  O   UNL     1      24.679   2.698  26.701  1.00  0.00    -0.391 OA
ATOM     10  H   UNL     1      25.106   3.363  26.101  1.00  0.00     0.210 HD
ENDBRANCH   8   9
ENDBRANCH   1   8
BRANCH   2  11
ATOM     11  O   UNL     1      22.562   5.614  26.628  1.00  0.00    -0.385 OA
ATOM     12  H   UNL     1      22.715   5.735  27.601  1.00  0.00     0.211 HD
ENDBRANCH   2  11
BRANCH   3  13
ATOM     13  O   UNL     1      23.061   4.159  24.451  1.00  0.00    -0.387 OA
ATOM     14  H   UNL     1      23.445   4.963  24.887  1.00  0.00     0.211 HD
ENDBRANCH   3  13
BRANCH   4  15
ATOM     15  C   UNL     1      22.138   1.547  24.160  1.00  0.00     0.191 C 
BRANCH  15  16
ATOM     16  O   UNL     1      23.511   1.318  24.322  1.00  0.00    -0.394 OA
ATOM     17  H   UNL     1      23.599   0.503  24.883  1.00  0.00     0.210 HD
ENDBRANCH  15  16
ENDBRANCH   4  15
TORSDOF 7
ENDMDL
MODEL 6
REMARK VINA RESULT:    -4.094      1.696      3.034
REMARK INTER + INTRA:          -6.101
REMARK INTER:                  -5.226
REMARK INTRA:                  -0.875
REMARK UNBOUND:                -0.811
REMARK SMILES CO[C@@]1(CO)O[C@H](CO)[C@H](O)[C@@H]1O
REMARK SMILES IDX 3 1 12 2 10 3 7 4 6 5 2 6 1 7 4 8 5 9 13 11 11 13 8 15 9 16
REMARK H PARENT 5 10 13 12 11 14 9 17
REMARK Flexibility Score: inf
ROOT
ATOM      1  C   UNL     1      29.790  10.079  29.052  1.00  0.00     0.221 C 
ATOM      2  C   UNL     1      30.134   9.131  27.881  1.00  0.00     0.207 C 
ATOM      3  C   UNL     1      30.721   7.921  28.564  1.00  0.00     0.180 C 
ATOM      4  C   UNL     1      29.969   7.946  29.889  1.00  0.00     0.179 C 
ATOM      5  O   UNL     1      29.712   9.289  30.234  1.00  0.00    -0.337 OA
ENDROOT
BRANCH   1   6
ATOM      6  O   UNL     1      28.541  10.699  28.754  1.00  0.00    -0.349 OA
ATOM      7  C   UNL     1      28.046  11.481  29.822  1.00  0.00     0.198 C 
ENDBRANCH   1   6
BRANCH   1   8
ATOM      8  C   UNL     1      30.885  11.158  29.268  1.00  0.00     0.224 C 
BRANCH   8   9
ATOM      9  O   UNL     1      31.819  10.749  30.233  1.00  0.00    -0.391 OA
ATOM     10  H   UNL     1      31.958  11.519  30.843  1.00  0.00     0.210 HD
ENDBRANCH   8   9
ENDBRANCH   1   8
BRANCH   2  11
ATOM     11  O   UNL     1      31.018   9.698  26.944  1.00  0.00    -0.385 OA
ATOM     12  H   UNL     1      30.697   9.417  26.048  1.00  0.00     0.211 HD
ENDBRANCH   2  11
BRANCH   3  13
ATOM     13  O   UNL     1      32.104   8.079  28.764  1.00  0.00    -0.387 OA
ATOM     14  H   UNL     1      32.256   8.060  29.744  1.00  0.00     0.211 HD
ENDBRANCH   3  13
BRANCH   4  15
ATOM     15  C   UNL     1      30.717   7.240  31.029  1.00  0.00     0.191 C 
BRANCH  15  16
ATOM     16  O   UNL     1      31.628   8.118  31.631  1.00  0.00    -0.394 OA
ATOM     17  H   UNL     1      31.089   8.810  32.098  1.00  0.00     0.210 HD
ENDBRANCH  15  16
ENDBRANCH   4  15
TORSDOF 7
ENDMDL
MODEL 7
REMARK VINA RESULT:    -4.087      9.352     11.039
REMARK INTER + INTRA:          -6.093
REMARK INTER:                  -5.215
REMARK INTRA:                  -0.878
REMARK UNBOUND:                -0.811
REMARK SMILES CO[C@@]1(CO)O[C@H](CO)[C@H](O)[C@@H]1O
REMARK SMILES IDX 3 1 12 2 10 3 7 4 6 5 2 6 1 7 4 8 5 9 13 11 11 13 8 15 9 16
REMARK H PARENT 5 10 13 12 11 14 9 17
REMARK Flexibility Score: inf
ROOT
ATOM      1  C   UNL     1      30.522  17.477  21.876  1.00  0.00     0.221 C 
ATOM      2  C   UNL     1      30.093  16.239  21.055  1.00  0.00     0.207 C 
ATOM      3  C   UNL     1      28.757  16.641  20.482  1.00  0.00     0.180 C 
ATOM      4  C   UNL     1      28.941  18.147  20.349  1.00  0.00     0.179 C 
ATOM      5  O   UNL     1      29.778  18.590  21.393  1.00  0.00    -0.337 OA
ENDROOT
BRANCH   1   6
ATOM      6  O   UNL     1      31.923  17.659  21.681  1.00  0.00    -0.349 OA
ATOM      7  C   UNL     1      32.667  17.519  22.875  1.00  0.00     0.198 C 
ENDBRANCH   1   6
BRANCH   1   8
ATOM      8  C   UNL     1      30.209  17.310  23.387  1.00  0.00     0.224 C 
BRANCH   8   9
ATOM      9  O   UNL     1      29.012  17.956  23.733  1.00  0.00    -0.391 OA
ATOM     10  H   UNL     1      28.281  17.475  23.266  1.00  0.00     0.210 HD
ENDBRANCH   8   9
ENDBRANCH   1   8
BRANCH   2  11
ATOM     11  O   UNL     1      30.015  15.062  21.821  1.00  0.00    -0.385 OA
ATOM     12  H   UNL     1      29.090  14.717  21.716  1.00  0.00     0.211 HD
ENDBRANCH   2  11
BRANCH   3  13
ATOM     13  O   UNL     1      27.715  16.335  21.376  1.00  0.00    -0.387 OA
ATOM     14  H   UNL     1      27.127  17.134  21.413  1.00  0.00     0.211 HD
ENDBRANCH   3  13
BRANCH   4  15
ATOM     15  C   UNL     1      27.619  18.927  20.362  1.00  0.00     0.191 C 
BRANCH  15  16
ATOM     16  O   UNL     1      27.213  19.176  21.680  1.00  0.00    -0.394 OA
ATOM     17  H   UNL     1      26.234  19.007  21.713  1.00  0.00     0.210 HD
ENDBRANCH  15  16
ENDBRANCH   4  15
TORSDOF 7
ENDMDL
MODEL 8
REMARK VINA RESULT:    -4.009      1.931      4.050
REMARK INTER + INTRA:          -5.992
REMARK INTER:                  -5.476
REMARK INTRA:                  -0.516
REMARK UNBOUND:                -0.811
REMARK SMILES CO[C@@]1(CO)O[C@H](CO)[C@H](O)[C@@H]1O
REMARK SMILES IDX 3 1 12 2 10 3 7 4 6 5 2 6 1 7 4 8 5 9 13 11 11 13 8 15 9 16
REMARK H PARENT 5 10 13 12 11 14 9 17
REMARK Flexibility Score: inf
ROOT
ATOM      1  C   UNL     1      30.220  10.527  29.525  1.00  0.00     0.221 C 
ATOM      2  C   UNL     1      29.533  11.321  28.390  1.00  0.00     0.207 C 
ATOM      3  C   UNL     1      28.298  11.883  29.048  1.00  0.00     0.180 C 
ATOM      4  C   UNL     1      28.783  12.044  30.483  1.00  0.00     0.179 C 
ATOM      5  O   UNL     1      29.710  11.018  30.760  1.00  0.00    -0.337 OA
ENDROOT
BRANCH   1   6
ATOM      6  O   UNL     1      31.625  10.744  29.415  1.00  0.00    -0.349 OA
ATOM      7  C   UNL     1      32.303  10.591  30.646  1.00  0.00     0.198 C 
ENDBRANCH   1   6
BRANCH   1   8
ATOM      8  C   UNL     1      29.905   9.009  29.447  1.00  0.00     0.224 C 
BRANCH   8   9
ATOM      9  O   UNL     1      30.566   8.407  28.364  1.00  0.00    -0.391 OA
ATOM     10  H   UNL     1      31.380   8.947  28.189  1.00  0.00     0.210 HD
ENDBRANCH   8   9
ENDBRANCH   1   8
BRANCH   2  11
ATOM     11  O   UNL     1      29.230  10.535  27.264  1.00  0.00    -0.385 OA
ATOM     12  H   UNL     1      28.541  11.032  26.750  1.00  0.00     0.211 HD
ENDBRANCH   2  11
BRANCH   3  13
ATOM     13  O   UNL     1      27.231  10.970  28.974  1.00  0.00    -0.387 OA
ATOM     14  H   UNL     1      27.232  10.459  29.825  1.00  0.00     0.211 HD
ENDBRANCH   3  13
BRANCH   4  15
ATOM     15  C   UNL     1      27.648  12.026  31.517  1.00  0.00     0.191 C 
BRANCH  15  16
ATOM     16  O   UNL     1      26.493  12.613  30.984  1.00  0.00    -0.394 OA
ATOM     17  H   UNL     1      25.727  12.050  31.274  1.00  0.00     0.210 HD
ENDBRANCH  15  16
ENDBRANCH   4  15
TORSDOF 7
ENDMDL
MODEL 9
REMARK VINA RESULT:    -3.919      1.622      3.527
REMARK INTER + INTRA:          -5.876
REMARK INTER:                  -5.013
REMARK INTRA:                  -0.863
REMARK UNBOUND:                -0.811
REMARK SMILES CO[C@@]1(CO)O[C@H](CO)[C@H](O)[C@@H]1O
REMARK SMILES IDX 3 1 12 2 10 3 7 4 6 5 2 6 1 7 4 8 5 9 13 11 11 13 8 15 9 16
REMARK H PARENT 5 10 13 12 11 14 9 17
REMARK Flexibility Score: inf
ROOT
ATOM      1  C   UNL     1      31.872   9.147  29.526  1.00  0.00     0.221 C 
ATOM      2  C   UNL     1      31.927   9.187  27.982  1.00  0.00     0.207 C 
ATOM      3  C   UNL     1      30.654   9.901  27.601  1.00  0.00     0.180 C 
ATOM      4  C   UNL     1      30.463  10.813  28.805  1.00  0.00     0.179 C 
ATOM      5  O   UNL     1      30.962  10.157  29.949  1.00  0.00    -0.337 OA
ENDROOT
BRANCH   1   6
ATOM      6  O   UNL     1      33.190   9.394  30.012  1.00  0.00    -0.349 OA
ATOM      7  C   UNL     1      33.589   8.475  31.010  1.00  0.00     0.198 C 
ENDBRANCH   1   6
BRANCH   1   8
ATOM      8  C   UNL     1      31.353   7.782  30.055  1.00  0.00     0.224 C 
BRANCH   8   9
ATOM      9  O   UNL     1      29.957   7.689  29.938  1.00  0.00    -0.391 OA
ATOM     10  H   UNL     1      29.644   7.118  30.688  1.00  0.00     0.210 HD
ENDBRANCH   8   9
ENDBRANCH   1   8
BRANCH   2  11
ATOM     11  O   UNL     1      32.024   7.913  27.394  1.00  0.00    -0.385 OA
ATOM     12  H   UNL     1      32.503   8.035  26.533  1.00  0.00     0.211 HD
ENDBRANCH   2  11
BRANCH   3  13
ATOM     13  O   UNL     1      29.587   8.992  27.479  1.00  0.00    -0.387 OA
ATOM     14  H   UNL     1      29.224   9.098  26.562  1.00  0.00     0.211 HD
ENDBRANCH   3  13
BRANCH   4  15
ATOM     15  C   UNL     1      29.003  11.232  29.029  1.00  0.00     0.191 C 
BRANCH  15  16
ATOM     16  O   UNL     1      28.350  10.304  29.850  1.00  0.00    -0.394 OA
ATOM     17  H   UNL     1      29.027   9.622  30.103  1.00  0.00     0.210 HD
ENDBRANCH  15  16
ENDBRANCH   4  15
TORSDOF 7
ENDMDL
