MODEL 1
REMARK VINA RESULT:    -8.157      0.000      0.000
REMARK INTER + INTRA:         -10.815
REMARK INTER:                 -10.303
REMARK INTRA:                  -0.512
REMARK UNBOUND:                -0.512
REMARK SMILES CC(C)[C@@H](C)C=C[C@H](C)[C@H]1CC[C@H]2C3=CC=C4C[C@H](O)CC[C@@]4(C)[C@H]3CC[C@]12C
REMARK SMILES IDX 8 1 9 2 7 3 6 4 4 5 5 6 2 7 1 8 3 9 10 10 11 11 28 12 12 13
REMARK SMILES IDX 13 14 27 15 29 16 14 17 26 18 25 19 15 20 23 21 16 22 17 23
REMARK SMILES IDX 22 24 24 25 18 26 21 27 19 28 20 29
REMARK H PARENT 20 30
REMARK Flexibility Score: inf
ROOT
ATOM      1  C   UNL     1      -4.644  21.764  48.323  1.00  0.00     0.012 C 
ATOM      2  C   UNL     1      -5.061  22.692  47.173  1.00  0.00     0.012 C 
ENDROOT
BRANCH   1   3
ATOM      3  C   UNL     1      -4.231  20.430  47.735  1.00  0.00    -0.028 C 
ATOM      4  C   UNL     1      -4.094  19.320  48.487  1.00  0.00    -0.028 C 
BRANCH   4   5
ATOM      5  C   UNL     1      -3.569  18.010  47.931  1.00  0.00     0.011 C 
ATOM      6  C   UNL     1      -2.792  17.203  48.990  1.00  0.00     0.012 C 
BRANCH   5   7
ATOM      7  C   UNL     1      -2.802  18.198  46.585  1.00  0.00    -0.011 C 
ATOM      8  C   UNL     1      -1.276  18.040  46.695  1.00  0.00     0.008 C 
ATOM      9  C   UNL     1      -3.342  17.273  45.484  1.00  0.00     0.008 C 
ENDBRANCH   5   7
ENDBRANCH   4   5
ENDBRANCH   1   3
BRANCH   1  10
ATOM     10  C   UNL     1      -3.507  22.292  49.256  1.00  0.00     0.002 C 
ATOM     11  C   UNL     1      -2.088  22.313  48.649  1.00  0.00     0.005 C 
ATOM     12  C   UNL     1      -3.618  23.666  49.975  1.00  0.00    -0.023 C 
ATOM     13  C   UNL     1      -1.272  23.293  49.522  1.00  0.00     0.009 C 
ATOM     14  C   UNL     1      -2.237  23.705  50.636  1.00  0.00     0.021 C 
ATOM     15  C   UNL     1      -4.673  23.734  51.099  1.00  0.00     0.008 C 
ATOM     16  C   UNL     1      -3.800  24.864  48.985  1.00  0.00     0.012 C 
ATOM     17  C   UNL     1      -2.004  24.973  51.420  1.00  0.00    -0.063 C 
ATOM     18  C   UNL     1      -4.559  25.067  51.873  1.00  0.00     0.009 C 
ATOM     19  C   UNL     1      -3.113  25.421  52.367  1.00  0.00     0.025 C 
ATOM     20  C   UNL     1      -0.758  25.407  51.640  1.00  0.00    -0.000 C 
ATOM     21  C   UNL     1      -2.935  26.918  52.848  1.00  0.00    -0.005 C 
ATOM     22  C   UNL     1      -0.478  26.497  52.581  1.00  0.00    -0.000 C 
ATOM     23  C   UNL     1      -1.461  27.207  53.165  1.00  0.00    -0.061 C 
ATOM     24  C   UNL     1      -3.342  27.958  51.760  1.00  0.00     0.014 C 
ATOM     25  C   UNL     1      -3.816  27.110  54.115  1.00  0.00     0.017 C 
ATOM     26  C   UNL     1      -1.112  28.595  53.648  1.00  0.00     0.063 C 
ATOM     27  C   UNL     1      -3.015  29.415  52.158  1.00  0.00     0.033 C 
ATOM     28  C   UNL     1      -1.533  29.600  52.560  1.00  0.00     0.118 C 
BRANCH  28  29
ATOM     29  O   UNL     1      -1.296  30.921  52.971  1.00  0.00    -0.393 OA
ATOM     30  H   UNL     1      -0.752  30.887  53.801  1.00  0.00     0.210 HD
ENDBRANCH  28  29
ENDBRANCH   1  10
TORSDOF 5
ENDMDL
MODEL 2
REMARK VINA RESULT:    -7.840      2.300      3.866
REMARK INTER + INTRA:         -10.415
REMARK INTER:                  -9.278
REMARK INTRA:                  -1.136
REMARK UNBOUND:                -0.512
REMARK SMILES CC(C)[C@@H](C)C=C[C@H](C)[C@H]1CC[C@H]2C3=CC=C4C[C@H](O)CC[C@@]4(C)[C@H]3CC[C@]12C
REMARK SMILES IDX 8 1 9 2 7 3 6 4 4 5 5 6 2 7 1 8 3 9 10 10 11 11 28 12 12 13
REMARK SMILES IDX 13 14 27 15 29 16 14 17 26 18 25 19 15 20 23 21 16 22 17 23
REMARK SMILES IDX 22 24 24 25 18 26 21 27 19 28 20 29
REMARK H PARENT 20 30
REMARK Flexibility Score: inf
ROOT
ATOM      1  C   UNL     1      -0.517  20.926  46.613  1.00  0.00     0.012 C 
ATOM      2  C   UNL     1       0.967  20.881  46.218  1.00  0.00     0.012 C 
ENDROOT
BRANCH   1   3
ATOM      3  C   UNL     1      -1.002  19.504  46.811  1.00  0.00    -0.028 C 
ATOM      4  C   UNL     1      -2.206  19.085  46.378  1.00  0.00    -0.028 C 
BRANCH   4   5
ATOM      5  C   UNL     1      -2.750  17.699  46.673  1.00  0.00     0.011 C 
ATOM      6  C   UNL     1      -3.496  17.102  45.464  1.00  0.00     0.012 C 
BRANCH   5   7
ATOM      7  C   UNL     1      -3.556  17.647  48.008  1.00  0.00    -0.011 C 
ATOM      8  C   UNL     1      -2.687  17.506  49.270  1.00  0.00     0.008 C 
ATOM      9  C   UNL     1      -4.497  18.852  48.157  1.00  0.00     0.008 C 
ENDBRANCH   5   7
ENDBRANCH   4   5
ENDBRANCH   1   3
BRANCH   1  10
ATOM     10  C   UNL     1      -0.867  21.773  47.879  1.00  0.00     0.002 C 
ATOM     11  C   UNL     1       0.304  22.548  48.520  1.00  0.00     0.005 C 
ATOM     12  C   UNL     1      -2.028  22.806  47.870  1.00  0.00    -0.023 C 
ATOM     13  C   UNL     1      -0.346  23.647  49.390  1.00  0.00     0.009 C 
ATOM     14  C   UNL     1      -1.850  23.383  49.277  1.00  0.00     0.021 C 
ATOM     15  C   UNL     1      -3.445  22.199  47.793  1.00  0.00     0.008 C 
ATOM     16  C   UNL     1      -1.853  23.917  46.782  1.00  0.00     0.012 C 
ATOM     17  C   UNL     1      -2.843  24.475  49.588  1.00  0.00    -0.063 C 
ATOM     18  C   UNL     1      -4.518  23.294  47.993  1.00  0.00     0.009 C 
ATOM     19  C   UNL     1      -4.306  24.201  49.255  1.00  0.00     0.025 C 
ATOM     20  C   UNL     1      -2.558  25.401  50.509  1.00  0.00    -0.000 C 
ATOM     21  C   UNL     1      -5.191  25.514  49.272  1.00  0.00    -0.005 C 
ATOM     22  C   UNL     1      -3.575  26.336  51.002  1.00  0.00    -0.000 C 
ATOM     23  C   UNL     1      -4.805  26.404  50.460  1.00  0.00    -0.061 C 
ATOM     24  C   UNL     1      -4.991  26.396  48.002  1.00  0.00     0.014 C 
ATOM     25  C   UNL     1      -6.679  25.074  49.377  1.00  0.00     0.017 C 
ATOM     26  C   UNL     1      -5.560  27.702  50.632  1.00  0.00     0.063 C 
ATOM     27  C   UNL     1      -5.721  27.756  48.086  1.00  0.00     0.033 C 
ATOM     28  C   UNL     1      -5.352  28.547  49.362  1.00  0.00     0.118 C 
BRANCH  28  29
ATOM     29  O   UNL     1      -6.082  29.745  49.426  1.00  0.00    -0.393 OA
ATOM     30  H   UNL     1      -7.032  29.512  49.599  1.00  0.00     0.210 HD
ENDBRANCH  28  29
ENDBRANCH   1  10
TORSDOF 5
ENDMDL
MODEL 3
REMARK VINA RESULT:    -7.794      4.327      6.227
REMARK INTER + INTRA:         -10.357
REMARK INTER:                  -9.194
REMARK INTRA:                  -1.163
REMARK UNBOUND:                -0.512
REMARK SMILES CC(C)[C@@H](C)C=C[C@H](C)[C@H]1CC[C@H]2C3=CC=C4C[C@H](O)CC[C@@]4(C)[C@H]3CC[C@]12C
REMARK SMILES IDX 8 1 9 2 7 3 6 4 4 5 5 6 2 7 1 8 3 9 10 10 11 11 28 12 12 13
REMARK SMILES IDX 13 14 27 15 29 16 14 17 26 18 25 19 15 20 23 21 16 22 17 23
REMARK SMILES IDX 22 24 24 25 18 26 21 27 19 28 20 29
REMARK H PARENT 20 30
REMARK Flexibility Score: inf
ROOT
ATOM      1  C   UNL     1      -3.791  24.646  50.666  1.00  0.00     0.012 C 
ATOM      2  C   UNL     1      -4.305  24.346  52.081  1.00  0.00     0.012 C 
ENDROOT
BRANCH   1   3
ATOM      3  C   UNL     1      -3.245  23.363  50.072  1.00  0.00    -0.028 C 
ATOM      4  C   UNL     1      -3.226  23.132  48.746  1.00  0.00    -0.028 C 
BRANCH   4   5
ATOM      5  C   UNL     1      -2.792  21.807  48.148  1.00  0.00     0.011 C 
ATOM      6  C   UNL     1      -1.654  21.980  47.123  1.00  0.00     0.012 C 
BRANCH   5   7
ATOM      7  C   UNL     1      -3.998  20.965  47.625  1.00  0.00    -0.011 C 
ATOM      8  C   UNL     1      -4.212  19.634  48.364  1.00  0.00     0.008 C 
ATOM      9  C   UNL     1      -5.304  21.775  47.623  1.00  0.00     0.008 C 
ENDBRANCH   5   7
ENDBRANCH   4   5
ENDBRANCH   1   3
BRANCH   1  10
ATOM     10  C   UNL     1      -4.824  25.276  49.677  1.00  0.00     0.002 C 
ATOM     11  C   UNL     1      -6.307  24.937  49.941  1.00  0.00     0.005 C 
ATOM     12  C   UNL     1      -4.844  26.802  49.384  1.00  0.00    -0.023 C 
ATOM     13  C   UNL     1      -7.124  26.017  49.197  1.00  0.00     0.009 C 
ATOM     14  C   UNL     1      -6.071  26.857  48.469  1.00  0.00     0.021 C 
ATOM     15  C   UNL     1      -3.639  27.330  48.577  1.00  0.00     0.008 C 
ATOM     16  C   UNL     1      -5.062  27.671  50.667  1.00  0.00     0.012 C 
ATOM     17  C   UNL     1      -6.393  28.258  48.012  1.00  0.00    -0.063 C 
ATOM     18  C   UNL     1      -3.860  28.806  48.172  1.00  0.00     0.009 C 
ATOM     19  C   UNL     1      -5.237  29.101  47.483  1.00  0.00     0.025 C 
ATOM     20  C   UNL     1      -7.639  28.575  47.645  1.00  0.00    -0.000 C 
ATOM     21  C   UNL     1      -5.601  30.639  47.382  1.00  0.00    -0.005 C 
ATOM     22  C   UNL     1      -7.946  29.848  46.984  1.00  0.00    -0.000 C 
ATOM     23  C   UNL     1      -7.024  30.817  46.835  1.00  0.00    -0.061 C 
ATOM     24  C   UNL     1      -5.589  31.357  48.765  1.00  0.00     0.014 C 
ATOM     25  C   UNL     1      -4.563  31.304  46.435  1.00  0.00     0.017 C 
ATOM     26  C   UNL     1      -7.532  32.230  46.667  1.00  0.00     0.063 C 
ATOM     27  C   UNL     1      -6.104  32.813  48.700  1.00  0.00     0.033 C 
ATOM     28  C   UNL     1      -7.501  32.916  48.045  1.00  0.00     0.118 C 
BRANCH  28  29
ATOM     29  O   UNL     1      -7.902  34.258  47.951  1.00  0.00    -0.393 OA
ATOM     30  H   UNL     1      -8.701  34.295  47.363  1.00  0.00     0.210 HD
ENDBRANCH  28  29
ENDBRANCH   1  10
TORSDOF 5
ENDMDL
MODEL 4
REMARK VINA RESULT:    -7.643      3.684      5.700
REMARK INTER + INTRA:         -10.165
REMARK INTER:                  -9.071
REMARK INTRA:                  -1.095
REMARK UNBOUND:                -0.512
REMARK SMILES CC(C)[C@@H](C)C=C[C@H](C)[C@H]1CC[C@H]2C3=CC=C4C[C@H](O)CC[C@@]4(C)[C@H]3CC[C@]12C
REMARK SMILES IDX 8 1 9 2 7 3 6 4 4 5 5 6 2 7 1 8 3 9 10 10 11 11 28 12 12 13
REMARK SMILES IDX 13 14 27 15 29 16 14 17 26 18 25 19 15 20 23 21 16 22 17 23
REMARK SMILES IDX 22 24 24 25 18 26 21 27 19 28 20 29
REMARK H PARENT 20 30
REMARK Flexibility Score: inf
ROOT
ATOM      1  C   UNL     1      -1.715  23.706  50.479  1.00  0.00     0.012 C 
ATOM      2  C   UNL     1      -1.108  23.360  51.847  1.00  0.00     0.012 C 
ENDROOT
BRANCH   1   3
ATOM      3  C   UNL     1      -1.551  22.507  49.566  1.00  0.00    -0.028 C 
ATOM      4  C   UNL     1      -2.597  21.769  49.149  1.00  0.00    -0.028 C 
BRANCH   4   5
ATOM      5  C   UNL     1      -2.435  20.500  48.333  1.00  0.00     0.011 C 
ATOM      6  C   UNL     1      -1.299  20.620  47.297  1.00  0.00     0.012 C 
BRANCH   5   7
ATOM      7  C   UNL     1      -3.787  19.996  47.739  1.00  0.00    -0.011 C 
ATOM      8  C   UNL     1      -4.358  18.747  48.432  1.00  0.00     0.008 C 
ATOM      9  C   UNL     1      -4.849  21.105  47.709  1.00  0.00     0.008 C 
ENDBRANCH   5   7
ENDBRANCH   4   5
ENDBRANCH   1   3
BRANCH   1  10
ATOM     10  C   UNL     1      -3.213  24.152  50.483  1.00  0.00     0.002 C 
ATOM     11  C   UNL     1      -3.763  24.664  51.831  1.00  0.00     0.005 C 
ATOM     12  C   UNL     1      -3.757  25.178  49.451  1.00  0.00    -0.023 C 
ATOM     13  C   UNL     1      -5.030  25.478  51.486  1.00  0.00     0.009 C 
ATOM     14  C   UNL     1      -5.191  25.308  49.973  1.00  0.00     0.021 C 
ATOM     15  C   UNL     1      -3.837  24.668  47.997  1.00  0.00     0.008 C 
ATOM     16  C   UNL     1      -3.015  26.556  49.504  1.00  0.00     0.012 C 
ATOM     17  C   UNL     1      -6.013  26.291  49.176  1.00  0.00    -0.063 C 
ATOM     18  C   UNL     1      -4.574  25.689  47.100  1.00  0.00     0.009 C 
ATOM     19  C   UNL     1      -5.957  26.175  47.656  1.00  0.00     0.025 C 
ATOM     20  C   UNL     1      -7.068  26.894  49.735  1.00  0.00    -0.000 C 
ATOM     21  C   UNL     1      -6.542  27.452  46.926  1.00  0.00    -0.005 C 
ATOM     22  C   UNL     1      -8.021  27.673  48.938  1.00  0.00    -0.000 C 
ATOM     23  C   UNL     1      -7.813  27.939  47.635  1.00  0.00    -0.061 C 
ATOM     24  C   UNL     1      -5.561  28.664  46.943  1.00  0.00     0.014 C 
ATOM     25  C   UNL     1      -6.854  27.050  45.457  1.00  0.00     0.017 C 
ATOM     26  C   UNL     1      -8.509  29.152  47.062  1.00  0.00     0.063 C 
ATOM     27  C   UNL     1      -6.186  29.961  46.383  1.00  0.00     0.033 C 
ATOM     28  C   UNL     1      -7.515  30.327  47.083  1.00  0.00     0.118 C 
BRANCH  28  29
ATOM     29  O   UNL     1      -8.077  31.476  46.502  1.00  0.00    -0.393 OA
ATOM     30  H   UNL     1      -8.682  31.889  47.173  1.00  0.00     0.210 HD
ENDBRANCH  28  29
ENDBRANCH   1  10
TORSDOF 5
ENDMDL
MODEL 5
REMARK VINA RESULT:    -7.614      4.838      8.776
REMARK INTER + INTRA:         -10.129
REMARK INTER:                  -9.661
REMARK INTRA:                  -0.468
REMARK UNBOUND:                -0.512
REMARK SMILES CC(C)[C@@H](C)C=C[C@H](C)[C@H]1CC[C@H]2C3=CC=C4C[C@H](O)CC[C@@]4(C)[C@H]3CC[C@]12C
REMARK SMILES IDX 8 1 9 2 7 3 6 4 4 5 5 6 2 7 1 8 3 9 10 10 11 11 28 12 12 13
REMARK SMILES IDX 13 14 27 15 29 16 14 17 26 18 25 19 15 20 23 21 16 22 17 23
REMARK SMILES IDX 22 24 24 25 18 26 21 27 19 28 20 29
REMARK H PARENT 20 30
REMARK Flexibility Score: inf
ROOT
ATOM      1  C   UNL     1      -5.774  28.891  48.913  1.00  0.00     0.012 C 
ATOM      2  C   UNL     1      -4.407  29.579  48.790  1.00  0.00     0.012 C 
ENDROOT
BRANCH   1   3
ATOM      3  C   UNL     1      -6.499  29.026  47.589  1.00  0.00    -0.028 C 
ATOM      4  C   UNL     1      -7.694  29.636  47.479  1.00  0.00    -0.028 C 
BRANCH   4   5
ATOM      5  C   UNL     1      -8.482  29.674  46.182  1.00  0.00     0.011 C 
ATOM      6  C   UNL     1      -8.741  31.117  45.705  1.00  0.00     0.012 C 
BRANCH   5   7
ATOM      7  C   UNL     1      -9.760  28.781  46.235  1.00  0.00    -0.011 C 
ATOM      8  C   UNL     1      -9.998  28.092  47.589  1.00  0.00     0.008 C 
ATOM      9  C   UNL     1     -11.019  29.557  45.818  1.00  0.00     0.008 C 
ENDBRANCH   5   7
ENDBRANCH   4   5
ENDBRANCH   1   3
BRANCH   1  10
ATOM     10  C   UNL     1      -5.753  27.388  49.341  1.00  0.00     0.002 C 
ATOM     11  C   UNL     1      -7.091  26.629  49.214  1.00  0.00     0.005 C 
ATOM     12  C   UNL     1      -4.710  26.393  48.761  1.00  0.00    -0.023 C 
ATOM     13  C   UNL     1      -6.723  25.128  49.205  1.00  0.00     0.009 C 
ATOM     14  C   UNL     1      -5.208  25.106  49.425  1.00  0.00     0.021 C 
ATOM     15  C   UNL     1      -3.256  26.622  49.224  1.00  0.00     0.008 C 
ATOM     16  C   UNL     1      -4.772  26.279  47.201  1.00  0.00     0.012 C 
ATOM     17  C   UNL     1      -4.396  23.897  49.031  1.00  0.00    -0.063 C 
ATOM     18  C   UNL     1      -2.346  25.465  48.752  1.00  0.00     0.009 C 
ATOM     19  C   UNL     1      -2.878  24.029  49.089  1.00  0.00     0.025 C 
ATOM     20  C   UNL     1      -4.937  22.676  49.093  1.00  0.00    -0.000 C 
ATOM     21  C   UNL     1      -2.135  22.860  48.320  1.00  0.00    -0.005 C 
ATOM     22  C   UNL     1      -4.123  21.465  48.942  1.00  0.00    -0.000 C 
ATOM     23  C   UNL     1      -2.823  21.516  48.598  1.00  0.00    -0.061 C 
ATOM     24  C   UNL     1      -2.166  23.037  46.772  1.00  0.00     0.014 C 
ATOM     25  C   UNL     1      -0.662  22.836  48.817  1.00  0.00     0.017 C 
ATOM     26  C   UNL     1      -2.235  20.287  47.944  1.00  0.00     0.063 C 
ATOM     27  C   UNL     1      -1.593  21.822  46.009  1.00  0.00     0.033 C 
ATOM     28  C   UNL     1      -2.270  20.494  46.419  1.00  0.00     0.118 C 
BRANCH  28  29
ATOM     29  O   UNL     1      -1.678  19.412  45.748  1.00  0.00    -0.393 OA
ATOM     30  H   UNL     1      -2.368  18.704  45.646  1.00  0.00     0.210 HD
ENDBRANCH  28  29
ENDBRANCH   1  10
TORSDOF 5
ENDMDL
MODEL 6
REMARK VINA RESULT:    -7.503      4.347      6.904
REMARK INTER + INTRA:          -9.989
REMARK INTER:                  -9.384
REMARK INTRA:                  -0.604
REMARK UNBOUND:                -0.512
REMARK SMILES CC(C)[C@@H](C)C=C[C@H](C)[C@H]1CC[C@H]2C3=CC=C4C[C@H](O)CC[C@@]4(C)[C@H]3CC[C@]12C
REMARK SMILES IDX 8 1 9 2 7 3 6 4 4 5 5 6 2 7 1 8 3 9 10 10 11 11 28 12 12 13
REMARK SMILES IDX 13 14 27 15 29 16 14 17 26 18 25 19 15 20 23 21 16 22 17 23
REMARK SMILES IDX 22 24 24 25 18 26 21 27 19 28 20 29
REMARK H PARENT 20 30
REMARK Flexibility Score: inf
ROOT
ATOM      1  C   UNL     1      -0.763  24.344  53.984  1.00  0.00     0.012 C 
ATOM      2  C   UNL     1      -1.149  22.912  53.585  1.00  0.00     0.012 C 
ENDROOT
BRANCH   1   3
ATOM      3  C   UNL     1       0.624  24.633  53.445  1.00  0.00    -0.028 C 
ATOM      4  C   UNL     1       1.350  23.709  52.787  1.00  0.00    -0.028 C 
BRANCH   4   5
ATOM      5  C   UNL     1       2.782  23.949  52.347  1.00  0.00     0.011 C 
ATOM      6  C   UNL     1       2.967  23.721  50.833  1.00  0.00     0.012 C 
BRANCH   5   7
ATOM      7  C   UNL     1       3.815  23.190  53.237  1.00  0.00    -0.011 C 
ATOM      8  C   UNL     1       3.204  22.094  54.125  1.00  0.00     0.008 C 
ATOM      9  C   UNL     1       4.966  22.604  52.405  1.00  0.00     0.008 C 
ENDBRANCH   5   7
ENDBRANCH   4   5
ENDBRANCH   1   3
BRANCH   1  10
ATOM     10  C   UNL     1      -1.742  25.473  53.527  1.00  0.00     0.002 C 
ATOM     11  C   UNL     1      -1.134  26.887  53.404  1.00  0.00     0.005 C 
ATOM     12  C   UNL     1      -2.603  25.331  52.241  1.00  0.00    -0.023 C 
ATOM     13  C   UNL     1      -2.103  27.683  52.500  1.00  0.00     0.009 C 
ATOM     14  C   UNL     1      -3.259  26.715  52.234  1.00  0.00     0.021 C 
ATOM     15  C   UNL     1      -3.732  24.283  52.320  1.00  0.00     0.008 C 
ATOM     16  C   UNL     1      -1.746  25.111  50.949  1.00  0.00     0.012 C 
ATOM     17  C   UNL     1      -4.171  26.921  51.051  1.00  0.00    -0.063 C 
ATOM     18  C   UNL     1      -4.642  24.367  51.074  1.00  0.00     0.009 C 
ATOM     19  C   UNL     1      -5.165  25.807  50.735  1.00  0.00     0.025 C 
ATOM     20  C   UNL     1      -4.431  28.155  50.609  1.00  0.00    -0.000 C 
ATOM     21  C   UNL     1      -5.802  25.949  49.293  1.00  0.00    -0.005 C 
ATOM     22  C   UNL     1      -5.480  28.414  49.618  1.00  0.00    -0.000 C 
ATOM     23  C   UNL     1      -6.141  27.417  49.000  1.00  0.00    -0.061 C 
ATOM     24  C   UNL     1      -4.832  25.507  48.156  1.00  0.00     0.014 C 
ATOM     25  C   UNL     1      -7.085  25.072  49.260  1.00  0.00     0.017 C 
ATOM     26  C   UNL     1      -6.767  27.732  47.662  1.00  0.00     0.063 C 
ATOM     27  C   UNL     1      -5.380  25.798  46.740  1.00  0.00     0.033 C 
ATOM     28  C   UNL     1      -5.793  27.277  46.560  1.00  0.00     0.118 C 
BRANCH  28  29
ATOM     29  O   UNL     1      -6.341  27.482  45.283  1.00  0.00    -0.393 OA
ATOM     30  H   UNL     1      -6.423  26.596  44.843  1.00  0.00     0.210 HD
ENDBRANCH  28  29
ENDBRANCH   1  10
TORSDOF 5
ENDMDL
MODEL 7
REMARK VINA RESULT:    -7.407      3.440      4.869
REMARK INTER + INTRA:          -9.868
REMARK INTER:                  -9.326
REMARK INTRA:                  -0.543
REMARK UNBOUND:                -0.512
REMARK SMILES CC(C)[C@@H](C)C=C[C@H](C)[C@H]1CC[C@H]2C3=CC=C4C[C@H](O)CC[C@@]4(C)[C@H]3CC[C@]12C
REMARK SMILES IDX 8 1 9 2 7 3 6 4 4 5 5 6 2 7 1 8 3 9 10 10 11 11 28 12 12 13
REMARK SMILES IDX 13 14 27 15 29 16 14 17 26 18 25 19 15 20 23 21 16 22 17 23
REMARK SMILES IDX 22 24 24 25 18 26 21 27 19 28 20 29
REMARK H PARENT 20 30
REMARK Flexibility Score: inf
ROOT
ATOM      1  C   UNL     1      -2.523  21.925  46.981  1.00  0.00     0.012 C 
ATOM      2  C   UNL     1      -1.452  22.075  48.071  1.00  0.00     0.012 C 
ENDROOT
BRANCH   1   3
ATOM      3  C   UNL     1      -2.853  20.452  46.835  1.00  0.00    -0.028 C 
ATOM      4  C   UNL     1      -2.348  19.515  47.659  1.00  0.00    -0.028 C 
BRANCH   4   5
ATOM      5  C   UNL     1      -2.577  18.029  47.452  1.00  0.00     0.011 C 
ATOM      6  C   UNL     1      -2.839  17.294  48.782  1.00  0.00     0.012 C 
BRANCH   5   7
ATOM      7  C   UNL     1      -1.471  17.373  46.568  1.00  0.00    -0.011 C 
ATOM      8  C   UNL     1      -1.871  17.169  45.097  1.00  0.00     0.008 C 
ATOM      9  C   UNL     1      -0.144  18.144  46.644  1.00  0.00     0.008 C 
ENDBRANCH   5   7
ENDBRANCH   4   5
ENDBRANCH   1   3
BRANCH   1  10
ATOM     10  C   UNL     1      -3.844  22.732  47.196  1.00  0.00     0.002 C 
ATOM     11  C   UNL     1      -4.685  22.337  48.428  1.00  0.00     0.005 C 
ATOM     12  C   UNL     1      -3.849  24.286  47.231  1.00  0.00    -0.023 C 
ATOM     13  C   UNL     1      -5.617  23.538  48.704  1.00  0.00     0.009 C 
ATOM     14  C   UNL     1      -5.328  24.515  47.561  1.00  0.00     0.021 C 
ATOM     15  C   UNL     1      -3.563  24.973  45.880  1.00  0.00     0.008 C 
ATOM     16  C   UNL     1      -2.928  24.878  48.350  1.00  0.00     0.012 C 
ATOM     17  C   UNL     1      -5.673  25.977  47.698  1.00  0.00    -0.063 C 
ATOM     18  C   UNL     1      -3.792  26.498  45.986  1.00  0.00     0.009 C 
ATOM     19  C   UNL     1      -5.170  26.917  46.607  1.00  0.00     0.025 C 
ATOM     20  C   UNL     1      -6.725  26.352  48.433  1.00  0.00    -0.000 C 
ATOM     21  C   UNL     1      -5.263  28.441  47.025  1.00  0.00    -0.005 C 
ATOM     22  C   UNL     1      -7.229  27.729  48.408  1.00  0.00    -0.000 C 
ATOM     23  C   UNL     1      -6.584  28.715  47.757  1.00  0.00    -0.061 C 
ATOM     24  C   UNL     1      -4.137  28.867  48.016  1.00  0.00     0.014 C 
ATOM     25  C   UNL     1      -5.169  29.289  45.726  1.00  0.00     0.017 C 
ATOM     26  C   UNL     1      -6.839  30.129  48.223  1.00  0.00     0.063 C 
ATOM     27  C   UNL     1      -4.316  30.303  48.559  1.00  0.00     0.033 C 
ATOM     28  C   UNL     1      -5.710  30.526  49.190  1.00  0.00     0.118 C 
BRANCH  28  29
ATOM     29  O   UNL     1      -5.850  31.857  49.615  1.00  0.00    -0.393 OA
ATOM     30  H   UNL     1      -4.961  32.170  49.929  1.00  0.00     0.210 HD
ENDBRANCH  28  29
ENDBRANCH   1  10
TORSDOF 5
ENDMDL
MODEL 8
REMARK VINA RESULT:    -7.379      3.364      5.018
REMARK INTER + INTRA:          -9.832
REMARK INTER:                  -8.699
REMARK INTRA:                  -1.133
REMARK UNBOUND:                -0.512
REMARK SMILES CC(C)[C@@H](C)C=C[C@H](C)[C@H]1CC[C@H]2C3=CC=C4C[C@H](O)CC[C@@]4(C)[C@H]3CC[C@]12C
REMARK SMILES IDX 8 1 9 2 7 3 6 4 4 5 5 6 2 7 1 8 3 9 10 10 11 11 28 12 12 13
REMARK SMILES IDX 13 14 27 15 29 16 14 17 26 18 25 19 15 20 23 21 16 22 17 23
REMARK SMILES IDX 22 24 24 25 18 26 21 27 19 28 20 29
REMARK H PARENT 20 30
REMARK Flexibility Score: inf
ROOT
ATOM      1  C   UNL     1      -1.009  22.147  47.602  1.00  0.00     0.012 C 
ATOM      2  C   UNL     1       0.279  22.468  48.374  1.00  0.00     0.012 C 
ENDROOT
BRANCH   1   3
ATOM      3  C   UNL     1      -1.114  20.642  47.452  1.00  0.00    -0.028 C 
ATOM      4  C   UNL     1      -2.209  20.041  46.948  1.00  0.00    -0.028 C 
BRANCH   4   5
ATOM      5  C   UNL     1      -2.372  18.534  46.902  1.00  0.00     0.011 C 
ATOM      6  C   UNL     1      -2.617  18.022  45.468  1.00  0.00     0.012 C 
BRANCH   5   7
ATOM      7  C   UNL     1      -3.405  18.013  47.949  1.00  0.00    -0.011 C 
ATOM      8  C   UNL     1      -2.780  17.282  49.149  1.00  0.00     0.008 C 
ATOM      9  C   UNL     1      -4.329  19.134  48.448  1.00  0.00     0.008 C 
ENDBRANCH   5   7
ENDBRANCH   4   5
ENDBRANCH   1   3
BRANCH   1  10
ATOM     10  C   UNL     1      -2.336  22.699  48.215  1.00  0.00     0.002 C 
ATOM     11  C   UNL     1      -2.359  22.853  49.750  1.00  0.00     0.005 C 
ATOM     12  C   UNL     1      -2.980  24.018  47.704  1.00  0.00    -0.023 C 
ATOM     13  C   UNL     1      -3.511  23.837  50.057  1.00  0.00     0.009 C 
ATOM     14  C   UNL     1      -4.146  24.117  48.692  1.00  0.00     0.021 C 
ATOM     15  C   UNL     1      -3.579  23.949  46.284  1.00  0.00     0.008 C 
ATOM     16  C   UNL     1      -2.030  25.256  47.834  1.00  0.00     0.012 C 
ATOM     17  C   UNL     1      -4.987  25.351  48.478  1.00  0.00    -0.063 C 
ATOM     18  C   UNL     1      -4.363  25.241  45.960  1.00  0.00     0.009 C 
ATOM     19  C   UNL     1      -5.410  25.666  47.047  1.00  0.00     0.025 C 
ATOM     20  C   UNL     1      -5.704  25.858  49.486  1.00  0.00    -0.000 C 
ATOM     21  C   UNL     1      -5.958  27.143  46.885  1.00  0.00    -0.005 C 
ATOM     22  C   UNL     1      -6.703  26.909  49.267  1.00  0.00    -0.000 C 
ATOM     23  C   UNL     1      -6.854  27.515  48.074  1.00  0.00    -0.061 C 
ATOM     24  C   UNL     1      -4.823  28.211  46.863  1.00  0.00     0.014 C 
ATOM     25  C   UNL     1      -6.761  27.200  45.555  1.00  0.00     0.017 C 
ATOM     26  C   UNL     1      -7.469  28.894  48.077  1.00  0.00     0.063 C 
ATOM     27  C   UNL     1      -5.354  29.663  46.873  1.00  0.00     0.033 C 
ATOM     28  C   UNL     1      -6.328  29.927  48.045  1.00  0.00     0.118 C 
BRANCH  28  29
ATOM     29  O   UNL     1      -6.831  31.236  47.980  1.00  0.00    -0.393 OA
ATOM     30  H   UNL     1      -6.252  31.753  47.359  1.00  0.00     0.210 HD
ENDBRANCH  28  29
ENDBRANCH   1  10
TORSDOF 5
ENDMDL
MODEL 9
REMARK VINA RESULT:    -7.254      4.185      7.366
REMARK INTER + INTRA:          -9.675
REMARK INTER:                  -9.032
REMARK INTRA:                  -0.643
REMARK UNBOUND:                -0.512
REMARK SMILES CC(C)[C@@H](C)C=C[C@H](C)[C@H]1CC[C@H]2C3=CC=C4C[C@H](O)CC[C@@]4(C)[C@H]3CC[C@]12C
REMARK SMILES IDX 8 1 9 2 7 3 6 4 4 5 5 6 2 7 1 8 3 9 10 10 11 11 28 12 12 13
REMARK SMILES IDX 13 14 27 15 29 16 14 17 26 18 25 19 15 20 23 21 16 22 17 23
REMARK SMILES IDX 22 24 24 25 18 26 21 27 19 28 20 29
REMARK H PARENT 20 30
REMARK Flexibility Score: inf
ROOT
ATOM      1  C   UNL     1       2.147  24.416  51.705  1.00  0.00     0.012 C 
ATOM      2  C   UNL     1       2.602  25.830  52.094  1.00  0.00     0.012 C 
ENDROOT
BRANCH   1   3
ATOM      3  C   UNL     1       3.046  23.415  52.404  1.00  0.00    -0.028 C 
ATOM      4  C   UNL     1       4.332  23.230  52.049  1.00  0.00    -0.028 C 
BRANCH   4   5
ATOM      5  C   UNL     1       5.207  22.151  52.660  1.00  0.00     0.011 C 
ATOM      6  C   UNL     1       4.474  21.377  53.774  1.00  0.00     0.012 C 
BRANCH   5   7
ATOM      7  C   UNL     1       6.612  22.687  53.075  1.00  0.00    -0.011 C 
ATOM      8  C   UNL     1       7.781  21.761  52.698  1.00  0.00     0.008 C 
ATOM      9  C   UNL     1       6.871  24.099  52.529  1.00  0.00     0.008 C 
ENDBRANCH   5   7
ENDBRANCH   4   5
ENDBRANCH   1   3
BRANCH   1  10
ATOM     10  C   UNL     1       0.654  24.066  52.005  1.00  0.00     0.002 C 
ATOM     11  C   UNL     1       0.118  24.510  53.383  1.00  0.00     0.005 C 
ATOM     12  C   UNL     1      -0.486  24.461  51.024  1.00  0.00    -0.023 C 
ATOM     13  C   UNL     1      -1.422  24.514  53.254  1.00  0.00     0.009 C 
ATOM     14  C   UNL     1      -1.687  23.980  51.843  1.00  0.00     0.021 C 
ATOM     15  C   UNL     1      -0.497  23.689  49.688  1.00  0.00     0.008 C 
ATOM     16  C   UNL     1      -0.566  26.002  50.764  1.00  0.00     0.012 C 
ATOM     17  C   UNL     1      -3.004  24.251  51.158  1.00  0.00    -0.063 C 
ATOM     18  C   UNL     1      -1.776  24.013  48.883  1.00  0.00     0.009 C 
ATOM     19  C   UNL     1      -3.115  23.867  49.686  1.00  0.00     0.025 C 
ATOM     20  C   UNL     1      -4.125  24.364  51.878  1.00  0.00    -0.000 C 
ATOM     21  C   UNL     1      -4.375  24.516  48.981  1.00  0.00    -0.005 C 
ATOM     22  C   UNL     1      -5.447  24.398  51.244  1.00  0.00    -0.000 C 
ATOM     23  C   UNL     1      -5.597  24.456  49.907  1.00  0.00    -0.061 C 
ATOM     24  C   UNL     1      -4.172  26.026  48.648  1.00  0.00     0.014 C 
ATOM     25  C   UNL     1      -4.640  23.720  47.672  1.00  0.00     0.017 C 
ATOM     26  C   UNL     1      -6.894  25.029  49.386  1.00  0.00     0.063 C 
ATOM     27  C   UNL     1      -5.452  26.708  48.114  1.00  0.00     0.033 C 
ATOM     28  C   UNL     1      -6.662  26.516  49.058  1.00  0.00     0.118 C 
BRANCH  28  29
ATOM     29  O   UNL     1      -7.814  27.098  48.505  1.00  0.00    -0.393 OA
ATOM     30  H   UNL     1      -7.766  28.077  48.668  1.00  0.00     0.210 HD
ENDBRANCH  28  29
ENDBRANCH   1  10
TORSDOF 5
ENDMDL
