MODEL 1
REMARK VINA RESULT:    -5.313      0.000      0.000
REMARK INTER + INTRA:          -5.842
REMARK INTER:                  -5.779
REMARK INTRA:                  -0.063
REMARK UNBOUND:                -0.063
REMARK SMILES CC1(C)[C@H]2CC=C(CO)[C@@H]1C2
REMARK SMILES IDX 8 1 7 2 1 3 2 4 4 5 3 6 10 7 5 8 11 9 6 10 9 11
REMARK H PARENT 9 12
REMARK Flexibility Score: inf
ROOT
ATOM      1  C   UNL     1      41.929  10.777  12.172  1.00  0.00     0.187 C 
ENDROOT
BRANCH   1   2
ATOM      2  C   UNL     1      40.873  10.877  13.234  1.00  0.00    -0.045 C 
ATOM      3  C   UNL     1      41.050  12.101  16.933  1.00  0.00     0.012 C 
ATOM      4  C   UNL     1      40.504  11.927  15.493  1.00  0.00    -0.026 C 
ATOM      5  C   UNL     1      39.246  11.016  15.448  1.00  0.00    -0.000 C 
ATOM      6  C   UNL     1      40.433  13.329  14.826  1.00  0.00     0.012 C 
ATOM      7  C   UNL     1      41.218  10.782  14.728  1.00  0.00     0.023 C 
ATOM      8  C   UNL     1      38.525  11.150  14.062  1.00  0.00     0.031 C 
ATOM      9  C   UNL     1      40.186   9.800  15.316  1.00  0.00     0.013 C 
ATOM     10  C   UNL     1      39.553  11.030  12.919  1.00  0.00    -0.025 C 
ENDBRANCH   1   2
BRANCH   1  11
ATOM     11  O   UNL     1      43.062  11.495  12.571  1.00  0.00    -0.392 OA
ATOM     12  H   UNL     1      43.814  10.847  12.568  1.00  0.00     0.211 HD
ENDBRANCH   1  11
TORSDOF 2
ENDMDL
MODEL 2
REMARK VINA RESULT:    -5.256      8.001      9.278
REMARK INTER + INTRA:          -5.780
REMARK INTER:                  -5.737
REMARK INTRA:                  -0.043
REMARK UNBOUND:                -0.063
REMARK SMILES CC1(C)[C@H]2CC=C(CO)[C@@H]1C2
REMARK SMILES IDX 8 1 7 2 1 3 2 4 4 5 3 6 10 7 5 8 11 9 6 10 9 11
REMARK H PARENT 9 12
REMARK Flexibility Score: inf
ROOT
ATOM      1  C   UNL     1      38.617   2.541  11.558  1.00  0.00     0.187 C 
ENDROOT
BRANCH   1   2
ATOM      2  C   UNL     1      39.160   2.840  12.926  1.00  0.00    -0.045 C 
ATOM      3  C   UNL     1      40.917   0.556  15.554  1.00  0.00     0.012 C 
ATOM      4  C   UNL     1      40.641   1.806  14.681  1.00  0.00    -0.026 C 
ATOM      5  C   UNL     1      40.081   2.992  15.513  1.00  0.00    -0.000 C 
ATOM      6  C   UNL     1      41.879   2.050  13.774  1.00  0.00     0.012 C 
ATOM      7  C   UNL     1      39.239   1.762  14.016  1.00  0.00     0.023 C 
ATOM      8  C   UNL     1      40.151   4.322  14.685  1.00  0.00     0.031 C 
ATOM      9  C   UNL     1      38.664   2.430  15.281  1.00  0.00     0.013 C 
ATOM     10  C   UNL     1      39.584   4.092  13.269  1.00  0.00    -0.025 C 
ENDBRANCH   1   2
BRANCH   1  11
ATOM     11  O   UNL     1      37.415   1.835  11.678  1.00  0.00    -0.392 OA
ATOM     12  H   UNL     1      37.649   0.875  11.586  1.00  0.00     0.211 HD
ENDBRANCH   1  11
TORSDOF 2
ENDMDL
MODEL 3
REMARK VINA RESULT:    -5.239      8.301      9.687
REMARK INTER + INTRA:          -5.762
REMARK INTER:                  -5.701
REMARK INTRA:                  -0.061
REMARK UNBOUND:                -0.063
REMARK SMILES CC1(C)[C@H]2CC=C(CO)[C@@H]1C2
REMARK SMILES IDX 8 1 7 2 1 3 2 4 4 5 3 6 10 7 5 8 11 9 6 10 9 11
REMARK H PARENT 9 12
REMARK Flexibility Score: inf
ROOT
ATOM      1  C   UNL     1      38.740   2.581  11.816  1.00  0.00     0.187 C 
ENDROOT
BRANCH   1   2
ATOM      2  C   UNL     1      39.564   2.526  13.070  1.00  0.00    -0.045 C 
ATOM      3  C   UNL     1      38.729   1.211  16.645  1.00  0.00     0.012 C 
ATOM      4  C   UNL     1      39.541   1.453  15.348  1.00  0.00    -0.026 C 
ATOM      5  C   UNL     1      40.716   2.445  15.567  1.00  0.00    -0.000 C 
ATOM      6  C   UNL     1      39.841   0.074  14.697  1.00  0.00     0.012 C 
ATOM      7  C   UNL     1      38.919   2.565  14.463  1.00  0.00     0.023 C 
ATOM      8  C   UNL     1      41.709   2.390  14.354  1.00  0.00     0.031 C 
ATOM      9  C   UNL     1      39.742   3.599  15.257  1.00  0.00     0.013 C 
ATOM     10  C   UNL     1      40.928   2.467  13.027  1.00  0.00    -0.025 C 
ENDBRANCH   1   2
BRANCH   1  11
ATOM     11  O   UNL     1      37.543   1.883  12.014  1.00  0.00    -0.392 OA
ATOM     12  H   UNL     1      37.506   1.669  12.983  1.00  0.00     0.211 HD
ENDBRANCH   1  11
TORSDOF 2
ENDMDL
MODEL 4
REMARK VINA RESULT:    -5.219      1.036      2.046
REMARK INTER + INTRA:          -5.739
REMARK INTER:                  -5.714
REMARK INTRA:                  -0.025
REMARK UNBOUND:                -0.063
REMARK SMILES CC1(C)[C@H]2CC=C(CO)[C@@H]1C2
REMARK SMILES IDX 8 1 7 2 1 3 2 4 4 5 3 6 10 7 5 8 11 9 6 10 9 11
REMARK H PARENT 9 12
REMARK Flexibility Score: inf
ROOT
ATOM      1  C   UNL     1      41.868  10.799  12.537  1.00  0.00     0.187 C 
ENDROOT
BRANCH   1   2
ATOM      2  C   UNL     1      41.081  11.365  13.683  1.00  0.00    -0.045 C 
ATOM      3  C   UNL     1      39.458   9.650  16.787  1.00  0.00     0.012 C 
ATOM      4  C   UNL     1      40.246  10.700  15.964  1.00  0.00    -0.026 C 
ATOM      5  C   UNL     1      39.462  12.031  15.805  1.00  0.00    -0.000 C 
ATOM      6  C   UNL     1      41.701  10.752  16.507  1.00  0.00     0.012 C 
ATOM      7  C   UNL     1      40.036  10.528  14.437  1.00  0.00     0.023 C 
ATOM      8  C   UNL     1      40.413  13.166  15.289  1.00  0.00     0.031 C 
ATOM      9  C   UNL     1      38.797  11.438  14.546  1.00  0.00     0.013 C 
ATOM     10  C   UNL     1      41.239  12.659  14.090  1.00  0.00    -0.025 C 
ENDBRANCH   1   2
BRANCH   1  11
ATOM     11  O   UNL     1      43.105  11.449  12.453  1.00  0.00    -0.392 OA
ATOM     12  H   UNL     1      42.913  12.364  12.119  1.00  0.00     0.211 HD
ENDBRANCH   1  11
TORSDOF 2
ENDMDL
MODEL 5
REMARK VINA RESULT:    -5.168      2.948      4.536
REMARK INTER + INTRA:          -5.684
REMARK INTER:                  -5.648
REMARK INTRA:                  -0.036
REMARK UNBOUND:                -0.063
REMARK SMILES CC1(C)[C@H]2CC=C(CO)[C@@H]1C2
REMARK SMILES IDX 8 1 7 2 1 3 2 4 4 5 3 6 10 7 5 8 11 9 6 10 9 11
REMARK H PARENT 9 12
REMARK Flexibility Score: inf
ROOT
ATOM      1  C   UNL     1      40.016  13.021  17.089  1.00  0.00     0.187 C 
ENDROOT
BRANCH   1   2
ATOM      2  C   UNL     1      40.746  11.716  17.230  1.00  0.00    -0.045 C 
ATOM      3  C   UNL     1      39.716   8.075  16.288  1.00  0.00     0.012 C 
ATOM      4  C   UNL     1      40.609   9.334  16.427  1.00  0.00    -0.026 C 
ATOM      5  C   UNL     1      41.711   9.155  17.507  1.00  0.00    -0.000 C 
ATOM      6  C   UNL     1      41.028   9.793  15.003  1.00  0.00     0.012 C 
ATOM      7  C   UNL     1      39.997  10.385  17.390  1.00  0.00     0.023 C 
ATOM      8  C   UNL     1      42.793  10.282  17.373  1.00  0.00     0.031 C 
ATOM      9  C   UNL     1      40.703   9.667  18.557  1.00  0.00     0.013 C 
ATOM     10  C   UNL     1      42.110  11.659  17.249  1.00  0.00    -0.025 C 
ENDBRANCH   1   2
BRANCH   1  11
ATOM     11  O   UNL     1      39.681  13.507  18.358  1.00  0.00    -0.392 OA
ATOM     12  H   UNL     1      38.984  12.895  18.713  1.00  0.00     0.211 HD
ENDBRANCH   1  11
TORSDOF 2
ENDMDL
MODEL 6
REMARK VINA RESULT:    -5.155      1.770      3.031
REMARK INTER + INTRA:          -5.670
REMARK INTER:                  -5.605
REMARK INTRA:                  -0.065
REMARK UNBOUND:                -0.063
REMARK SMILES CC1(C)[C@H]2CC=C(CO)[C@@H]1C2
REMARK SMILES IDX 8 1 7 2 1 3 2 4 4 5 3 6 10 7 5 8 11 9 6 10 9 11
REMARK H PARENT 9 12
REMARK Flexibility Score: inf
ROOT
ATOM      1  C   UNL     1      41.211  11.823  13.973  1.00  0.00     0.187 C 
ENDROOT
BRANCH   1   2
ATOM      2  C   UNL     1      40.978  11.593  15.438  1.00  0.00    -0.045 C 
ATOM      3  C   UNL     1      42.150   8.729  17.813  1.00  0.00     0.012 C 
ATOM      4  C   UNL     1      41.840  10.168  17.327  1.00  0.00    -0.026 C 
ATOM      5  C   UNL     1      40.596  10.771  18.036  1.00  0.00    -0.000 C 
ATOM      6  C   UNL     1      43.166  10.979  17.329  1.00  0.00     0.012 C 
ATOM      7  C   UNL     1      40.971  10.180  16.042  1.00  0.00     0.023 C 
ATOM      8  C   UNL     1      40.527  12.319  17.792  1.00  0.00     0.031 C 
ATOM      9  C   UNL     1      39.717  10.136  16.939  1.00  0.00     0.013 C 
ATOM     10  C   UNL     1      40.735  12.627  16.296  1.00  0.00    -0.025 C 
ENDBRANCH   1   2
BRANCH   1  11
ATOM     11  O   UNL     1      42.345  11.112  13.563  1.00  0.00    -0.392 OA
ATOM     12  H   UNL     1      42.365  11.172  12.572  1.00  0.00     0.211 HD
ENDBRANCH   1  11
TORSDOF 2
ENDMDL
MODEL 7
REMARK VINA RESULT:    -5.082      8.246      9.502
REMARK INTER + INTRA:          -5.591
REMARK INTER:                  -5.567
REMARK INTRA:                  -0.024
REMARK UNBOUND:                -0.063
REMARK SMILES CC1(C)[C@H]2CC=C(CO)[C@@H]1C2
REMARK SMILES IDX 8 1 7 2 1 3 2 4 4 5 3 6 10 7 5 8 11 9 6 10 9 11
REMARK H PARENT 9 12
REMARK Flexibility Score: inf
ROOT
ATOM      1  C   UNL     1      38.657   2.584  12.176  1.00  0.00     0.187 C 
ENDROOT
BRANCH   1   2
ATOM      2  C   UNL     1      39.266   2.070  13.448  1.00  0.00    -0.045 C 
ATOM      3  C   UNL     1      40.428   3.922  16.678  1.00  0.00     0.012 C 
ATOM      4  C   UNL     1      39.762   2.836  15.795  1.00  0.00    -0.026 C 
ATOM      5  C   UNL     1      40.554   1.500  15.811  1.00  0.00    -0.000 C 
ATOM      6  C   UNL     1      38.243   2.806  16.122  1.00  0.00     0.012 C 
ATOM      7  C   UNL     1      40.194   2.940  14.309  1.00  0.00     0.023 C 
ATOM      8  C   UNL     1      39.682   0.342  15.212  1.00  0.00     0.031 C 
ATOM      9  C   UNL     1      41.399   2.037  14.638  1.00  0.00     0.013 C 
ATOM     10  C   UNL     1      39.043   0.795  13.884  1.00  0.00    -0.025 C 
ENDBRANCH   1   2
BRANCH   1  11
ATOM     11  O   UNL     1      37.508   1.844  11.875  1.00  0.00    -0.392 OA
ATOM     12  H   UNL     1      37.189   2.175  10.995  1.00  0.00     0.211 HD
ENDBRANCH   1  11
TORSDOF 2
ENDMDL
MODEL 8
REMARK VINA RESULT:    -5.072      1.544      2.227
REMARK INTER + INTRA:          -5.580
REMARK INTER:                  -5.528
REMARK INTRA:                  -0.052
REMARK UNBOUND:                -0.063
REMARK SMILES CC1(C)[C@H]2CC=C(CO)[C@@H]1C2
REMARK SMILES IDX 8 1 7 2 1 3 2 4 4 5 3 6 10 7 5 8 11 9 6 10 9 11
REMARK H PARENT 9 12
REMARK Flexibility Score: inf
ROOT
ATOM      1  C   UNL     1      42.377  10.969  11.439  1.00  0.00     0.187 C 
ENDROOT
BRANCH   1   2
ATOM      2  C   UNL     1      41.142  10.282  11.947  1.00  0.00    -0.045 C 
ATOM      3  C   UNL     1      39.367  10.412  15.417  1.00  0.00     0.012 C 
ATOM      4  C   UNL     1      39.527  10.396  13.876  1.00  0.00    -0.026 C 
ATOM      5  C   UNL     1      39.052   9.056  13.249  1.00  0.00    -0.000 C 
ATOM      6  C   UNL     1      38.955  11.727  13.312  1.00  0.00     0.012 C 
ATOM      7  C   UNL     1      40.951   9.963  13.437  1.00  0.00     0.023 C 
ATOM      8  C   UNL     1      38.896   9.205  11.696  1.00  0.00     0.031 C 
ATOM      9  C   UNL     1      40.473   8.498  13.475  1.00  0.00     0.013 C 
ATOM     10  C   UNL     1      40.146   9.885  11.102  1.00  0.00    -0.025 C 
ENDBRANCH   1   2
BRANCH   1  11
ATOM     11  O   UNL     1      43.101  11.486  12.519  1.00  0.00    -0.392 OA
ATOM     12  H   UNL     1      42.487  12.107  12.991  1.00  0.00     0.211 HD
ENDBRANCH   1  11
TORSDOF 2
ENDMDL
MODEL 9
REMARK VINA RESULT:    -5.062      2.124      3.211
REMARK INTER + INTRA:          -5.569
REMARK INTER:                  -5.519
REMARK INTRA:                  -0.050
REMARK UNBOUND:                -0.063
REMARK SMILES CC1(C)[C@H]2CC=C(CO)[C@@H]1C2
REMARK SMILES IDX 8 1 7 2 1 3 2 4 4 5 3 6 10 7 5 8 11 9 6 10 9 11
REMARK H PARENT 9 12
REMARK Flexibility Score: inf
ROOT
ATOM      1  C   UNL     1      37.548  10.710  12.485  1.00  0.00     0.187 C 
ENDROOT
BRANCH   1   2
ATOM      2  C   UNL     1      38.906  10.888  13.098  1.00  0.00    -0.045 C 
ATOM      3  C   UNL     1      40.069  10.892  16.821  1.00  0.00     0.012 C 
ATOM      4  C   UNL     1      40.082  10.578  15.304  1.00  0.00    -0.026 C 
ATOM      5  C   UNL     1      41.194  11.358  14.552  1.00  0.00    -0.000 C 
ATOM      6  C   UNL     1      40.001   9.036  15.125  1.00  0.00     0.012 C 
ATOM      7  C   UNL     1      39.085  11.464  14.511  1.00  0.00     0.023 C 
ATOM      8  C   UNL     1      41.407  10.760  13.118  1.00  0.00     0.031 C 
ATOM      9  C   UNL     1      40.197  12.522  14.375  1.00  0.00     0.013 C 
ATOM     10  C   UNL     1      40.047  10.572  12.417  1.00  0.00    -0.025 C 
ENDBRANCH   1   2
BRANCH   1  11
ATOM     11  O   UNL     1      37.205   9.353  12.495  1.00  0.00    -0.392 OA
ATOM     12  H   UNL     1      37.992   8.873  12.863  1.00  0.00     0.211 HD
ENDBRANCH   1  11
TORSDOF 2
ENDMDL
