MODEL 1
REMARK VINA RESULT:    -5.414      0.000      0.000
REMARK INTER + INTRA:          -5.895
REMARK INTER:                  -5.730
REMARK INTRA:                  -0.164
REMARK UNBOUND:                -0.164
REMARK SMILES C=C(C)[C@H]1CC=C(C)CC1
REMARK SMILES IDX 8 1 7 2 6 3 5 4 4 5 10 6 9 7 2 8 1 9 3 10
REMARK H PARENT
REMARK Flexibility Score: inf
ROOT
ATOM      1  C   UNL     1       0.782 -26.598  -0.786  1.00  0.00     0.039 C 
ATOM      2  C   UNL     1      -0.657 -26.216  -0.577  1.00  0.00    -0.077 C 
ATOM      3  C   UNL     1      -1.424 -26.910   0.280  1.00  0.00    -0.027 C 
ATOM      4  C   UNL     1      -2.846 -26.480   0.512  1.00  0.00     0.035 C 
ATOM      5  C   UNL     1      -2.916 -24.949   0.722  1.00  0.00     0.018 C 
ATOM      6  C   UNL     1      -2.038 -24.140  -0.290  1.00  0.00     0.013 C 
ATOM      7  C   UNL     1      -1.263 -25.025  -1.285  1.00  0.00     0.031 C 
ENDROOT
BRANCH   5   8
ATOM      8  C   UNL     1      -4.362 -24.469   0.728  1.00  0.00    -0.077 C 
ATOM      9  C   UNL     1      -5.290 -25.075  -0.030  1.00  0.00     0.008 C 
ATOM     10  C   UNL     1      -4.774 -23.304   1.589  1.00  0.00     0.039 C 
ENDBRANCH   5   8
TORSDOF 1
ENDMDL
MODEL 2
REMARK VINA RESULT:    -5.291      1.993      3.153
REMARK INTER + INTRA:          -5.765
REMARK INTER:                  -5.609
REMARK INTRA:                  -0.155
REMARK UNBOUND:                -0.164
REMARK SMILES C=C(C)[C@H]1CC=C(C)CC1
REMARK SMILES IDX 8 1 7 2 6 3 5 4 4 5 10 6 9 7 2 8 1 9 3 10
REMARK H PARENT
REMARK Flexibility Score: inf
ROOT
ATOM      1  C   UNL     1      -0.992 -22.206   0.751  1.00  0.00     0.039 C 
ATOM      2  C   UNL     1      -2.007 -23.243   0.357  1.00  0.00    -0.077 C 
ATOM      3  C   UNL     1      -3.224 -23.249   0.927  1.00  0.00    -0.027 C 
ATOM      4  C   UNL     1      -4.241 -24.263   0.481  1.00  0.00     0.035 C 
ATOM      5  C   UNL     1      -4.282 -24.338  -1.064  1.00  0.00     0.018 C 
ATOM      6  C   UNL     1      -2.864 -24.350  -1.725  1.00  0.00     0.013 C 
ATOM      7  C   UNL     1      -1.706 -24.268  -0.713  1.00  0.00     0.031 C 
ENDROOT
BRANCH   5   8
ATOM      8  C   UNL     1      -5.133 -25.514  -1.525  1.00  0.00    -0.077 C 
ATOM      9  C   UNL     1      -4.823 -26.193  -2.641  1.00  0.00     0.008 C 
ATOM     10  C   UNL     1      -6.343 -25.936  -0.731  1.00  0.00     0.039 C 
ENDBRANCH   5   8
TORSDOF 1
ENDMDL
MODEL 3
REMARK VINA RESULT:    -5.255      5.195      7.211
REMARK INTER + INTRA:          -5.727
REMARK INTER:                  -5.570
REMARK INTRA:                  -0.157
REMARK UNBOUND:                -0.164
REMARK SMILES C=C(C)[C@H]1CC=C(C)CC1
REMARK SMILES IDX 8 1 7 2 6 3 5 4 4 5 10 6 9 7 2 8 1 9 3 10
REMARK H PARENT
REMARK Flexibility Score: inf
ROOT
ATOM      1  C   UNL     1       2.064 -26.640  -3.386  1.00  0.00     0.039 C 
ATOM      2  C   UNL     1       2.507 -27.035  -2.006  1.00  0.00    -0.077 C 
ATOM      3  C   UNL     1       1.598 -27.261  -1.042  1.00  0.00    -0.027 C 
ATOM      4  C   UNL     1       2.060 -27.705   0.318  1.00  0.00     0.035 C 
ATOM      5  C   UNL     1       3.113 -28.832   0.185  1.00  0.00     0.018 C 
ATOM      6  C   UNL     1       4.182 -28.559  -0.924  1.00  0.00     0.013 C 
ATOM      7  C   UNL     1       3.970 -27.232  -1.677  1.00  0.00     0.031 C 
ENDROOT
BRANCH   5   8
ATOM      8  C   UNL     1       3.756 -29.131   1.533  1.00  0.00    -0.077 C 
ATOM      9  C   UNL     1       3.062 -28.992   2.674  1.00  0.00     0.008 C 
ATOM     10  C   UNL     1       5.189 -29.592   1.607  1.00  0.00     0.039 C 
ENDBRANCH   5   8
TORSDOF 1
ENDMDL
MODEL 4
REMARK VINA RESULT:    -5.185      2.742      4.742
REMARK INTER + INTRA:          -5.653
REMARK INTER:                  -5.496
REMARK INTRA:                  -0.157
REMARK UNBOUND:                -0.164
REMARK SMILES C=C(C)[C@H]1CC=C(C)CC1
REMARK SMILES IDX 8 1 7 2 6 3 5 4 4 5 10 6 9 7 2 8 1 9 3 10
REMARK H PARENT
REMARK Flexibility Score: inf
ROOT
ATOM      1  C   UNL     1       4.867 -28.867  -0.050  1.00  0.00     0.039 C 
ATOM      2  C   UNL     1       3.425 -28.461  -0.174  1.00  0.00    -0.077 C 
ATOM      3  C   UNL     1       2.633 -28.434   0.911  1.00  0.00    -0.027 C 
ATOM      4  C   UNL     1       1.208 -27.976   0.773  1.00  0.00     0.035 C 
ATOM      5  C   UNL     1       1.141 -26.681  -0.072  1.00  0.00     0.018 C 
ATOM      6  C   UNL     1       2.048 -26.720  -1.346  1.00  0.00     0.013 C 
ATOM      7  C   UNL     1       2.843 -28.031  -1.502  1.00  0.00     0.031 C 
ENDROOT
BRANCH   5   8
ATOM      8  C   UNL     1      -0.303 -26.334  -0.413  1.00  0.00    -0.077 C 
ATOM      9  C   UNL     1      -1.318 -26.807   0.327  1.00  0.00     0.008 C 
ATOM     10  C   UNL     1      -0.614 -25.448  -1.592  1.00  0.00     0.039 C 
ENDBRANCH   5   8
TORSDOF 1
ENDMDL
MODEL 5
REMARK VINA RESULT:    -5.102      1.679      3.087
REMARK INTER + INTRA:          -5.564
REMARK INTER:                  -5.402
REMARK INTRA:                  -0.162
REMARK UNBOUND:                -0.164
REMARK SMILES C=C(C)[C@H]1CC=C(C)CC1
REMARK SMILES IDX 8 1 7 2 6 3 5 4 4 5 10 6 9 7 2 8 1 9 3 10
REMARK H PARENT
REMARK Flexibility Score: inf
ROOT
ATOM      1  C   UNL     1      -1.021 -22.245   0.781  1.00  0.00     0.039 C 
ATOM      2  C   UNL     1      -1.988 -23.305   0.333  1.00  0.00    -0.077 C 
ATOM      3  C   UNL     1      -1.572 -24.310  -0.455  1.00  0.00    -0.027 C 
ATOM      4  C   UNL     1      -2.542 -25.389  -0.851  1.00  0.00     0.035 C 
ATOM      5  C   UNL     1      -3.346 -25.864   0.383  1.00  0.00     0.018 C 
ATOM      6  C   UNL     1      -3.847 -24.692   1.291  1.00  0.00     0.013 C 
ATOM      7  C   UNL     1      -3.429 -23.296   0.790  1.00  0.00     0.031 C 
ENDROOT
BRANCH   5   8
ATOM      8  C   UNL     1      -4.486 -26.784  -0.036  1.00  0.00    -0.077 C 
ATOM      9  C   UNL     1      -4.338 -28.118  -0.011  1.00  0.00     0.008 C 
ATOM     10  C   UNL     1      -5.803 -26.207  -0.487  1.00  0.00     0.039 C 
ENDBRANCH   5   8
TORSDOF 1
ENDMDL
MODEL 6
REMARK VINA RESULT:    -5.069      0.904      4.515
REMARK INTER + INTRA:          -5.530
REMARK INTER:                  -5.365
REMARK INTRA:                  -0.165
REMARK UNBOUND:                -0.164
REMARK SMILES C=C(C)[C@H]1CC=C(C)CC1
REMARK SMILES IDX 8 1 7 2 6 3 5 4 4 5 10 6 9 7 2 8 1 9 3 10
REMARK H PARENT
REMARK Flexibility Score: inf
ROOT
ATOM      1  C   UNL     1      -5.404 -23.263   2.305  1.00  0.00     0.039 C 
ATOM      2  C   UNL     1      -4.371 -23.732   1.319  1.00  0.00    -0.077 C 
ATOM      3  C   UNL     1      -3.259 -23.010   1.108  1.00  0.00    -0.027 C 
ATOM      4  C   UNL     1      -2.215 -23.522   0.156  1.00  0.00     0.035 C 
ATOM      5  C   UNL     1      -1.936 -25.021   0.422  1.00  0.00     0.018 C 
ATOM      6  C   UNL     1      -3.234 -25.866   0.648  1.00  0.00     0.013 C 
ATOM      7  C   UNL     1      -4.532 -25.040   0.578  1.00  0.00     0.031 C 
ENDROOT
BRANCH   5   8
ATOM      8  C   UNL     1      -1.059 -25.611  -0.674  1.00  0.00    -0.077 C 
ATOM      9  C   UNL     1      -1.165 -25.187  -1.944  1.00  0.00     0.008 C 
ATOM     10  C   UNL     1      -0.051 -26.684  -0.349  1.00  0.00     0.039 C 
ENDBRANCH   5   8
TORSDOF 1
ENDMDL
MODEL 7
REMARK VINA RESULT:    -5.015      4.218      6.940
REMARK INTER + INTRA:          -5.473
REMARK INTER:                  -5.317
REMARK INTRA:                  -0.156
REMARK UNBOUND:                -0.164
REMARK SMILES C=C(C)[C@H]1CC=C(C)CC1
REMARK SMILES IDX 8 1 7 2 6 3 5 4 4 5 10 6 9 7 2 8 1 9 3 10
REMARK H PARENT
REMARK Flexibility Score: inf
ROOT
ATOM      1  C   UNL     1       4.977 -30.541   2.998  1.00  0.00     0.039 C 
ATOM      2  C   UNL     1       4.309 -29.553   2.083  1.00  0.00    -0.077 C 
ATOM      3  C   UNL     1       4.726 -29.417   0.814  1.00  0.00    -0.027 C 
ATOM      4  C   UNL     1       4.012 -28.461  -0.100  1.00  0.00     0.035 C 
ATOM      5  C   UNL     1       2.480 -28.638   0.031  1.00  0.00     0.018 C 
ATOM      6  C   UNL     1       1.992 -28.777   1.511  1.00  0.00     0.013 C 
ATOM      7  C   UNL     1       3.131 -28.726   2.547  1.00  0.00     0.031 C 
ENDROOT
BRANCH   5   8
ATOM      8  C   UNL     1       1.743 -27.529  -0.708  1.00  0.00    -0.077 C 
ATOM      9  C   UNL     1       0.612 -27.003  -0.210  1.00  0.00     0.008 C 
ATOM     10  C   UNL     1       2.275 -27.001  -2.015  1.00  0.00     0.039 C 
ENDBRANCH   5   8
TORSDOF 1
ENDMDL
MODEL 8
REMARK VINA RESULT:    -4.965      5.513      7.830
REMARK INTER + INTRA:          -5.419
REMARK INTER:                  -5.259
REMARK INTRA:                  -0.160
REMARK UNBOUND:                -0.164
REMARK SMILES C=C(C)[C@H]1CC=C(C)CC1
REMARK SMILES IDX 8 1 7 2 6 3 5 4 4 5 10 6 9 7 2 8 1 9 3 10
REMARK H PARENT
REMARK Flexibility Score: inf
ROOT
ATOM      1  C   UNL     1       2.008 -26.972  -1.616  1.00  0.00     0.039 C 
ATOM      2  C   UNL     1       2.541 -27.961  -0.617  1.00  0.00    -0.077 C 
ATOM      3  C   UNL     1       3.847 -28.276  -0.608  1.00  0.00    -0.027 C 
ATOM      4  C   UNL     1       4.369 -29.228   0.432  1.00  0.00     0.035 C 
ATOM      5  C   UNL     1       3.815 -28.854   1.828  1.00  0.00     0.018 C 
ATOM      6  C   UNL     1       2.289 -28.506   1.820  1.00  0.00     0.013 C 
ATOM      7  C   UNL     1       1.641 -28.587   0.425  1.00  0.00     0.031 C 
ENDROOT
BRANCH   5   8
ATOM      8  C   UNL     1       4.145 -29.936   2.848  1.00  0.00    -0.077 C 
ATOM      9  C   UNL     1       5.374 -30.027   3.381  1.00  0.00     0.008 C 
ATOM     10  C   UNL     1       3.092 -30.924   3.277  1.00  0.00     0.039 C 
ENDBRANCH   5   8
TORSDOF 1
ENDMDL
MODEL 9
REMARK VINA RESULT:    -4.893      1.610      4.252
REMARK INTER + INTRA:          -5.343
REMARK INTER:                  -5.177
REMARK INTRA:                  -0.166
REMARK UNBOUND:                -0.164
REMARK SMILES C=C(C)[C@H]1CC=C(C)CC1
REMARK SMILES IDX 8 1 7 2 6 3 5 4 4 5 10 6 9 7 2 8 1 9 3 10
REMARK H PARENT
REMARK Flexibility Score: inf
ROOT
ATOM      1  C   UNL     1      -7.083 -26.427  -1.128  1.00  0.00     0.039 C 
ATOM      2  C   UNL     1      -5.640 -26.016  -1.042  1.00  0.00    -0.077 C 
ATOM      3  C   UNL     1      -5.143 -25.109  -1.898  1.00  0.00    -0.027 C 
ATOM      4  C   UNL     1      -3.710 -24.673  -1.763  1.00  0.00     0.035 C 
ATOM      5  C   UNL     1      -3.381 -24.368  -0.281  1.00  0.00     0.018 C 
ATOM      6  C   UNL     1      -3.944 -25.436   0.715  1.00  0.00     0.013 C 
ATOM      7  C   UNL     1      -4.729 -26.571   0.030  1.00  0.00     0.031 C 
ENDROOT
BRANCH   5   8
ATOM      8  C   UNL     1      -1.885 -24.151  -0.094  1.00  0.00    -0.077 C 
ATOM      9  C   UNL     1      -1.008 -25.132  -0.363  1.00  0.00     0.008 C 
ATOM     10  C   UNL     1      -1.364 -22.825   0.396  1.00  0.00     0.039 C 
ENDBRANCH   5   8
TORSDOF 1
ENDMDL
