MODEL 1
REMARK VINA RESULT:    -6.114      0.000      0.000
REMARK INTER + INTRA:         -10.996
REMARK INTER:                  -9.331
REMARK INTRA:                  -1.665
REMARK UNBOUND:                -1.665
REMARK SMILES CC(=O)CCC=C(C)CCC=C(C)CCC=C(C)C
REMARK SMILES IDX 10 1 11 2 12 3 13 4 14 5 15 6 16 7 18 8 17 9 19 10 9 11 7 12
REMARK SMILES IDX 6 13 8 14 5 15 4 16 2 17 3 18 1 19
REMARK H PARENT
REMARK Flexibility Score: inf
ROOT
ATOM      1  C   UNL     1      -7.172  28.684  42.129  1.00  0.00     0.032 C 
ENDROOT
BRANCH   1   2
ATOM      2  C   UNL     1      -7.570  29.543  40.953  1.00  0.00    -0.028 C 
ATOM      3  C   UNL     1      -8.402  29.116  39.977  1.00  0.00    -0.077 C 
ATOM      4  C   UNL     1      -9.000  27.728  40.003  1.00  0.00     0.039 C 
BRANCH   3   5
ATOM      5  C   UNL     1      -8.742  30.047  38.835  1.00  0.00     0.034 C 
BRANCH   5   6
ATOM      6  C   UNL     1      -9.424  31.318  39.353  1.00  0.00     0.032 C 
BRANCH   6   7
ATOM      7  C   UNL     1      -9.840  32.207  38.207  1.00  0.00    -0.028 C 
ATOM      8  C   UNL     1      -7.860  33.720  38.451  1.00  0.00     0.039 C 
ATOM      9  C   UNL     1      -9.135  33.275  37.775  1.00  0.00    -0.080 C 
ATOM     10  C   UNL     1      -9.656  34.047  36.590  1.00  0.00     0.039 C 
ENDBRANCH   6   7
ENDBRANCH   5   6
ENDBRANCH   3   5
ENDBRANCH   1   2
BRANCH   1  11
ATOM     11  C   UNL     1      -8.219  28.753  43.248  1.00  0.00     0.034 C 
BRANCH  11  12
ATOM     12  C   UNL     1      -8.362  30.168  43.763  1.00  0.00    -0.077 C 
ATOM     13  C   UNL     1      -9.281  30.983  43.197  1.00  0.00    -0.028 C 
ATOM     14  C   UNL     1      -7.492  30.625  44.911  1.00  0.00     0.039 C 
BRANCH  13  15
ATOM     15  C   UNL     1      -9.492  32.426  43.580  1.00  0.00     0.035 C 
BRANCH  15  16
ATOM     16  C   UNL     1      -9.323  33.340  42.362  1.00  0.00     0.079 C 
BRANCH  16  17
ATOM     17  C   UNL     1      -7.960  33.980  42.361  1.00  0.00     0.130 C 
ATOM     18  O   UNL     1      -7.834  35.125  42.768  1.00  0.00    -0.300 OA
ATOM     19  C   UNL     1      -6.751  33.245  41.864  1.00  0.00     0.087 C 
ENDBRANCH  16  17
ENDBRANCH  15  16
ENDBRANCH  13  15
ENDBRANCH  11  12
ENDBRANCH   1  11
TORSDOF 9
ENDMDL
MODEL 2
REMARK VINA RESULT:    -6.102      1.588      4.509
REMARK INTER + INTRA:         -10.978
REMARK INTER:                  -9.267
REMARK INTRA:                  -1.711
REMARK UNBOUND:                -1.665
REMARK SMILES CC(=O)CCC=C(C)CCC=C(C)CCC=C(C)C
REMARK SMILES IDX 10 1 11 2 12 3 13 4 14 5 15 6 16 7 18 8 17 9 19 10 9 11 7 12
REMARK SMILES IDX 6 13 8 14 5 15 4 16 2 17 3 18 1 19
REMARK H PARENT
REMARK Flexibility Score: inf
ROOT
ATOM      1  C   UNL     1      -7.897  28.736  42.907  1.00  0.00     0.032 C 
ENDROOT
BRANCH   1   2
ATOM      2  C   UNL     1      -8.769  29.880  43.366  1.00  0.00    -0.028 C 
ATOM      3  C   UNL     1      -8.485  30.633  44.452  1.00  0.00    -0.077 C 
ATOM      4  C   UNL     1      -7.253  30.376  45.288  1.00  0.00     0.039 C 
BRANCH   3   5
ATOM      5  C   UNL     1      -9.420  31.757  44.838  1.00  0.00     0.034 C 
BRANCH   5   6
ATOM      6  C   UNL     1      -9.482  32.817  43.732  1.00  0.00     0.032 C 
BRANCH   6   7
ATOM      7  C   UNL     1      -8.147  32.950  43.043  1.00  0.00    -0.028 C 
ATOM      8  C   UNL     1      -8.764  35.096  41.910  1.00  0.00     0.039 C 
ATOM      9  C   UNL     1      -7.800  33.982  42.242  1.00  0.00    -0.080 C 
ATOM     10  C   UNL     1      -6.413  33.999  41.654  1.00  0.00     0.039 C 
ENDBRANCH   6   7
ENDBRANCH   5   6
ENDBRANCH   3   5
ENDBRANCH   1   2
BRANCH   1  11
ATOM     11  C   UNL     1      -7.176  29.077  41.598  1.00  0.00     0.034 C 
BRANCH  11  12
ATOM     12  C   UNL     1      -8.172  29.373  40.497  1.00  0.00    -0.077 C 
ATOM     13  C   UNL     1      -8.376  30.657  40.124  1.00  0.00    -0.028 C 
ATOM     14  C   UNL     1      -8.892  28.226  39.829  1.00  0.00     0.039 C 
BRANCH  13  15
ATOM     15  C   UNL     1      -9.371  31.095  39.081  1.00  0.00     0.035 C 
BRANCH  15  16
ATOM     16  C   UNL     1      -9.882  32.508  39.378  1.00  0.00     0.079 C 
BRANCH  16  17
ATOM     17  C   UNL     1      -9.339  33.492  38.376  1.00  0.00     0.130 C 
ATOM     18  O   UNL     1     -10.091  33.984  37.548  1.00  0.00    -0.300 OA
ATOM     19  C   UNL     1      -7.890  33.876  38.364  1.00  0.00     0.087 C 
ENDBRANCH  16  17
ENDBRANCH  15  16
ENDBRANCH  13  15
ENDBRANCH  11  12
ENDBRANCH   1  11
TORSDOF 9
ENDMDL
MODEL 3
REMARK VINA RESULT:    -5.963      1.095      4.781
REMARK INTER + INTRA:         -10.766
REMARK INTER:                  -9.191
REMARK INTRA:                  -1.574
REMARK UNBOUND:                -1.665
REMARK SMILES CC(=O)CCC=C(C)CCC=C(C)CCC=C(C)C
REMARK SMILES IDX 10 1 11 2 12 3 13 4 14 5 15 6 16 7 18 8 17 9 19 10 9 11 7 12
REMARK SMILES IDX 6 13 8 14 5 15 4 16 2 17 3 18 1 19
REMARK H PARENT
REMARK Flexibility Score: inf
ROOT
ATOM      1  C   UNL     1      -8.609  29.886  38.035  1.00  0.00     0.032 C 
ENDROOT
BRANCH   1   2
ATOM      2  C   UNL     1      -8.229  29.775  39.492  1.00  0.00    -0.028 C 
ATOM      3  C   UNL     1      -8.568  28.718  40.264  1.00  0.00    -0.077 C 
ATOM      4  C   UNL     1      -9.359  27.558  39.706  1.00  0.00     0.039 C 
BRANCH   3   5
ATOM      5  C   UNL     1      -8.145  28.696  41.715  1.00  0.00     0.034 C 
BRANCH   5   6
ATOM      6  C   UNL     1      -7.544  30.044  42.128  1.00  0.00     0.032 C 
BRANCH   6   7
ATOM      7  C   UNL     1      -8.581  30.909  42.801  1.00  0.00    -0.028 C 
ATOM      8  C   UNL     1      -7.548  30.665  45.068  1.00  0.00     0.039 C 
ATOM      9  C   UNL     1      -8.582  31.217  44.116  1.00  0.00    -0.080 C 
ATOM     10  C   UNL     1      -9.663  32.127  44.639  1.00  0.00     0.039 C 
ENDBRANCH   6   7
ENDBRANCH   5   6
ENDBRANCH   3   5
ENDBRANCH   1   2
BRANCH   1  11
ATOM     11  C   UNL     1      -8.037  31.162  37.407  1.00  0.00     0.034 C 
BRANCH  11  12
ATOM     12  C   UNL     1      -8.733  32.389  37.953  1.00  0.00    -0.077 C 
ATOM     13  C   UNL     1      -8.085  33.170  38.847  1.00  0.00    -0.028 C 
ATOM     14  C   UNL     1     -10.124  32.722  37.466  1.00  0.00     0.039 C 
BRANCH  13  15
ATOM     15  C   UNL     1      -8.680  34.389  39.505  1.00  0.00     0.035 C 
BRANCH  15  16
ATOM     16  C   UNL     1      -9.288  34.028  40.864  1.00  0.00     0.079 C 
BRANCH  16  17
ATOM     17  C   UNL     1      -8.377  34.453  41.984  1.00  0.00     0.130 C 
ATOM     18  O   UNL     1      -8.825  35.122  42.903  1.00  0.00    -0.300 OA
ATOM     19  C   UNL     1      -6.924  34.082  41.994  1.00  0.00     0.087 C 
ENDBRANCH  16  17
ENDBRANCH  15  16
ENDBRANCH  13  15
ENDBRANCH  11  12
ENDBRANCH   1  11
TORSDOF 9
ENDMDL
MODEL 4
REMARK VINA RESULT:    -5.949      1.421      3.954
REMARK INTER + INTRA:         -10.745
REMARK INTER:                  -9.092
REMARK INTRA:                  -1.653
REMARK UNBOUND:                -1.665
REMARK SMILES CC(=O)CCC=C(C)CCC=C(C)CCC=C(C)C
REMARK SMILES IDX 10 1 11 2 12 3 13 4 14 5 15 6 16 7 18 8 17 9 19 10 9 11 7 12
REMARK SMILES IDX 6 13 8 14 5 15 4 16 2 17 3 18 1 19
REMARK H PARENT
REMARK Flexibility Score: inf
ROOT
ATOM      1  C   UNL     1      -8.419  29.635  38.240  1.00  0.00     0.032 C 
ENDROOT
BRANCH   1   2
ATOM      2  C   UNL     1      -9.133  30.799  38.884  1.00  0.00    -0.028 C 
ATOM      3  C   UNL     1      -9.398  31.953  38.231  1.00  0.00    -0.077 C 
ATOM      4  C   UNL     1      -8.994  32.152  36.789  1.00  0.00     0.039 C 
BRANCH   3   5
ATOM      5  C   UNL     1     -10.116  33.066  38.960  1.00  0.00     0.034 C 
BRANCH   5   6
ATOM      6  C   UNL     1      -9.175  34.250  39.208  1.00  0.00     0.032 C 
BRANCH   6   7
ATOM      7  C   UNL     1      -9.309  34.751  40.625  1.00  0.00    -0.028 C 
ATOM      8  C   UNL     1      -7.478  33.277  41.490  1.00  0.00     0.039 C 
ATOM      9  C   UNL     1      -8.537  34.341  41.656  1.00  0.00    -0.080 C 
ATOM     10  C   UNL     1      -8.761  34.962  43.011  1.00  0.00     0.039 C 
ENDBRANCH   6   7
ENDBRANCH   5   6
ENDBRANCH   3   5
ENDBRANCH   1   2
BRANCH   1  11
ATOM     11  C   UNL     1      -7.528  28.901  39.250  1.00  0.00     0.034 C 
BRANCH  11  12
ATOM     12  C   UNL     1      -8.255  28.700  40.561  1.00  0.00    -0.077 C 
ATOM     13  C   UNL     1      -7.912  29.459  41.626  1.00  0.00    -0.028 C 
ATOM     14  C   UNL     1      -9.361  27.674  40.639  1.00  0.00     0.039 C 
BRANCH  13  15
ATOM     15  C   UNL     1      -8.519  29.328  42.999  1.00  0.00     0.035 C 
BRANCH  15  16
ATOM     16  C   UNL     1      -9.493  30.477  43.273  1.00  0.00     0.079 C 
BRANCH  16  17
ATOM     17  C   UNL     1      -8.972  31.368  44.369  1.00  0.00     0.130 C 
ATOM     18  O   UNL     1      -9.703  32.220  44.850  1.00  0.00    -0.300 OA
ATOM     19  C   UNL     1      -7.567  31.239  44.880  1.00  0.00     0.087 C 
ENDBRANCH  16  17
ENDBRANCH  15  16
ENDBRANCH  13  15
ENDBRANCH  11  12
ENDBRANCH   1  11
TORSDOF 9
ENDMDL
MODEL 5
REMARK VINA RESULT:    -5.894      1.954      6.334
REMARK INTER + INTRA:         -10.660
REMARK INTER:                  -9.009
REMARK INTRA:                  -1.651
REMARK UNBOUND:                -1.665
REMARK SMILES CC(=O)CCC=C(C)CCC=C(C)CCC=C(C)C
REMARK SMILES IDX 10 1 11 2 12 3 13 4 14 5 15 6 16 7 18 8 17 9 19 10 9 11 7 12
REMARK SMILES IDX 6 13 8 14 5 15 4 16 2 17 3 18 1 19
REMARK H PARENT
REMARK Flexibility Score: inf
ROOT
ATOM      1  C   UNL     1      -9.377  35.114  40.770  1.00  0.00     0.032 C 
ENDROOT
BRANCH   1   2
ATOM      2  C   UNL     1      -9.340  34.340  42.065  1.00  0.00    -0.028 C 
ATOM      3  C   UNL     1      -8.226  33.729  42.528  1.00  0.00    -0.077 C 
ATOM      4  C   UNL     1      -6.923  33.788  41.766  1.00  0.00     0.039 C 
BRANCH   3   5
ATOM      5  C   UNL     1      -8.286  32.974  43.836  1.00  0.00     0.034 C 
BRANCH   5   6
ATOM      6  C   UNL     1      -9.379  31.900  43.796  1.00  0.00     0.032 C 
BRANCH   6   7
ATOM      7  C   UNL     1      -8.841  30.610  43.229  1.00  0.00    -0.028 C 
ATOM      8  C   UNL     1      -7.522  30.068  45.288  1.00  0.00     0.039 C 
ATOM      9  C   UNL     1      -8.025  29.764  43.897  1.00  0.00    -0.080 C 
ATOM     10  C   UNL     1      -7.600  28.490  43.214  1.00  0.00     0.039 C 
ENDBRANCH   6   7
ENDBRANCH   5   6
ENDBRANCH   3   5
ENDBRANCH   1   2
BRANCH   1  11
ATOM     11  C   UNL     1     -10.108  34.329  39.674  1.00  0.00     0.034 C 
BRANCH  11  12
ATOM     12  C   UNL     1      -9.164  33.375  38.976  1.00  0.00    -0.077 C 
ATOM     13  C   UNL     1      -9.159  32.072  39.339  1.00  0.00    -0.028 C 
ATOM     14  C   UNL     1      -8.269  33.897  37.876  1.00  0.00     0.039 C 
BRANCH  13  15
ATOM     15  C   UNL     1      -8.237  31.028  38.762  1.00  0.00     0.035 C 
BRANCH  15  16
ATOM     16  C   UNL     1      -8.975  29.700  38.569  1.00  0.00     0.079 C 
BRANCH  16  17
ATOM     17  C   UNL     1      -8.448  28.655  39.515  1.00  0.00     0.130 C 
ATOM     18  O   UNL     1      -7.258  28.639  39.791  1.00  0.00    -0.300 OA
ATOM     19  C   UNL     1      -9.351  27.623  40.122  1.00  0.00     0.087 C 
ENDBRANCH  16  17
ENDBRANCH  15  16
ENDBRANCH  13  15
ENDBRANCH  11  12
ENDBRANCH   1  11
TORSDOF 9
ENDMDL
MODEL 6
REMARK VINA RESULT:    -5.766      1.967      5.104
REMARK INTER + INTRA:         -10.465
REMARK INTER:                  -9.493
REMARK INTRA:                  -0.972
REMARK UNBOUND:                -1.665
REMARK SMILES CC(=O)CCC=C(C)CCC=C(C)CCC=C(C)C
REMARK SMILES IDX 10 1 11 2 12 3 13 4 14 5 15 6 16 7 18 8 17 9 19 10 9 11 7 12
REMARK SMILES IDX 6 13 8 14 5 15 4 16 2 17 3 18 1 19
REMARK H PARENT
REMARK Flexibility Score: inf
ROOT
ATOM      1  C   UNL     1      -7.538  32.999  43.443  1.00  0.00     0.032 C 
ENDROOT
BRANCH   1   2
ATOM      2  C   UNL     1      -8.107  31.646  43.090  1.00  0.00    -0.028 C 
ATOM      3  C   UNL     1      -8.001  30.568  43.899  1.00  0.00    -0.077 C 
ATOM      4  C   UNL     1      -7.298  30.652  45.234  1.00  0.00     0.039 C 
BRANCH   3   5
ATOM      5  C   UNL     1      -8.600  29.251  43.459  1.00  0.00     0.034 C 
BRANCH   5   6
ATOM      6  C   UNL     1      -7.734  28.592  42.380  1.00  0.00     0.032 C 
BRANCH   6   7
ATOM      7  C   UNL     1      -7.749  29.408  41.111  1.00  0.00    -0.028 C 
ATOM      8  C   UNL     1      -9.123  27.732  39.857  1.00  0.00     0.039 C 
ATOM      9  C   UNL     1      -8.389  29.046  39.977  1.00  0.00    -0.080 C 
ATOM     10  C   UNL     1      -8.348  29.985  38.799  1.00  0.00     0.039 C 
ENDBRANCH   6   7
ENDBRANCH   5   6
ENDBRANCH   3   5
ENDBRANCH   1   2
BRANCH   1  11
ATOM     11  C   UNL     1      -7.130  33.776  42.186  1.00  0.00     0.034 C 
BRANCH  11  12
ATOM     12  C   UNL     1      -8.340  34.098  41.337  1.00  0.00    -0.077 C 
ATOM     13  C   UNL     1      -8.515  33.441  40.167  1.00  0.00    -0.028 C 
ATOM     14  C   UNL     1      -9.333  35.125  41.829  1.00  0.00     0.039 C 
BRANCH  13  15
ATOM     15  C   UNL     1      -9.646  33.700  39.204  1.00  0.00     0.035 C 
BRANCH  15  16
ATOM     16  C   UNL     1      -9.208  34.667  38.100  1.00  0.00     0.079 C 
BRANCH  16  17
ATOM     17  C   UNL     1      -9.502  34.090  36.740  1.00  0.00     0.130 C 
ATOM     18  O   UNL     1      -9.982  34.807  35.875  1.00  0.00    -0.300 OA
ATOM     19  C   UNL     1      -9.226  32.650  36.426  1.00  0.00     0.087 C 
ENDBRANCH  16  17
ENDBRANCH  15  16
ENDBRANCH  13  15
ENDBRANCH  11  12
ENDBRANCH   1  11
TORSDOF 9
ENDMDL
MODEL 7
REMARK VINA RESULT:    -5.149      1.503      2.258
REMARK INTER + INTRA:          -9.523
REMARK INTER:                  -8.152
REMARK INTRA:                  -1.371
REMARK UNBOUND:                -1.665
REMARK SMILES CC(=O)CCC=C(C)CCC=C(C)CCC=C(C)C
REMARK SMILES IDX 10 1 11 2 12 3 13 4 14 5 15 6 16 7 18 8 17 9 19 10 9 11 7 12
REMARK SMILES IDX 6 13 8 14 5 15 4 16 2 17 3 18 1 19
REMARK H PARENT
REMARK Flexibility Score: inf
ROOT
ATOM      1  C   UNL     1      -7.546  28.917  43.594  1.00  0.00     0.032 C 
ENDROOT
BRANCH   1   2
ATOM      2  C   UNL     1      -8.497  28.842  42.424  1.00  0.00    -0.028 C 
ATOM      3  C   UNL     1      -8.083  28.819  41.137  1.00  0.00    -0.077 C 
ATOM      4  C   UNL     1      -6.615  28.863  40.783  1.00  0.00     0.039 C 
BRANCH   3   5
ATOM      5  C   UNL     1      -9.110  28.746  40.030  1.00  0.00     0.034 C 
BRANCH   5   6
ATOM      6  C   UNL     1      -8.557  29.349  38.734  1.00  0.00     0.032 C 
BRANCH   6   7
ATOM      7  C   UNL     1      -9.101  30.739  38.516  1.00  0.00    -0.028 C 
ATOM      8  C   UNL     1      -8.237  30.882  36.169  1.00  0.00     0.039 C 
ATOM      9  C   UNL     1      -8.986  31.431  37.360  1.00  0.00    -0.080 C 
ATOM     10  C   UNL     1      -9.616  32.798  37.278  1.00  0.00     0.039 C 
ENDBRANCH   6   7
ENDBRANCH   5   6
ENDBRANCH   3   5
ENDBRANCH   1   2
BRANCH   1  11
ATOM     11  C   UNL     1      -8.032  29.924  44.643  1.00  0.00     0.034 C 
BRANCH  11  12
ATOM     12  C   UNL     1      -8.469  31.215  43.986  1.00  0.00    -0.077 C 
ATOM     13  C   UNL     1      -7.538  32.150  43.690  1.00  0.00    -0.028 C 
ATOM     14  C   UNL     1      -9.930  31.414  43.655  1.00  0.00     0.039 C 
BRANCH  13  15
ATOM     15  C   UNL     1      -7.842  33.496  43.083  1.00  0.00     0.035 C 
BRANCH  15  16
ATOM     16  C   UNL     1      -6.995  33.728  41.829  1.00  0.00     0.079 C 
BRANCH  16  17
ATOM     17  C   UNL     1      -7.863  33.759  40.598  1.00  0.00     0.130 C 
ATOM     18  O   UNL     1      -7.340  33.748  39.494  1.00  0.00    -0.300 OA
ATOM     19  C   UNL     1      -9.358  33.811  40.698  1.00  0.00     0.087 C 
ENDBRANCH  16  17
ENDBRANCH  15  16
ENDBRANCH  13  15
ENDBRANCH  11  12
ENDBRANCH   1  11
TORSDOF 9
ENDMDL
MODEL 8
REMARK VINA RESULT:    -5.063     18.063     20.363
REMARK INTER + INTRA:          -9.391
REMARK INTER:                  -8.124
REMARK INTRA:                  -1.268
REMARK UNBOUND:                -1.665
REMARK SMILES CC(=O)CCC=C(C)CCC=C(C)CCC=C(C)C
REMARK SMILES IDX 10 1 11 2 12 3 13 4 14 5 15 6 16 7 18 8 17 9 19 10 9 11 7 12
REMARK SMILES IDX 6 13 8 14 5 15 4 16 2 17 3 18 1 19
REMARK H PARENT
REMARK Flexibility Score: inf
ROOT
ATOM      1  C   UNL     1      -1.360  17.751  50.684  1.00  0.00     0.032 C 
ENDROOT
BRANCH   1   2
ATOM      2  C   UNL     1      -1.838  17.827  52.114  1.00  0.00    -0.028 C 
ATOM      3  C   UNL     1      -1.650  16.831  53.008  1.00  0.00    -0.077 C 
ATOM      4  C   UNL     1      -0.931  15.558  52.627  1.00  0.00     0.039 C 
BRANCH   3   5
ATOM      5  C   UNL     1      -2.167  16.996  54.419  1.00  0.00     0.034 C 
BRANCH   5   6
ATOM      6  C   UNL     1      -3.444  17.843  54.436  1.00  0.00     0.032 C 
BRANCH   6   7
ATOM      7  C   UNL     1      -4.593  17.068  55.033  1.00  0.00    -0.028 C 
ATOM      8  C   UNL     1      -5.240  16.031  52.847  1.00  0.00     0.039 C 
ATOM      9  C   UNL     1      -5.393  16.231  54.336  1.00  0.00    -0.080 C 
ATOM     10  C   UNL     1      -6.477  15.492  55.077  1.00  0.00     0.039 C 
ENDBRANCH   6   7
ENDBRANCH   5   6
ENDBRANCH   3   5
ENDBRANCH   1   2
BRANCH   1  11
ATOM     11  C   UNL     1      -2.351  16.979  49.806  1.00  0.00     0.034 C 
BRANCH  11  12
ATOM     12  C   UNL     1      -1.634  16.281  48.671  1.00  0.00    -0.077 C 
ATOM     13  C   UNL     1      -0.426  15.718  48.904  1.00  0.00    -0.028 C 
ATOM     14  C   UNL     1      -2.296  16.212  47.315  1.00  0.00     0.039 C 
BRANCH  13  15
ATOM     15  C   UNL     1       0.416  15.039  47.855  1.00  0.00     0.035 C 
BRANCH  15  16
ATOM     16  C   UNL     1       1.906  15.186  48.177  1.00  0.00     0.079 C 
BRANCH  16  17
ATOM     17  C   UNL     1       2.682  15.565  46.944  1.00  0.00     0.130 C 
ATOM     18  O   UNL     1       3.617  16.347  47.038  1.00  0.00    -0.300 OA
ATOM     19  C   UNL     1       2.328  15.011  45.596  1.00  0.00     0.087 C 
ENDBRANCH  16  17
ENDBRANCH  15  16
ENDBRANCH  13  15
ENDBRANCH  11  12
ENDBRANCH   1  11
TORSDOF 9
ENDMDL
