MODEL 1
REMARK VINA RESULT:    -4.478      0.000      0.000
REMARK INTER + INTRA:          -6.338
REMARK INTER:                  -6.049
REMARK INTRA:                  -0.289
REMARK UNBOUND:                -0.289
REMARK SMILES CCCCCCC=CC(=O)[O-]
REMARK SMILES IDX 5 1 6 2 7 3 8 4 9 5 10 6 11 7 4 8 3 9 2 10 1 11
REMARK H PARENT
REMARK Flexibility Score: inf
ROOT
ATOM      1  C   UNL     1      -1.829  -5.695  -0.929  1.00  0.00     0.004 C 
ENDROOT
BRANCH   1   2
ATOM      2  C   UNL     1      -0.830  -5.400  -2.055  1.00  0.00     0.027 C 
BRANCH   2   3
ATOM      3  C   UNL     1      -1.529  -5.157  -3.364  1.00  0.00    -0.025 C 
ATOM      4  C   UNL     1      -2.826  -5.432  -3.528  1.00  0.00     0.020 C 
BRANCH   4   5
ATOM      5  C   UNL     1      -3.510  -5.234  -4.814  1.00  0.00     0.064 C 
ATOM      6  O   UNL     1      -3.177  -4.272  -5.554  1.00  0.00    -0.545 OA
ATOM      7  O   UNL     1      -4.521  -6.094  -5.228  1.00  0.00    -0.545 OA
ENDBRANCH   4   5
ENDBRANCH   2   3
ENDBRANCH   1   2
BRANCH   1   8
ATOM      8  C   UNL     1      -1.336  -5.183   0.433  1.00  0.00     0.000 C 
BRANCH   8   9
ATOM      9  C   UNL     1      -0.657  -3.814   0.293  1.00  0.00    -0.000 C 
BRANCH   9  10
ATOM     10  C   UNL     1      -0.429  -3.127   1.648  1.00  0.00    -0.003 C 
ATOM     11  C   UNL     1      -0.194  -1.622   1.516  1.00  0.00     0.004 C 
ENDBRANCH   9  10
ENDBRANCH   8   9
ENDBRANCH   1   8
TORSDOF 6
ENDMDL
MODEL 2
REMARK VINA RESULT:    -4.305     14.367     15.077
REMARK INTER + INTRA:          -6.104
REMARK INTER:                  -5.667
REMARK INTRA:                  -0.437
REMARK UNBOUND:                -0.289
REMARK SMILES CCCCCCC=CC(=O)[O-]
REMARK SMILES IDX 5 1 6 2 7 3 8 4 9 5 10 6 11 7 4 8 3 9 2 10 1 11
REMARK H PARENT
REMARK Flexibility Score: inf
ROOT
ATOM      1  C   UNL     1      -9.536   2.881   6.732  1.00  0.00     0.004 C 
ENDROOT
BRANCH   1   2
ATOM      2  C   UNL     1     -10.568   3.681   5.928  1.00  0.00     0.027 C 
BRANCH   2   3
ATOM      3  C   UNL     1     -10.181   5.129   5.818  1.00  0.00    -0.025 C 
ATOM      4  C   UNL     1      -8.924   5.501   5.558  1.00  0.00     0.020 C 
BRANCH   4   5
ATOM      5  C   UNL     1      -8.527   6.915   5.486  1.00  0.00     0.064 C 
ATOM      6  O   UNL     1      -8.411   7.473   4.364  1.00  0.00    -0.545 OA
ATOM      7  O   UNL     1      -8.277   7.649   6.641  1.00  0.00    -0.545 OA
ENDBRANCH   4   5
ENDBRANCH   2   3
ENDBRANCH   1   2
BRANCH   1   8
ATOM      8  C   UNL     1      -9.481   3.319   8.204  1.00  0.00     0.000 C 
BRANCH   8   9
ATOM      9  C   UNL     1      -8.374   2.571   8.958  1.00  0.00    -0.000 C 
BRANCH   9  10
ATOM     10  C   UNL     1      -7.269   3.510   9.468  1.00  0.00    -0.003 C 
ATOM     11  C   UNL     1      -7.427   4.941   8.956  1.00  0.00     0.004 C 
ENDBRANCH   9  10
ENDBRANCH   8   9
ENDBRANCH   1   8
TORSDOF 6
ENDMDL
MODEL 3
REMARK VINA RESULT:    -4.238      2.388      3.479
REMARK INTER + INTRA:          -6.013
REMARK INTER:                  -5.773
REMARK INTRA:                  -0.240
REMARK UNBOUND:                -0.289
REMARK SMILES CCCCCCC=CC(=O)[O-]
REMARK SMILES IDX 5 1 6 2 7 3 8 4 9 5 10 6 11 7 4 8 3 9 2 10 1 11
REMARK H PARENT
REMARK Flexibility Score: inf
ROOT
ATOM      1  C   UNL     1      -0.561  -3.338   0.355  1.00  0.00     0.004 C 
ENDROOT
BRANCH   1   2
ATOM      2  C   UNL     1      -1.038  -4.783   0.541  1.00  0.00     0.027 C 
BRANCH   2   3
ATOM      3  C   UNL     1      -1.210  -5.482  -0.779  1.00  0.00    -0.025 C 
ATOM      4  C   UNL     1      -0.219  -6.186  -1.335  1.00  0.00     0.020 C 
BRANCH   4   5
ATOM      5  C   UNL     1      -0.365  -6.841  -2.642  1.00  0.00     0.064 C 
ATOM      6  O   UNL     1      -1.241  -6.434  -3.448  1.00  0.00    -0.545 OA
ATOM      7  O   UNL     1       0.452  -7.908  -3.004  1.00  0.00    -0.545 OA
ENDBRANCH   4   5
ENDBRANCH   2   3
ENDBRANCH   1   2
BRANCH   1   8
ATOM      8  C   UNL     1      -0.204  -2.667   1.691  1.00  0.00     0.000 C 
BRANCH   8   9
ATOM      9  C   UNL     1      -0.237  -1.138   1.564  1.00  0.00    -0.000 C 
BRANCH   9  10
ATOM     10  C   UNL     1      -0.308  -0.669   0.102  1.00  0.00    -0.003 C 
ATOM     11  C   UNL     1      -0.042   0.829  -0.052  1.00  0.00     0.004 C 
ENDBRANCH   9  10
ENDBRANCH   8   9
ENDBRANCH   1   8
TORSDOF 6
ENDMDL
MODEL 4
REMARK VINA RESULT:    -4.123      3.775      6.259
REMARK INTER + INTRA:          -5.858
REMARK INTER:                  -5.599
REMARK INTRA:                  -0.259
REMARK UNBOUND:                -0.289
REMARK SMILES CCCCCCC=CC(=O)[O-]
REMARK SMILES IDX 5 1 6 2 7 3 8 4 9 5 10 6 11 7 4 8 3 9 2 10 1 11
REMARK H PARENT
REMARK Flexibility Score: inf
ROOT
ATOM      1  C   UNL     1      -1.077  -5.550  -1.242  1.00  0.00     0.004 C 
ENDROOT
BRANCH   1   2
ATOM      2  C   UNL     1      -1.138  -5.074   0.214  1.00  0.00     0.027 C 
BRANCH   2   3
ATOM      3  C   UNL     1      -0.488  -3.729   0.383  1.00  0.00    -0.025 C 
ATOM      4  C   UNL     1      -0.606  -3.030   1.516  1.00  0.00     0.020 C 
BRANCH   4   5
ATOM      5  C   UNL     1      -0.006  -1.699   1.678  1.00  0.00     0.064 C 
ATOM      6  O   UNL     1       0.817  -1.496   2.608  1.00  0.00    -0.545 OA
ATOM      7  O   UNL     1      -0.334  -0.655   0.818  1.00  0.00    -0.545 OA
ENDBRANCH   4   5
ENDBRANCH   2   3
ENDBRANCH   1   2
BRANCH   1   8
ATOM      8  C   UNL     1      -1.426  -4.430  -2.235  1.00  0.00     0.000 C 
BRANCH   8   9
ATOM      9  C   UNL     1      -2.855  -4.596  -2.770  1.00  0.00    -0.000 C 
BRANCH   9  10
ATOM     10  C   UNL     1      -2.905  -5.392  -4.083  1.00  0.00    -0.003 C 
ATOM     11  C   UNL     1      -3.247  -4.520  -5.291  1.00  0.00     0.004 C 
ENDBRANCH   9  10
ENDBRANCH   8   9
ENDBRANCH   1   8
TORSDOF 6
ENDMDL
MODEL 5
REMARK VINA RESULT:    -4.093      5.256      6.416
REMARK INTER + INTRA:          -5.818
REMARK INTER:                  -5.516
REMARK INTRA:                  -0.302
REMARK UNBOUND:                -0.289
REMARK SMILES CCCCCCC=CC(=O)[O-]
REMARK SMILES IDX 5 1 6 2 7 3 8 4 9 5 10 6 11 7 4 8 3 9 2 10 1 11
REMARK H PARENT
REMARK Flexibility Score: inf
ROOT
ATOM      1  C   UNL     1      -2.057  -5.774   0.518  1.00  0.00     0.004 C 
ENDROOT
BRANCH   1   2
ATOM      2  C   UNL     1      -2.191  -7.283   0.756  1.00  0.00     0.027 C 
BRANCH   2   3
ATOM      3  C   UNL     1      -1.648  -7.679   2.101  1.00  0.00    -0.025 C 
ATOM      4  C   UNL     1      -2.321  -8.498   2.915  1.00  0.00     0.020 C 
BRANCH   4   5
ATOM      5  C   UNL     1      -1.817  -8.862   4.247  1.00  0.00     0.064 C 
ATOM      6  O   UNL     1      -0.894  -8.185   4.770  1.00  0.00    -0.545 OA
ATOM      7  O   UNL     1      -2.345  -9.946   4.942  1.00  0.00    -0.545 OA
ENDBRANCH   4   5
ENDBRANCH   2   3
ENDBRANCH   1   2
BRANCH   1   8
ATOM      8  C   UNL     1      -0.846  -5.429  -0.362  1.00  0.00     0.000 C 
BRANCH   8   9
ATOM      9  C   UNL     1      -0.372  -3.992  -0.107  1.00  0.00    -0.000 C 
BRANCH   9  10
ATOM     10  C   UNL     1      -0.611  -3.541   1.343  1.00  0.00    -0.003 C 
ATOM     11  C   UNL     1      -0.216  -2.083   1.581  1.00  0.00     0.004 C 
ENDBRANCH   9  10
ENDBRANCH   8   9
ENDBRANCH   1   8
TORSDOF 6
ENDMDL
MODEL 6
REMARK VINA RESULT:    -3.995      1.778      2.195
REMARK INTER + INTRA:          -5.686
REMARK INTER:                  -5.376
REMARK INTRA:                  -0.309
REMARK UNBOUND:                -0.289
REMARK SMILES CCCCCCC=CC(=O)[O-]
REMARK SMILES IDX 5 1 6 2 7 3 8 4 9 5 10 6 11 7 4 8 3 9 2 10 1 11
REMARK H PARENT
REMARK Flexibility Score: inf
ROOT
ATOM      1  C   UNL     1      -2.042  -5.656  -0.674  1.00  0.00     0.004 C 
ENDROOT
BRANCH   1   2
ATOM      2  C   UNL     1      -1.941  -4.680  -1.852  1.00  0.00     0.027 C 
BRANCH   2   3
ATOM      3  C   UNL     1      -1.659  -5.398  -3.142  1.00  0.00    -0.025 C 
ATOM      4  C   UNL     1      -0.589  -5.105  -3.889  1.00  0.00     0.020 C 
BRANCH   4   5
ATOM      5  C   UNL     1      -0.324  -5.774  -5.170  1.00  0.00     0.064 C 
ATOM      6  O   UNL     1       0.323  -6.854  -5.186  1.00  0.00    -0.545 OA
ATOM      7  O   UNL     1      -0.778  -5.233  -6.369  1.00  0.00    -0.545 OA
ENDBRANCH   4   5
ENDBRANCH   2   3
ENDBRANCH   1   2
BRANCH   1   8
ATOM      8  C   UNL     1      -1.260  -5.167   0.555  1.00  0.00     0.000 C 
BRANCH   8   9
ATOM      9  C   UNL     1      -0.648  -3.783   0.301  1.00  0.00    -0.000 C 
BRANCH   9  10
ATOM     10  C   UNL     1      -0.348  -3.022   1.602  1.00  0.00    -0.003 C 
ATOM     11  C   UNL     1      -0.304  -1.507   1.404  1.00  0.00     0.004 C 
ENDBRANCH   9  10
ENDBRANCH   8   9
ENDBRANCH   1   8
TORSDOF 6
ENDMDL
MODEL 7
REMARK VINA RESULT:    -3.988      9.292     10.379
REMARK INTER + INTRA:          -5.676
REMARK INTER:                  -5.318
REMARK INTRA:                  -0.358
REMARK UNBOUND:                -0.289
REMARK SMILES CCCCCCC=CC(=O)[O-]
REMARK SMILES IDX 5 1 6 2 7 3 8 4 9 5 10 6 11 7 4 8 3 9 2 10 1 11
REMARK H PARENT
REMARK Flexibility Score: inf
ROOT
ATOM      1  C   UNL     1       2.010  -4.660   8.018  1.00  0.00     0.004 C 
ENDROOT
BRANCH   1   2
ATOM      2  C   UNL     1       2.747  -5.770   7.259  1.00  0.00     0.027 C 
BRANCH   2   3
ATOM      3  C   UNL     1       1.787  -6.746   6.638  1.00  0.00    -0.025 C 
ATOM      4  C   UNL     1       0.481  -6.724   6.924  1.00  0.00     0.020 C 
BRANCH   4   5
ATOM      5  C   UNL     1      -0.460  -7.697   6.353  1.00  0.00     0.064 C 
ATOM      6  O   UNL     1      -0.209  -8.225   5.238  1.00  0.00    -0.545 OA
ATOM      7  O   UNL     1      -1.626  -8.047   7.026  1.00  0.00    -0.545 OA
ENDBRANCH   4   5
ENDBRANCH   2   3
ENDBRANCH   1   2
BRANCH   1   8
ATOM      8  C   UNL     1       2.616  -4.404   9.406  1.00  0.00     0.000 C 
BRANCH   8   9
ATOM      9  C   UNL     1       3.009  -2.930   9.571  1.00  0.00    -0.000 C 
BRANCH   9  10
ATOM     10  C   UNL     1       2.834  -2.124   8.275  1.00  0.00    -0.003 C 
ATOM     11  C   UNL     1       4.140  -1.499   7.786  1.00  0.00     0.004 C 
ENDBRANCH   9  10
ENDBRANCH   8   9
ENDBRANCH   1   8
TORSDOF 6
ENDMDL
MODEL 8
REMARK VINA RESULT:    -3.863      1.604      2.876
REMARK INTER + INTRA:          -5.507
REMARK INTER:                  -4.750
REMARK INTRA:                  -0.757
REMARK UNBOUND:                -0.289
REMARK SMILES CCCCCCC=CC(=O)[O-]
REMARK SMILES IDX 5 1 6 2 7 3 8 4 9 5 10 6 11 7 4 8 3 9 2 10 1 11
REMARK H PARENT
REMARK Flexibility Score: inf
ROOT
ATOM      1  C   UNL     1      -0.263  -4.867  -0.735  1.00  0.00     0.004 C 
ENDROOT
BRANCH   1   2
ATOM      2  C   UNL     1      -0.781  -3.989  -1.881  1.00  0.00     0.027 C 
BRANCH   2   3
ATOM      3  C   UNL     1      -1.563  -4.792  -2.882  1.00  0.00    -0.025 C 
ATOM      4  C   UNL     1      -2.885  -4.648  -3.018  1.00  0.00     0.020 C 
BRANCH   4   5
ATOM      5  C   UNL     1      -3.665  -5.456  -3.967  1.00  0.00     0.064 C 
ATOM      6  O   UNL     1      -3.714  -5.118  -5.178  1.00  0.00    -0.545 OA
ATOM      7  O   UNL     1      -4.352  -6.590  -3.548  1.00  0.00    -0.545 OA
ENDBRANCH   4   5
ENDBRANCH   2   3
ENDBRANCH   1   2
BRANCH   1   8
ATOM      8  C   UNL     1      -1.194  -4.836   0.487  1.00  0.00     0.000 C 
BRANCH   8   9
ATOM      9  C   UNL     1      -1.641  -6.252   0.874  1.00  0.00    -0.000 C 
BRANCH   9  10
ATOM     10  C   UNL     1      -2.901  -6.701   0.117  1.00  0.00    -0.003 C 
ATOM     11  C   UNL     1      -2.650  -7.911  -0.784  1.00  0.00     0.004 C 
ENDBRANCH   9  10
ENDBRANCH   8   9
ENDBRANCH   1   8
TORSDOF 6
ENDMDL
MODEL 9
REMARK VINA RESULT:    -3.814      1.670      2.401
REMARK INTER + INTRA:          -5.441
REMARK INTER:                  -4.700
REMARK INTRA:                  -0.741
REMARK UNBOUND:                -0.289
REMARK SMILES CCCCCCC=CC(=O)[O-]
REMARK SMILES IDX 5 1 6 2 7 3 8 4 9 5 10 6 11 7 4 8 3 9 2 10 1 11
REMARK H PARENT
REMARK Flexibility Score: inf
ROOT
ATOM      1  C   UNL     1      -2.900  -6.591  -0.110  1.00  0.00     0.004 C 
ENDROOT
BRANCH   1   2
ATOM      2  C   UNL     1      -2.697  -7.678  -1.173  1.00  0.00     0.027 C 
BRANCH   2   3
ATOM      3  C   UNL     1      -2.777  -7.113  -2.564  1.00  0.00    -0.025 C 
ATOM      4  C   UNL     1      -3.721  -6.232  -2.910  1.00  0.00     0.020 C 
BRANCH   4   5
ATOM      5  C   UNL     1      -3.830  -5.702  -4.276  1.00  0.00     0.064 C 
ATOM      6  O   UNL     1      -4.461  -6.354  -5.148  1.00  0.00    -0.545 OA
ATOM      7  O   UNL     1      -3.247  -4.487  -4.622  1.00  0.00    -0.545 OA
ENDBRANCH   4   5
ENDBRANCH   2   3
ENDBRANCH   1   2
BRANCH   1   8
ATOM      8  C   UNL     1      -1.592  -6.237   0.614  1.00  0.00     0.000 C 
BRANCH   8   9
ATOM      9  C   UNL     1      -1.111  -4.832   0.223  1.00  0.00    -0.000 C 
BRANCH   9  10
ATOM     10  C   UNL     1      -0.129  -4.853  -0.959  1.00  0.00    -0.003 C 
ATOM     11  C   UNL     1      -0.647  -4.079  -2.171  1.00  0.00     0.004 C 
ENDBRANCH   9  10
ENDBRANCH   8   9
ENDBRANCH   1   8
TORSDOF 6
ENDMDL
