MODEL 1
REMARK VINA RESULT:    -6.492      0.000      0.000
REMARK INTER + INTRA:         -11.541
REMARK INTER:                  -9.528
REMARK INTRA:                  -2.013
REMARK UNBOUND:                -2.013
REMARK SMILES O=c1c(O[C@@H]2O[C@@H](CO)[C@@H](O)[C@@H](O)[C@@H]2O)c(-c2ccc(O)c(O)c2)oc2cc(O)cc(O)c12
REMARK SMILES IDX 4 1 3 2 16 3 25 4 2 5 26 6 1 7 33 8 27 9 31 10 28 11 30 12
REMARK SMILES IDX 17 13 18 14 19 15 20 16 24 17 22 18 21 19 23 21 32 23 29 25
REMARK SMILES IDX 5 27 14 28 6 29 12 30 7 31 10 32 15 33 13 35 8 37 9 38 11 40
REMARK H PARENT 21 20 23 22 32 24 29 26 15 34 13 36 9 39 11 41
REMARK Flexibility Score: inf
ROOT
ATOM      1  O   UNL     1     165.907 174.182 190.627  1.00  0.00    -0.454 OA
ENDROOT
BRANCH   1   2
ATOM      2  C   UNL     1     166.487 172.943 190.298  1.00  0.00     0.214 A 
ATOM      3  C   UNL     1     167.050 172.172 191.331  1.00  0.00     0.180 A 
ATOM      4  O   UNL     1     167.681 171.036 191.050  1.00  0.00    -0.452 OA
ATOM      5  C   UNL     1     166.564 172.458 188.978  1.00  0.00     0.239 A 
ATOM      6  C   UNL     1     167.798 170.555 189.819  1.00  0.00     0.146 A 
ATOM      7  O   UNL     1     166.027 173.104 188.037  1.00  0.00    -0.285 OA
ATOM      8  C   UNL     1     167.235 171.244 188.720  1.00  0.00     0.111 A 
ATOM      9  C   UNL     1     168.485 169.354 189.620  1.00  0.00     0.094 A 
ATOM     10  C   UNL     1     167.371 170.696 187.421  1.00  0.00     0.134 A 
ATOM     11  C   UNL     1     168.622 168.821 188.335  1.00  0.00     0.123 A 
ATOM     12  C   UNL     1     168.064 169.490 187.243  1.00  0.00     0.093 A 
BRANCH   3  13
ATOM     13  C   UNL     1     167.011 172.624 192.740  1.00  0.00     0.025 A 
ATOM     14  C   UNL     1     165.830 172.472 193.483  1.00  0.00     0.016 A 
ATOM     15  C   UNL     1     165.783 172.867 194.823  1.00  0.00     0.051 A 
ATOM     16  C   UNL     1     166.914 173.425 195.435  1.00  0.00     0.157 A 
ATOM     17  C   UNL     1     168.135 173.210 193.349  1.00  0.00     0.062 A 
ATOM     18  C   UNL     1     168.090 173.601 194.695  1.00  0.00     0.158 A 
BRANCH  16  19
ATOM     19  O   UNL     1     166.875 173.811 196.773  1.00  0.00    -0.504 OA
ATOM     20  H   UNL     1     167.644 174.309 197.204  1.00  0.00     0.293 HD
ENDBRANCH  16  19
BRANCH  18  21
ATOM     21  O   UNL     1     169.211 174.162 195.304  1.00  0.00    -0.504 OA
ATOM     22  H   UNL     1     169.773 173.635 195.963  1.00  0.00     0.293 HD
ENDBRANCH  18  21
ENDBRANCH   3  13
BRANCH  10  23
ATOM     23  O   UNL     1     166.823 171.338 186.309  1.00  0.00    -0.507 OA
ATOM     24  H   UNL     1     167.406 171.715 185.570  1.00  0.00     0.293 HD
ENDBRANCH  10  23
BRANCH  11  25
ATOM     25  O   UNL     1     169.309 167.627 188.131  1.00  0.00    -0.508 OA
ATOM     26  H   UNL     1     169.915 167.494 187.328  1.00  0.00     0.293 HD
ENDBRANCH  11  25
ENDBRANCH   1   2
BRANCH   1  27
ATOM     27  C   UNL     1     166.565 175.453 190.580  1.00  0.00     0.339 C 
ATOM     28  C   UNL     1     165.754 176.452 189.725  1.00  0.00     0.214 C 
ATOM     29  O   UNL     1     166.788 175.965 191.888  1.00  0.00    -0.332 OA
ATOM     30  C   UNL     1     164.437 176.836 190.433  1.00  0.00     0.180 C 
ATOM     31  C   UNL     1     165.562 176.184 192.576  1.00  0.00     0.179 C 
ATOM     32  C   UNL     1     164.733 177.281 191.877  1.00  0.00     0.177 C 
BRANCH  28  33
ATOM     33  O   UNL     1     165.514 175.938 188.437  1.00  0.00    -0.384 OA
ATOM     34  H   UNL     1     166.313 175.418 188.163  1.00  0.00     0.211 HD
ENDBRANCH  28  33
BRANCH  30  35
ATOM     35  O   UNL     1     163.793 177.873 189.738  1.00  0.00    -0.387 OA
ATOM     36  H   UNL     1     164.171 178.726 190.076  1.00  0.00     0.211 HD
ENDBRANCH  30  35
BRANCH  31  37
ATOM     37  C   UNL     1     165.868 176.558 194.033  1.00  0.00     0.191 C 
BRANCH  37  38
ATOM     38  O   UNL     1     167.004 177.378 194.097  1.00  0.00    -0.394 OA
ATOM     39  H   UNL     1     167.670 176.899 194.659  1.00  0.00     0.210 HD
ENDBRANCH  37  38
ENDBRANCH  31  37
BRANCH  32  40
ATOM     40  O   UNL     1     165.448 178.493 191.882  1.00  0.00    -0.387 OA
ATOM     41  H   UNL     1     164.885 179.159 192.354  1.00  0.00     0.211 HD
ENDBRANCH  32  40
ENDBRANCH   1  27
TORSDOF 12
ENDMDL
MODEL 2
REMARK VINA RESULT:    -6.435      5.961     11.895
REMARK INTER + INTRA:         -11.458
REMARK INTER:                 -10.675
REMARK INTRA:                  -0.783
REMARK UNBOUND:                -2.013
REMARK SMILES O=c1c(O[C@@H]2O[C@@H](CO)[C@@H](O)[C@@H](O)[C@@H]2O)c(-c2ccc(O)c(O)c2)oc2cc(O)cc(O)c12
REMARK SMILES IDX 4 1 3 2 16 3 25 4 2 5 26 6 1 7 33 8 27 9 31 10 28 11 30 12
REMARK SMILES IDX 17 13 18 14 19 15 20 16 24 17 22 18 21 19 23 21 32 23 29 25
REMARK SMILES IDX 5 27 14 28 6 29 12 30 7 31 10 32 15 33 13 35 8 37 9 38 11 40
REMARK H PARENT 21 20 23 22 32 24 29 26 15 34 13 36 9 39 11 41
REMARK Flexibility Score: inf
ROOT
ATOM      1  O   UNL     1     170.486 166.624 185.604  1.00  0.00    -0.454 OA
ENDROOT
BRANCH   1   2
ATOM      2  C   UNL     1     169.338 166.927 186.359  1.00  0.00     0.214 A 
ATOM      3  C   UNL     1     168.122 166.316 186.003  1.00  0.00     0.180 A 
ATOM      4  O   UNL     1     166.999 166.639 186.637  1.00  0.00    -0.452 OA
ATOM      5  C   UNL     1     169.343 167.843 187.429  1.00  0.00     0.239 A 
ATOM      6  C   UNL     1     166.954 167.514 187.634  1.00  0.00     0.146 A 
ATOM      7  O   UNL     1     170.425 168.371 187.802  1.00  0.00    -0.285 OA
ATOM      8  C   UNL     1     168.132 168.155 188.084  1.00  0.00     0.111 A 
ATOM      9  C   UNL     1     165.725 167.795 188.238  1.00  0.00     0.094 A 
ATOM     10  C   UNL     1     168.047 169.076 189.157  1.00  0.00     0.134 A 
ATOM     11  C   UNL     1     165.647 168.710 189.292  1.00  0.00     0.123 A 
ATOM     12  C   UNL     1     166.804 169.344 189.748  1.00  0.00     0.093 A 
BRANCH   3  13
ATOM     13  C   UNL     1     168.044 165.349 184.885  1.00  0.00     0.025 A 
ATOM     14  C   UNL     1     167.342 164.146 185.058  1.00  0.00     0.016 A 
ATOM     15  C   UNL     1     167.233 163.234 184.004  1.00  0.00     0.051 A 
ATOM     16  C   UNL     1     167.830 163.510 182.767  1.00  0.00     0.157 A 
ATOM     17  C   UNL     1     168.666 165.610 183.651  1.00  0.00     0.062 A 
ATOM     18  C   UNL     1     168.551 164.698 182.592  1.00  0.00     0.158 A 
BRANCH  16  19
ATOM     19  O   UNL     1     167.716 162.609 181.711  1.00  0.00    -0.504 OA
ATOM     20  H   UNL     1     168.081 162.821 180.790  1.00  0.00     0.293 HD
ENDBRANCH  16  19
BRANCH  18  21
ATOM     21  O   UNL     1     169.150 164.967 181.362  1.00  0.00    -0.504 OA
ATOM     22  H   UNL     1     170.005 165.507 181.297  1.00  0.00     0.293 HD
ENDBRANCH  18  21
ENDBRANCH   3  13
BRANCH  10  23
ATOM     23  O   UNL     1     169.186 169.724 189.638  1.00  0.00    -0.507 OA
ATOM     24  H   UNL     1     169.305 170.727 189.551  1.00  0.00     0.293 HD
ENDBRANCH  10  23
BRANCH  11  25
ATOM     25  O   UNL     1     164.424 168.996 189.894  1.00  0.00    -0.508 OA
ATOM     26  H   UNL     1     164.370 169.514 190.764  1.00  0.00     0.293 HD
ENDBRANCH  11  25
ENDBRANCH   1   2
BRANCH   1  27
ATOM     27  C   UNL     1     171.632 167.469 185.449  1.00  0.00     0.339 C 
ATOM     28  C   UNL     1     172.870 166.831 186.117  1.00  0.00     0.214 C 
ATOM     29  O   UNL     1     171.881 167.749 184.077  1.00  0.00    -0.332 OA
ATOM     30  C   UNL     1     173.328 165.579 185.341  1.00  0.00     0.180 C 
ATOM     31  C   UNL     1     172.168 166.562 183.348  1.00  0.00     0.179 C 
ATOM     32  C   UNL     1     173.479 165.919 183.846  1.00  0.00     0.177 C 
BRANCH  28  33
ATOM     33  O   UNL     1     172.619 166.534 187.470  1.00  0.00    -0.384 OA
ATOM     34  H   UNL     1     172.966 167.285 188.017  1.00  0.00     0.211 HD
ENDBRANCH  28  33
BRANCH  30  35
ATOM     35  O   UNL     1     174.552 165.109 185.847  1.00  0.00    -0.387 OA
ATOM     36  H   UNL     1     174.392 164.190 186.183  1.00  0.00     0.211 HD
ENDBRANCH  30  35
BRANCH  31  37
ATOM     37  C   UNL     1     172.246 166.901 181.853  1.00  0.00     0.191 C 
BRANCH  37  38
ATOM     38  O   UNL     1     171.911 165.779 181.081  1.00  0.00    -0.394 OA
ATOM     39  H   UNL     1     171.292 166.096 180.371  1.00  0.00     0.210 HD
ENDBRANCH  37  38
ENDBRANCH  31  37
BRANCH  32  40
ATOM     40  O   UNL     1     174.550 166.810 183.650  1.00  0.00    -0.387 OA
ATOM     41  H   UNL     1     174.165 167.652 183.294  1.00  0.00     0.211 HD
ENDBRANCH  32  40
ENDBRANCH   1  27
TORSDOF 12
ENDMDL
MODEL 3
REMARK VINA RESULT:    -6.435      2.701      5.037
REMARK INTER + INTRA:         -11.458
REMARK INTER:                  -9.625
REMARK INTRA:                  -1.833
REMARK UNBOUND:                -2.013
REMARK SMILES O=c1c(O[C@@H]2O[C@@H](CO)[C@@H](O)[C@@H](O)[C@@H]2O)c(-c2ccc(O)c(O)c2)oc2cc(O)cc(O)c12
REMARK SMILES IDX 4 1 3 2 16 3 25 4 2 5 26 6 1 7 33 8 27 9 31 10 28 11 30 12
REMARK SMILES IDX 17 13 18 14 19 15 20 16 24 17 22 18 21 19 23 21 32 23 29 25
REMARK SMILES IDX 5 27 14 28 6 29 12 30 7 31 10 32 15 33 13 35 8 37 9 38 11 40
REMARK H PARENT 21 20 23 22 32 24 29 26 15 34 13 36 9 39 11 41
REMARK Flexibility Score: inf
ROOT
ATOM      1  O   UNL     1     165.508 173.969 192.417  1.00  0.00    -0.454 OA
ENDROOT
BRANCH   1   2
ATOM      2  C   UNL     1     165.462 172.988 191.409  1.00  0.00     0.214 A 
ATOM      3  C   UNL     1     164.392 173.016 190.496  1.00  0.00     0.180 A 
ATOM      4  O   UNL     1     164.267 172.058 189.582  1.00  0.00    -0.452 OA
ATOM      5  C   UNL     1     166.415 171.957 191.298  1.00  0.00     0.239 A 
ATOM      6  C   UNL     1     165.129 171.056 189.457  1.00  0.00     0.146 A 
ATOM      7  O   UNL     1     167.410 171.932 192.072  1.00  0.00    -0.285 OA
ATOM      8  C   UNL     1     166.253 170.962 190.310  1.00  0.00     0.111 A 
ATOM      9  C   UNL     1     164.911 170.091 188.470  1.00  0.00     0.094 A 
ATOM     10  C   UNL     1     167.156 169.884 190.141  1.00  0.00     0.134 A 
ATOM     11  C   UNL     1     165.803 169.026 188.313  1.00  0.00     0.123 A 
ATOM     12  C   UNL     1     166.920 168.927 189.144  1.00  0.00     0.093 A 
BRANCH   3  13
ATOM     13  C   UNL     1     163.352 174.066 190.559  1.00  0.00     0.025 A 
ATOM     14  C   UNL     1     163.511 175.245 189.815  1.00  0.00     0.016 A 
ATOM     15  C   UNL     1     162.525 176.235 189.840  1.00  0.00     0.051 A 
ATOM     16  C   UNL     1     161.371 176.063 190.615  1.00  0.00     0.157 A 
ATOM     17  C   UNL     1     162.205 173.909 191.359  1.00  0.00     0.062 A 
ATOM     18  C   UNL     1     161.213 174.900 191.380  1.00  0.00     0.158 A 
BRANCH  16  19
ATOM     19  O   UNL     1     160.381 177.043 190.636  1.00  0.00    -0.504 OA
ATOM     20  H   UNL     1     159.702 177.095 191.385  1.00  0.00     0.293 HD
ENDBRANCH  16  19
BRANCH  18  21
ATOM     21  O   UNL     1     160.067 174.734 192.155  1.00  0.00    -0.504 OA
ATOM     22  H   UNL     1     159.320 175.419 192.149  1.00  0.00     0.293 HD
ENDBRANCH  18  21
ENDBRANCH   3  13
BRANCH  10  23
ATOM     23  O   UNL     1     168.284 169.758 190.954  1.00  0.00    -0.507 OA
ATOM     24  H   UNL     1     168.932 168.985 190.852  1.00  0.00     0.293 HD
ENDBRANCH  10  23
BRANCH  11  25
ATOM     25  O   UNL     1     165.589 168.060 187.333  1.00  0.00    -0.508 OA
ATOM     26  H   UNL     1     165.683 168.275 186.346  1.00  0.00     0.293 HD
ENDBRANCH  11  25
ENDBRANCH   1   2
BRANCH   1  27
ATOM     27  C   UNL     1     165.424 173.727 193.825  1.00  0.00     0.339 C 
ATOM     28  C   UNL     1     166.560 174.462 194.571  1.00  0.00     0.214 C 
ATOM     29  O   UNL     1     164.152 174.103 194.337  1.00  0.00    -0.332 OA
ATOM     30  C   UNL     1     166.345 175.989 194.528  1.00  0.00     0.180 C 
ATOM     31  C   UNL     1     163.915 175.495 194.165  1.00  0.00     0.179 C 
ATOM     32  C   UNL     1     164.916 176.327 194.993  1.00  0.00     0.177 C 
BRANCH  28  33
ATOM     33  O   UNL     1     167.819 174.105 194.052  1.00  0.00    -0.384 OA
ATOM     34  H   UNL     1     168.431 173.949 194.817  1.00  0.00     0.211 HD
ENDBRANCH  28  33
BRANCH  30  35
ATOM     35  O   UNL     1     167.279 176.638 195.353  1.00  0.00    -0.387 OA
ATOM     36  H   UNL     1     166.762 177.138 196.037  1.00  0.00     0.211 HD
ENDBRANCH  30  35
BRANCH  31  37
ATOM     37  C   UNL     1     162.466 175.807 194.563  1.00  0.00     0.191 C 
BRANCH  37  38
ATOM     38  O   UNL     1     161.752 174.618 194.775  1.00  0.00    -0.394 OA
ATOM     39  H   UNL     1     162.400 173.873 194.660  1.00  0.00     0.210 HD
ENDBRANCH  37  38
ENDBRANCH  31  37
BRANCH  32  40
ATOM     40  O   UNL     1     164.761 176.033 196.360  1.00  0.00    -0.387 OA
ATOM     41  H   UNL     1     163.928 175.503 196.450  1.00  0.00     0.211 HD
ENDBRANCH  32  40
ENDBRANCH   1  27
TORSDOF 12
ENDMDL
MODEL 4
REMARK VINA RESULT:    -6.316      2.618      7.777
REMARK INTER + INTRA:         -11.283
REMARK INTER:                  -9.433
REMARK INTRA:                  -1.850
REMARK UNBOUND:                -2.013
REMARK SMILES O=c1c(O[C@@H]2O[C@@H](CO)[C@@H](O)[C@@H](O)[C@@H]2O)c(-c2ccc(O)c(O)c2)oc2cc(O)cc(O)c12
REMARK SMILES IDX 4 1 3 2 16 3 25 4 2 5 26 6 1 7 33 8 27 9 31 10 28 11 30 12
REMARK SMILES IDX 17 13 18 14 19 15 20 16 24 17 22 18 21 19 23 21 32 23 29 25
REMARK SMILES IDX 5 27 14 28 6 29 12 30 7 31 10 32 15 33 13 35 8 37 9 38 11 40
REMARK H PARENT 21 20 23 22 32 24 29 26 15 34 13 36 9 39 11 41
REMARK Flexibility Score: inf
ROOT
ATOM      1  O   UNL     1     168.101 171.763 191.087  1.00  0.00    -0.454 OA
ENDROOT
BRANCH   1   2
ATOM      2  C   UNL     1     167.095 172.431 191.809  1.00  0.00     0.214 A 
ATOM      3  C   UNL     1     165.761 172.292 191.384  1.00  0.00     0.180 A 
ATOM      4  O   UNL     1     164.792 172.973 191.989  1.00  0.00    -0.452 OA
ATOM      5  C   UNL     1     167.367 173.263 192.913  1.00  0.00     0.239 A 
ATOM      6  C   UNL     1     165.007 173.785 193.016  1.00  0.00     0.146 A 
ATOM      7  O   UNL     1     168.546 173.370 193.346  1.00  0.00    -0.285 OA
ATOM      8  C   UNL     1     166.311 173.964 193.533  1.00  0.00     0.111 A 
ATOM      9  C   UNL     1     163.925 174.465 193.583  1.00  0.00     0.094 A 
ATOM     10  C   UNL     1     166.500 174.831 194.636  1.00  0.00     0.134 A 
ATOM     11  C   UNL     1     164.120 175.325 194.668  1.00  0.00     0.123 A 
ATOM     12  C   UNL     1     165.402 175.504 195.191  1.00  0.00     0.093 A 
BRANCH   3  13
ATOM     13  C   UNL     1     165.405 171.439 190.228  1.00  0.00     0.025 A 
ATOM     14  C   UNL     1     164.955 172.036 189.040  1.00  0.00     0.016 A 
ATOM     15  C   UNL     1     164.642 171.249 187.929  1.00  0.00     0.051 A 
ATOM     16  C   UNL     1     164.767 169.854 187.993  1.00  0.00     0.157 A 
ATOM     17  C   UNL     1     165.502 170.038 190.298  1.00  0.00     0.062 A 
ATOM     18  C   UNL     1     165.194 169.248 189.181  1.00  0.00     0.158 A 
BRANCH  16  19
ATOM     19  O   UNL     1     164.465 169.067 186.885  1.00  0.00    -0.504 OA
ATOM     20  H   UNL     1     164.860 169.261 185.973  1.00  0.00     0.293 HD
ENDBRANCH  16  19
BRANCH  18  21
ATOM     21  O   UNL     1     165.312 167.861 189.245  1.00  0.00    -0.504 OA
ATOM     22  H   UNL     1     165.670 167.398 190.073  1.00  0.00     0.293 HD
ENDBRANCH  18  21
ENDBRANCH   3  13
BRANCH  10  23
ATOM     23  O   UNL     1     167.769 175.029 195.185  1.00  0.00    -0.507 OA
ATOM     24  H   UNL     1     168.510 175.484 194.663  1.00  0.00     0.293 HD
ENDBRANCH  10  23
BRANCH  11  25
ATOM     25  O   UNL     1     163.046 176.007 195.234  1.00  0.00    -0.508 OA
ATOM     26  H   UNL     1     162.267 175.514 195.656  1.00  0.00     0.293 HD
ENDBRANCH  11  25
ENDBRANCH   1   2
BRANCH   1  27
ATOM     27  C   UNL     1     168.740 172.245 189.900  1.00  0.00     0.339 C 
ATOM     28  C   UNL     1     170.246 172.478 190.151  1.00  0.00     0.214 C 
ATOM     29  O   UNL     1     168.536 171.357 188.809  1.00  0.00    -0.332 OA
ATOM     30  C   UNL     1     170.982 171.136 190.348  1.00  0.00     0.180 C 
ATOM     31  C   UNL     1     169.105 170.079 189.067  1.00  0.00     0.179 C 
ATOM     32  C   UNL     1     170.640 170.179 189.191  1.00  0.00     0.177 C 
BRANCH  28  33
ATOM     33  O   UNL     1     170.450 173.341 191.244  1.00  0.00    -0.384 OA
ATOM     34  H   UNL     1     171.060 172.888 191.881  1.00  0.00     0.211 HD
ENDBRANCH  28  33
BRANCH  30  35
ATOM     35  O   UNL     1     172.371 171.342 190.399  1.00  0.00    -0.387 OA
ATOM     36  H   UNL     1     172.582 172.050 189.738  1.00  0.00     0.211 HD
ENDBRANCH  30  35
BRANCH  31  37
ATOM     37  C   UNL     1     168.698 169.115 187.943  1.00  0.00     0.191 C 
BRANCH  37  38
ATOM     38  O   UNL     1     168.273 167.892 188.481  1.00  0.00    -0.394 OA
ATOM     39  H   UNL     1     169.023 167.549 189.036  1.00  0.00     0.210 HD
ENDBRANCH  37  38
ENDBRANCH  31  37
BRANCH  32  40
ATOM     40  O   UNL     1     171.185 170.653 187.983  1.00  0.00    -0.387 OA
ATOM     41  H   UNL     1     171.762 169.932 187.624  1.00  0.00     0.211 HD
ENDBRANCH  32  40
ENDBRANCH   1  27
TORSDOF 12
ENDMDL
MODEL 5
REMARK VINA RESULT:    -6.310      2.249      5.026
REMARK INTER + INTRA:         -11.275
REMARK INTER:                  -9.728
REMARK INTRA:                  -1.547
REMARK UNBOUND:                -2.013
REMARK SMILES O=c1c(O[C@@H]2O[C@@H](CO)[C@@H](O)[C@@H](O)[C@@H]2O)c(-c2ccc(O)c(O)c2)oc2cc(O)cc(O)c12
REMARK SMILES IDX 4 1 3 2 16 3 25 4 2 5 26 6 1 7 33 8 27 9 31 10 28 11 30 12
REMARK SMILES IDX 17 13 18 14 19 15 20 16 24 17 22 18 21 19 23 21 32 23 29 25
REMARK SMILES IDX 5 27 14 28 6 29 12 30 7 31 10 32 15 33 13 35 8 37 9 38 11 40
REMARK H PARENT 21 20 23 22 32 24 29 26 15 34 13 36 9 39 11 41
REMARK Flexibility Score: inf
ROOT
ATOM      1  O   UNL     1     164.601 173.806 192.365  1.00  0.00    -0.454 OA
ENDROOT
BRANCH   1   2
ATOM      2  C   UNL     1     164.782 173.029 191.207  1.00  0.00     0.214 A 
ATOM      3  C   UNL     1     164.075 173.385 190.044  1.00  0.00     0.180 A 
ATOM      4  O   UNL     1     164.155 172.627 188.954  1.00  0.00    -0.452 OA
ATOM      5  C   UNL     1     165.608 171.888 191.170  1.00  0.00     0.239 A 
ATOM      6  C   UNL     1     164.901 171.532 188.883  1.00  0.00     0.146 A 
ATOM      7  O   UNL     1     166.290 171.571 192.181  1.00  0.00    -0.285 OA
ATOM      8  C   UNL     1     165.673 171.113 189.992  1.00  0.00     0.111 A 
ATOM      9  C   UNL     1     164.917 170.794 187.695  1.00  0.00     0.094 A 
ATOM     10  C   UNL     1     166.465 169.945 189.877  1.00  0.00     0.134 A 
ATOM     11  C   UNL     1     165.696 169.638 187.591  1.00  0.00     0.123 A 
ATOM     12  C   UNL     1     166.467 169.219 188.677  1.00  0.00     0.093 A 
BRANCH   3  13
ATOM     13  C   UNL     1     163.185 174.566 190.014  1.00  0.00     0.025 A 
ATOM     14  C   UNL     1     161.848 174.437 190.421  1.00  0.00     0.016 A 
ATOM     15  C   UNL     1     161.001 175.547 190.427  1.00  0.00     0.051 A 
ATOM     16  C   UNL     1     161.477 176.801 190.019  1.00  0.00     0.157 A 
ATOM     17  C   UNL     1     163.651 175.819 189.578  1.00  0.00     0.062 A 
ATOM     18  C   UNL     1     162.803 176.936 189.590  1.00  0.00     0.158 A 
BRANCH  16  19
ATOM     19  O   UNL     1     160.638 177.913 190.033  1.00  0.00    -0.504 OA
ATOM     20  H   UNL     1     160.622 178.556 190.816  1.00  0.00     0.293 HD
ENDBRANCH  16  19
BRANCH  18  21
ATOM     21  O   UNL     1     163.272 178.182 189.179  1.00  0.00    -0.504 OA
ATOM     22  H   UNL     1     163.135 178.511 188.229  1.00  0.00     0.293 HD
ENDBRANCH  18  21
ENDBRANCH   3  13
BRANCH  10  23
ATOM     23  O   UNL     1     167.249 169.501 190.943  1.00  0.00    -0.507 OA
ATOM     24  H   UNL     1     168.259 169.589 190.935  1.00  0.00     0.293 HD
ENDBRANCH  10  23
BRANCH  11  25
ATOM     25  O   UNL     1     165.712 168.898 186.411  1.00  0.00    -0.508 OA
ATOM     26  H   UNL     1     165.139 168.069 186.297  1.00  0.00     0.293 HD
ENDBRANCH  11  25
ENDBRANCH   1   2
BRANCH   1  27
ATOM     27  C   UNL     1     165.393 174.937 192.747  1.00  0.00     0.339 C 
ATOM     28  C   UNL     1     164.562 175.915 193.607  1.00  0.00     0.214 C 
ATOM     29  O   UNL     1     166.572 174.531 193.429  1.00  0.00    -0.332 OA
ATOM     30  C   UNL     1     164.253 175.301 194.989  1.00  0.00     0.180 C 
ATOM     31  C   UNL     1     166.263 173.845 194.637  1.00  0.00     0.179 C 
ATOM     32  C   UNL     1     165.553 174.785 195.633  1.00  0.00     0.177 C 
BRANCH  28  33
ATOM     33  O   UNL     1     163.385 176.301 192.941  1.00  0.00    -0.384 OA
ATOM     34  H   UNL     1     163.153 177.219 193.238  1.00  0.00     0.211 HD
ENDBRANCH  28  33
BRANCH  30  35
ATOM     35  O   UNL     1     163.655 176.257 195.827  1.00  0.00    -0.387 OA
ATOM     36  H   UNL     1     162.715 175.971 195.967  1.00  0.00     0.211 HD
ENDBRANCH  30  35
BRANCH  31  37
ATOM     37  C   UNL     1     167.558 173.275 195.232  1.00  0.00     0.191 C 
BRANCH  37  38
ATOM     38  O   UNL     1     168.582 174.231 195.175  1.00  0.00    -0.394 OA
ATOM     39  H   UNL     1     168.561 174.617 194.260  1.00  0.00     0.210 HD
ENDBRANCH  37  38
ENDBRANCH  31  37
BRANCH  32  40
ATOM     40  O   UNL     1     166.401 175.861 195.958  1.00  0.00    -0.387 OA
ATOM     41  H   UNL     1     167.199 175.787 195.374  1.00  0.00     0.211 HD
ENDBRANCH  32  40
ENDBRANCH   1  27
TORSDOF 12
ENDMDL
MODEL 6
REMARK VINA RESULT:    -6.282      2.284      6.576
REMARK INTER + INTRA:         -11.233
REMARK INTER:                  -9.209
REMARK INTRA:                  -2.025
REMARK UNBOUND:                -2.013
REMARK SMILES O=c1c(O[C@@H]2O[C@@H](CO)[C@@H](O)[C@@H](O)[C@@H]2O)c(-c2ccc(O)c(O)c2)oc2cc(O)cc(O)c12
REMARK SMILES IDX 4 1 3 2 16 3 25 4 2 5 26 6 1 7 33 8 27 9 31 10 28 11 30 12
REMARK SMILES IDX 17 13 18 14 19 15 20 16 24 17 22 18 21 19 23 21 32 23 29 25
REMARK SMILES IDX 5 27 14 28 6 29 12 30 7 31 10 32 15 33 13 35 8 37 9 38 11 40
REMARK H PARENT 21 20 23 22 32 24 29 26 15 34 13 36 9 39 11 41
REMARK Flexibility Score: inf
ROOT
ATOM      1  O   UNL     1     166.555 175.524 190.316  1.00  0.00    -0.454 OA
ENDROOT
BRANCH   1   2
ATOM      2  C   UNL     1     165.709 176.594 189.973  1.00  0.00     0.214 A 
ATOM      3  C   UNL     1     164.937 177.189 190.988  1.00  0.00     0.180 A 
ATOM      4  O   UNL     1     164.064 178.147 190.691  1.00  0.00    -0.452 OA
ATOM      5  C   UNL     1     165.569 177.071 188.655  1.00  0.00     0.239 A 
ATOM      6  C   UNL     1     163.884 178.609 189.460  1.00  0.00     0.146 A 
ATOM      7  O   UNL     1     166.281 176.590 187.733  1.00  0.00    -0.285 OA
ATOM      8  C   UNL     1     164.637 178.094 188.379  1.00  0.00     0.111 A 
ATOM      9  C   UNL     1     162.937 179.614 189.242  1.00  0.00     0.094 A 
ATOM     10  C   UNL     1     164.425 178.618 187.081  1.00  0.00     0.134 A 
ATOM     11  C   UNL     1     162.727 180.122 187.957  1.00  0.00     0.123 A 
ATOM     12  C   UNL     1     163.470 179.626 186.884  1.00  0.00     0.093 A 
BRANCH   3  13
ATOM     13  C   UNL     1     165.029 176.734 192.393  1.00  0.00     0.025 A 
ATOM     14  C   UNL     1     164.009 175.933 192.929  1.00  0.00     0.016 A 
ATOM     15  C   UNL     1     164.093 175.470 194.245  1.00  0.00     0.051 A 
ATOM     16  C   UNL     1     165.193 175.808 195.045  1.00  0.00     0.157 A 
ATOM     17  C   UNL     1     166.117 177.095 193.207  1.00  0.00     0.062 A 
ATOM     18  C   UNL     1     166.205 176.625 194.526  1.00  0.00     0.158 A 
BRANCH  16  19
ATOM     19  O   UNL     1     165.285 175.340 196.354  1.00  0.00    -0.504 OA
ATOM     20  H   UNL     1     166.148 175.405 196.880  1.00  0.00     0.293 HD
ENDBRANCH  16  19
BRANCH  18  21
ATOM     21  O   UNL     1     167.295 176.965 195.325  1.00  0.00    -0.504 OA
ATOM     22  H   UNL     1     167.170 177.326 196.264  1.00  0.00     0.293 HD
ENDBRANCH  18  21
ENDBRANCH   3  13
BRANCH  10  23
ATOM     23  O   UNL     1     165.154 178.146 185.988  1.00  0.00    -0.507 OA
ATOM     24  H   UNL     1     165.493 178.769 185.264  1.00  0.00     0.293 HD
ENDBRANCH  10  23
BRANCH  11  25
ATOM     25  O   UNL     1     161.783 181.121 187.735  1.00  0.00    -0.508 OA
ATOM     26  H   UNL     1     161.117 181.391 188.450  1.00  0.00     0.293 HD
ENDBRANCH  11  25
ENDBRANCH   1   2
BRANCH   1  27
ATOM     27  C   UNL     1     166.220 174.134 190.240  1.00  0.00     0.339 C 
ATOM     28  C   UNL     1     167.246 173.375 189.370  1.00  0.00     0.214 C 
ATOM     29  O   UNL     1     166.123 173.557 191.536  1.00  0.00    -0.332 OA
ATOM     30  C   UNL     1     168.616 173.302 190.078  1.00  0.00     0.180 C 
ATOM     31  C   UNL     1     167.365 173.622 192.227  1.00  0.00     0.179 C 
ATOM     32  C   UNL     1     168.433 172.769 191.512  1.00  0.00     0.177 C 
BRANCH  28  33
ATOM     33  O   UNL     1     167.358 173.958 188.094  1.00  0.00    -0.384 OA
ATOM     34  H   UNL     1     166.473 174.336 187.853  1.00  0.00     0.211 HD
ENDBRANCH  28  33
BRANCH  30  35
ATOM     35  O   UNL     1     169.490 172.463 189.367  1.00  0.00    -0.387 OA
ATOM     36  H   UNL     1     168.929 171.893 188.780  1.00  0.00     0.211 HD
ENDBRANCH  30  35
BRANCH  31  37
ATOM     37  C   UNL     1     167.156 173.156 193.674  1.00  0.00     0.191 C 
BRANCH  37  38
ATOM     38  O   UNL     1     166.211 172.120 193.721  1.00  0.00    -0.394 OA
ATOM     39  H   UNL     1     166.724 171.268 193.734  1.00  0.00     0.210 HD
ENDBRANCH  37  38
ENDBRANCH  31  37
BRANCH  32  40
ATOM     40  O   UNL     1     168.028 171.422 191.488  1.00  0.00    -0.387 OA
ATOM     41  H   UNL     1     167.565 171.274 190.623  1.00  0.00     0.211 HD
ENDBRANCH  32  40
ENDBRANCH   1  27
TORSDOF 12
ENDMDL
MODEL 7
REMARK VINA RESULT:    -6.102      2.662      6.253
REMARK INTER + INTRA:         -10.968
REMARK INTER:                  -9.496
REMARK INTRA:                  -1.472
REMARK UNBOUND:                -2.013
REMARK SMILES O=c1c(O[C@@H]2O[C@@H](CO)[C@@H](O)[C@@H](O)[C@@H]2O)c(-c2ccc(O)c(O)c2)oc2cc(O)cc(O)c12
REMARK SMILES IDX 4 1 3 2 16 3 25 4 2 5 26 6 1 7 33 8 27 9 31 10 28 11 30 12
REMARK SMILES IDX 17 13 18 14 19 15 20 16 24 17 22 18 21 19 23 21 32 23 29 25
REMARK SMILES IDX 5 27 14 28 6 29 12 30 7 31 10 32 15 33 13 35 8 37 9 38 11 40
REMARK H PARENT 21 20 23 22 32 24 29 26 15 34 13 36 9 39 11 41
REMARK Flexibility Score: inf
ROOT
ATOM      1  O   UNL     1     165.324 174.248 192.267  1.00  0.00    -0.454 OA
ENDROOT
BRANCH   1   2
ATOM      2  C   UNL     1     164.405 174.270 191.202  1.00  0.00     0.214 A 
ATOM      3  C   UNL     1     164.545 173.315 190.177  1.00  0.00     0.180 A 
ATOM      4  O   UNL     1     163.749 173.355 189.113  1.00  0.00    -0.452 OA
ATOM      5  C   UNL     1     163.378 175.227 191.094  1.00  0.00     0.239 A 
ATOM      6  C   UNL     1     162.785 174.253 188.960  1.00  0.00     0.146 A 
ATOM      7  O   UNL     1     163.198 176.066 192.018  1.00  0.00    -0.285 OA
ATOM      8  C   UNL     1     162.548 175.233 189.952  1.00  0.00     0.111 A 
ATOM      9  C   UNL     1     162.002 174.220 187.802  1.00  0.00     0.094 A 
ATOM     10  C   UNL     1     161.503 176.169 189.759  1.00  0.00     0.134 A 
ATOM     11  C   UNL     1     160.977 175.152 187.614  1.00  0.00     0.123 A 
ATOM     12  C   UNL     1     160.729 176.119 188.590  1.00  0.00     0.093 A 
BRANCH   3  13
ATOM     13  C   UNL     1     165.606 172.285 190.223  1.00  0.00     0.025 A 
ATOM     14  C   UNL     1     166.911 172.617 189.827  1.00  0.00     0.016 A 
ATOM     15  C   UNL     1     167.932 171.666 189.891  1.00  0.00     0.051 A 
ATOM     16  C   UNL     1     167.661 170.368 190.345  1.00  0.00     0.157 A 
ATOM     17  C   UNL     1     165.332 170.974 190.651  1.00  0.00     0.062 A 
ATOM     18  C   UNL     1     166.358 170.020 190.721  1.00  0.00     0.158 A 
BRANCH  16  19
ATOM     19  O   UNL     1     168.678 169.419 190.419  1.00  0.00    -0.504 OA
ATOM     20  H   UNL     1     168.503 168.479 190.754  1.00  0.00     0.293 HD
ENDBRANCH  16  19
BRANCH  18  21
ATOM     21  O   UNL     1     166.089 168.727 191.165  1.00  0.00    -0.504 OA
ATOM     22  H   UNL     1     165.935 167.965 190.514  1.00  0.00     0.293 HD
ENDBRANCH  18  21
ENDBRANCH   3  13
BRANCH  10  23
ATOM     23  O   UNL     1     161.229 177.147 190.717  1.00  0.00    -0.507 OA
ATOM     24  H   UNL     1     160.660 177.958 190.503  1.00  0.00     0.293 HD
ENDBRANCH  10  23
BRANCH  11  25
ATOM     25  O   UNL     1     160.196 175.125 186.461  1.00  0.00    -0.508 OA
ATOM     26  H   UNL     1     160.556 175.447 185.569  1.00  0.00     0.293 HD
ENDBRANCH  11  25
ENDBRANCH   1   2
BRANCH   1  27
ATOM     27  C   UNL     1     165.169 173.522 193.491  1.00  0.00     0.339 C 
ATOM     28  C   UNL     1     166.548 173.175 194.094  1.00  0.00     0.214 C 
ATOM     29  O   UNL     1     164.373 174.246 194.421  1.00  0.00    -0.332 OA
ATOM     30  C   UNL     1     167.260 174.447 194.602  1.00  0.00     0.180 C 
ATOM     31  C   UNL     1     164.983 175.482 194.774  1.00  0.00     0.179 C 
ATOM     32  C   UNL     1     166.312 175.242 195.520  1.00  0.00     0.177 C 
BRANCH  28  33
ATOM     33  O   UNL     1     167.345 172.476 193.168  1.00  0.00    -0.384 OA
ATOM     34  H   UNL     1     167.227 172.904 192.281  1.00  0.00     0.211 HD
ENDBRANCH  28  33
BRANCH  30  35
ATOM     35  O   UNL     1     168.427 174.107 195.306  1.00  0.00    -0.387 OA
ATOM     36  H   UNL     1     168.199 173.339 195.890  1.00  0.00     0.211 HD
ENDBRANCH  30  35
BRANCH  31  37
ATOM     37  C   UNL     1     164.002 176.296 195.629  1.00  0.00     0.191 C 
BRANCH  37  38
ATOM     38  O   UNL     1     163.532 175.523 196.701  1.00  0.00    -0.394 OA
ATOM     39  H   UNL     1     162.580 175.315 196.505  1.00  0.00     0.210 HD
ENDBRANCH  37  38
ENDBRANCH  31  37
BRANCH  32  40
ATOM     40  O   UNL     1     166.068 174.531 196.710  1.00  0.00    -0.387 OA
ATOM     41  H   UNL     1     166.290 175.140 197.460  1.00  0.00     0.211 HD
ENDBRANCH  32  40
ENDBRANCH   1  27
TORSDOF 12
ENDMDL
MODEL 8
REMARK VINA RESULT:    -6.038      2.653      2.883
REMARK INTER + INTRA:         -10.875
REMARK INTER:                  -8.999
REMARK INTRA:                  -1.876
REMARK UNBOUND:                -2.013
REMARK SMILES O=c1c(O[C@@H]2O[C@@H](CO)[C@@H](O)[C@@H](O)[C@@H]2O)c(-c2ccc(O)c(O)c2)oc2cc(O)cc(O)c12
REMARK SMILES IDX 4 1 3 2 16 3 25 4 2 5 26 6 1 7 33 8 27 9 31 10 28 11 30 12
REMARK SMILES IDX 17 13 18 14 19 15 20 16 24 17 22 18 21 19 23 21 32 23 29 25
REMARK SMILES IDX 5 27 14 28 6 29 12 30 7 31 10 32 15 33 13 35 8 37 9 38 11 40
REMARK H PARENT 21 20 23 22 32 24 29 26 15 34 13 36 9 39 11 41
REMARK Flexibility Score: inf
ROOT
ATOM      1  O   UNL     1     164.090 172.887 191.147  1.00  0.00    -0.454 OA
ENDROOT
BRANCH   1   2
ATOM      2  C   UNL     1     165.309 172.304 190.755  1.00  0.00     0.214 A 
ATOM      3  C   UNL     1     166.425 172.453 191.599  1.00  0.00     0.180 A 
ATOM      4  O   UNL     1     167.613 171.990 191.225  1.00  0.00    -0.452 OA
ATOM      5  C   UNL     1     165.473 171.614 189.538  1.00  0.00     0.239 A 
ATOM      6  C   UNL     1     167.818 171.355 190.078  1.00  0.00     0.146 A 
ATOM      7  O   UNL     1     164.483 171.425 188.782  1.00  0.00    -0.285 OA
ATOM      8  C   UNL     1     166.750 171.130 189.178  1.00  0.00     0.111 A 
ATOM      9  C   UNL     1     169.106 170.909 189.767  1.00  0.00     0.094 A 
ATOM     10  C   UNL     1     167.003 170.441 187.968  1.00  0.00     0.134 A 
ATOM     11  C   UNL     1     169.351 170.235 188.567  1.00  0.00     0.123 A 
ATOM     12  C   UNL     1     168.302 170.001 187.675  1.00  0.00     0.093 A 
BRANCH   3  13
ATOM     13  C   UNL     1     166.325 173.172 192.889  1.00  0.00     0.025 A 
ATOM     14  C   UNL     1     165.972 172.467 194.050  1.00  0.00     0.016 A 
ATOM     15  C   UNL     1     165.900 173.123 195.281  1.00  0.00     0.051 A 
ATOM     16  C   UNL     1     166.175 174.495 195.367  1.00  0.00     0.157 A 
ATOM     17  C   UNL     1     166.571 174.554 192.974  1.00  0.00     0.062 A 
ATOM     18  C   UNL     1     166.506 175.212 194.210  1.00  0.00     0.158 A 
BRANCH  16  19
ATOM     19  O   UNL     1     166.114 175.152 196.594  1.00  0.00    -0.504 OA
ATOM     20  H   UNL     1     166.195 174.648 197.469  1.00  0.00     0.293 HD
ENDBRANCH  16  19
BRANCH  18  21
ATOM     21  O   UNL     1     166.772 176.577 194.297  1.00  0.00    -0.504 OA
ATOM     22  H   UNL     1     166.054 177.269 194.110  1.00  0.00     0.293 HD
ENDBRANCH  18  21
ENDBRANCH   3  13
BRANCH  10  23
ATOM     23  O   UNL     1     165.976 170.189 187.056  1.00  0.00    -0.507 OA
ATOM     24  H   UNL     1     165.257 169.499 187.241  1.00  0.00     0.293 HD
ENDBRANCH  10  23
BRANCH  11  25
ATOM     25  O   UNL     1     170.632 169.791 188.251  1.00  0.00    -0.508 OA
ATOM     26  H   UNL     1     171.397 169.862 188.914  1.00  0.00     0.293 HD
ENDBRANCH  11  25
ENDBRANCH   1   2
BRANCH   1  27
ATOM     27  C   UNL     1     163.624 174.187 190.769  1.00  0.00     0.339 C 
ATOM     28  C   UNL     1     162.234 174.092 190.101  1.00  0.00     0.214 C 
ATOM     29  O   UNL     1     163.594 175.067 191.886  1.00  0.00    -0.332 OA
ATOM     30  C   UNL     1     161.158 173.688 191.131  1.00  0.00     0.180 C 
ATOM     31  C   UNL     1     162.694 174.605 192.887  1.00  0.00     0.179 C 
ATOM     32  C   UNL     1     161.244 174.610 192.362  1.00  0.00     0.177 C 
BRANCH  28  33
ATOM     33  O   UNL     1     162.258 173.206 189.008  1.00  0.00    -0.384 OA
ATOM     34  H   UNL     1     161.324 172.927 188.821  1.00  0.00     0.211 HD
ENDBRANCH  28  33
BRANCH  30  35
ATOM     35  O   UNL     1     159.877 173.776 190.560  1.00  0.00    -0.387 OA
ATOM     36  H   UNL     1     159.357 174.413 191.114  1.00  0.00     0.211 HD
ENDBRANCH  30  35
BRANCH  31  37
ATOM     37  C   UNL     1     162.840 175.487 194.134  1.00  0.00     0.191 C 
BRANCH  37  38
ATOM     38  O   UNL     1     161.682 175.411 194.922  1.00  0.00    -0.394 OA
ATOM     39  H   UNL     1     160.960 175.061 194.335  1.00  0.00     0.210 HD
ENDBRANCH  37  38
ENDBRANCH  31  37
BRANCH  32  40
ATOM     40  O   UNL     1     160.866 175.922 192.021  1.00  0.00    -0.387 OA
ATOM     41  H   UNL     1     160.451 175.879 191.122  1.00  0.00     0.211 HD
ENDBRANCH  32  40
ENDBRANCH   1  27
TORSDOF 12
ENDMDL
MODEL 9
REMARK VINA RESULT:    -5.988      5.434      8.406
REMARK INTER + INTRA:         -10.802
REMARK INTER:                  -8.836
REMARK INTRA:                  -1.965
REMARK UNBOUND:                -2.013
REMARK SMILES O=c1c(O[C@@H]2O[C@@H](CO)[C@@H](O)[C@@H](O)[C@@H]2O)c(-c2ccc(O)c(O)c2)oc2cc(O)cc(O)c12
REMARK SMILES IDX 4 1 3 2 16 3 25 4 2 5 26 6 1 7 33 8 27 9 31 10 28 11 30 12
REMARK SMILES IDX 17 13 18 14 19 15 20 16 24 17 22 18 21 19 23 21 32 23 29 25
REMARK SMILES IDX 5 27 14 28 6 29 12 30 7 31 10 32 15 33 13 35 8 37 9 38 11 40
REMARK H PARENT 21 20 23 22 32 24 29 26 15 34 13 36 9 39 11 41
REMARK Flexibility Score: inf
ROOT
ATOM      1  O   UNL     1     169.543 168.819 186.310  1.00  0.00    -0.454 OA
ENDROOT
BRANCH   1   2
ATOM      2  C   UNL     1     169.171 167.772 185.447  1.00  0.00     0.214 A 
ATOM      3  C   UNL     1     167.854 167.282 185.516  1.00  0.00     0.180 A 
ATOM      4  O   UNL     1     167.488 166.239 184.777  1.00  0.00    -0.452 OA
ATOM      5  C   UNL     1     170.068 167.166 184.545  1.00  0.00     0.239 A 
ATOM      6  C   UNL     1     168.307 165.624 183.933  1.00  0.00     0.146 A 
ATOM      7  O   UNL     1     171.240 167.613 184.426  1.00  0.00    -0.285 OA
ATOM      8  C   UNL     1     169.640 166.066 183.771  1.00  0.00     0.111 A 
ATOM      9  C   UNL     1     167.833 164.530 183.201  1.00  0.00     0.094 A 
ATOM     10  C   UNL     1     170.482 165.391 182.854  1.00  0.00     0.134 A 
ATOM     11  C   UNL     1     168.672 163.864 182.303  1.00  0.00     0.123 A 
ATOM     12  C   UNL     1     169.988 164.296 182.130  1.00  0.00     0.093 A 
BRANCH   3  13
ATOM     13  C   UNL     1     166.862 167.867 186.446  1.00  0.00     0.025 A 
ATOM     14  C   UNL     1     165.989 168.866 185.988  1.00  0.00     0.016 A 
ATOM     15  C   UNL     1     165.027 169.409 186.844  1.00  0.00     0.051 A 
ATOM     16  C   UNL     1     164.930 168.966 188.170  1.00  0.00     0.157 A 
ATOM     17  C   UNL     1     166.781 167.445 187.785  1.00  0.00     0.062 A 
ATOM     18  C   UNL     1     165.812 167.986 188.642  1.00  0.00     0.158 A 
BRANCH  16  19
ATOM     19  O   UNL     1     163.966 169.499 189.023  1.00  0.00    -0.504 OA
ATOM     20  H   UNL     1     163.143 168.971 189.288  1.00  0.00     0.293 HD
ENDBRANCH  16  19
BRANCH  18  21
ATOM     21  O   UNL     1     165.717 167.551 189.963  1.00  0.00    -0.504 OA
ATOM     22  H   UNL     1     164.961 166.949 190.269  1.00  0.00     0.293 HD
ENDBRANCH  18  21
ENDBRANCH   3  13
BRANCH  10  23
ATOM     23  O   UNL     1     171.802 165.800 182.656  1.00  0.00    -0.507 OA
ATOM     24  H   UNL     1     172.473 165.217 182.168  1.00  0.00     0.293 HD
ENDBRANCH  10  23
BRANCH  11  25
ATOM     25  O   UNL     1     168.206 162.772 181.575  1.00  0.00    -0.508 OA
ATOM     26  H   UNL     1     167.479 162.165 181.936  1.00  0.00     0.293 HD
ENDBRANCH  11  25
ENDBRANCH   1   2
BRANCH   1  27
ATOM     27  C   UNL     1     170.296 168.679 187.520  1.00  0.00     0.339 C 
ATOM     28  C   UNL     1     171.539 169.596 187.494  1.00  0.00     0.214 C 
ATOM     29  O   UNL     1     169.490 168.944 188.661  1.00  0.00    -0.332 OA
ATOM     30  C   UNL     1     171.126 171.080 187.583  1.00  0.00     0.180 C 
ATOM     31  C   UNL     1     169.006 170.281 188.655  1.00  0.00     0.179 C 
ATOM     32  C   UNL     1     170.171 171.285 188.774  1.00  0.00     0.177 C 
BRANCH  28  33
ATOM     33  O   UNL     1     172.327 169.349 186.355  1.00  0.00    -0.384 OA
ATOM     34  H   UNL     1     171.737 168.974 185.651  1.00  0.00     0.211 HD
ENDBRANCH  28  33
BRANCH  30  35
ATOM     35  O   UNL     1     172.260 171.895 187.737  1.00  0.00    -0.387 OA
ATOM     36  H   UNL     1     172.296 172.492 186.946  1.00  0.00     0.211 HD
ENDBRANCH  30  35
BRANCH  31  37
ATOM     37  C   UNL     1     168.001 170.453 189.802  1.00  0.00     0.191 C 
BRANCH  37  38
ATOM     38  O   UNL     1     168.178 169.443 190.760  1.00  0.00    -0.394 OA
ATOM     39  H   UNL     1     167.363 169.446 191.330  1.00  0.00     0.210 HD
ENDBRANCH  37  38
ENDBRANCH  31  37
BRANCH  32  40
ATOM     40  O   UNL     1     170.851 171.082 189.989  1.00  0.00    -0.387 OA
ATOM     41  H   UNL     1     170.386 171.628 190.675  1.00  0.00     0.211 HD
ENDBRANCH  32  40
ENDBRANCH   1  27
TORSDOF 12
ENDMDL
