MODEL 1
REMARK VINA RESULT:    -5.114      0.000      0.000
REMARK INTER + INTRA:         -16.111
REMARK INTER:                 -13.335
REMARK INTRA:                  -2.775
REMARK UNBOUND:                -2.775
REMARK SMILES CCCCCCCCCCCCCCCCCCCCCCCCCCCCCO
REMARK SMILES IDX 16 1 15 2 14 3 13 4 12 5 11 6 10 7 9 8 8 9 7 10 6 11 5 12
REMARK SMILES IDX 4 13 3 14 2 15 1 16 17 17 18 18 19 19 20 20 21 21 22 22
REMARK SMILES IDX 23 23 24 24 25 25 26 26 27 27 28 28 29 29 30 30
REMARK H PARENT 30 31
REMARK Flexibility Score: inf
ROOT
ATOM      1  C   UNL     1      13.458  -5.266 -50.097  1.00  0.00     0.000 C 
ENDROOT
BRANCH   1   2
ATOM      2  C   UNL     1      12.092  -4.703 -49.672  1.00  0.00     0.000 C 
BRANCH   2   3
ATOM      3  C   UNL     1      11.538  -5.397 -48.414  1.00  0.00     0.000 C 
BRANCH   3   4
ATOM      4  C   UNL     1      11.847  -6.902 -48.379  1.00  0.00     0.000 C 
BRANCH   4   5
ATOM      5  C   UNL     1      12.538  -7.339 -47.074  1.00  0.00     0.000 C 
BRANCH   5   6
ATOM      6  C   UNL     1      13.524  -8.499 -47.296  1.00  0.00     0.000 C 
BRANCH   6   7
ATOM      7  C   UNL     1      13.298  -9.220 -48.636  1.00  0.00     0.000 C 
BRANCH   7   8
ATOM      8  C   UNL     1      14.476  -9.025 -49.615  1.00  0.00    -0.000 C 
BRANCH   8   9
ATOM      9  C   UNL     1      15.710  -8.359 -48.980  1.00  0.00    -0.000 C 
BRANCH   9  10
ATOM     10  C   UNL     1      17.067  -8.919 -49.450  1.00  0.00    -0.000 C 
BRANCH  10  11
ATOM     11  C   UNL     1      17.762  -9.867 -48.454  1.00  0.00    -0.000 C 
BRANCH  11  12
ATOM     12  C   UNL     1      18.496 -11.062 -49.091  1.00  0.00    -0.000 C 
BRANCH  12  13
ATOM     13  C   UNL     1      20.027 -11.031 -48.898  1.00  0.00    -0.000 C 
BRANCH  13  14
ATOM     14  C   UNL     1      20.501  -9.778 -48.141  1.00  0.00    -0.000 C 
BRANCH  14  15
ATOM     15  C   UNL     1      20.920 -10.085 -46.695  1.00  0.00    -0.003 C 
ATOM     16  C   UNL     1      20.056  -9.360 -45.664  1.00  0.00     0.004 C 
ENDBRANCH  14  15
ENDBRANCH  13  14
ENDBRANCH  12  13
ENDBRANCH  11  12
ENDBRANCH  10  11
ENDBRANCH   9  10
ENDBRANCH   8   9
ENDBRANCH   7   8
ENDBRANCH   6   7
ENDBRANCH   5   6
ENDBRANCH   4   5
ENDBRANCH   3   4
ENDBRANCH   2   3
ENDBRANCH   1   2
BRANCH   1  17
ATOM     17  C   UNL     1      14.621  -4.640 -49.306  1.00  0.00     0.000 C 
BRANCH  17  18
ATOM     18  C   UNL     1      15.185  -3.382 -49.985  1.00  0.00     0.000 C 
BRANCH  18  19
ATOM     19  C   UNL     1      15.439  -2.238 -48.990  1.00  0.00     0.000 C 
BRANCH  19  20
ATOM     20  C   UNL     1      15.148  -0.852 -49.594  1.00  0.00     0.000 C 
BRANCH  20  21
ATOM     21  C   UNL     1      13.682  -0.388 -49.470  1.00  0.00     0.000 C 
BRANCH  21  22
ATOM     22  C   UNL     1      13.488   1.137 -49.337  1.00  0.00     0.000 C 
BRANCH  22  23
ATOM     23  C   UNL     1      12.496   1.572 -48.242  1.00  0.00     0.000 C 
BRANCH  23  24
ATOM     24  C   UNL     1      13.182   2.272 -47.059  1.00  0.00     0.000 C 
BRANCH  24  25
ATOM     25  C   UNL     1      13.642   1.251 -46.009  1.00  0.00     0.000 C 
BRANCH  25  26
ATOM     26  C   UNL     1      15.152   1.330 -45.720  1.00  0.00     0.000 C 
BRANCH  26  27
ATOM     27  C   UNL     1      16.064   0.880 -46.879  1.00  0.00     0.002 C 
BRANCH  27  28
ATOM     28  C   UNL     1      17.205   1.855 -47.229  1.00  0.00     0.028 C 
BRANCH  28  29
ATOM     29  C   UNL     1      18.067   2.254 -46.024  1.00  0.00     0.156 C 
BRANCH  29  30
ATOM     30  O   UNL     1      18.687   1.133 -45.454  1.00  0.00    -0.396 OA
ATOM     31  H   UNL     1      18.079   0.363 -45.608  1.00  0.00     0.210 HD
ENDBRANCH  29  30
ENDBRANCH  28  29
ENDBRANCH  27  28
ENDBRANCH  26  27
ENDBRANCH  25  26
ENDBRANCH  24  25
ENDBRANCH  23  24
ENDBRANCH  22  23
ENDBRANCH  21  22
ENDBRANCH  20  21
ENDBRANCH  19  20
ENDBRANCH  18  19
ENDBRANCH  17  18
ENDBRANCH   1  17
TORSDOF 28
ENDMDL
MODEL 2
REMARK VINA RESULT:    -4.779      2.195      3.297
REMARK INTER + INTRA:         -15.236
REMARK INTER:                 -12.932
REMARK INTRA:                  -2.304
REMARK UNBOUND:                -2.775
REMARK SMILES CCCCCCCCCCCCCCCCCCCCCCCCCCCCCO
REMARK SMILES IDX 16 1 15 2 14 3 13 4 12 5 11 6 10 7 9 8 8 9 7 10 6 11 5 12
REMARK SMILES IDX 4 13 3 14 2 15 1 16 17 17 18 18 19 19 20 20 21 21 22 22
REMARK SMILES IDX 23 23 24 24 25 25 26 26 27 27 28 28 29 29 30 30
REMARK H PARENT 30 31
REMARK Flexibility Score: inf
ROOT
ATOM      1  C   UNL     1      13.643  -4.132 -49.391  1.00  0.00     0.000 C 
ENDROOT
BRANCH   1   2
ATOM      2  C   UNL     1      13.799  -5.659 -49.306  1.00  0.00     0.000 C 
BRANCH   2   3
ATOM      3  C   UNL     1      12.863  -6.285 -48.256  1.00  0.00     0.000 C 
BRANCH   3   4
ATOM      4  C   UNL     1      12.839  -7.820 -48.319  1.00  0.00     0.000 C 
BRANCH   4   5
ATOM      5  C   UNL     1      14.064  -8.465 -47.648  1.00  0.00     0.000 C 
BRANCH   5   6
ATOM      6  C   UNL     1      14.882  -9.327 -48.626  1.00  0.00     0.000 C 
BRANCH   6   7
ATOM      7  C   UNL     1      16.201  -8.654 -49.045  1.00  0.00     0.000 C 
BRANCH   7   8
ATOM      8  C   UNL     1      17.402  -9.623 -48.976  1.00  0.00    -0.000 C 
BRANCH   8   9
ATOM      9  C   UNL     1      17.960  -9.822 -47.556  1.00  0.00    -0.000 C 
BRANCH   9  10
ATOM     10  C   UNL     1      19.455 -10.195 -47.491  1.00  0.00    -0.000 C 
BRANCH  10  11
ATOM     11  C   UNL     1      20.054 -10.724 -48.808  1.00  0.00    -0.000 C 
BRANCH  11  12
ATOM     12  C   UNL     1      19.958 -12.248 -49.005  1.00  0.00    -0.000 C 
BRANCH  12  13
ATOM     13  C   UNL     1      21.252 -12.892 -49.548  1.00  0.00    -0.000 C 
BRANCH  13  14
ATOM     14  C   UNL     1      22.110 -13.520 -48.436  1.00  0.00    -0.000 C 
BRANCH  14  15
ATOM     15  C   UNL     1      23.030 -14.635 -48.957  1.00  0.00    -0.003 C 
ATOM     16  C   UNL     1      23.521 -15.561 -47.846  1.00  0.00     0.004 C 
ENDBRANCH  14  15
ENDBRANCH  13  14
ENDBRANCH  12  13
ENDBRANCH  11  12
ENDBRANCH  10  11
ENDBRANCH   9  10
ENDBRANCH   8   9
ENDBRANCH   7   8
ENDBRANCH   6   7
ENDBRANCH   5   6
ENDBRANCH   4   5
ENDBRANCH   3   4
ENDBRANCH   2   3
ENDBRANCH   1   2
BRANCH   1  17
ATOM     17  C   UNL     1      12.213  -3.669 -49.061  1.00  0.00     0.000 C 
BRANCH  17  18
ATOM     18  C   UNL     1      11.656  -2.688 -50.104  1.00  0.00     0.000 C 
BRANCH  18  19
ATOM     19  C   UNL     1      11.513  -1.259 -49.551  1.00  0.00     0.000 C 
BRANCH  19  20
ATOM     20  C   UNL     1      11.926  -1.152 -48.073  1.00  0.00     0.000 C 
BRANCH  20  21
ATOM     21  C   UNL     1      11.374   0.084 -47.335  1.00  0.00     0.000 C 
BRANCH  21  22
ATOM     22  C   UNL     1      12.384   0.805 -46.419  1.00  0.00     0.000 C 
BRANCH  22  23
ATOM     23  C   UNL     1      12.696   2.261 -46.813  1.00  0.00     0.000 C 
BRANCH  23  24
ATOM     24  C   UNL     1      12.668   2.487 -48.332  1.00  0.00     0.000 C 
BRANCH  24  25
ATOM     25  C   UNL     1      13.998   2.070 -48.975  1.00  0.00     0.000 C 
BRANCH  25  26
ATOM     26  C   UNL     1      15.202   2.254 -48.033  1.00  0.00     0.000 C 
BRANCH  26  27
ATOM     27  C   UNL     1      16.194   1.074 -48.002  1.00  0.00     0.002 C 
BRANCH  27  28
ATOM     28  C   UNL     1      15.547  -0.324 -47.987  1.00  0.00     0.028 C 
BRANCH  28  29
ATOM     29  C   UNL     1      15.821  -1.144 -49.255  1.00  0.00     0.156 C 
BRANCH  29  30
ATOM     30  O   UNL     1      16.922  -1.994 -49.079  1.00  0.00    -0.396 OA
ATOM     31  H   UNL     1      16.671  -2.869 -49.474  1.00  0.00     0.210 HD
ENDBRANCH  29  30
ENDBRANCH  28  29
ENDBRANCH  27  28
ENDBRANCH  26  27
ENDBRANCH  25  26
ENDBRANCH  24  25
ENDBRANCH  23  24
ENDBRANCH  22  23
ENDBRANCH  21  22
ENDBRANCH  20  21
ENDBRANCH  19  20
ENDBRANCH  18  19
ENDBRANCH  17  18
ENDBRANCH   1  17
TORSDOF 28
ENDMDL
MODEL 3
REMARK VINA RESULT:    -4.704      2.283      3.225
REMARK INTER + INTRA:         -15.041
REMARK INTER:                 -12.635
REMARK INTRA:                  -2.405
REMARK UNBOUND:                -2.775
REMARK SMILES CCCCCCCCCCCCCCCCCCCCCCCCCCCCCO
REMARK SMILES IDX 16 1 15 2 14 3 13 4 12 5 11 6 10 7 9 8 8 9 7 10 6 11 5 12
REMARK SMILES IDX 4 13 3 14 2 15 1 16 17 17 18 18 19 19 20 20 21 21 22 22
REMARK SMILES IDX 23 23 24 24 25 25 26 26 27 27 28 28 29 29 30 30
REMARK H PARENT 30 31
REMARK Flexibility Score: inf
ROOT
ATOM      1  C   UNL     1      13.636  -3.559 -49.619  1.00  0.00     0.000 C 
ENDROOT
BRANCH   1   2
ATOM      2  C   UNL     1      12.506  -2.571 -49.287  1.00  0.00     0.000 C 
BRANCH   2   3
ATOM      3  C   UNL     1      11.469  -3.172 -48.321  1.00  0.00     0.000 C 
BRANCH   3   4
ATOM      4  C   UNL     1      11.071  -4.609 -48.691  1.00  0.00     0.000 C 
BRANCH   4   5
ATOM      5  C   UNL     1      11.412  -5.626 -47.587  1.00  0.00     0.000 C 
BRANCH   5   6
ATOM      6  C   UNL     1      11.686  -7.031 -48.150  1.00  0.00     0.000 C 
BRANCH   6   7
ATOM      7  C   UNL     1      12.185  -6.997 -49.606  1.00  0.00     0.000 C 
BRANCH   7   8
ATOM      8  C   UNL     1      13.698  -7.284 -49.716  1.00  0.00    -0.000 C 
BRANCH   8   9
ATOM      9  C   UNL     1      14.395  -7.479 -48.358  1.00  0.00    -0.000 C 
BRANCH   9  10
ATOM     10  C   UNL     1      14.959  -8.892 -48.112  1.00  0.00    -0.000 C 
BRANCH  10  11
ATOM     11  C   UNL     1      15.844  -9.448 -49.244  1.00  0.00    -0.000 C 
BRANCH  11  12
ATOM     12  C   UNL     1      17.298  -8.939 -49.249  1.00  0.00    -0.000 C 
BRANCH  12  13
ATOM     13  C   UNL     1      18.324  -9.973 -48.738  1.00  0.00    -0.000 C 
BRANCH  13  14
ATOM     14  C   UNL     1      19.734  -9.736 -49.308  1.00  0.00    -0.000 C 
BRANCH  14  15
ATOM     15  C   UNL     1      20.811  -9.675 -48.214  1.00  0.00    -0.003 C 
ATOM     16  C   UNL     1      20.252  -9.958 -46.820  1.00  0.00     0.004 C 
ENDBRANCH  14  15
ENDBRANCH  13  14
ENDBRANCH  12  13
ENDBRANCH  11  12
ENDBRANCH  10  11
ENDBRANCH   9  10
ENDBRANCH   8   9
ENDBRANCH   7   8
ENDBRANCH   6   7
ENDBRANCH   5   6
ENDBRANCH   4   5
ENDBRANCH   3   4
ENDBRANCH   2   3
ENDBRANCH   1   2
BRANCH   1  17
ATOM     17  C   UNL     1      15.030  -2.979 -49.314  1.00  0.00     0.000 C 
BRANCH  17  18
ATOM     18  C   UNL     1      15.096  -1.461 -49.537  1.00  0.00     0.000 C 
BRANCH  18  19
ATOM     19  C   UNL     1      15.523  -0.697 -48.272  1.00  0.00     0.000 C 
BRANCH  19  20
ATOM     20  C   UNL     1      15.233   0.812 -48.365  1.00  0.00     0.000 C 
BRANCH  20  21
ATOM     21  C   UNL     1      13.812   1.169 -48.846  1.00  0.00     0.000 C 
BRANCH  21  22
ATOM     22  C   UNL     1      13.320   2.575 -48.447  1.00  0.00     0.000 C 
BRANCH  22  23
ATOM     23  C   UNL     1      11.829   2.659 -48.070  1.00  0.00     0.000 C 
BRANCH  23  24
ATOM     24  C   UNL     1      11.593   2.610 -46.554  1.00  0.00     0.000 C 
BRANCH  24  25
ATOM     25  C   UNL     1      11.169   1.204 -46.108  1.00  0.00     0.000 C 
BRANCH  25  26
ATOM     26  C   UNL     1      12.104   0.607 -45.040  1.00  0.00     0.000 C 
BRANCH  26  27
ATOM     27  C   UNL     1      11.438  -0.395 -44.075  1.00  0.00     0.002 C 
BRANCH  27  28
ATOM     28  C   UNL     1      12.039  -0.434 -42.657  1.00  0.00     0.028 C 
BRANCH  28  29
ATOM     29  C   UNL     1      12.303  -1.854 -42.137  1.00  0.00     0.156 C 
BRANCH  29  30
ATOM     30  O   UNL     1      13.513  -1.917 -41.432  1.00  0.00    -0.396 OA
ATOM     31  H   UNL     1      13.686  -2.877 -41.250  1.00  0.00     0.210 HD
ENDBRANCH  29  30
ENDBRANCH  28  29
ENDBRANCH  27  28
ENDBRANCH  26  27
ENDBRANCH  25  26
ENDBRANCH  24  25
ENDBRANCH  23  24
ENDBRANCH  22  23
ENDBRANCH  21  22
ENDBRANCH  20  21
ENDBRANCH  19  20
ENDBRANCH  18  19
ENDBRANCH  17  18
ENDBRANCH   1  17
TORSDOF 28
ENDMDL
MODEL 4
REMARK VINA RESULT:    -4.639      1.271      2.717
REMARK INTER + INTRA:         -14.872
REMARK INTER:                 -12.372
REMARK INTRA:                  -2.500
REMARK UNBOUND:                -2.775
REMARK SMILES CCCCCCCCCCCCCCCCCCCCCCCCCCCCCO
REMARK SMILES IDX 16 1 15 2 14 3 13 4 12 5 11 6 10 7 9 8 8 9 7 10 6 11 5 12
REMARK SMILES IDX 4 13 3 14 2 15 1 16 17 17 18 18 19 19 20 20 21 21 22 22
REMARK SMILES IDX 23 23 24 24 25 25 26 26 27 27 28 28 29 29 30 30
REMARK H PARENT 30 31
REMARK Flexibility Score: inf
ROOT
ATOM      1  C   UNL     1      13.839  -1.536 -49.308  1.00  0.00     0.000 C 
ENDROOT
BRANCH   1   2
ATOM      2  C   UNL     1      12.368  -1.821 -49.653  1.00  0.00     0.000 C 
BRANCH   2   3
ATOM      3  C   UNL     1      11.667  -2.665 -48.573  1.00  0.00     0.000 C 
BRANCH   3   4
ATOM      4  C   UNL     1      11.524  -4.142 -48.972  1.00  0.00     0.000 C 
BRANCH   4   5
ATOM      5  C   UNL     1      11.577  -5.094 -47.763  1.00  0.00     0.000 C 
BRANCH   5   6
ATOM      6  C   UNL     1      11.906  -6.541 -48.173  1.00  0.00     0.000 C 
BRANCH   6   7
ATOM      7  C   UNL     1      13.203  -6.642 -48.994  1.00  0.00     0.000 C 
BRANCH   7   8
ATOM      8  C   UNL     1      14.362  -7.268 -48.187  1.00  0.00    -0.000 C 
BRANCH   8   9
ATOM      9  C   UNL     1      14.705  -8.709 -48.605  1.00  0.00    -0.000 C 
BRANCH   9  10
ATOM     10  C   UNL     1      15.956  -8.848 -49.494  1.00  0.00    -0.000 C 
BRANCH  10  11
ATOM     11  C   UNL     1      17.154  -9.554 -48.829  1.00  0.00    -0.000 C 
BRANCH  11  12
ATOM     12  C   UNL     1      18.338  -9.857 -49.766  1.00  0.00    -0.000 C 
BRANCH  12  13
ATOM     13  C   UNL     1      19.606  -9.031 -49.459  1.00  0.00    -0.000 C 
BRANCH  13  14
ATOM     14  C   UNL     1      20.799  -9.914 -49.052  1.00  0.00    -0.000 C 
BRANCH  14  15
ATOM     15  C   UNL     1      20.538 -10.701 -47.759  1.00  0.00    -0.003 C 
ATOM     16  C   UNL     1      20.504  -9.805 -46.521  1.00  0.00     0.004 C 
ENDBRANCH  14  15
ENDBRANCH  13  14
ENDBRANCH  12  13
ENDBRANCH  11  12
ENDBRANCH  10  11
ENDBRANCH   9  10
ENDBRANCH   8   9
ENDBRANCH   7   8
ENDBRANCH   6   7
ENDBRANCH   5   6
ENDBRANCH   4   5
ENDBRANCH   3   4
ENDBRANCH   2   3
ENDBRANCH   1   2
BRANCH   1  17
ATOM     17  C   UNL     1      14.281  -0.127 -49.745  1.00  0.00     0.000 C 
BRANCH  17  18
ATOM     18  C   UNL     1      13.097   0.841 -49.895  1.00  0.00     0.000 C 
BRANCH  18  19
ATOM     19  C   UNL     1      13.515   2.312 -49.733  1.00  0.00     0.000 C 
BRANCH  19  20
ATOM     20  C   UNL     1      12.560   3.101 -48.818  1.00  0.00     0.000 C 
BRANCH  20  21
ATOM     21  C   UNL     1      11.708   2.234 -47.871  1.00  0.00     0.000 C 
BRANCH  21  22
ATOM     22  C   UNL     1      12.000   2.424 -46.368  1.00  0.00     0.000 C 
BRANCH  22  23
ATOM     23  C   UNL     1      12.551   1.178 -45.650  1.00  0.00     0.000 C 
BRANCH  23  24
ATOM     24  C   UNL     1      13.922   0.738 -46.185  1.00  0.00     0.000 C 
BRANCH  24  25
ATOM     25  C   UNL     1      14.919   1.905 -46.169  1.00  0.00     0.000 C 
BRANCH  25  26
ATOM     26  C   UNL     1      15.889   1.880 -47.364  1.00  0.00     0.000 C 
BRANCH  26  27
ATOM     27  C   UNL     1      17.383   1.971 -46.996  1.00  0.00     0.002 C 
BRANCH  27  28
ATOM     28  C   UNL     1      17.780   1.255 -45.690  1.00  0.00     0.028 C 
BRANCH  28  29
ATOM     29  C   UNL     1      18.396   2.187 -44.638  1.00  0.00     0.156 C 
BRANCH  29  30
ATOM     30  O   UNL     1      19.783   2.295 -44.810  1.00  0.00    -0.396 OA
ATOM     31  H   UNL     1      19.938   3.102 -45.368  1.00  0.00     0.210 HD
ENDBRANCH  29  30
ENDBRANCH  28  29
ENDBRANCH  27  28
ENDBRANCH  26  27
ENDBRANCH  25  26
ENDBRANCH  24  25
ENDBRANCH  23  24
ENDBRANCH  22  23
ENDBRANCH  21  22
ENDBRANCH  20  21
ENDBRANCH  19  20
ENDBRANCH  18  19
ENDBRANCH  17  18
ENDBRANCH   1  17
TORSDOF 28
ENDMDL
MODEL 5
REMARK VINA RESULT:    -4.424      2.396      4.837
REMARK INTER + INTRA:         -14.313
REMARK INTER:                 -12.745
REMARK INTRA:                  -1.568
REMARK UNBOUND:                -2.775
REMARK SMILES CCCCCCCCCCCCCCCCCCCCCCCCCCCCCO
REMARK SMILES IDX 16 1 15 2 14 3 13 4 12 5 11 6 10 7 9 8 8 9 7 10 6 11 5 12
REMARK SMILES IDX 4 13 3 14 2 15 1 16 17 17 18 18 19 19 20 20 21 21 22 22
REMARK SMILES IDX 23 23 24 24 25 25 26 26 27 27 28 28 29 29 30 30
REMARK H PARENT 30 31
REMARK Flexibility Score: inf
ROOT
ATOM      1  C   UNL     1      13.980  -7.748 -47.518  1.00  0.00     0.000 C 
ENDROOT
BRANCH   1   2
ATOM      2  C   UNL     1      14.578  -9.074 -48.017  1.00  0.00     0.000 C 
BRANCH   2   3
ATOM      3  C   UNL     1      16.117  -9.077 -47.968  1.00  0.00     0.000 C 
BRANCH   3   4
ATOM      4  C   UNL     1      16.758  -8.992 -49.362  1.00  0.00     0.000 C 
BRANCH   4   5
ATOM      5  C   UNL     1      18.033  -9.846 -49.486  1.00  0.00     0.000 C 
BRANCH   5   6
ATOM      6  C   UNL     1      19.270  -9.001 -49.839  1.00  0.00     0.000 C 
BRANCH   6   7
ATOM      7  C   UNL     1      20.569  -9.585 -49.258  1.00  0.00     0.000 C 
BRANCH   7   8
ATOM      8  C   UNL     1      20.366 -10.182 -47.848  1.00  0.00    -0.000 C 
BRANCH   8   9
ATOM      9  C   UNL     1      20.989 -11.578 -47.668  1.00  0.00    -0.000 C 
BRANCH   9  10
ATOM     10  C   UNL     1      21.418 -12.273 -48.976  1.00  0.00    -0.000 C 
BRANCH  10  11
ATOM     11  C   UNL     1      22.182 -13.599 -48.790  1.00  0.00    -0.000 C 
BRANCH  11  12
ATOM     12  C   UNL     1      22.019 -14.614 -49.937  1.00  0.00    -0.000 C 
BRANCH  12  13
ATOM     13  C   UNL     1      21.518 -16.001 -49.478  1.00  0.00    -0.000 C 
BRANCH  13  14
ATOM     14  C   UNL     1      20.892 -15.966 -48.073  1.00  0.00    -0.000 C 
BRANCH  14  15
ATOM     15  C   UNL     1      19.360 -16.085 -48.106  1.00  0.00    -0.003 C 
ATOM     16  C   UNL     1      18.736 -15.332 -49.280  1.00  0.00     0.004 C 
ENDBRANCH  14  15
ENDBRANCH  13  14
ENDBRANCH  12  13
ENDBRANCH  11  12
ENDBRANCH  10  11
ENDBRANCH   9  10
ENDBRANCH   8   9
ENDBRANCH   7   8
ENDBRANCH   6   7
ENDBRANCH   5   6
ENDBRANCH   4   5
ENDBRANCH   3   4
ENDBRANCH   2   3
ENDBRANCH   1   2
BRANCH   1  17
ATOM     17  C   UNL     1      12.525  -7.550 -47.982  1.00  0.00     0.000 C 
BRANCH  17  18
ATOM     18  C   UNL     1      12.167  -6.069 -48.179  1.00  0.00     0.000 C 
BRANCH  18  19
ATOM     19  C   UNL     1      12.614  -5.532 -49.550  1.00  0.00     0.000 C 
BRANCH  19  20
ATOM     20  C   UNL     1      11.806  -4.300 -49.994  1.00  0.00     0.000 C 
BRANCH  20  21
ATOM     21  C   UNL     1      12.473  -2.944 -49.688  1.00  0.00     0.000 C 
BRANCH  21  22
ATOM     22  C   UNL     1      11.732  -2.068 -48.656  1.00  0.00     0.000 C 
BRANCH  22  23
ATOM     23  C   UNL     1      12.256  -0.625 -48.532  1.00  0.00     0.000 C 
BRANCH  23  24
ATOM     24  C   UNL     1      13.692  -0.465 -49.053  1.00  0.00     0.000 C 
BRANCH  24  25
ATOM     25  C   UNL     1      14.612   0.104 -47.963  1.00  0.00     0.000 C 
BRANCH  25  26
ATOM     26  C   UNL     1      16.067   0.273 -48.437  1.00  0.00     0.000 C 
BRANCH  26  27
ATOM     27  C   UNL     1      16.712   1.631 -48.095  1.00  0.00     0.002 C 
BRANCH  27  28
ATOM     28  C   UNL     1      16.686   2.011 -46.602  1.00  0.00     0.028 C 
BRANCH  28  29
ATOM     29  C   UNL     1      17.518   1.077 -45.713  1.00  0.00     0.156 C 
BRANCH  29  30
ATOM     30  O   UNL     1      18.790   1.614 -45.469  1.00  0.00    -0.396 OA
ATOM     31  H   UNL     1      18.959   2.280 -46.185  1.00  0.00     0.210 HD
ENDBRANCH  29  30
ENDBRANCH  28  29
ENDBRANCH  27  28
ENDBRANCH  26  27
ENDBRANCH  25  26
ENDBRANCH  24  25
ENDBRANCH  23  24
ENDBRANCH  22  23
ENDBRANCH  21  22
ENDBRANCH  20  21
ENDBRANCH  19  20
ENDBRANCH  18  19
ENDBRANCH  17  18
ENDBRANCH   1  17
TORSDOF 28
ENDMDL
MODEL 6
REMARK VINA RESULT:    -4.418      1.323      2.373
REMARK INTER + INTRA:         -14.297
REMARK INTER:                 -12.097
REMARK INTRA:                  -2.200
REMARK UNBOUND:                -2.775
REMARK SMILES CCCCCCCCCCCCCCCCCCCCCCCCCCCCCO
REMARK SMILES IDX 16 1 15 2 14 3 13 4 12 5 11 6 10 7 9 8 8 9 7 10 6 11 5 12
REMARK SMILES IDX 4 13 3 14 2 15 1 16 17 17 18 18 19 19 20 20 21 21 22 22
REMARK SMILES IDX 23 23 24 24 25 25 26 26 27 27 28 28 29 29 30 30
REMARK H PARENT 30 31
REMARK Flexibility Score: inf
ROOT
ATOM      1  C   UNL     1      14.453  -2.798 -49.166  1.00  0.00     0.000 C 
ENDROOT
BRANCH   1   2
ATOM      2  C   UNL     1      14.123  -4.255 -49.532  1.00  0.00     0.000 C 
BRANCH   2   3
ATOM      3  C   UNL     1      12.613  -4.482 -49.723  1.00  0.00     0.000 C 
BRANCH   3   4
ATOM      4  C   UNL     1      12.157  -5.876 -49.264  1.00  0.00     0.000 C 
BRANCH   4   5
ATOM      5  C   UNL     1      13.315  -6.886 -49.183  1.00  0.00     0.000 C 
BRANCH   5   6
ATOM      6  C   UNL     1      13.517  -7.432 -47.758  1.00  0.00     0.000 C 
BRANCH   6   7
ATOM      7  C   UNL     1      14.432  -8.669 -47.722  1.00  0.00     0.000 C 
BRANCH   7   8
ATOM      8  C   UNL     1      14.285  -9.546 -48.984  1.00  0.00    -0.000 C 
BRANCH   8   9
ATOM      9  C   UNL     1      15.559  -9.619 -49.844  1.00  0.00    -0.000 C 
BRANCH   9  10
ATOM     10  C   UNL     1      16.791  -8.912 -49.244  1.00  0.00    -0.000 C 
BRANCH  10  11
ATOM     11  C   UNL     1      18.141  -9.308 -49.873  1.00  0.00    -0.000 C 
BRANCH  11  12
ATOM     12  C   UNL     1      18.475 -10.810 -49.811  1.00  0.00    -0.000 C 
BRANCH  12  13
ATOM     13  C   UNL     1      18.748 -11.332 -48.384  1.00  0.00    -0.000 C 
BRANCH  13  14
ATOM     14  C   UNL     1      19.803 -10.493 -47.641  1.00  0.00    -0.000 C 
BRANCH  14  15
ATOM     15  C   UNL     1      21.099 -11.275 -47.374  1.00  0.00    -0.003 C 
ATOM     16  C   UNL     1      21.303 -12.429 -48.354  1.00  0.00     0.004 C 
ENDBRANCH  14  15
ENDBRANCH  13  14
ENDBRANCH  12  13
ENDBRANCH  11  12
ENDBRANCH  10  11
ENDBRANCH   9  10
ENDBRANCH   8   9
ENDBRANCH   7   8
ENDBRANCH   6   7
ENDBRANCH   5   6
ENDBRANCH   4   5
ENDBRANCH   3   4
ENDBRANCH   2   3
ENDBRANCH   1   2
BRANCH   1  17
ATOM     17  C   UNL     1      13.193  -1.922 -49.052  1.00  0.00     0.000 C 
BRANCH  17  18
ATOM     18  C   UNL     1      13.422  -0.671 -48.190  1.00  0.00     0.000 C 
BRANCH  18  19
ATOM     19  C   UNL     1      12.225  -0.356 -47.277  1.00  0.00     0.000 C 
BRANCH  19  20
ATOM     20  C   UNL     1      11.011   0.181 -48.057  1.00  0.00     0.000 C 
BRANCH  20  21
ATOM     21  C   UNL     1      10.960   1.715 -48.199  1.00  0.00     0.000 C 
BRANCH  21  22
ATOM     22  C   UNL     1      12.014   2.484 -47.376  1.00  0.00     0.000 C 
BRANCH  22  23
ATOM     23  C   UNL     1      13.019   3.301 -48.209  1.00  0.00     0.000 C 
BRANCH  23  24
ATOM     24  C   UNL     1      14.041   2.421 -48.944  1.00  0.00     0.000 C 
BRANCH  24  25
ATOM     25  C   UNL     1      15.463   2.680 -48.427  1.00  0.00     0.000 C 
BRANCH  25  26
ATOM     26  C   UNL     1      16.014   1.516 -47.583  1.00  0.00     0.000 C 
BRANCH  26  27
ATOM     27  C   UNL     1      15.523   1.478 -46.122  1.00  0.00     0.002 C 
BRANCH  27  28
ATOM     28  C   UNL     1      16.620   1.223 -45.070  1.00  0.00     0.028 C 
BRANCH  28  29
ATOM     29  C   UNL     1      17.837   2.146 -45.212  1.00  0.00     0.156 C 
BRANCH  29  30
ATOM     30  O   UNL     1      18.996   1.413 -45.506  1.00  0.00    -0.396 OA
ATOM     31  H   UNL     1      18.924   0.558 -45.006  1.00  0.00     0.210 HD
ENDBRANCH  29  30
ENDBRANCH  28  29
ENDBRANCH  27  28
ENDBRANCH  26  27
ENDBRANCH  25  26
ENDBRANCH  24  25
ENDBRANCH  23  24
ENDBRANCH  22  23
ENDBRANCH  21  22
ENDBRANCH  20  21
ENDBRANCH  19  20
ENDBRANCH  18  19
ENDBRANCH  17  18
ENDBRANCH   1  17
TORSDOF 28
ENDMDL
MODEL 7
REMARK VINA RESULT:    -3.947      1.422      3.000
REMARK INTER + INTRA:         -13.067
REMARK INTER:                 -12.147
REMARK INTRA:                  -0.920
REMARK UNBOUND:                -2.775
REMARK SMILES CCCCCCCCCCCCCCCCCCCCCCCCCCCCCO
REMARK SMILES IDX 16 1 15 2 14 3 13 4 12 5 11 6 10 7 9 8 8 9 7 10 6 11 5 12
REMARK SMILES IDX 4 13 3 14 2 15 1 16 17 17 18 18 19 19 20 20 21 21 22 22
REMARK SMILES IDX 23 23 24 24 25 25 26 26 27 27 28 28 29 29 30 30
REMARK H PARENT 30 31
REMARK Flexibility Score: inf
ROOT
ATOM      1  C   UNL     1      11.766  -6.457 -47.764  1.00  0.00     0.000 C 
ENDROOT
BRANCH   1   2
ATOM      2  C   UNL     1      11.375  -7.804 -47.135  1.00  0.00     0.000 C 
BRANCH   2   3
ATOM      3  C   UNL     1      12.597  -8.704 -46.874  1.00  0.00     0.000 C 
BRANCH   3   4
ATOM      4  C   UNL     1      13.450  -8.930 -48.132  1.00  0.00     0.000 C 
BRANCH   4   5
ATOM      5  C   UNL     1      14.903  -8.452 -47.962  1.00  0.00     0.000 C 
BRANCH   5   6
ATOM      6  C   UNL     1      15.641  -8.334 -49.307  1.00  0.00     0.000 C 
BRANCH   6   7
ATOM      7  C   UNL     1      16.703  -9.431 -49.498  1.00  0.00     0.000 C 
BRANCH   7   8
ATOM      8  C   UNL     1      17.448  -9.762 -48.186  1.00  0.00    -0.000 C 
BRANCH   8   9
ATOM      9  C   UNL     1      18.669 -10.678 -48.378  1.00  0.00    -0.000 C 
BRANCH   9  10
ATOM     10  C   UNL     1      20.007 -10.093 -47.883  1.00  0.00    -0.000 C 
BRANCH  10  11
ATOM     11  C   UNL     1      20.825  -9.339 -48.950  1.00  0.00    -0.000 C 
BRANCH  11  12
ATOM     12  C   UNL     1      21.416 -10.222 -50.065  1.00  0.00    -0.000 C 
BRANCH  12  13
ATOM     13  C   UNL     1      20.892 -11.675 -50.056  1.00  0.00    -0.000 C 
BRANCH  13  14
ATOM     14  C   UNL     1      21.960 -12.683 -49.596  1.00  0.00    -0.000 C 
BRANCH  14  15
ATOM     15  C   UNL     1      21.404 -14.108 -49.453  1.00  0.00    -0.003 C 
ATOM     16  C   UNL     1      19.914 -14.128 -49.115  1.00  0.00     0.004 C 
ENDBRANCH  14  15
ENDBRANCH  13  14
ENDBRANCH  12  13
ENDBRANCH  11  12
ENDBRANCH  10  11
ENDBRANCH   9  10
ENDBRANCH   8   9
ENDBRANCH   7   8
ENDBRANCH   6   7
ENDBRANCH   5   6
ENDBRANCH   4   5
ENDBRANCH   3   4
ENDBRANCH   2   3
ENDBRANCH   1   2
BRANCH   1  17
ATOM     17  C   UNL     1      12.029  -6.571 -49.277  1.00  0.00     0.000 C 
BRANCH  17  18
ATOM     18  C   UNL     1      12.822  -5.376 -49.828  1.00  0.00     0.000 C 
BRANCH  18  19
ATOM     19  C   UNL     1      12.520  -4.070 -49.074  1.00  0.00     0.000 C 
BRANCH  19  20
ATOM     20  C   UNL     1      12.900  -2.817 -49.883  1.00  0.00     0.000 C 
BRANCH  20  21
ATOM     21  C   UNL     1      13.807  -1.817 -49.139  1.00  0.00     0.000 C 
BRANCH  21  22
ATOM     22  C   UNL     1      13.686  -0.351 -49.605  1.00  0.00     0.000 C 
BRANCH  22  23
ATOM     23  C   UNL     1      12.423   0.383 -49.120  1.00  0.00     0.000 C 
BRANCH  23  24
ATOM     24  C   UNL     1      12.742   1.630 -48.282  1.00  0.00     0.000 C 
BRANCH  24  25
ATOM     25  C   UNL     1      14.250   1.741 -48.014  1.00  0.00     0.000 C 
BRANCH  25  26
ATOM     26  C   UNL     1      14.579   1.949 -46.524  1.00  0.00     0.000 C 
BRANCH  26  27
ATOM     27  C   UNL     1      15.694   1.041 -45.968  1.00  0.00     0.002 C 
BRANCH  27  28
ATOM     28  C   UNL     1      16.839   1.779 -45.247  1.00  0.00     0.028 C 
BRANCH  28  29
ATOM     29  C   UNL     1      18.156   1.793 -46.035  1.00  0.00     0.156 C 
BRANCH  29  30
ATOM     30  O   UNL     1      19.255   1.601 -45.185  1.00  0.00    -0.396 OA
ATOM     31  H   UNL     1      20.047   1.477 -45.770  1.00  0.00     0.210 HD
ENDBRANCH  29  30
ENDBRANCH  28  29
ENDBRANCH  27  28
ENDBRANCH  26  27
ENDBRANCH  25  26
ENDBRANCH  24  25
ENDBRANCH  23  24
ENDBRANCH  22  23
ENDBRANCH  21  22
ENDBRANCH  20  21
ENDBRANCH  19  20
ENDBRANCH  18  19
ENDBRANCH  17  18
ENDBRANCH   1  17
TORSDOF 28
ENDMDL
MODEL 8
REMARK VINA RESULT:    -3.646     12.568     17.394
REMARK INTER + INTRA:         -12.284
REMARK INTER:                 -11.152
REMARK INTRA:                  -1.132
REMARK UNBOUND:                -2.775
REMARK SMILES CCCCCCCCCCCCCCCCCCCCCCCCCCCCCO
REMARK SMILES IDX 16 1 15 2 14 3 13 4 12 5 11 6 10 7 9 8 8 9 7 10 6 11 5 12
REMARK SMILES IDX 4 13 3 14 2 15 1 16 17 17 18 18 19 19 20 20 21 21 22 22
REMARK SMILES IDX 23 23 24 24 25 25 26 26 27 27 28 28 29 29 30 30
REMARK H PARENT 30 31
REMARK Flexibility Score: inf
ROOT
ATOM      1  C   UNL     1      21.779  -0.046 -30.567  1.00  0.00     0.000 C 
ENDROOT
BRANCH   1   2
ATOM      2  C   UNL     1      21.752   0.734 -31.891  1.00  0.00     0.000 C 
BRANCH   2   3
ATOM      3  C   UNL     1      21.396   2.218 -31.689  1.00  0.00     0.000 C 
BRANCH   3   4
ATOM      4  C   UNL     1      20.665   2.826 -32.897  1.00  0.00     0.000 C 
BRANCH   4   5
ATOM      5  C   UNL     1      19.421   2.019 -33.310  1.00  0.00     0.000 C 
BRANCH   5   6
ATOM      6  C   UNL     1      18.684   2.650 -34.504  1.00  0.00     0.000 C 
BRANCH   6   7
ATOM      7  C   UNL     1      17.656   1.696 -35.136  1.00  0.00     0.000 C 
BRANCH   7   8
ATOM      8  C   UNL     1      17.135   2.209 -36.496  1.00  0.00    -0.000 C 
BRANCH   8   9
ATOM      9  C   UNL     1      16.137   1.258 -37.180  1.00  0.00    -0.000 C 
BRANCH   9  10
ATOM     10  C   UNL     1      15.103   1.946 -38.093  1.00  0.00    -0.000 C 
BRANCH  10  11
ATOM     11  C   UNL     1      14.094   0.997 -38.768  1.00  0.00    -0.000 C 
BRANCH  11  12
ATOM     12  C   UNL     1      12.627   1.191 -38.342  1.00  0.00    -0.000 C 
BRANCH  12  13
ATOM     13  C   UNL     1      11.603   0.668 -39.372  1.00  0.00    -0.000 C 
BRANCH  13  14
ATOM     14  C   UNL     1      12.068  -0.627 -40.060  1.00  0.00    -0.000 C 
BRANCH  14  15
ATOM     15  C   UNL     1      11.364  -0.867 -41.405  1.00  0.00    -0.003 C 
ATOM     16  C   UNL     1      12.171  -0.348 -42.594  1.00  0.00     0.004 C 
ENDBRANCH  14  15
ENDBRANCH  13  14
ENDBRANCH  12  13
ENDBRANCH  11  12
ENDBRANCH  10  11
ENDBRANCH   9  10
ENDBRANCH   8   9
ENDBRANCH   7   8
ENDBRANCH   6   7
ENDBRANCH   5   6
ENDBRANCH   4   5
ENDBRANCH   3   4
ENDBRANCH   2   3
ENDBRANCH   1   2
BRANCH   1  17
ATOM     17  C   UNL     1      21.730  -1.569 -30.783  1.00  0.00     0.000 C 
BRANCH  17  18
ATOM     18  C   UNL     1      20.684  -2.256 -29.891  1.00  0.00     0.000 C 
BRANCH  18  19
ATOM     19  C   UNL     1      19.393  -2.598 -30.654  1.00  0.00     0.000 C 
BRANCH  19  20
ATOM     20  C   UNL     1      19.009  -4.084 -30.533  1.00  0.00     0.000 C 
BRANCH  20  21
ATOM     21  C   UNL     1      17.629  -4.445 -31.118  1.00  0.00     0.000 C 
BRANCH  21  22
ATOM     22  C   UNL     1      17.533  -4.380 -32.656  1.00  0.00     0.000 C 
BRANCH  22  23
ATOM     23  C   UNL     1      16.141  -4.695 -33.234  1.00  0.00     0.000 C 
BRANCH  23  24
ATOM     24  C   UNL     1      15.689  -6.135 -32.953  1.00  0.00     0.000 C 
BRANCH  24  25
ATOM     25  C   UNL     1      14.396  -6.464 -33.713  1.00  0.00     0.000 C 
BRANCH  25  26
ATOM     26  C   UNL     1      13.128  -6.204 -32.878  1.00  0.00     0.000 C 
BRANCH  26  27
ATOM     27  C   UNL     1      11.805  -6.244 -33.669  1.00  0.00     0.002 C 
BRANCH  27  28
ATOM     28  C   UNL     1      11.650  -5.147 -34.739  1.00  0.00     0.028 C 
BRANCH  28  29
ATOM     29  C   UNL     1      11.268  -3.776 -34.166  1.00  0.00     0.156 C 
BRANCH  29  30
ATOM     30  O   UNL     1      12.387  -3.123 -33.630  1.00  0.00    -0.396 OA
ATOM     31  H   UNL     1      12.168  -2.915 -32.685  1.00  0.00     0.210 HD
ENDBRANCH  29  30
ENDBRANCH  28  29
ENDBRANCH  27  28
ENDBRANCH  26  27
ENDBRANCH  25  26
ENDBRANCH  24  25
ENDBRANCH  23  24
ENDBRANCH  22  23
ENDBRANCH  21  22
ENDBRANCH  20  21
ENDBRANCH  19  20
ENDBRANCH  18  19
ENDBRANCH  17  18
ENDBRANCH   1  17
TORSDOF 28
ENDMDL
MODEL 9
REMARK VINA RESULT:    -3.477      2.430      4.494
REMARK INTER + INTRA:         -11.841
REMARK INTER:                  -9.355
REMARK INTRA:                  -2.486
REMARK UNBOUND:                -2.775
REMARK SMILES CCCCCCCCCCCCCCCCCCCCCCCCCCCCCO
REMARK SMILES IDX 16 1 15 2 14 3 13 4 12 5 11 6 10 7 9 8 8 9 7 10 6 11 5 12
REMARK SMILES IDX 4 13 3 14 2 15 1 16 17 17 18 18 19 19 20 20 21 21 22 22
REMARK SMILES IDX 23 23 24 24 25 25 26 26 27 27 28 28 29 29 30 30
REMARK H PARENT 30 31
REMARK Flexibility Score: inf
ROOT
ATOM      1  C   UNL     1      15.224  -0.626 -47.034  1.00  0.00     0.000 C 
ENDROOT
BRANCH   1   2
ATOM      2  C   UNL     1      14.646  -0.908 -48.431  1.00  0.00     0.000 C 
BRANCH   2   3
ATOM      3  C   UNL     1      13.117  -1.090 -48.406  1.00  0.00     0.000 C 
BRANCH   3   4
ATOM      4  C   UNL     1      12.581  -1.794 -49.662  1.00  0.00     0.000 C 
BRANCH   4   5
ATOM      5  C   UNL     1      11.593  -2.928 -49.335  1.00  0.00     0.000 C 
BRANCH   5   6
ATOM      6  C   UNL     1      11.956  -4.244 -50.047  1.00  0.00     0.000 C 
BRANCH   6   7
ATOM      7  C   UNL     1      13.475  -4.487 -50.100  1.00  0.00     0.000 C 
BRANCH   7   8
ATOM      8  C   UNL     1      13.978  -5.327 -48.906  1.00  0.00    -0.000 C 
BRANCH   8   9
ATOM      9  C   UNL     1      13.823  -6.845 -49.104  1.00  0.00    -0.000 C 
BRANCH   9  10
ATOM     10  C   UNL     1      15.133  -7.652 -49.000  1.00  0.00    -0.000 C 
BRANCH  10  11
ATOM     11  C   UNL     1      14.997  -9.158 -49.295  1.00  0.00    -0.000 C 
BRANCH  11  12
ATOM     12  C   UNL     1      16.316  -9.882 -49.623  1.00  0.00    -0.000 C 
BRANCH  12  13
ATOM     13  C   UNL     1      17.574  -9.007 -49.432  1.00  0.00    -0.000 C 
BRANCH  13  14
ATOM     14  C   UNL     1      18.827  -9.840 -49.108  1.00  0.00    -0.000 C 
BRANCH  14  15
ATOM     15  C   UNL     1      18.920 -10.211 -47.620  1.00  0.00    -0.003 C 
ATOM     16  C   UNL     1      20.352 -10.157 -47.088  1.00  0.00     0.004 C 
ENDBRANCH  14  15
ENDBRANCH  13  14
ENDBRANCH  12  13
ENDBRANCH  11  12
ENDBRANCH  10  11
ENDBRANCH   9  10
ENDBRANCH   8   9
ENDBRANCH   7   8
ENDBRANCH   6   7
ENDBRANCH   5   6
ENDBRANCH   4   5
ENDBRANCH   3   4
ENDBRANCH   2   3
ENDBRANCH   1   2
BRANCH   1  17
ATOM     17  C   UNL     1      15.834   0.783 -46.926  1.00  0.00     0.000 C 
BRANCH  17  18
ATOM     18  C   UNL     1      16.206   1.370 -48.296  1.00  0.00     0.000 C 
BRANCH  18  19
ATOM     19  C   UNL     1      16.272   2.907 -48.280  1.00  0.00     0.000 C 
BRANCH  19  20
ATOM     20  C   UNL     1      15.076   3.559 -48.997  1.00  0.00     0.000 C 
BRANCH  20  21
ATOM     21  C   UNL     1      13.878   2.619 -49.242  1.00  0.00     0.000 C 
BRANCH  21  22
ATOM     22  C   UNL     1      12.575   3.018 -48.519  1.00  0.00     0.000 C 
BRANCH  22  23
ATOM     23  C   UNL     1      11.912   1.891 -47.705  1.00  0.00     0.000 C 
BRANCH  23  24
ATOM     24  C   UNL     1      12.094   2.063 -46.190  1.00  0.00     0.000 C 
BRANCH  24  25
ATOM     25  C   UNL     1      10.875   1.530 -45.425  1.00  0.00     0.000 C 
BRANCH  25  26
ATOM     26  C   UNL     1      11.234   0.984 -44.031  1.00  0.00     0.000 C 
BRANCH  26  27
ATOM     27  C   UNL     1      11.997  -0.356 -44.030  1.00  0.00     0.002 C 
BRANCH  27  28
ATOM     28  C   UNL     1      11.646  -1.308 -42.870  1.00  0.00     0.028 C 
BRANCH  28  29
ATOM     29  C   UNL     1      12.330  -0.943 -41.545  1.00  0.00     0.156 C 
BRANCH  29  30
ATOM     30  O   UNL     1      13.317  -1.882 -41.212  1.00  0.00    -0.396 OA
ATOM     31  H   UNL     1      14.115  -1.660 -41.758  1.00  0.00     0.210 HD
ENDBRANCH  29  30
ENDBRANCH  28  29
ENDBRANCH  27  28
ENDBRANCH  26  27
ENDBRANCH  25  26
ENDBRANCH  24  25
ENDBRANCH  23  24
ENDBRANCH  22  23
ENDBRANCH  21  22
ENDBRANCH  20  21
ENDBRANCH  19  20
ENDBRANCH  18  19
ENDBRANCH  17  18
ENDBRANCH   1  17
TORSDOF 28
ENDMDL
