MODEL 1
REMARK VINA RESULT:    -3.278      0.000      0.000
REMARK INTER + INTRA:          -3.940
REMARK INTER:                  -3.853
REMARK INTRA:                  -0.087
REMARK UNBOUND:                -0.087
REMARK SMILES O=C([O-])CCC(=O)[O-]
REMARK SMILES IDX 4 1 2 2 1 3 3 4 5 5 6 6 7 7 8 8
REMARK H PARENT
REMARK Flexibility Score: inf
ROOT
ATOM      1  C   UNL     1       5.519  -2.009   2.329  1.00  0.00     0.059 C 
ENDROOT
BRANCH   1   2
ATOM      2  C   UNL     1       5.444  -1.205   3.591  1.00  0.00     0.042 C 
ATOM      3  O   UNL     1       6.107  -1.553   4.603  1.00  0.00    -0.550 OA
ATOM      4  O   UNL     1       4.674  -0.050   3.635  1.00  0.00    -0.550 OA
ENDBRANCH   1   2
BRANCH   1   5
ATOM      5  C   UNL     1       6.969  -2.226   1.882  1.00  0.00     0.059 C 
BRANCH   5   6
ATOM      6  C   UNL     1       7.340  -1.317   0.750  1.00  0.00     0.042 C 
ATOM      7  O   UNL     1       7.703  -1.798  -0.356  1.00  0.00    -0.550 OA
ATOM      8  O   UNL     1       7.245   0.061   0.902  1.00  0.00    -0.550 OA
ENDBRANCH   5   6
ENDBRANCH   1   5
TORSDOF 3
ENDMDL
MODEL 2
REMARK VINA RESULT:    -3.274      2.158      2.966
REMARK INTER + INTRA:          -3.935
REMARK INTER:                  -3.816
REMARK INTRA:                  -0.119
REMARK UNBOUND:                -0.087
REMARK SMILES O=C([O-])CCC(=O)[O-]
REMARK SMILES IDX 4 1 2 2 1 3 3 4 5 5 6 6 7 7 8 8
REMARK H PARENT
REMARK Flexibility Score: inf
ROOT
ATOM      1  C   UNL     1       6.673  -1.589   0.021  1.00  0.00     0.059 C 
ENDROOT
BRANCH   1   2
ATOM      2  C   UNL     1       6.784  -1.896   1.483  1.00  0.00     0.042 C 
ATOM      3  O   UNL     1       7.427  -2.906   1.870  1.00  0.00    -0.550 OA
ATOM      4  O   UNL     1       6.210  -1.044   2.418  1.00  0.00    -0.550 OA
ENDBRANCH   1   2
BRANCH   1   5
ATOM      5  C   UNL     1       7.485  -0.346  -0.359  1.00  0.00     0.059 C 
BRANCH   5   6
ATOM      6  C   UNL     1       6.601   0.770  -0.828  1.00  0.00     0.042 C 
ATOM      7  O   UNL     1       5.909   1.421  -0.000  1.00  0.00    -0.550 OA
ATOM      8  O   UNL     1       6.571   1.118  -2.172  1.00  0.00    -0.550 OA
ENDBRANCH   5   6
ENDBRANCH   1   5
TORSDOF 3
ENDMDL
MODEL 3
REMARK VINA RESULT:    -3.271      0.075      3.718
REMARK INTER + INTRA:          -3.932
REMARK INTER:                  -3.837
REMARK INTRA:                  -0.095
REMARK UNBOUND:                -0.087
REMARK SMILES O=C([O-])CCC(=O)[O-]
REMARK SMILES IDX 4 1 2 2 1 3 3 4 5 5 6 6 7 7 8 8
REMARK H PARENT
REMARK Flexibility Score: inf
ROOT
ATOM      1  C   UNL     1       7.037  -2.234   1.894  1.00  0.00     0.059 C 
ENDROOT
BRANCH   1   2
ATOM      2  C   UNL     1       7.346  -1.333   0.738  1.00  0.00     0.042 C 
ATOM      3  O   UNL     1       7.660  -1.821  -0.379  1.00  0.00    -0.550 OA
ATOM      4  O   UNL     1       7.248   0.045   0.884  1.00  0.00    -0.550 OA
ENDBRANCH   1   2
BRANCH   1   5
ATOM      5  C   UNL     1       5.577  -2.101   2.339  1.00  0.00     0.059 C 
BRANCH   5   6
ATOM      6  C   UNL     1       5.449  -1.258   3.571  1.00  0.00     0.042 C 
ATOM      7  O   UNL     1       6.034  -1.596   4.634  1.00  0.00    -0.550 OA
ATOM      8  O   UNL     1       4.719  -0.076   3.535  1.00  0.00    -0.550 OA
ENDBRANCH   5   6
ENDBRANCH   1   5
TORSDOF 3
ENDMDL
MODEL 4
REMARK VINA RESULT:    -3.271      2.165      3.938
REMARK INTER + INTRA:          -3.932
REMARK INTER:                  -3.816
REMARK INTRA:                  -0.116
REMARK UNBOUND:                -0.087
REMARK SMILES O=C([O-])CCC(=O)[O-]
REMARK SMILES IDX 4 1 2 2 1 3 3 4 5 5 6 6 7 7 8 8
REMARK H PARENT
REMARK Flexibility Score: inf
ROOT
ATOM      1  C   UNL     1       7.431  -0.362  -0.363  1.00  0.00     0.059 C 
ENDROOT
BRANCH   1   2
ATOM      2  C   UNL     1       6.585   0.779  -0.839  1.00  0.00     0.042 C 
ATOM      3  O   UNL     1       5.885   1.432  -0.022  1.00  0.00    -0.550 OA
ATOM      4  O   UNL     1       6.602   1.146  -2.179  1.00  0.00    -0.550 OA
ENDBRANCH   1   2
BRANCH   1   5
ATOM      5  C   UNL     1       6.576  -1.559   0.066  1.00  0.00     0.059 C 
BRANCH   5   6
ATOM      6  C   UNL     1       6.733  -1.856   1.526  1.00  0.00     0.042 C 
ATOM      7  O   UNL     1       7.424  -2.840   1.901  1.00  0.00    -0.550 OA
ATOM      8  O   UNL     1       6.152  -1.024   2.474  1.00  0.00    -0.550 OA
ENDBRANCH   5   6
ENDBRANCH   1   5
TORSDOF 3
ENDMDL
MODEL 5
REMARK VINA RESULT:    -2.952      2.972      4.325
REMARK INTER + INTRA:          -3.556
REMARK INTER:                  -3.439
REMARK INTRA:                  -0.118
REMARK UNBOUND:                -0.087
REMARK SMILES O=C([O-])CCC(=O)[O-]
REMARK SMILES IDX 4 1 2 2 1 3 3 4 5 5 6 6 7 7 8 8
REMARK H PARENT
REMARK Flexibility Score: inf
ROOT
ATOM      1  C   UNL     1       6.604   0.570  -0.678  1.00  0.00     0.059 C 
ENDROOT
BRANCH   1   2
ATOM      2  C   UNL     1       7.110  -0.507   0.233  1.00  0.00     0.042 C 
ATOM      3  O   UNL     1       8.108  -1.198  -0.099  1.00  0.00    -0.550 OA
ATOM      4  O   UNL     1       6.503  -0.719   1.464  1.00  0.00    -0.550 OA
ENDBRANCH   1   2
BRANCH   1   5
ATOM      5  C   UNL     1       5.073   0.583  -0.741  1.00  0.00     0.059 C 
BRANCH   5   6
ATOM      6  C   UNL     1       4.507   1.858  -0.194  1.00  0.00     0.042 C 
ATOM      7  O   UNL     1       4.031   2.726  -0.973  1.00  0.00    -0.550 OA
ATOM      8  O   UNL     1       4.468   2.071   1.178  1.00  0.00    -0.550 OA
ENDBRANCH   5   6
ENDBRANCH   1   5
TORSDOF 3
ENDMDL
MODEL 6
REMARK VINA RESULT:    -2.949     14.460     15.282
REMARK INTER + INTRA:          -3.553
REMARK INTER:                  -3.463
REMARK INTRA:                  -0.090
REMARK UNBOUND:                -0.087
REMARK SMILES O=C([O-])CCC(=O)[O-]
REMARK SMILES IDX 4 1 2 2 1 3 3 4 5 5 6 6 7 7 8 8
REMARK H PARENT
REMARK Flexibility Score: inf
ROOT
ATOM      1  C   UNL     1      -8.332   0.377  -2.443  1.00  0.00     0.059 C 
ENDROOT
BRANCH   1   2
ATOM      2  C   UNL     1      -7.540   0.192  -1.186  1.00  0.00     0.042 C 
ATOM      3  O   UNL     1      -7.295   1.177  -0.441  1.00  0.00    -0.550 OA
ATOM      4  O   UNL     1      -7.107  -1.076  -0.817  1.00  0.00    -0.550 OA
ENDBRANCH   1   2
BRANCH   1   5
ATOM      5  C   UNL     1      -8.736  -0.966  -3.061  1.00  0.00     0.059 C 
BRANCH   5   6
ATOM      6  C   UNL     1      -8.181  -1.128  -4.443  1.00  0.00     0.042 C 
ATOM      7  O   UNL     1      -7.187  -0.448  -4.810  1.00  0.00    -0.550 OA
ATOM      8  O   UNL     1      -8.735  -2.059  -5.312  1.00  0.00    -0.550 OA
ENDBRANCH   5   6
ENDBRANCH   1   5
TORSDOF 3
ENDMDL
MODEL 7
REMARK VINA RESULT:    -2.913      9.284     10.529
REMARK INTER + INTRA:          -3.511
REMARK INTER:                  -3.401
REMARK INTRA:                  -0.110
REMARK UNBOUND:                -0.087
REMARK SMILES O=C([O-])CCC(=O)[O-]
REMARK SMILES IDX 4 1 2 2 1 3 3 4 5 5 6 6 7 7 8 8
REMARK H PARENT
REMARK Flexibility Score: inf
ROOT
ATOM      1  C   UNL     1       5.879   6.367  -5.175  1.00  0.00     0.059 C 
ENDROOT
BRANCH   1   2
ATOM      2  C   UNL     1       5.134   5.305  -4.427  1.00  0.00     0.042 C 
ATOM      3  O   UNL     1       4.177   5.616  -3.671  1.00  0.00    -0.550 OA
ATOM      4  O   UNL     1       5.470   3.968  -4.598  1.00  0.00    -0.550 OA
ENDBRANCH   1   2
BRANCH   1   5
ATOM      5  C   UNL     1       7.329   5.953  -5.450  1.00  0.00     0.059 C 
BRANCH   5   6
ATOM      6  C   UNL     1       7.580   5.758  -6.914  1.00  0.00     0.042 C 
ATOM      7  O   UNL     1       7.937   6.731  -7.631  1.00  0.00    -0.550 OA
ATOM      8  O   UNL     1       7.459   4.495  -7.480  1.00  0.00    -0.550 OA
ENDBRANCH   5   6
ENDBRANCH   1   5
TORSDOF 3
ENDMDL
MODEL 8
REMARK VINA RESULT:    -2.877      5.400      7.023
REMARK INTER + INTRA:          -3.468
REMARK INTER:                  -3.316
REMARK INTRA:                  -0.153
REMARK UNBOUND:                -0.087
REMARK SMILES O=C([O-])CCC(=O)[O-]
REMARK SMILES IDX 4 1 2 2 1 3 3 4 5 5 6 6 7 7 8 8
REMARK H PARENT
REMARK Flexibility Score: inf
ROOT
ATOM      1  C   UNL     1       2.146   4.020   2.171  1.00  0.00     0.059 C 
ENDROOT
BRANCH   1   2
ATOM      2  C   UNL     1       3.367   3.213   2.487  1.00  0.00     0.042 C 
ATOM      3  O   UNL     1       3.951   2.566   1.579  1.00  0.00    -0.550 OA
ATOM      4  O   UNL     1       3.883   3.209   3.778  1.00  0.00    -0.550 OA
ENDBRANCH   1   2
BRANCH   1   5
ATOM      5  C   UNL     1       0.965   3.127   1.774  1.00  0.00     0.059 C 
BRANCH   5   6
ATOM      6  C   UNL     1       0.380   2.425   2.961  1.00  0.00     0.042 C 
ATOM      7  O   UNL     1       0.458   1.172   3.059  1.00  0.00    -0.550 OA
ATOM      8  O   UNL     1      -0.216   3.158   3.980  1.00  0.00    -0.550 OA
ENDBRANCH   5   6
ENDBRANCH   1   5
TORSDOF 3
ENDMDL
MODEL 9
REMARK VINA RESULT:    -2.855      2.927      4.061
REMARK INTER + INTRA:          -3.443
REMARK INTER:                  -3.335
REMARK INTRA:                  -0.108
REMARK UNBOUND:                -0.087
REMARK SMILES O=C([O-])CCC(=O)[O-]
REMARK SMILES IDX 4 1 2 2 1 3 3 4 5 5 6 6 7 7 8 8
REMARK H PARENT
REMARK Flexibility Score: inf
ROOT
ATOM      1  C   UNL     1       5.737   1.184  -0.918  1.00  0.00     0.059 C 
ENDROOT
BRANCH   1   2
ATOM      2  C   UNL     1       4.609   1.922  -0.265  1.00  0.00     0.042 C 
ATOM      3  O   UNL     1       3.814   2.606  -0.960  1.00  0.00    -0.550 OA
ATOM      4  O   UNL     1       4.412   1.819   1.107  1.00  0.00    -0.550 OA
ENDBRANCH   1   2
BRANCH   1   5
ATOM      5  C   UNL     1       5.749  -0.296  -0.522  1.00  0.00     0.059 C 
BRANCH   5   6
ATOM      6  C   UNL     1       7.063  -0.698   0.075  1.00  0.00     0.042 C 
ATOM      7  O   UNL     1       7.619   0.036   0.935  1.00  0.00    -0.550 OA
ATOM      8  O   UNL     1       7.655  -1.901  -0.287  1.00  0.00    -0.550 OA
ENDBRANCH   5   6
ENDBRANCH   1   5
TORSDOF 3
ENDMDL
