MODEL 1
REMARK VINA RESULT:    -7.114      0.000      0.000
REMARK INTER + INTRA:          -7.114
REMARK INTER:                  -7.114
REMARK INTRA:                   0.000
REMARK UNBOUND:                 0.000
REMARK SMILES C=C1CCC[C@]2(C)CC(=O)C(=C(C)C)C[C@H]12
REMARK SMILES IDX 13 1 12 2 11 3 15 4 16 5 2 6 1 7 3 8 4 9 5 10 6 11 8 12 9 13
REMARK SMILES IDX 10 14 7 15 14 16
REMARK H PARENT
REMARK Flexibility Score: inf
ROOT
ATOM      1  C   UNL     1     -23.334 -50.499  30.914  1.00  0.00     0.039 C 
ATOM      2  C   UNL     1     -22.045 -50.782  31.650  1.00  0.00    -0.070 C 
ATOM      3  C   UNL     1     -20.847 -50.798  30.999  1.00  0.00    -0.006 C 
ATOM      4  C   UNL     1     -20.734 -50.539  29.510  1.00  0.00     0.047 C 
ATOM      5  C   UNL     1     -19.433 -49.795  29.111  1.00  0.00     0.025 C 
ATOM      6  C   UNL     1     -19.312 -49.806  27.595  1.00  0.00    -0.073 C 
ATOM      7  C   UNL     1     -19.696 -48.743  26.872  1.00  0.00     0.008 C 
ATOM      8  C   UNL     1     -18.900 -51.091  26.908  1.00  0.00     0.031 C 
ATOM      9  C   UNL     1     -17.687 -51.736  27.593  1.00  0.00     0.005 C 
ATOM     10  C   UNL     1     -17.825 -51.786  29.126  1.00  0.00     0.008 C 
ATOM     11  C   UNL     1     -18.140 -50.394  29.751  1.00  0.00    -0.018 C 
ATOM     12  C   UNL     1     -18.310 -50.525  31.288  1.00  0.00     0.088 C 
ATOM     13  C   UNL     1     -19.589 -51.201  31.668  1.00  0.00     0.159 C 
ATOM     14  O   UNL     1     -19.574 -52.101  32.550  1.00  0.00    -0.295 OA
ATOM     15  C   UNL     1     -16.946 -49.430  29.513  1.00  0.00     0.012 C 
ATOM     16  C   UNL     1     -22.136 -51.008  33.141  1.00  0.00     0.039 C 
ENDROOT
TORSDOF 0
ENDMDL
MODEL 2
REMARK VINA RESULT:    -7.070      6.379      8.055
REMARK INTER + INTRA:          -7.070
REMARK INTER:                  -7.070
REMARK INTRA:                   0.000
REMARK UNBOUND:                 0.000
REMARK SMILES C=C1CCC[C@]2(C)CC(=O)C(=C(C)C)C[C@H]12
REMARK SMILES IDX 13 1 12 2 11 3 15 4 16 5 2 6 1 7 3 8 4 9 5 10 6 11 8 12 9 13
REMARK SMILES IDX 10 14 7 15 14 16
REMARK H PARENT
REMARK Flexibility Score: inf
ROOT
ATOM      1  C   UNL     1     -24.095 -54.249  30.570  1.00  0.00     0.039 C 
ATOM      2  C   UNL     1     -25.455 -54.000  29.962  1.00  0.00    -0.070 C 
ATOM      3  C   UNL     1     -25.641 -54.012  28.611  1.00  0.00    -0.006 C 
ATOM      4  C   UNL     1     -24.503 -54.269  27.643  1.00  0.00     0.047 C 
ATOM      5  C   UNL     1     -24.940 -55.044  26.372  1.00  0.00     0.025 C 
ATOM      6  C   UNL     1     -23.791 -55.032  25.376  1.00  0.00    -0.073 C 
ATOM      7  C   UNL     1     -22.963 -56.084  25.277  1.00  0.00     0.008 C 
ATOM      8  C   UNL     1     -23.502 -53.755  24.615  1.00  0.00     0.031 C 
ATOM      9  C   UNL     1     -24.782 -53.141  24.031  1.00  0.00     0.005 C 
ATOM     10  C   UNL     1     -25.936 -53.093  25.050  1.00  0.00     0.008 C 
ATOM     11  C   UNL     1     -26.231 -54.478  25.698  1.00  0.00    -0.018 C 
ATOM     12  C   UNL     1     -27.371 -54.346  26.743  1.00  0.00     0.088 C 
ATOM     13  C   UNL     1     -26.931 -53.641  27.986  1.00  0.00     0.159 C 
ATOM     14  O   UNL     1     -27.665 -52.743  28.481  1.00  0.00    -0.295 OA
ATOM     15  C   UNL     1     -26.730 -55.470  24.613  1.00  0.00     0.012 C 
ATOM     16  C   UNL     1     -26.607 -53.776  30.914  1.00  0.00     0.039 C 
ENDROOT
TORSDOF 0
ENDMDL
MODEL 3
REMARK VINA RESULT:    -6.773      5.760      7.248
REMARK INTER + INTRA:          -6.773
REMARK INTER:                  -6.773
REMARK INTRA:                   0.000
REMARK UNBOUND:                 0.000
REMARK SMILES C=C1CCC[C@]2(C)CC(=O)C(=C(C)C)C[C@H]12
REMARK SMILES IDX 13 1 12 2 11 3 15 4 16 5 2 6 1 7 3 8 4 9 5 10 6 11 8 12 9 13
REMARK SMILES IDX 10 14 7 15 14 16
REMARK H PARENT
REMARK Flexibility Score: inf
ROOT
ATOM      1  C   UNL     1     -24.367 -51.249  28.432  1.00  0.00     0.039 C 
ATOM      2  C   UNL     1     -25.181 -52.062  27.452  1.00  0.00    -0.070 C 
ATOM      3  C   UNL     1     -24.581 -52.847  26.512  1.00  0.00    -0.006 C 
ATOM      4  C   UNL     1     -23.074 -52.949  26.390  1.00  0.00     0.047 C 
ATOM      5  C   UNL     1     -22.585 -54.355  25.953  1.00  0.00     0.025 C 
ATOM      6  C   UNL     1     -21.101 -54.275  25.630  1.00  0.00    -0.073 C 
ATOM      7  C   UNL     1     -20.185 -54.650  26.536  1.00  0.00     0.008 C 
ATOM      8  C   UNL     1     -20.673 -53.619  24.334  1.00  0.00     0.031 C 
ATOM      9  C   UNL     1     -21.500 -54.123  23.144  1.00  0.00     0.005 C 
ATOM     10  C   UNL     1     -23.011 -54.151  23.438  1.00  0.00     0.008 C 
ATOM     11  C   UNL     1     -23.362 -54.944  24.733  1.00  0.00    -0.018 C 
ATOM     12  C   UNL     1     -24.891 -54.892  24.992  1.00  0.00     0.088 C 
ATOM     13  C   UNL     1     -25.350 -53.548  25.459  1.00  0.00     0.159 C 
ATOM     14  O   UNL     1     -26.381 -53.034  24.948  1.00  0.00    -0.295 OA
ATOM     15  C   UNL     1     -22.989 -56.439  24.549  1.00  0.00     0.012 C 
ATOM     16  C   UNL     1     -26.685 -51.999  27.583  1.00  0.00     0.039 C 
ENDROOT
TORSDOF 0
ENDMDL
MODEL 4
REMARK VINA RESULT:    -6.760      6.462      7.897
REMARK INTER + INTRA:          -6.760
REMARK INTER:                  -6.760
REMARK INTRA:                   0.000
REMARK UNBOUND:                 0.000
REMARK SMILES C=C1CCC[C@]2(C)CC(=O)C(=C(C)C)C[C@H]12
REMARK SMILES IDX 13 1 12 2 11 3 15 4 16 5 2 6 1 7 3 8 4 9 5 10 6 11 8 12 9 13
REMARK SMILES IDX 10 14 7 15 14 16
REMARK H PARENT
REMARK Flexibility Score: inf
ROOT
ATOM      1  C   UNL     1     -26.979 -51.372  27.551  1.00  0.00     0.039 C 
ATOM      2  C   UNL     1     -27.164 -52.416  26.474  1.00  0.00    -0.070 C 
ATOM      3  C   UNL     1     -26.097 -53.052  25.913  1.00  0.00    -0.006 C 
ATOM      4  C   UNL     1     -24.670 -52.752  26.327  1.00  0.00     0.047 C 
ATOM      5  C   UNL     1     -23.741 -53.994  26.281  1.00  0.00     0.025 C 
ATOM      6  C   UNL     1     -22.305 -53.535  26.476  1.00  0.00    -0.073 C 
ATOM      7  C   UNL     1     -21.722 -53.610  27.682  1.00  0.00     0.008 C 
ATOM      8  C   UNL     1     -21.599 -52.846  25.326  1.00  0.00     0.031 C 
ATOM      9  C   UNL     1     -21.792 -53.605  24.007  1.00  0.00     0.005 C 
ATOM     10  C   UNL     1     -23.255 -54.023  23.768  1.00  0.00     0.008 C 
ATOM     11  C   UNL     1     -23.859 -54.823  24.962  1.00  0.00    -0.018 C 
ATOM     12  C   UNL     1     -25.343 -55.171  24.674  1.00  0.00     0.088 C 
ATOM     13  C   UNL     1     -26.241 -53.979  24.767  1.00  0.00     0.159 C 
ATOM     14  O   UNL     1     -27.104 -53.783  23.870  1.00  0.00    -0.295 OA
ATOM     15  C   UNL     1     -23.105 -56.171  25.125  1.00  0.00     0.012 C 
ATOM     16  C   UNL     1     -28.582 -52.752  26.074  1.00  0.00     0.039 C 
ENDROOT
TORSDOF 0
ENDMDL
MODEL 5
REMARK VINA RESULT:    -6.674      4.363      6.509
REMARK INTER + INTRA:          -6.674
REMARK INTER:                  -6.674
REMARK INTRA:                   0.000
REMARK UNBOUND:                 0.000
REMARK SMILES C=C1CCC[C@]2(C)CC(=O)C(=C(C)C)C[C@H]12
REMARK SMILES IDX 13 1 12 2 11 3 15 4 16 5 2 6 1 7 3 8 4 9 5 10 6 11 8 12 9 13
REMARK SMILES IDX 10 14 7 15 14 16
REMARK H PARENT
REMARK Flexibility Score: inf
ROOT
ATOM      1  C   UNL     1     -18.483 -50.510  25.077  1.00  0.00     0.039 C 
ATOM      2  C   UNL     1     -18.821 -51.423  26.233  1.00  0.00    -0.070 C 
ATOM      3  C   UNL     1     -19.847 -52.318  26.153  1.00  0.00    -0.006 C 
ATOM      4  C   UNL     1     -20.707 -52.449  24.912  1.00  0.00     0.047 C 
ATOM      5  C   UNL     1     -21.182 -53.901  24.642  1.00  0.00     0.025 C 
ATOM      6  C   UNL     1     -22.221 -53.875  23.533  1.00  0.00    -0.073 C 
ATOM      7  C   UNL     1     -21.874 -54.151  22.266  1.00  0.00     0.008 C 
ATOM      8  C   UNL     1     -23.615 -53.378  23.854  1.00  0.00     0.031 C 
ATOM      9  C   UNL     1     -24.158 -54.008  25.144  1.00  0.00     0.005 C 
ATOM     10  C   UNL     1     -23.135 -53.986  26.294  1.00  0.00     0.008 C 
ATOM     11  C   UNL     1     -21.767 -54.619  25.900  1.00  0.00    -0.018 C 
ATOM     12  C   UNL     1     -20.773 -54.522  27.088  1.00  0.00     0.088 C 
ATOM     13  C   UNL     1     -20.282 -53.128  27.313  1.00  0.00     0.159 C 
ATOM     14  O   UNL     1     -20.247 -52.667  28.486  1.00  0.00    -0.295 OA
ATOM     15  C   UNL     1     -21.956 -56.130  25.596  1.00  0.00     0.012 C 
ATOM     16  C   UNL     1     -17.950 -51.330  27.465  1.00  0.00     0.039 C 
ENDROOT
TORSDOF 0
ENDMDL
MODEL 6
REMARK VINA RESULT:    -6.657      6.187      8.481
REMARK INTER + INTRA:          -6.657
REMARK INTER:                  -6.657
REMARK INTRA:                   0.000
REMARK UNBOUND:                 0.000
REMARK SMILES C=C1CCC[C@]2(C)CC(=O)C(=C(C)C)C[C@H]12
REMARK SMILES IDX 13 1 12 2 11 3 15 4 16 5 2 6 1 7 3 8 4 9 5 10 6 11 8 12 9 13
REMARK SMILES IDX 10 14 7 15 14 16
REMARK H PARENT
REMARK Flexibility Score: inf
ROOT
ATOM      1  C   UNL     1     -21.821 -54.228  22.576  1.00  0.00     0.039 C 
ATOM      2  C   UNL     1     -21.690 -53.736  23.998  1.00  0.00    -0.070 C 
ATOM      3  C   UNL     1     -22.781 -53.601  24.805  1.00  0.00    -0.006 C 
ATOM      4  C   UNL     1     -24.181 -53.929  24.328  1.00  0.00     0.047 C 
ATOM      5  C   UNL     1     -25.089 -54.517  25.441  1.00  0.00     0.025 C 
ATOM      6  C   UNL     1     -26.516 -54.579  24.922  1.00  0.00    -0.073 C 
ATOM      7  C   UNL     1     -27.015 -55.724  24.431  1.00  0.00     0.008 C 
ATOM      8  C   UNL     1     -27.310 -53.293  24.823  1.00  0.00     0.031 C 
ATOM      9  C   UNL     1     -27.193 -52.455  26.104  1.00  0.00     0.005 C 
ATOM     10  C   UNL     1     -25.742 -52.335  26.605  1.00  0.00     0.008 C 
ATOM     11  C   UNL     1     -25.045 -53.717  26.781  1.00  0.00    -0.018 C 
ATOM     12  C   UNL     1     -23.577 -53.519  27.244  1.00  0.00     0.088 C 
ATOM     13  C   UNL     1     -22.697 -52.997  26.154  1.00  0.00     0.159 C 
ATOM     14  O   UNL     1     -21.900 -52.053  26.402  1.00  0.00    -0.295 OA
ATOM     15  C   UNL     1     -25.761 -54.527  27.895  1.00  0.00     0.012 C 
ATOM     16  C   UNL     1     -20.296 -53.437  24.500  1.00  0.00     0.039 C 
ENDROOT
TORSDOF 0
ENDMDL
MODEL 7
REMARK VINA RESULT:    -6.634      2.449      3.494
REMARK INTER + INTRA:          -6.634
REMARK INTER:                  -6.634
REMARK INTRA:                   0.000
REMARK UNBOUND:                 0.000
REMARK SMILES C=C1CCC[C@]2(C)CC(=O)C(=C(C)C)C[C@H]12
REMARK SMILES IDX 13 1 12 2 11 3 15 4 16 5 2 6 1 7 3 8 4 9 5 10 6 11 8 12 9 13
REMARK SMILES IDX 10 14 7 15 14 16
REMARK H PARENT
REMARK Flexibility Score: inf
ROOT
ATOM      1  C   UNL     1     -19.388 -53.520  31.420  1.00  0.00     0.039 C 
ATOM      2  C   UNL     1     -18.430 -52.460  30.928  1.00  0.00    -0.070 C 
ATOM      3  C   UNL     1     -18.619 -51.835  29.730  1.00  0.00    -0.006 C 
ATOM      4  C   UNL     1     -19.788 -52.165  28.825  1.00  0.00     0.047 C 
ATOM      5  C   UNL     1     -20.323 -50.939  28.038  1.00  0.00     0.025 C 
ATOM      6  C   UNL     1     -21.318 -51.426  26.997  1.00  0.00    -0.073 C 
ATOM      7  C   UNL     1     -22.637 -51.376  27.237  1.00  0.00     0.008 C 
ATOM      8  C   UNL     1     -20.792 -52.113  25.754  1.00  0.00     0.031 C 
ATOM      9  C   UNL     1     -19.627 -51.334  25.126  1.00  0.00     0.005 C 
ATOM     10  C   UNL     1     -18.581 -50.888  26.164  1.00  0.00     0.008 C 
ATOM     11  C   UNL     1     -19.206 -50.093  27.350  1.00  0.00    -0.018 C 
ATOM     12  C   UNL     1     -18.105 -49.715  28.377  1.00  0.00     0.088 C 
ATOM     13  C   UNL     1     -17.627 -50.892  29.165  1.00  0.00     0.159 C 
ATOM     14  O   UNL     1     -16.390 -51.062  29.335  1.00  0.00    -0.295 OA
ATOM     15  C   UNL     1     -19.808 -48.760  26.828  1.00  0.00     0.012 C 
ATOM     16  C   UNL     1     -17.278 -52.094  31.835  1.00  0.00     0.039 C 
ENDROOT
TORSDOF 0
ENDMDL
MODEL 8
REMARK VINA RESULT:    -6.604      3.450      5.809
REMARK INTER + INTRA:          -6.604
REMARK INTER:                  -6.604
REMARK INTRA:                   0.000
REMARK UNBOUND:                 0.000
REMARK SMILES C=C1CCC[C@]2(C)CC(=O)C(=C(C)C)C[C@H]12
REMARK SMILES IDX 13 1 12 2 11 3 15 4 16 5 2 6 1 7 3 8 4 9 5 10 6 11 8 12 9 13
REMARK SMILES IDX 10 14 7 15 14 16
REMARK H PARENT
REMARK Flexibility Score: inf
ROOT
ATOM      1  C   UNL     1     -19.872 -52.366  22.381  1.00  0.00     0.039 C 
ATOM      2  C   UNL     1     -20.692 -53.105  23.412  1.00  0.00    -0.070 C 
ATOM      3  C   UNL     1     -20.627 -52.782  24.735  1.00  0.00    -0.006 C 
ATOM      4  C   UNL     1     -19.732 -51.672  25.250  1.00  0.00     0.047 C 
ATOM      5  C   UNL     1     -20.333 -50.908  26.459  1.00  0.00     0.025 C 
ATOM      6  C   UNL     1     -19.263 -49.996  27.038  1.00  0.00    -0.073 C 
ATOM      7  C   UNL     1     -19.227 -48.694  26.712  1.00  0.00     0.008 C 
ATOM      8  C   UNL     1     -18.150 -50.611  27.859  1.00  0.00     0.031 C 
ATOM      9  C   UNL     1     -18.693 -51.602  28.898  1.00  0.00     0.005 C 
ATOM     10  C   UNL     1     -19.734 -52.571  28.309  1.00  0.00     0.008 C 
ATOM     11  C   UNL     1     -20.899 -51.839  27.578  1.00  0.00    -0.018 C 
ATOM     12  C   UNL     1     -21.883 -52.874  26.971  1.00  0.00     0.088 C 
ATOM     13  C   UNL     1     -21.317 -53.574  25.778  1.00  0.00     0.159 C 
ATOM     14  O   UNL     1     -21.436 -54.825  25.680  1.00  0.00    -0.295 OA
ATOM     15  C   UNL     1     -21.710 -50.994  28.598  1.00  0.00     0.012 C 
ATOM     16  C   UNL     1     -21.616 -54.191  22.910  1.00  0.00     0.039 C 
ENDROOT
TORSDOF 0
ENDMDL
MODEL 9
REMARK VINA RESULT:    -6.509      5.651      6.863
REMARK INTER + INTRA:          -6.509
REMARK INTER:                  -6.509
REMARK INTRA:                   0.000
REMARK UNBOUND:                 0.000
REMARK SMILES C=C1CCC[C@]2(C)CC(=O)C(=C(C)C)C[C@H]12
REMARK SMILES IDX 13 1 12 2 11 3 15 4 16 5 2 6 1 7 3 8 4 9 5 10 6 11 8 12 9 13
REMARK SMILES IDX 10 14 7 15 14 16
REMARK H PARENT
REMARK Flexibility Score: inf
ROOT
ATOM      1  C   UNL     1     -26.445 -53.116  24.606  1.00  0.00     0.039 C 
ATOM      2  C   UNL     1     -25.481 -54.261  24.813  1.00  0.00    -0.070 C 
ATOM      3  C   UNL     1     -24.134 -54.054  24.863  1.00  0.00    -0.006 C 
ATOM      4  C   UNL     1     -23.525 -52.675  24.712  1.00  0.00     0.047 C 
ATOM      5  C   UNL     1     -22.246 -52.470  25.566  1.00  0.00     0.025 C 
ATOM      6  C   UNL     1     -21.593 -51.159  25.157  1.00  0.00    -0.073 C 
ATOM      7  C   UNL     1     -21.797 -50.042  25.872  1.00  0.00     0.008 C 
ATOM      8  C   UNL     1     -20.840 -51.102  23.844  1.00  0.00     0.031 C 
ATOM      9  C   UNL     1     -19.893 -52.299  23.681  1.00  0.00     0.005 C 
ATOM     10  C   UNL     1     -20.563 -53.640  24.035  1.00  0.00     0.008 C 
ATOM     11  C   UNL     1     -21.214 -53.636  25.450  1.00  0.00    -0.018 C 
ATOM     12  C   UNL     1     -21.907 -54.998  25.722  1.00  0.00     0.088 C 
ATOM     13  C   UNL     1     -23.164 -55.170  24.931  1.00  0.00     0.159 C 
ATOM     14  O   UNL     1     -23.377 -56.261  24.337  1.00  0.00    -0.295 OA
ATOM     15  C   UNL     1     -20.115 -53.469  26.533  1.00  0.00     0.012 C 
ATOM     16  C   UNL     1     -26.075 -55.638  25.000  1.00  0.00     0.039 C 
ENDROOT
TORSDOF 0
ENDMDL
