MODEL 1
REMARK VINA RESULT:    -4.354      0.000      0.000
REMARK INTER + INTRA:          -6.557
REMARK INTER:                  -5.881
REMARK INTRA:                  -0.676
REMARK UNBOUND:                -0.676
REMARK SMILES CCCCCCC=CC(=O)[O-]
REMARK SMILES IDX 5 1 6 2 7 3 8 4 9 5 10 6 11 7 4 8 3 9 2 10 1 11
REMARK H PARENT
REMARK Flexibility Score: inf
ROOT
ATOM      1  C   UNL     1      36.287  -0.752   6.139  1.00  0.00     0.004 C 
ENDROOT
BRANCH   1   2
ATOM      2  C   UNL     1      37.160   0.466   6.464  1.00  0.00     0.027 C 
BRANCH   2   3
ATOM      3  C   UNL     1      36.344   1.580   7.053  1.00  0.00    -0.025 C 
ATOM      4  C   UNL     1      35.034   1.441   7.284  1.00  0.00     0.020 C 
BRANCH   4   5
ATOM      5  C   UNL     1      34.218   2.514   7.874  1.00  0.00     0.064 C 
ATOM      6  O   UNL     1      34.113   2.642   9.123  1.00  0.00    -0.545 OA
ATOM      7  O   UNL     1      33.554   3.404   7.038  1.00  0.00    -0.545 OA
ENDBRANCH   4   5
ENDBRANCH   2   3
ENDBRANCH   1   2
BRANCH   1   8
ATOM      8  C   UNL     1      36.340  -1.083   4.641  1.00  0.00     0.000 C 
BRANCH   8   9
ATOM      9  C   UNL     1      34.982  -0.905   3.939  1.00  0.00    -0.000 C 
BRANCH   9  10
ATOM     10  C   UNL     1      34.910   0.282   2.960  1.00  0.00    -0.003 C 
ATOM     11  C   UNL     1      34.449   1.578   3.625  1.00  0.00     0.004 C 
ENDBRANCH   9  10
ENDBRANCH   8   9
ENDBRANCH   1   8
TORSDOF 6
ENDMDL
MODEL 2
REMARK VINA RESULT:    -4.337      2.831      5.177
REMARK INTER + INTRA:          -6.534
REMARK INTER:                  -5.913
REMARK INTRA:                  -0.621
REMARK UNBOUND:                -0.676
REMARK SMILES CCCCCCC=CC(=O)[O-]
REMARK SMILES IDX 5 1 6 2 7 3 8 4 9 5 10 6 11 7 4 8 3 9 2 10 1 11
REMARK H PARENT
REMARK Flexibility Score: inf
ROOT
ATOM      1  C   UNL     1      33.503   3.964   6.811  1.00  0.00     0.004 C 
ENDROOT
BRANCH   1   2
ATOM      2  C   UNL     1      33.396   3.575   5.331  1.00  0.00     0.027 C 
BRANCH   2   3
ATOM      3  C   UNL     1      34.012   2.230   5.076  1.00  0.00    -0.025 C 
ATOM      4  C   UNL     1      34.193   1.345   6.062  1.00  0.00     0.020 C 
BRANCH   4   5
ATOM      5  C   UNL     1      34.781   0.016   5.832  1.00  0.00     0.064 C 
ATOM      6  O   UNL     1      34.297  -0.770   4.974  1.00  0.00    -0.545 OA
ATOM      7  O   UNL     1      35.890  -0.377   6.570  1.00  0.00    -0.545 OA
ENDBRANCH   4   5
ENDBRANCH   2   3
ENDBRANCH   1   2
BRANCH   1   8
ATOM      8  C   UNL     1      34.574   5.045   7.019  1.00  0.00     0.000 C 
BRANCH   8   9
ATOM      9  C   UNL     1      35.458   4.785   8.252  1.00  0.00    -0.000 C 
BRANCH   9  10
ATOM     10  C   UNL     1      36.946   4.542   7.941  1.00  0.00    -0.003 C 
ATOM     11  C   UNL     1      37.195   3.232   7.197  1.00  0.00     0.004 C 
ENDBRANCH   9  10
ENDBRANCH   8   9
ENDBRANCH   1   8
TORSDOF 6
ENDMDL
MODEL 3
REMARK VINA RESULT:    -4.330     20.401     21.307
REMARK INTER + INTRA:          -6.526
REMARK INTER:                  -5.807
REMARK INTRA:                  -0.719
REMARK UNBOUND:                -0.676
REMARK SMILES CCCCCCC=CC(=O)[O-]
REMARK SMILES IDX 5 1 6 2 7 3 8 4 9 5 10 6 11 7 4 8 3 9 2 10 1 11
REMARK H PARENT
REMARK Flexibility Score: inf
ROOT
ATOM      1  C   UNL     1      48.698  11.277  -4.460  1.00  0.00     0.004 C 
ENDROOT
BRANCH   1   2
ATOM      2  C   UNL     1      47.808  12.326  -5.139  1.00  0.00     0.027 C 
BRANCH   2   3
ATOM      3  C   UNL     1      47.170  11.776  -6.381  1.00  0.00    -0.025 C 
ATOM      4  C   UNL     1      47.409  12.309  -7.585  1.00  0.00     0.020 C 
BRANCH   4   5
ATOM      5  C   UNL     1      46.806  11.777  -8.817  1.00  0.00     0.064 C 
ATOM      6  O   UNL     1      45.612  12.039  -9.125  1.00  0.00    -0.545 OA
ATOM      7  O   UNL     1      47.566  10.974  -9.658  1.00  0.00    -0.545 OA
ENDBRANCH   4   5
ENDBRANCH   2   3
ENDBRANCH   1   2
BRANCH   1   8
ATOM      8  C   UNL     1      50.061  11.177  -5.160  1.00  0.00     0.000 C 
BRANCH   8   9
ATOM      9  C   UNL     1      50.335   9.779  -5.743  1.00  0.00    -0.000 C 
BRANCH   9  10
ATOM     10  C   UNL     1      50.078   9.646  -7.254  1.00  0.00    -0.003 C 
ATOM     11  C   UNL     1      49.196   8.449  -7.608  1.00  0.00     0.004 C 
ENDBRANCH   9  10
ENDBRANCH   8   9
ENDBRANCH   1   8
TORSDOF 6
ENDMDL
MODEL 4
REMARK VINA RESULT:    -4.314      0.994      2.805
REMARK INTER + INTRA:          -6.504
REMARK INTER:                  -5.750
REMARK INTRA:                  -0.754
REMARK UNBOUND:                -0.676
REMARK SMILES CCCCCCC=CC(=O)[O-]
REMARK SMILES IDX 5 1 6 2 7 3 8 4 9 5 10 6 11 7 4 8 3 9 2 10 1 11
REMARK H PARENT
REMARK Flexibility Score: inf
ROOT
ATOM      1  C   UNL     1      35.361   0.342   3.108  1.00  0.00     0.004 C 
ENDROOT
BRANCH   1   2
ATOM      2  C   UNL     1      34.224   1.336   3.379  1.00  0.00     0.027 C 
BRANCH   2   3
ATOM      3  C   UNL     1      34.531   2.203   4.566  1.00  0.00    -0.025 C 
ATOM      4  C   UNL     1      33.777   2.170   5.670  1.00  0.00     0.020 C 
BRANCH   4   5
ATOM      5  C   UNL     1      34.069   3.000   6.850  1.00  0.00     0.064 C 
ATOM      6  O   UNL     1      34.691   2.531   7.839  1.00  0.00    -0.545 OA
ATOM      7  O   UNL     1      33.653   4.326   6.871  1.00  0.00    -0.545 OA
ENDBRANCH   4   5
ENDBRANCH   2   3
ENDBRANCH   1   2
BRANCH   1   8
ATOM      8  C   UNL     1      35.210  -0.916   3.975  1.00  0.00     0.000 C 
BRANCH   8   9
ATOM      9  C   UNL     1      36.411  -1.148   4.910  1.00  0.00    -0.000 C 
BRANCH   9  10
ATOM     10  C   UNL     1      36.253  -0.560   6.324  1.00  0.00    -0.003 C 
ATOM     11  C   UNL     1      37.350   0.442   6.681  1.00  0.00     0.004 C 
ENDBRANCH   9  10
ENDBRANCH   8   9
ENDBRANCH   1   8
TORSDOF 6
ENDMDL
MODEL 5
REMARK VINA RESULT:    -4.313     20.451     21.389
REMARK INTER + INTRA:          -6.502
REMARK INTER:                  -5.805
REMARK INTRA:                  -0.697
REMARK UNBOUND:                -0.676
REMARK SMILES CCCCCCC=CC(=O)[O-]
REMARK SMILES IDX 5 1 6 2 7 3 8 4 9 5 10 6 11 7 4 8 3 9 2 10 1 11
REMARK H PARENT
REMARK Flexibility Score: inf
ROOT
ATOM      1  C   UNL     1      48.629  11.282  -4.626  1.00  0.00     0.004 C 
ENDROOT
BRANCH   1   2
ATOM      2  C   UNL     1      47.658  12.398  -5.031  1.00  0.00     0.027 C 
BRANCH   2   3
ATOM      3  C   UNL     1      46.825  11.992  -6.213  1.00  0.00    -0.025 C 
ATOM      4  C   UNL     1      46.534  12.854  -7.193  1.00  0.00     0.020 C 
BRANCH   4   5
ATOM      5  C   UNL     1      45.732  12.473  -8.367  1.00  0.00     0.064 C 
ATOM      6  O   UNL     1      46.136  12.709  -9.537  1.00  0.00    -0.545 OA
ATOM      7  O   UNL     1      44.509  11.841  -8.181  1.00  0.00    -0.545 OA
ENDBRANCH   4   5
ENDBRANCH   2   3
ENDBRANCH   1   2
BRANCH   1   8
ATOM      8  C   UNL     1      50.010  11.498  -5.260  1.00  0.00     0.000 C 
BRANCH   8   9
ATOM      9  C   UNL     1      50.387  10.399  -6.270  1.00  0.00    -0.000 C 
BRANCH   9  10
ATOM     10  C   UNL     1      49.972  10.688  -7.724  1.00  0.00    -0.003 C 
ATOM     11  C   UNL     1      50.094  12.165  -8.097  1.00  0.00     0.004 C 
ENDBRANCH   9  10
ENDBRANCH   8   9
ENDBRANCH   1   8
TORSDOF 6
ENDMDL
MODEL 6
REMARK VINA RESULT:    -4.305      2.850      4.624
REMARK INTER + INTRA:          -6.491
REMARK INTER:                  -5.748
REMARK INTRA:                  -0.743
REMARK UNBOUND:                -0.676
REMARK SMILES CCCCCCC=CC(=O)[O-]
REMARK SMILES IDX 5 1 6 2 7 3 8 4 9 5 10 6 11 7 4 8 3 9 2 10 1 11
REMARK H PARENT
REMARK Flexibility Score: inf
ROOT
ATOM      1  C   UNL     1      35.947   4.205   8.315  1.00  0.00     0.004 C 
ENDROOT
BRANCH   1   2
ATOM      2  C   UNL     1      37.269   3.854   7.620  1.00  0.00     0.027 C 
BRANCH   2   3
ATOM      3  C   UNL     1      37.164   2.553   6.878  1.00  0.00    -0.025 C 
ATOM      4  C   UNL     1      36.279   1.615   7.232  1.00  0.00     0.020 C 
BRANCH   4   5
ATOM      5  C   UNL     1      36.149   0.339   6.509  1.00  0.00     0.064 C 
ATOM      6  O   UNL     1      37.150  -0.213   5.979  1.00  0.00    -0.545 OA
ATOM      7  O   UNL     1      34.903  -0.267   6.412  1.00  0.00    -0.545 OA
ENDBRANCH   4   5
ENDBRANCH   2   3
ENDBRANCH   1   2
BRANCH   1   8
ATOM      8  C   UNL     1      35.381   5.528   7.780  1.00  0.00     0.000 C 
BRANCH   8   9
ATOM      9  C   UNL     1      34.484   5.340   6.543  1.00  0.00    -0.000 C 
BRANCH   9  10
ATOM     10  C   UNL     1      33.585   4.091   6.579  1.00  0.00    -0.003 C 
ATOM     11  C   UNL     1      33.551   3.340   5.249  1.00  0.00     0.004 C 
ENDBRANCH   9  10
ENDBRANCH   8   9
ENDBRANCH   1   8
TORSDOF 6
ENDMDL
MODEL 7
REMARK VINA RESULT:    -4.304     20.691     21.590
REMARK INTER + INTRA:          -6.490
REMARK INTER:                  -5.822
REMARK INTRA:                  -0.669
REMARK UNBOUND:                -0.676
REMARK SMILES CCCCCCC=CC(=O)[O-]
REMARK SMILES IDX 5 1 6 2 7 3 8 4 9 5 10 6 11 7 4 8 3 9 2 10 1 11
REMARK H PARENT
REMARK Flexibility Score: inf
ROOT
ATOM      1  C   UNL     1      50.013   9.760  -7.311  1.00  0.00     0.004 C 
ENDROOT
BRANCH   1   2
ATOM      2  C   UNL     1      48.923   8.763  -7.725  1.00  0.00     0.027 C 
BRANCH   2   3
ATOM      3  C   UNL     1      47.764   9.462  -8.374  1.00  0.00    -0.025 C 
ATOM      4  C   UNL     1      47.916  10.636  -8.999  1.00  0.00     0.020 C 
BRANCH   4   5
ATOM      5  C   UNL     1      46.797  11.331  -9.654  1.00  0.00     0.064 C 
ATOM      6  O   UNL     1      46.282  10.884 -10.714  1.00  0.00    -0.545 OA
ATOM      7  O   UNL     1      46.297  12.499  -9.093  1.00  0.00    -0.545 OA
ENDBRANCH   4   5
ENDBRANCH   2   3
ENDBRANCH   1   2
BRANCH   1   8
ATOM      8  C   UNL     1      49.943  10.058  -5.807  1.00  0.00     0.000 C 
BRANCH   8   9
ATOM      9  C   UNL     1      49.907  11.565  -5.495  1.00  0.00    -0.000 C 
BRANCH   9  10
ATOM     10  C   UNL     1      48.658  12.037  -4.730  1.00  0.00    -0.003 C 
ATOM     11  C   UNL     1      47.402  12.070  -5.599  1.00  0.00     0.004 C 
ENDBRANCH   9  10
ENDBRANCH   8   9
ENDBRANCH   1   8
TORSDOF 6
ENDMDL
MODEL 8
REMARK VINA RESULT:    -4.269     20.784     21.942
REMARK INTER + INTRA:          -6.442
REMARK INTER:                  -5.769
REMARK INTRA:                  -0.673
REMARK UNBOUND:                -0.676
REMARK SMILES CCCCCCC=CC(=O)[O-]
REMARK SMILES IDX 5 1 6 2 7 3 8 4 9 5 10 6 11 7 4 8 3 9 2 10 1 11
REMARK H PARENT
REMARK Flexibility Score: inf
ROOT
ATOM      1  C   UNL     1      46.240  12.354  -9.266  1.00  0.00     0.004 C 
ENDROOT
BRANCH   1   2
ATOM      2  C   UNL     1      47.416  11.976 -10.176  1.00  0.00     0.027 C 
BRANCH   2   3
ATOM      3  C   UNL     1      48.636  11.630  -9.373  1.00  0.00    -0.025 C 
ATOM      4  C   UNL     1      48.556  11.337  -8.070  1.00  0.00     0.020 C 
BRANCH   4   5
ATOM      5  C   UNL     1      49.737  10.981  -7.268  1.00  0.00     0.064 C 
ATOM      6  O   UNL     1      50.362  11.852  -6.606  1.00  0.00    -0.545 OA
ATOM      7  O   UNL     1      50.169   9.661  -7.238  1.00  0.00    -0.545 OA
ENDBRANCH   4   5
ENDBRANCH   2   3
ENDBRANCH   1   2
BRANCH   1   8
ATOM      8  C   UNL     1      44.975  11.574  -9.651  1.00  0.00     0.000 C 
BRANCH   8   9
ATOM      9  C   UNL     1      45.256  10.417 -10.627  1.00  0.00    -0.000 C 
BRANCH   9  10
ATOM     10  C   UNL     1      45.061   9.010 -10.034  1.00  0.00    -0.003 C 
ATOM     11  C   UNL     1      46.101   8.660  -8.971  1.00  0.00     0.004 C 
ENDBRANCH   9  10
ENDBRANCH   8   9
ENDBRANCH   1   8
TORSDOF 6
ENDMDL
MODEL 9
REMARK VINA RESULT:    -4.257      3.002      4.659
REMARK INTER + INTRA:          -6.426
REMARK INTER:                  -5.804
REMARK INTRA:                  -0.622
REMARK UNBOUND:                -0.676
REMARK SMILES CCCCCCC=CC(=O)[O-]
REMARK SMILES IDX 5 1 6 2 7 3 8 4 9 5 10 6 11 7 4 8 3 9 2 10 1 11
REMARK H PARENT
REMARK Flexibility Score: inf
ROOT
ATOM      1  C   UNL     1      34.184   1.879   8.759  1.00  0.00     0.004 C 
ENDROOT
BRANCH   1   2
ATOM      2  C   UNL     1      33.520   0.872   7.811  1.00  0.00     0.027 C 
BRANCH   2   3
ATOM      3  C   UNL     1      34.538   0.189   6.944  1.00  0.00    -0.025 C 
ATOM      4  C   UNL     1      34.229  -0.256   5.721  1.00  0.00     0.020 C 
BRANCH   4   5
ATOM      5  C   UNL     1      35.214  -0.916   4.849  1.00  0.00     0.064 C 
ATOM      6  O   UNL     1      34.954  -1.161   3.641  1.00  0.00    -0.545 OA
ATOM      7  O   UNL     1      36.453  -1.273   5.367  1.00  0.00    -0.545 OA
ENDBRANCH   4   5
ENDBRANCH   2   3
ENDBRANCH   1   2
BRANCH   1   8
ATOM      8  C   UNL     1      34.669   3.118   7.994  1.00  0.00     0.000 C 
BRANCH   8   9
ATOM      9  C   UNL     1      33.574   3.745   7.111  1.00  0.00    -0.000 C 
BRANCH   9  10
ATOM     10  C   UNL     1      34.011   4.072   5.672  1.00  0.00    -0.003 C 
ATOM     11  C   UNL     1      33.130   3.409   4.614  1.00  0.00     0.004 C 
ENDBRANCH   9  10
ENDBRANCH   8   9
ENDBRANCH   1   8
TORSDOF 6
ENDMDL
