MODEL 1
REMARK VINA RESULT:    -4.589      0.000      0.000
REMARK INTER + INTRA:          -5.859
REMARK INTER:                  -5.662
REMARK INTRA:                  -0.197
REMARK UNBOUND:                -0.197
REMARK SMILES CCOC(=O)c1ccc(O)c(O)c1
REMARK SMILES IDX 4 1 5 2 3 3 2 4 1 5 6 6 13 7 7 8 11 9 8 10 9 11 12 12 10 14
REMARK H PARENT 12 13 10 15
REMARK Flexibility Score: inf
ROOT
ATOM      1  C   UNL     1      -4.194   0.116  -8.249  1.00  0.00     0.338 C 
ATOM      2  O   UNL     1      -3.170   0.852  -8.185  1.00  0.00    -0.246 OA
ENDROOT
BRANCH   1   3
ATOM      3  O   UNL     1      -4.096  -1.244  -7.934  1.00  0.00    -0.462 OA
BRANCH   3   4
ATOM      4  C   UNL     1      -3.961  -2.256  -8.926  1.00  0.00     0.230 C 
ATOM      5  C   UNL     1      -2.500  -2.386  -9.325  1.00  0.00     0.049 C 
ENDBRANCH   3   4
ENDBRANCH   1   3
BRANCH   1   6
ATOM      6  C   UNL     1      -5.496   0.688  -8.653  1.00  0.00     0.064 A 
ATOM      7  C   UNL     1      -6.696   0.080  -8.246  1.00  0.00     0.065 A 
ATOM      8  C   UNL     1      -5.556   1.844  -9.448  1.00  0.00     0.020 A 
ATOM      9  C   UNL     1      -7.938   0.609  -8.621  1.00  0.00     0.158 A 
ATOM     10  C   UNL     1      -6.789   2.378  -9.827  1.00  0.00     0.051 A 
ATOM     11  C   UNL     1      -7.985   1.774  -9.422  1.00  0.00     0.157 A 
BRANCH   9  12
ATOM     12  O   UNL     1      -9.087  -0.049  -8.179  1.00  0.00    -0.504 OA
ATOM     13  H   UNL     1      -9.660   0.270  -7.411  1.00  0.00     0.293 HD
ENDBRANCH   9  12
BRANCH  11  14
ATOM     14  O   UNL     1      -9.184   2.360  -9.835  1.00  0.00    -0.504 OA
ATOM     15  H   UNL     1     -10.020   2.391  -9.270  1.00  0.00     0.293 HD
ENDBRANCH  11  14
ENDBRANCH   1   6
TORSDOF 5
ENDMDL
MODEL 2
REMARK VINA RESULT:    -4.188      1.799      4.970
REMARK INTER + INTRA:          -5.364
REMARK INTER:                  -5.210
REMARK INTRA:                  -0.153
REMARK UNBOUND:                -0.197
REMARK SMILES CCOC(=O)c1ccc(O)c(O)c1
REMARK SMILES IDX 4 1 5 2 3 3 2 4 1 5 6 6 13 7 7 8 11 9 8 10 9 11 12 12 10 14
REMARK H PARENT 12 13 10 15
REMARK Flexibility Score: inf
ROOT
ATOM      1  C   UNL     1      -6.011   1.573  -8.635  1.00  0.00     0.338 C 
ATOM      2  O   UNL     1      -5.547   2.729  -8.832  1.00  0.00    -0.246 OA
ENDROOT
BRANCH   1   3
ATOM      3  O   UNL     1      -7.364   1.408  -8.318  1.00  0.00    -0.462 OA
BRANCH   3   4
ATOM      4  C   UNL     1      -8.404   1.553  -9.279  1.00  0.00     0.230 C 
ATOM      5  C   UNL     1      -9.752   1.353  -8.604  1.00  0.00     0.049 C 
ENDBRANCH   3   4
ENDBRANCH   1   3
BRANCH   1   6
ATOM      6  C   UNL     1      -5.129   0.390  -8.739  1.00  0.00     0.064 A 
ATOM      7  C   UNL     1      -5.594  -0.792  -9.340  1.00  0.00     0.065 A 
ATOM      8  C   UNL     1      -3.817   0.428  -8.241  1.00  0.00     0.020 A 
ATOM      9  C   UNL     1      -4.771  -1.921  -9.446  1.00  0.00     0.158 A 
ATOM     10  C   UNL     1      -2.989  -0.692  -8.342  1.00  0.00     0.051 A 
ATOM     11  C   UNL     1      -3.451  -1.869  -8.941  1.00  0.00     0.157 A 
BRANCH   9  12
ATOM     12  O   UNL     1      -5.301  -3.059 -10.056  1.00  0.00    -0.504 OA
ATOM     13  H   UNL     1      -5.889  -3.731  -9.582  1.00  0.00     0.293 HD
ENDBRANCH   9  12
BRANCH  11  14
ATOM     14  O   UNL     1      -2.572  -2.953  -9.010  1.00  0.00    -0.504 OA
ATOM     15  H   UNL     1      -2.771  -3.809  -9.507  1.00  0.00     0.293 HD
ENDBRANCH  11  14
ENDBRANCH   1   6
TORSDOF 5
ENDMDL
MODEL 3
REMARK VINA RESULT:    -4.143      1.491      5.057
REMARK INTER + INTRA:          -5.308
REMARK INTER:                  -5.006
REMARK INTRA:                  -0.302
REMARK UNBOUND:                -0.197
REMARK SMILES CCOC(=O)c1ccc(O)c(O)c1
REMARK SMILES IDX 4 1 5 2 3 3 2 4 1 5 6 6 13 7 7 8 11 9 8 10 9 11 12 12 10 14
REMARK H PARENT 12 13 10 15
REMARK Flexibility Score: inf
ROOT
ATOM      1  C   UNL     1      -7.123   1.411  -9.660  1.00  0.00     0.338 C 
ATOM      2  O   UNL     1      -6.749   2.607  -9.812  1.00  0.00    -0.246 OA
ENDROOT
BRANCH   1   3
ATOM      3  O   UNL     1      -8.481   1.089  -9.745  1.00  0.00    -0.462 OA
BRANCH   3   4
ATOM      4  C   UNL     1      -9.344   1.078  -8.612  1.00  0.00     0.230 C 
ATOM      5  C   UNL     1      -9.785  -0.347  -8.322  1.00  0.00     0.049 C 
ENDBRANCH   3   4
ENDBRANCH   1   3
BRANCH   1   6
ATOM      6  C   UNL     1      -6.128   0.349  -9.393  1.00  0.00     0.064 A 
ATOM      7  C   UNL     1      -5.006   0.612  -8.589  1.00  0.00     0.065 A 
ATOM      8  C   UNL     1      -6.289  -0.936  -9.937  1.00  0.00     0.020 A 
ATOM      9  C   UNL     1      -4.056  -0.383  -8.328  1.00  0.00     0.158 A 
ATOM     10  C   UNL     1      -5.346  -1.934  -9.682  1.00  0.00     0.051 A 
ATOM     11  C   UNL     1      -4.229  -1.673  -8.881  1.00  0.00     0.157 A 
BRANCH   9  12
ATOM     12  O   UNL     1      -2.967  -0.049  -7.520  1.00  0.00    -0.504 OA
ATOM     13  H   UNL     1      -3.004   0.638  -6.780  1.00  0.00     0.293 HD
ENDBRANCH   9  12
BRANCH  11  14
ATOM     14  O   UNL     1      -3.324  -2.716  -8.665  1.00  0.00    -0.504 OA
ATOM     15  H   UNL     1      -2.870  -3.232  -9.404  1.00  0.00     0.293 HD
ENDBRANCH  11  14
ENDBRANCH   1   6
TORSDOF 5
ENDMDL
MODEL 4
REMARK VINA RESULT:    -3.753      9.712     11.637
REMARK INTER + INTRA:          -4.827
REMARK INTER:                  -4.559
REMARK INTRA:                  -0.268
REMARK UNBOUND:                -0.197
REMARK SMILES CCOC(=O)c1ccc(O)c(O)c1
REMARK SMILES IDX 4 1 5 2 3 3 2 4 1 5 6 6 13 7 7 8 11 9 8 10 9 11 12 12 10 14
REMARK H PARENT 12 13 10 15
REMARK Flexibility Score: inf
ROOT
ATOM      1  C   UNL     1      -1.109   1.730   0.798  1.00  0.00     0.338 C 
ATOM      2  O   UNL     1      -0.655   2.859   1.132  1.00  0.00    -0.246 OA
ENDROOT
BRANCH   1   3
ATOM      3  O   UNL     1      -2.491   1.509   0.786  1.00  0.00    -0.462 OA
BRANCH   3   4
ATOM      4  C   UNL     1      -3.136   0.723  -0.211  1.00  0.00     0.230 C 
ATOM      5  C   UNL     1      -3.766  -0.501   0.436  1.00  0.00     0.049 C 
ENDBRANCH   3   4
ENDBRANCH   1   3
BRANCH   1   6
ATOM      6  C   UNL     1      -0.185   0.639   0.419  1.00  0.00     0.064 A 
ATOM      7  C   UNL     1       0.650   0.774  -0.704  1.00  0.00     0.065 A 
ATOM      8  C   UNL     1      -0.125  -0.544   1.173  1.00  0.00     0.020 A 
ATOM      9  C   UNL     1       1.530  -0.251  -1.075  1.00  0.00     0.158 A 
ATOM     10  C   UNL     1       0.749  -1.570   0.809  1.00  0.00     0.051 A 
ATOM     11  C   UNL     1       1.581  -1.438  -0.308  1.00  0.00     0.157 A 
BRANCH   9  12
ATOM     12  O   UNL     1       2.329  -0.046  -2.202  1.00  0.00    -0.504 OA
ATOM     13  H   UNL     1       2.178   0.693  -2.874  1.00  0.00     0.293 HD
ENDBRANCH   9  12
BRANCH  11  14
ATOM     14  O   UNL     1       2.433  -2.501  -0.617  1.00  0.00    -0.504 OA
ATOM     15  H   UNL     1       3.146  -2.852   0.006  1.00  0.00     0.293 HD
ENDBRANCH  11  14
ENDBRANCH   1   6
TORSDOF 5
ENDMDL
MODEL 5
REMARK VINA RESULT:    -3.676      1.957      4.919
REMARK INTER + INTRA:          -4.732
REMARK INTER:                  -4.750
REMARK INTRA:                   0.018
REMARK UNBOUND:                -0.197
REMARK SMILES CCOC(=O)c1ccc(O)c(O)c1
REMARK SMILES IDX 4 1 5 2 3 3 2 4 1 5 6 6 13 7 7 8 11 9 8 10 9 11 12 12 10 14
REMARK H PARENT 12 13 10 15
REMARK Flexibility Score: inf
ROOT
ATOM      1  C   UNL     1      -9.218   0.892  -9.459  1.00  0.00     0.338 C 
ATOM      2  O   UNL     1      -9.944   1.766  -8.912  1.00  0.00    -0.246 OA
ENDROOT
BRANCH   1   3
ATOM      3  O   UNL     1      -9.807  -0.189 -10.125  1.00  0.00    -0.462 OA
BRANCH   3   4
ATOM      4  C   UNL     1     -10.125  -1.414  -9.474  1.00  0.00     0.230 C 
ATOM      5  C   UNL     1     -10.125  -1.206  -7.968  1.00  0.00     0.049 C 
ENDBRANCH   3   4
ENDBRANCH   1   3
BRANCH   1   6
ATOM      6  C   UNL     1      -7.744   1.006  -9.399  1.00  0.00     0.064 A 
ATOM      7  C   UNL     1      -7.142   2.165  -8.881  1.00  0.00     0.065 A 
ATOM      8  C   UNL     1      -6.925  -0.040  -9.856  1.00  0.00     0.020 A 
ATOM      9  C   UNL     1      -5.748   2.288  -8.818  1.00  0.00     0.158 A 
ATOM     10  C   UNL     1      -5.535   0.075  -9.797  1.00  0.00     0.051 A 
ATOM     11  C   UNL     1      -4.934   1.228  -9.282  1.00  0.00     0.157 A 
BRANCH   9  12
ATOM     12  O   UNL     1      -5.221   3.469  -8.292  1.00  0.00    -0.504 OA
ATOM     13  H   UNL     1      -4.286   3.802  -8.478  1.00  0.00     0.293 HD
ENDBRANCH   9  12
BRANCH  11  14
ATOM     14  O   UNL     1      -3.538   1.278  -9.251  1.00  0.00    -0.504 OA
ATOM     15  H   UNL     1      -2.970   1.661  -9.992  1.00  0.00     0.293 HD
ENDBRANCH  11  14
ENDBRANCH   1   6
TORSDOF 5
ENDMDL
MODEL 6
REMARK VINA RESULT:    -3.553      9.990     10.804
REMARK INTER + INTRA:          -4.580
REMARK INTER:                  -4.407
REMARK INTRA:                  -0.173
REMARK UNBOUND:                -0.197
REMARK SMILES CCOC(=O)c1ccc(O)c(O)c1
REMARK SMILES IDX 4 1 5 2 3 3 2 4 1 5 6 6 13 7 7 8 11 9 8 10 9 11 12 12 10 14
REMARK H PARENT 12 13 10 15
REMARK Flexibility Score: inf
ROOT
ATOM      1  C   UNL     1      -0.008  -1.902   0.516  1.00  0.00     0.338 C 
ATOM      2  O   UNL     1      -0.459  -3.078   0.586  1.00  0.00    -0.246 OA
ENDROOT
BRANCH   1   3
ATOM      3  O   UNL     1       1.371  -1.688   0.417  1.00  0.00    -0.462 OA
BRANCH   3   4
ATOM      4  C   UNL     1       2.066  -1.700  -0.826  1.00  0.00     0.230 C 
ATOM      5  C   UNL     1       2.175  -0.281  -1.362  1.00  0.00     0.049 C 
ENDBRANCH   3   4
ENDBRANCH   1   3
BRANCH   1   6
ATOM      6  C   UNL     1      -0.933  -0.748   0.537  1.00  0.00     0.064 A 
ATOM      7  C   UNL     1      -0.446   0.549   0.772  1.00  0.00     0.065 A 
ATOM      8  C   UNL     1      -2.309  -0.929   0.324  1.00  0.00     0.020 A 
ATOM      9  C   UNL     1      -1.310   1.652   0.795  1.00  0.00     0.158 A 
ATOM     10  C   UNL     1      -3.177   0.165   0.346  1.00  0.00     0.051 A 
ATOM     11  C   UNL     1      -2.694   1.457   0.579  1.00  0.00     0.157 A 
BRANCH   9  12
ATOM     12  O   UNL     1      -0.754   2.910   1.034  1.00  0.00    -0.504 OA
ATOM     13  H   UNL     1       0.160   3.193   0.711  1.00  0.00     0.293 HD
ENDBRANCH   9  12
BRANCH  11  14
ATOM     14  O   UNL     1      -3.615   2.506   0.587  1.00  0.00    -0.504 OA
ATOM     15  H   UNL     1      -4.586   2.408   0.326  1.00  0.00     0.293 HD
ENDBRANCH  11  14
ENDBRANCH   1   6
TORSDOF 5
ENDMDL
MODEL 7
REMARK VINA RESULT:    -3.532      3.241      4.928
REMARK INTER + INTRA:          -4.555
REMARK INTER:                  -4.402
REMARK INTRA:                  -0.152
REMARK UNBOUND:                -0.197
REMARK SMILES CCOC(=O)c1ccc(O)c(O)c1
REMARK SMILES IDX 4 1 5 2 3 3 2 4 1 5 6 6 13 7 7 8 11 9 8 10 9 11 12 12 10 14
REMARK H PARENT 12 13 10 15
REMARK Flexibility Score: inf
ROOT
ATOM      1  C   UNL     1      -4.312  -3.661  -8.929  1.00  0.00     0.338 C 
ATOM      2  O   UNL     1      -4.264  -4.201  -7.789  1.00  0.00    -0.246 OA
ENDROOT
BRANCH   1   3
ATOM      3  O   UNL     1      -4.985  -4.300  -9.976  1.00  0.00    -0.462 OA
BRANCH   3   4
ATOM      4  C   UNL     1      -6.335  -4.739  -9.871  1.00  0.00     0.230 C 
ATOM      5  C   UNL     1      -6.368  -6.253  -9.732  1.00  0.00     0.049 C 
ENDBRANCH   3   4
ENDBRANCH   1   3
BRANCH   1   6
ATOM      6  C   UNL     1      -3.662  -2.353  -9.161  1.00  0.00     0.064 A 
ATOM      7  C   UNL     1      -4.224  -1.177  -8.634  1.00  0.00     0.065 A 
ATOM      8  C   UNL     1      -2.476  -2.264  -9.908  1.00  0.00     0.020 A 
ATOM      9  C   UNL     1      -3.619   0.069  -8.846  1.00  0.00     0.158 A 
ATOM     10  C   UNL     1      -1.867  -1.026 -10.124  1.00  0.00     0.051 A 
ATOM     11  C   UNL     1      -2.425   0.145  -9.600  1.00  0.00     0.157 A 
BRANCH   9  12
ATOM     12  O   UNL     1      -4.234   1.194  -8.292  1.00  0.00    -0.504 OA
ATOM     13  H   UNL     1      -5.223   1.389  -8.363  1.00  0.00     0.293 HD
ENDBRANCH   9  12
BRANCH  11  14
ATOM     14  O   UNL     1      -1.766   1.350  -9.852  1.00  0.00    -0.504 OA
ATOM     15  H   UNL     1      -0.798   1.523  -9.622  1.00  0.00     0.293 HD
ENDBRANCH  11  14
ENDBRANCH   1   6
TORSDOF 5
ENDMDL
MODEL 8
REMARK VINA RESULT:    -3.459      1.616      2.547
REMARK INTER + INTRA:          -4.464
REMARK INTER:                  -4.196
REMARK INTRA:                  -0.268
REMARK UNBOUND:                -0.197
REMARK SMILES CCOC(=O)c1ccc(O)c(O)c1
REMARK SMILES IDX 4 1 5 2 3 3 2 4 1 5 6 6 13 7 7 8 11 9 8 10 9 11 12 12 10 14
REMARK H PARENT 12 13 10 15
REMARK Flexibility Score: inf
ROOT
ATOM      1  C   UNL     1      -5.131  -1.234  -9.503  1.00  0.00     0.338 C 
ATOM      2  O   UNL     1      -5.171  -2.350 -10.091  1.00  0.00    -0.246 OA
ENDROOT
BRANCH   1   3
ATOM      3  O   UNL     1      -3.979  -0.853  -8.806  1.00  0.00    -0.462 OA
BRANCH   3   4
ATOM      4  C   UNL     1      -2.672  -0.962  -9.359  1.00  0.00     0.230 C 
ATOM      5  C   UNL     1      -2.259   0.374  -9.956  1.00  0.00     0.049 C 
ENDBRANCH   3   4
ENDBRANCH   1   3
BRANCH   1   6
ATOM      6  C   UNL     1      -6.298  -0.326  -9.550  1.00  0.00     0.064 A 
ATOM      7  C   UNL     1      -6.115   1.057  -9.718  1.00  0.00     0.065 A 
ATOM      8  C   UNL     1      -7.603  -0.830  -9.428  1.00  0.00     0.020 A 
ATOM      9  C   UNL     1      -7.211   1.929  -9.764  1.00  0.00     0.158 A 
ATOM     10  C   UNL     1      -8.700   0.032  -9.472  1.00  0.00     0.051 A 
ATOM     11  C   UNL     1      -8.521   1.409  -9.639  1.00  0.00     0.157 A 
BRANCH   9  12
ATOM     12  O   UNL     1      -6.953   3.291  -9.933  1.00  0.00    -0.504 OA
ATOM     13  H   UNL     1      -6.746   3.719 -10.824  1.00  0.00     0.293 HD
ENDBRANCH   9  12
BRANCH  11  14
ATOM     14  O   UNL     1      -9.661   2.216  -9.676  1.00  0.00    -0.504 OA
ATOM     15  H   UNL     1      -9.656   3.187  -9.952  1.00  0.00     0.293 HD
ENDBRANCH  11  14
ENDBRANCH   1   6
TORSDOF 5
ENDMDL
MODEL 9
REMARK VINA RESULT:    -3.307      2.752      4.404
REMARK INTER + INTRA:          -4.277
REMARK INTER:                  -4.142
REMARK INTRA:                  -0.136
REMARK UNBOUND:                -0.197
REMARK SMILES CCOC(=O)c1ccc(O)c(O)c1
REMARK SMILES IDX 4 1 5 2 3 3 2 4 1 5 6 6 13 7 7 8 11 9 8 10 9 11 12 12 10 14
REMARK H PARENT 12 13 10 15
REMARK Flexibility Score: inf
ROOT
ATOM      1  C   UNL     1      -5.253  -3.483  -9.765  1.00  0.00     0.338 C 
ATOM      2  O   UNL     1      -4.250  -4.250  -9.760  1.00  0.00    -0.246 OA
ENDROOT
BRANCH   1   3
ATOM      3  O   UNL     1      -6.514  -3.986 -10.103  1.00  0.00    -0.462 OA
BRANCH   3   4
ATOM      4  C   UNL     1      -6.817  -5.377 -10.094  1.00  0.00     0.230 C 
ATOM      5  C   UNL     1      -8.323  -5.568 -10.015  1.00  0.00     0.049 C 
ENDBRANCH   3   4
ENDBRANCH   1   3
BRANCH   1   6
ATOM      6  C   UNL     1      -5.098  -2.055  -9.412  1.00  0.00     0.064 A 
ATOM      7  C   UNL     1      -4.039  -1.637  -8.589  1.00  0.00     0.065 A 
ATOM      8  C   UNL     1      -6.005  -1.096  -9.893  1.00  0.00     0.020 A 
ATOM      9  C   UNL     1      -3.880  -0.287  -8.246  1.00  0.00     0.158 A 
ATOM     10  C   UNL     1      -5.854   0.250  -9.556  1.00  0.00     0.051 A 
ATOM     11  C   UNL     1      -4.800   0.668  -8.737  1.00  0.00     0.157 A 
BRANCH   9  12
ATOM     12  O   UNL     1      -2.804   0.053  -7.425  1.00  0.00    -0.504 OA
ATOM     13  H   UNL     1      -2.081  -0.593  -7.145  1.00  0.00     0.293 HD
ENDBRANCH   9  12
BRANCH  11  14
ATOM     14  O   UNL     1      -4.706   2.030  -8.439  1.00  0.00    -0.504 OA
ATOM     15  H   UNL     1      -5.460   2.689  -8.567  1.00  0.00     0.293 HD
ENDBRANCH  11  14
ENDBRANCH   1   6
TORSDOF 5
ENDMDL
