MODEL 1
REMARK VINA RESULT:    -4.535      0.000      0.000
REMARK INTER + INTRA:          -7.738
REMARK INTER:                  -6.921
REMARK INTRA:                  -0.817
REMARK UNBOUND:                -0.817
REMARK SMILES CCCCCCCCCCC(=O)[O-]
REMARK SMILES IDX 7 1 8 2 9 3 10 4 11 5 12 6 13 7 6 8 5 9 4 10 3 11 2 12 1 13
REMARK H PARENT
REMARK Flexibility Score: inf
ROOT
ATOM      1  C   UNL     1     -19.592  -0.553  29.520  1.00  0.00     0.000 C 
ENDROOT
BRANCH   1   2
ATOM      2  C   UNL     1     -18.555   0.122  28.599  1.00  0.00     0.000 C 
BRANCH   2   3
ATOM      3  C   UNL     1     -19.147   0.997  27.476  1.00  0.00     0.006 C 
BRANCH   3   4
ATOM      4  C   UNL     1     -19.984   0.225  26.445  1.00  0.00     0.053 C 
BRANCH   4   5
ATOM      5  C   UNL     1     -21.444   0.542  26.559  1.00  0.00     0.041 C 
ATOM      6  O   UNL     1     -21.910   0.998  27.636  1.00  0.00    -0.550 OA
ATOM      7  O   UNL     1     -22.283   0.364  25.467  1.00  0.00    -0.550 OA
ENDBRANCH   4   5
ENDBRANCH   3   4
ENDBRANCH   2   3
ENDBRANCH   1   2
BRANCH   1   8
ATOM      8  C   UNL     1     -19.346  -2.045  29.804  1.00  0.00     0.000 C 
BRANCH   8   9
ATOM      9  C   UNL     1     -17.937  -2.506  29.394  1.00  0.00    -0.000 C 
BRANCH   9  10
ATOM     10  C   UNL     1     -17.037  -2.800  30.605  1.00  0.00    -0.000 C 
BRANCH  10  11
ATOM     11  C   UNL     1     -16.481  -1.521  31.257  1.00  0.00    -0.000 C 
BRANCH  11  12
ATOM     12  C   UNL     1     -17.122  -1.230  32.622  1.00  0.00    -0.003 C 
ATOM     13  C   UNL     1     -17.758  -2.468  33.252  1.00  0.00     0.004 C 
ENDBRANCH  11  12
ENDBRANCH  10  11
ENDBRANCH   9  10
ENDBRANCH   8   9
ENDBRANCH   1   8
TORSDOF 9
ENDMDL
MODEL 2
REMARK VINA RESULT:    -4.506      3.245      6.042
REMARK INTER + INTRA:          -7.694
REMARK INTER:                  -6.791
REMARK INTRA:                  -0.903
REMARK UNBOUND:                -0.817
REMARK SMILES CCCCCCCCCCC(=O)[O-]
REMARK SMILES IDX 7 1 8 2 9 3 10 4 11 5 12 6 13 7 6 8 5 9 4 10 3 11 2 12 1 13
REMARK H PARENT
REMARK Flexibility Score: inf
ROOT
ATOM      1  C   UNL     1     -20.014  -1.538  29.677  1.00  0.00     0.000 C 
ENDROOT
BRANCH   1   2
ATOM      2  C   UNL     1     -18.883  -2.584  29.591  1.00  0.00     0.000 C 
BRANCH   2   3
ATOM      3  C   UNL     1     -18.287  -3.018  30.945  1.00  0.00     0.006 C 
BRANCH   3   4
ATOM      4  C   UNL     1     -16.782  -2.747  31.092  1.00  0.00     0.053 C 
BRANCH   4   5
ATOM      5  C   UNL     1     -16.512  -1.395  31.676  1.00  0.00     0.041 C 
ATOM      6  O   UNL     1     -17.281  -0.917  32.551  1.00  0.00    -0.550 OA
ATOM      7  O   UNL     1     -15.392  -0.675  31.280  1.00  0.00    -0.550 OA
ENDBRANCH   4   5
ENDBRANCH   3   4
ENDBRANCH   2   3
ENDBRANCH   1   2
BRANCH   1   8
ATOM      8  C   UNL     1     -19.559  -0.070  29.598  1.00  0.00     0.000 C 
BRANCH   8   9
ATOM      9  C   UNL     1     -18.340   0.128  28.681  1.00  0.00    -0.000 C 
BRANCH   9  10
ATOM     10  C   UNL     1     -18.733   0.611  27.275  1.00  0.00    -0.000 C 
BRANCH  10  11
ATOM     11  C   UNL     1     -20.172   1.154  27.214  1.00  0.00    -0.000 C 
BRANCH  11  12
ATOM     12  C   UNL     1     -20.980   0.552  26.056  1.00  0.00    -0.003 C 
ATOM     13  C   UNL     1     -22.384   0.119  26.476  1.00  0.00     0.004 C 
ENDBRANCH  11  12
ENDBRANCH  10  11
ENDBRANCH   9  10
ENDBRANCH   8   9
ENDBRANCH   1   8
TORSDOF 9
ENDMDL
MODEL 3
REMARK VINA RESULT:    -4.390      3.337      6.026
REMARK INTER + INTRA:          -7.517
REMARK INTER:                  -6.586
REMARK INTRA:                  -0.931
REMARK UNBOUND:                -0.817
REMARK SMILES CCCCCCCCCCC(=O)[O-]
REMARK SMILES IDX 7 1 8 2 9 3 10 4 11 5 12 6 13 7 6 8 5 9 4 10 3 11 2 12 1 13
REMARK H PARENT
REMARK Flexibility Score: inf
ROOT
ATOM      1  C   UNL     1     -18.432  -0.479  28.347  1.00  0.00     0.000 C 
ENDROOT
BRANCH   1   2
ATOM      2  C   UNL     1     -19.162  -0.653  29.695  1.00  0.00     0.000 C 
BRANCH   2   3
ATOM      3  C   UNL     1     -18.856  -1.968  30.441  1.00  0.00     0.006 C 
BRANCH   3   4
ATOM      4  C   UNL     1     -17.359  -2.260  30.623  1.00  0.00     0.053 C 
BRANCH   4   5
ATOM      5  C   UNL     1     -16.724  -1.335  31.615  1.00  0.00     0.041 C 
ATOM      6  O   UNL     1     -17.206  -1.221  32.772  1.00  0.00    -0.550 OA
ATOM      7  O   UNL     1     -15.580  -0.625  31.273  1.00  0.00    -0.550 OA
ENDBRANCH   4   5
ENDBRANCH   3   4
ENDBRANCH   2   3
ENDBRANCH   1   2
BRANCH   1   8
ATOM      8  C   UNL     1     -18.458   0.945  27.765  1.00  0.00     0.000 C 
BRANCH   8   9
ATOM      9  C   UNL     1     -19.886   1.468  27.532  1.00  0.00    -0.000 C 
BRANCH   9  10
ATOM     10  C   UNL     1     -20.544   0.850  26.288  1.00  0.00    -0.000 C 
BRANCH  10  11
ATOM     11  C   UNL     1     -21.877   0.149  26.608  1.00  0.00    -0.000 C 
BRANCH  11  12
ATOM     12  C   UNL     1     -22.401   0.495  28.010  1.00  0.00    -0.003 C 
ATOM     13  C   UNL     1     -22.774  -0.744  28.824  1.00  0.00     0.004 C 
ENDBRANCH  11  12
ENDBRANCH  10  11
ENDBRANCH   9  10
ENDBRANCH   8   9
ENDBRANCH   1   8
TORSDOF 9
ENDMDL
MODEL 4
REMARK VINA RESULT:    -4.389      3.320      5.866
REMARK INTER + INTRA:          -7.516
REMARK INTER:                  -6.593
REMARK INTRA:                  -0.923
REMARK UNBOUND:                -0.817
REMARK SMILES CCCCCCCCCCC(=O)[O-]
REMARK SMILES IDX 7 1 8 2 9 3 10 4 11 5 12 6 13 7 6 8 5 9 4 10 3 11 2 12 1 13
REMARK H PARENT
REMARK Flexibility Score: inf
ROOT
ATOM      1  C   UNL     1     -20.605  -1.482  29.645  1.00  0.00     0.000 C 
ENDROOT
BRANCH   1   2
ATOM      2  C   UNL     1     -19.171  -1.065  30.033  1.00  0.00     0.000 C 
BRANCH   2   3
ATOM      3  C   UNL     1     -18.058  -2.019  29.551  1.00  0.00     0.006 C 
BRANCH   3   4
ATOM      4  C   UNL     1     -17.234  -2.654  30.681  1.00  0.00     0.053 C 
BRANCH   4   5
ATOM      5  C   UNL     1     -16.751  -1.633  31.664  1.00  0.00     0.041 C 
ATOM      6  O   UNL     1     -15.873  -0.796  31.327  1.00  0.00    -0.550 OA
ATOM      7  O   UNL     1     -17.293  -1.583  32.942  1.00  0.00    -0.550 OA
ENDBRANCH   4   5
ENDBRANCH   3   4
ENDBRANCH   2   3
ENDBRANCH   1   2
BRANCH   1   8
ATOM      8  C   UNL     1     -21.643  -0.346  29.651  1.00  0.00     0.000 C 
BRANCH   8   9
ATOM      9  C   UNL     1     -22.014   0.131  28.237  1.00  0.00    -0.000 C 
BRANCH   9  10
ATOM     10  C   UNL     1     -21.034   1.183  27.694  1.00  0.00    -0.000 C 
BRANCH  10  11
ATOM     11  C   UNL     1     -20.295   0.710  26.429  1.00  0.00    -0.000 C 
BRANCH  11  12
ATOM     12  C   UNL     1     -18.845   0.293  26.716  1.00  0.00    -0.003 C 
ATOM     13  C   UNL     1     -18.111   1.289  27.613  1.00  0.00     0.004 C 
ENDBRANCH  11  12
ENDBRANCH  10  11
ENDBRANCH   9  10
ENDBRANCH   8   9
ENDBRANCH   1   8
TORSDOF 9
ENDMDL
MODEL 5
REMARK VINA RESULT:    -4.352      0.889      1.694
REMARK INTER + INTRA:          -7.459
REMARK INTER:                  -6.597
REMARK INTRA:                  -0.862
REMARK UNBOUND:                -0.817
REMARK SMILES CCCCCCCCCCC(=O)[O-]
REMARK SMILES IDX 7 1 8 2 9 3 10 4 11 5 12 6 13 7 6 8 5 9 4 10 3 11 2 12 1 13
REMARK H PARENT
REMARK Flexibility Score: inf
ROOT
ATOM      1  C   UNL     1     -18.459   0.310  28.617  1.00  0.00     0.000 C 
ENDROOT
BRANCH   1   2
ATOM      2  C   UNL     1     -18.945   0.973  27.312  1.00  0.00     0.000 C 
BRANCH   2   3
ATOM      3  C   UNL     1     -19.817   0.078  26.408  1.00  0.00     0.006 C 
BRANCH   3   4
ATOM      4  C   UNL     1     -21.195   0.668  26.071  1.00  0.00     0.053 C 
BRANCH   4   5
ATOM      5  C   UNL     1     -22.277   0.087  26.928  1.00  0.00     0.041 C 
ATOM      6  O   UNL     1     -22.609   0.657  28.000  1.00  0.00    -0.550 OA
ATOM      7  O   UNL     1     -22.941  -1.065  26.527  1.00  0.00    -0.550 OA
ENDBRANCH   4   5
ENDBRANCH   3   4
ENDBRANCH   2   3
ENDBRANCH   1   2
BRANCH   1   8
ATOM      8  C   UNL     1     -19.571  -0.232  29.533  1.00  0.00     0.000 C 
BRANCH   8   9
ATOM      9  C   UNL     1     -19.446  -1.742  29.796  1.00  0.00    -0.000 C 
BRANCH   9  10
ATOM     10  C   UNL     1     -18.043  -2.281  29.474  1.00  0.00    -0.000 C 
BRANCH  10  11
ATOM     11  C   UNL     1     -17.278  -2.732  30.732  1.00  0.00    -0.000 C 
BRANCH  11  12
ATOM     12  C   UNL     1     -17.049  -1.583  31.725  1.00  0.00    -0.003 C 
ATOM     13  C   UNL     1     -15.761  -0.810  31.448  1.00  0.00     0.004 C 
ENDBRANCH  11  12
ENDBRANCH  10  11
ENDBRANCH   9  10
ENDBRANCH   8   9
ENDBRANCH   1   8
TORSDOF 9
ENDMDL
MODEL 6
REMARK VINA RESULT:    -4.346      3.493      6.456
REMARK INTER + INTRA:          -7.450
REMARK INTER:                  -6.877
REMARK INTRA:                  -0.573
REMARK UNBOUND:                -0.817
REMARK SMILES CCCCCCCCCCC(=O)[O-]
REMARK SMILES IDX 7 1 8 2 9 3 10 4 11 5 12 6 13 7 6 8 5 9 4 10 3 11 2 12 1 13
REMARK H PARENT
REMARK Flexibility Score: inf
ROOT
ATOM      1  C   UNL     1     -18.370  -1.819  29.229  1.00  0.00     0.000 C 
ENDROOT
BRANCH   1   2
ATOM      2  C   UNL     1     -17.428  -2.473  30.260  1.00  0.00     0.000 C 
BRANCH   2   3
ATOM      3  C   UNL     1     -16.685  -1.488  31.186  1.00  0.00     0.006 C 
BRANCH   3   4
ATOM      4  C   UNL     1     -17.340  -1.294  32.562  1.00  0.00     0.053 C 
BRANCH   4   5
ATOM      5  C   UNL     1     -17.485  -2.588  33.300  1.00  0.00     0.041 C 
ATOM      6  O   UNL     1     -18.628  -3.065  33.524  1.00  0.00    -0.550 OA
ATOM      7  O   UNL     1     -16.357  -3.286  33.712  1.00  0.00    -0.550 OA
ENDBRANCH   4   5
ENDBRANCH   3   4
ENDBRANCH   2   3
ENDBRANCH   1   2
BRANCH   1   8
ATOM      8  C   UNL     1     -18.195  -0.301  29.047  1.00  0.00     0.000 C 
BRANCH   8   9
ATOM      9  C   UNL     1     -18.448   0.160  27.603  1.00  0.00    -0.000 C 
BRANCH   9  10
ATOM     10  C   UNL     1     -19.638   1.126  27.492  1.00  0.00    -0.000 C 
BRANCH  10  11
ATOM     11  C   UNL     1     -20.562   0.798  26.305  1.00  0.00    -0.000 C 
BRANCH  11  12
ATOM     12  C   UNL     1     -21.973   0.390  26.752  1.00  0.00    -0.003 C 
ATOM     13  C   UNL     1     -22.105   0.287  28.271  1.00  0.00     0.004 C 
ENDBRANCH  11  12
ENDBRANCH  10  11
ENDBRANCH   9  10
ENDBRANCH   8   9
ENDBRANCH   1   8
TORSDOF 9
ENDMDL
MODEL 7
REMARK VINA RESULT:    -4.252      1.570      2.722
REMARK INTER + INTRA:          -7.307
REMARK INTER:                  -6.640
REMARK INTRA:                  -0.666
REMARK UNBOUND:                -0.817
REMARK SMILES CCCCCCCCCCC(=O)[O-]
REMARK SMILES IDX 7 1 8 2 9 3 10 4 11 5 12 6 13 7 6 8 5 9 4 10 3 11 2 12 1 13
REMARK H PARENT
REMARK Flexibility Score: inf
ROOT
ATOM      1  C   UNL     1     -19.755   1.297  26.916  1.00  0.00     0.000 C 
ENDROOT
BRANCH   1   2
ATOM      2  C   UNL     1     -20.497   0.172  26.166  1.00  0.00     0.000 C 
BRANCH   2   3
ATOM      3  C   UNL     1     -22.028   0.160  26.350  1.00  0.00     0.006 C 
BRANCH   3   4
ATOM      4  C   UNL     1     -22.502   0.593  27.746  1.00  0.00     0.053 C 
BRANCH   4   5
ATOM      5  C   UNL     1     -22.395  -0.520  28.743  1.00  0.00     0.041 C 
ATOM      6  O   UNL     1     -21.997  -0.284  29.914  1.00  0.00    -0.550 OA
ATOM      7  O   UNL     1     -22.767  -1.811  28.390  1.00  0.00    -0.550 OA
ENDBRANCH   4   5
ENDBRANCH   3   4
ENDBRANCH   2   3
ENDBRANCH   1   2
BRANCH   1   8
ATOM      8  C   UNL     1     -18.479   0.862  27.658  1.00  0.00     0.000 C 
BRANCH   8   9
ATOM      9  C   UNL     1     -18.578  -0.562  28.231  1.00  0.00    -0.000 C 
BRANCH   9  10
ATOM     10  C   UNL     1     -18.515  -0.585  29.767  1.00  0.00    -0.000 C 
BRANCH  10  11
ATOM     11  C   UNL     1     -17.526  -1.634  30.305  1.00  0.00    -0.000 C 
BRANCH  11  12
ATOM     12  C   UNL     1     -16.892  -1.215  31.640  1.00  0.00    -0.003 C 
ATOM     13  C   UNL     1     -17.217  -2.182  32.777  1.00  0.00     0.004 C 
ENDBRANCH  11  12
ENDBRANCH  10  11
ENDBRANCH   9  10
ENDBRANCH   8   9
ENDBRANCH   1   8
TORSDOF 9
ENDMDL
MODEL 8
REMARK VINA RESULT:    -4.180     15.123     16.586
REMARK INTER + INTRA:          -7.196
REMARK INTER:                  -6.050
REMARK INTRA:                  -1.147
REMARK UNBOUND:                -0.817
REMARK SMILES CCCCCCCCCCC(=O)[O-]
REMARK SMILES IDX 7 1 8 2 9 3 10 4 11 5 12 6 13 7 6 8 5 9 4 10 3 11 2 12 1 13
REMARK H PARENT
REMARK Flexibility Score: inf
ROOT
ATOM      1  C   UNL     1      -4.342   7.840  24.929  1.00  0.00     0.000 C 
ENDROOT
BRANCH   1   2
ATOM      2  C   UNL     1      -4.299   8.284  26.406  1.00  0.00     0.000 C 
BRANCH   2   3
ATOM      3  C   UNL     1      -5.351   7.623  27.320  1.00  0.00     0.006 C 
BRANCH   3   4
ATOM      4  C   UNL     1      -5.887   6.280  26.802  1.00  0.00     0.053 C 
BRANCH   4   5
ATOM      5  C   UNL     1      -6.805   5.626  27.788  1.00  0.00     0.041 C 
ATOM      6  O   UNL     1      -6.761   4.381  27.966  1.00  0.00    -0.550 OA
ATOM      7  O   UNL     1      -7.688   6.397  28.535  1.00  0.00    -0.550 OA
ENDBRANCH   4   5
ENDBRANCH   3   4
ENDBRANCH   2   3
ENDBRANCH   1   2
BRANCH   1   8
ATOM      8  C   UNL     1      -4.269   8.980  23.897  1.00  0.00     0.000 C 
BRANCH   8   9
ATOM      9  C   UNL     1      -5.229   8.774  22.713  1.00  0.00    -0.000 C 
BRANCH   9  10
ATOM     10  C   UNL     1      -6.510   8.026  23.115  1.00  0.00    -0.000 C 
BRANCH  10  11
ATOM     11  C   UNL     1      -7.685   8.976  23.407  1.00  0.00    -0.000 C 
BRANCH  11  12
ATOM     12  C   UNL     1      -7.793   9.338  24.895  1.00  0.00    -0.003 C 
ATOM     13  C   UNL     1      -8.678   8.369  25.677  1.00  0.00     0.004 C 
ENDBRANCH  11  12
ENDBRANCH  10  11
ENDBRANCH   9  10
ENDBRANCH   8   9
ENDBRANCH   1   8
TORSDOF 9
ENDMDL
MODEL 9
REMARK VINA RESULT:    -4.144     15.169     16.775
REMARK INTER + INTRA:          -7.141
REMARK INTER:                  -6.257
REMARK INTRA:                  -0.884
REMARK UNBOUND:                -0.817
REMARK SMILES CCCCCCCCCCC(=O)[O-]
REMARK SMILES IDX 7 1 8 2 9 3 10 4 11 5 12 6 13 7 6 8 5 9 4 10 3 11 2 12 1 13
REMARK H PARENT
REMARK Flexibility Score: inf
ROOT
ATOM      1  C   UNL     1      -5.196   6.974  25.948  1.00  0.00     0.000 C 
ENDROOT
BRANCH   1   2
ATOM      2  C   UNL     1      -5.668   6.278  27.242  1.00  0.00     0.000 C 
BRANCH   2   3
ATOM      3  C   UNL     1      -5.706   7.179  28.493  1.00  0.00     0.006 C 
BRANCH   3   4
ATOM      4  C   UNL     1      -5.629   6.417  29.825  1.00  0.00     0.053 C 
BRANCH   4   5
ATOM      5  C   UNL     1      -5.789   7.329  31.002  1.00  0.00     0.041 C 
ATOM      6  O   UNL     1      -6.382   8.432  30.872  1.00  0.00    -0.550 OA
ATOM      7  O   UNL     1      -5.314   6.947  32.250  1.00  0.00    -0.550 OA
ENDBRANCH   4   5
ENDBRANCH   3   4
ENDBRANCH   2   3
ENDBRANCH   1   2
BRANCH   1   8
ATOM      8  C   UNL     1      -4.772   8.444  26.110  1.00  0.00     0.000 C 
BRANCH   8   9
ATOM      9  C   UNL     1      -4.822   9.228  24.787  1.00  0.00    -0.000 C 
BRANCH   9  10
ATOM     10  C   UNL     1      -6.117   8.974  24.000  1.00  0.00    -0.000 C 
BRANCH  10  11
ATOM     11  C   UNL     1      -7.331   9.707  24.601  1.00  0.00    -0.000 C 
BRANCH  11  12
ATOM     12  C   UNL     1      -8.554   8.791  24.754  1.00  0.00    -0.003 C 
ATOM     13  C   UNL     1      -8.679   8.200  26.157  1.00  0.00     0.004 C 
ENDBRANCH  11  12
ENDBRANCH  10  11
ENDBRANCH   9  10
ENDBRANCH   8   9
ENDBRANCH   1   8
TORSDOF 9
ENDMDL
