MODEL 1
REMARK VINA RESULT:    -3.463      0.000      0.000
REMARK INTER + INTRA:          -4.342
REMARK INTER:                  -4.272
REMARK INTRA:                  -0.070
REMARK UNBOUND:                -0.070
REMARK SMILES CCCCCC(=O)[O-]
REMARK SMILES IDX 4 1 5 2 6 3 7 4 8 5 3 6 2 7 1 8
REMARK H PARENT
REMARK Flexibility Score: inf
ROOT
ATOM      1  C   UNL     1      13.537  36.215  57.350  1.00  0.00     0.006 C 
ENDROOT
BRANCH   1   2
ATOM      2  C   UNL     1      13.128  34.939  56.600  1.00  0.00     0.053 C 
BRANCH   2   3
ATOM      3  C   UNL     1      14.039  33.790  56.909  1.00  0.00     0.041 C 
ATOM      4  O   UNL     1      13.629  32.605  56.789  1.00  0.00    -0.550 OA
ATOM      5  O   UNL     1      15.352  34.027  57.296  1.00  0.00    -0.550 OA
ENDBRANCH   2   3
ENDBRANCH   1   2
BRANCH   1   6
ATOM      6  C   UNL     1      12.400  36.879  58.151  1.00  0.00     0.000 C 
BRANCH   6   7
ATOM      7  C   UNL     1      12.761  38.233  58.790  1.00  0.00    -0.003 C 
ATOM      8  C   UNL     1      13.176  39.286  57.763  1.00  0.00     0.004 C 
ENDBRANCH   6   7
ENDBRANCH   1   6
TORSDOF 4
ENDMDL
MODEL 2
REMARK VINA RESULT:    -3.446      7.412      9.171
REMARK INTER + INTRA:          -4.322
REMARK INTER:                  -4.253
REMARK INTRA:                  -0.069
REMARK UNBOUND:                -0.070
REMARK SMILES CCCCCC(=O)[O-]
REMARK SMILES IDX 4 1 5 2 6 3 7 4 8 5 3 6 2 7 1 8
REMARK H PARENT
REMARK Flexibility Score: inf
ROOT
ATOM      1  C   UNL     1      15.825  27.512  55.325  1.00  0.00     0.006 C 
ENDROOT
BRANCH   1   2
ATOM      2  C   UNL     1      16.522  26.484  54.422  1.00  0.00     0.053 C 
BRANCH   2   3
ATOM      3  C   UNL     1      15.540  25.656  53.651  1.00  0.00     0.041 C 
ATOM      4  O   UNL     1      14.607  26.211  53.013  1.00  0.00    -0.550 OA
ATOM      5  O   UNL     1      15.677  24.274  53.608  1.00  0.00    -0.550 OA
ENDBRANCH   2   3
ENDBRANCH   1   2
BRANCH   1   6
ATOM      6  C   UNL     1      16.292  28.967  55.117  1.00  0.00     0.000 C 
BRANCH   6   7
ATOM      7  C   UNL     1      15.775  29.970  56.164  1.00  0.00    -0.003 C 
ATOM      8  C   UNL     1      16.862  30.914  56.675  1.00  0.00     0.004 C 
ENDBRANCH   6   7
ENDBRANCH   1   6
TORSDOF 4
ENDMDL
MODEL 3
REMARK VINA RESULT:    -3.443     17.725     18.605
REMARK INTER + INTRA:          -4.319
REMARK INTER:                  -4.138
REMARK INTRA:                  -0.181
REMARK UNBOUND:                -0.070
REMARK SMILES CCCCCC(=O)[O-]
REMARK SMILES IDX 4 1 5 2 6 3 7 4 8 5 3 6 2 7 1 8
REMARK H PARENT
REMARK Flexibility Score: inf
ROOT
ATOM      1  C   UNL     1      30.680  38.055  49.333  1.00  0.00     0.006 C 
ENDROOT
BRANCH   1   2
ATOM      2  C   UNL     1      30.342  39.128  50.379  1.00  0.00     0.053 C 
BRANCH   2   3
ATOM      3  C   UNL     1      29.076  38.816  51.115  1.00  0.00     0.041 C 
ATOM      4  O   UNL     1      28.880  39.282  52.268  1.00  0.00    -0.550 OA
ATOM      5  O   UNL     1      28.094  38.037  50.512  1.00  0.00    -0.550 OA
ENDBRANCH   2   3
ENDBRANCH   1   2
BRANCH   1   6
ATOM      6  C   UNL     1      30.761  38.576  47.884  1.00  0.00     0.000 C 
BRANCH   6   7
ATOM      7  C   UNL     1      29.666  38.046  46.942  1.00  0.00    -0.003 C 
ATOM      8  C   UNL     1      29.259  36.605  47.250  1.00  0.00     0.004 C 
ENDBRANCH   6   7
ENDBRANCH   1   6
TORSDOF 4
ENDMDL
MODEL 4
REMARK VINA RESULT:    -3.414      2.610      4.509
REMARK INTER + INTRA:          -4.282
REMARK INTER:                  -4.177
REMARK INTRA:                  -0.105
REMARK UNBOUND:                -0.070
REMARK SMILES CCCCCC(=O)[O-]
REMARK SMILES IDX 4 1 5 2 6 3 7 4 8 5 3 6 2 7 1 8
REMARK H PARENT
REMARK Flexibility Score: inf
ROOT
ATOM      1  C   UNL     1      12.834  35.088  56.644  1.00  0.00     0.006 C 
ENDROOT
BRANCH   1   2
ATOM      2  C   UNL     1      13.589  36.243  57.318  1.00  0.00     0.053 C 
BRANCH   2   3
ATOM      3  C   UNL     1      12.684  37.093  58.155  1.00  0.00     0.041 C 
ATOM      4  O   UNL     1      11.552  36.664  58.501  1.00  0.00    -0.550 OA
ATOM      5  O   UNL     1      13.105  38.347  58.583  1.00  0.00    -0.550 OA
ENDBRANCH   2   3
ENDBRANCH   1   2
BRANCH   1   6
ATOM      6  C   UNL     1      13.645  33.782  56.515  1.00  0.00     0.000 C 
BRANCH   6   7
ATOM      7  C   UNL     1      15.041  33.819  57.164  1.00  0.00    -0.003 C 
ATOM      8  C   UNL     1      15.686  32.438  57.273  1.00  0.00     0.004 C 
ENDBRANCH   6   7
ENDBRANCH   1   6
TORSDOF 4
ENDMDL
MODEL 5
REMARK VINA RESULT:    -3.357      3.117      4.826
REMARK INTER + INTRA:          -4.212
REMARK INTER:                  -4.147
REMARK INTRA:                  -0.065
REMARK UNBOUND:                -0.070
REMARK SMILES CCCCCC(=O)[O-]
REMARK SMILES IDX 4 1 5 2 6 3 7 4 8 5 3 6 2 7 1 8
REMARK H PARENT
REMARK Flexibility Score: inf
ROOT
ATOM      1  C   UNL     1      12.716  36.139  57.413  1.00  0.00     0.006 C 
ENDROOT
BRANCH   1   2
ATOM      2  C   UNL     1      13.532  37.440  57.449  1.00  0.00     0.053 C 
BRANCH   2   3
ATOM      3  C   UNL     1      12.958  38.437  58.409  1.00  0.00     0.041 C 
ATOM      4  O   UNL     1      13.406  39.613  58.446  1.00  0.00    -0.550 OA
ATOM      5  O   UNL     1      11.902  38.076  59.239  1.00  0.00    -0.550 OA
ENDBRANCH   2   3
ENDBRANCH   1   2
BRANCH   1   6
ATOM      6  C   UNL     1      13.428  34.957  56.725  1.00  0.00     0.000 C 
BRANCH   6   7
ATOM      7  C   UNL     1      12.598  34.243  55.642  1.00  0.00    -0.003 C 
ATOM      8  C   UNL     1      11.241  33.759  56.151  1.00  0.00     0.004 C 
ENDBRANCH   6   7
ENDBRANCH   1   6
TORSDOF 4
ENDMDL
MODEL 6
REMARK VINA RESULT:    -3.341      4.560      7.469
REMARK INTER + INTRA:          -4.192
REMARK INTER:                  -4.123
REMARK INTRA:                  -0.069
REMARK UNBOUND:                -0.070
REMARK SMILES CCCCCC(=O)[O-]
REMARK SMILES IDX 4 1 5 2 6 3 7 4 8 5 3 6 2 7 1 8
REMARK H PARENT
REMARK Flexibility Score: inf
ROOT
ATOM      1  C   UNL     1      15.758  30.176  56.179  1.00  0.00     0.006 C 
ENDROOT
BRANCH   1   2
ATOM      2  C   UNL     1      16.459  31.203  57.081  1.00  0.00     0.053 C 
BRANCH   2   3
ATOM      3  C   UNL     1      15.625  32.430  57.289  1.00  0.00     0.041 C 
ATOM      4  O   UNL     1      14.376  32.380  57.144  1.00  0.00    -0.550 OA
ATOM      5  O   UNL     1      16.226  33.622  57.678  1.00  0.00    -0.550 OA
ENDBRANCH   2   3
ENDBRANCH   1   2
BRANCH   1   6
ATOM      6  C   UNL     1      16.662  29.553  55.096  1.00  0.00     0.000 C 
BRANCH   6   7
ATOM      7  C   UNL     1      16.048  28.356  54.348  1.00  0.00    -0.003 C 
ATOM      8  C   UNL     1      15.946  27.100  55.212  1.00  0.00     0.004 C 
ENDBRANCH   6   7
ENDBRANCH   1   6
TORSDOF 4
ENDMDL
MODEL 7
REMARK VINA RESULT:    -3.267     18.132     19.005
REMARK INTER + INTRA:          -4.101
REMARK INTER:                  -4.036
REMARK INTRA:                  -0.066
REMARK UNBOUND:                -0.070
REMARK SMILES CCCCCC(=O)[O-]
REMARK SMILES IDX 4 1 5 2 6 3 7 4 8 5 3 6 2 7 1 8
REMARK H PARENT
REMARK Flexibility Score: inf
ROOT
ATOM      1  C   UNL     1      30.416  38.227  49.387  1.00  0.00     0.006 C 
ENDROOT
BRANCH   1   2
ATOM      2  C   UNL     1      30.944  39.362  50.278  1.00  0.00     0.053 C 
BRANCH   2   3
ATOM      3  C   UNL     1      30.124  39.528  51.520  1.00  0.00     0.041 C 
ATOM      4  O   UNL     1      28.868  39.577  51.449  1.00  0.00    -0.550 OA
ATOM      5  O   UNL     1      30.746  39.593  52.762  1.00  0.00    -0.550 OA
ENDBRANCH   2   3
ENDBRANCH   1   2
BRANCH   1   6
ATOM      6  C   UNL     1      30.699  38.412  47.882  1.00  0.00     0.000 C 
BRANCH   6   7
ATOM      7  C   UNL     1      29.589  37.899  46.946  1.00  0.00    -0.003 C 
ATOM      8  C   UNL     1      29.190  36.452  47.231  1.00  0.00     0.004 C 
ENDBRANCH   6   7
ENDBRANCH   1   6
TORSDOF 4
ENDMDL
MODEL 8
REMARK VINA RESULT:    -3.219     10.036     11.813
REMARK INTER + INTRA:          -4.042
REMARK INTER:                  -3.837
REMARK INTRA:                  -0.205
REMARK UNBOUND:                -0.070
REMARK SMILES CCCCCC(=O)[O-]
REMARK SMILES IDX 4 1 5 2 6 3 7 4 8 5 3 6 2 7 1 8
REMARK H PARENT
REMARK Flexibility Score: inf
ROOT
ATOM      1  C   UNL     1      15.703  24.561  53.642  1.00  0.00     0.006 C 
ENDROOT
BRANCH   1   2
ATOM      2  C   UNL     1      15.311  23.930  52.298  1.00  0.00     0.053 C 
BRANCH   2   3
ATOM      3  C   UNL     1      14.260  24.727  51.588  1.00  0.00     0.041 C 
ATOM      4  O   UNL     1      13.857  24.374  50.449  1.00  0.00    -0.550 OA
ATOM      5  O   UNL     1      13.699  25.842  52.201  1.00  0.00    -0.550 OA
ENDBRANCH   2   3
ENDBRANCH   1   2
BRANCH   1   6
ATOM      6  C   UNL     1      16.977  25.428  53.593  1.00  0.00     0.000 C 
BRANCH   6   7
ATOM      7  C   UNL     1      16.789  26.883  54.061  1.00  0.00    -0.003 C 
ATOM      8  C   UNL     1      15.631  27.050  55.044  1.00  0.00     0.004 C 
ENDBRANCH   6   7
ENDBRANCH   1   6
TORSDOF 4
ENDMDL
MODEL 9
REMARK VINA RESULT:    -3.071     10.445     12.202
REMARK INTER + INTRA:          -3.859
REMARK INTER:                  -3.636
REMARK INTRA:                  -0.223
REMARK UNBOUND:                -0.070
REMARK SMILES CCCCCC(=O)[O-]
REMARK SMILES IDX 4 1 5 2 6 3 7 4 8 5 3 6 2 7 1 8
REMARK H PARENT
REMARK Flexibility Score: inf
ROOT
ATOM      1  C   UNL     1      15.242  23.972  51.878  1.00  0.00     0.006 C 
ENDROOT
BRANCH   1   2
ATOM      2  C   UNL     1      13.847  24.382  51.383  1.00  0.00     0.053 C 
BRANCH   2   3
ATOM      3  C   UNL     1      13.854  25.737  50.743  1.00  0.00     0.041 C 
ATOM      4  O   UNL     1      13.829  26.775  51.455  1.00  0.00    -0.550 OA
ATOM      5  O   UNL     1      13.924  25.852  49.359  1.00  0.00    -0.550 OA
ENDBRANCH   2   3
ENDBRANCH   1   2
BRANCH   1   6
ATOM      6  C   UNL     1      15.495  24.241  53.375  1.00  0.00     0.000 C 
BRANCH   6   7
ATOM      7  C   UNL     1      16.309  25.512  53.677  1.00  0.00    -0.003 C 
ATOM      8  C   UNL     1      15.560  26.504  54.566  1.00  0.00     0.004 C 
ENDBRANCH   6   7
ENDBRANCH   1   6
TORSDOF 4
ENDMDL
