MODEL 1
REMARK VINA RESULT:    -3.209      0.000      0.000
REMARK INTER + INTRA:          -3.898
REMARK INTER:                  -3.771
REMARK INTRA:                  -0.126
REMARK UNBOUND:                -0.126
REMARK SMILES O=C([O-])CCC(=O)[O-]
REMARK SMILES IDX 4 1 2 2 1 3 3 4 5 5 6 6 7 7 8 8
REMARK H PARENT
REMARK Flexibility Score: inf
ROOT
ATOM      1  C   UNL     1      25.662  15.009  -4.186  1.00  0.00     0.059 C 
ENDROOT
BRANCH   1   2
ATOM      2  C   UNL     1      25.241  15.294  -2.776  1.00  0.00     0.042 C 
ATOM      3  O   UNL     1      25.752  14.653  -1.819  1.00  0.00    -0.550 OA
ATOM      4  O   UNL     1      24.312  16.294  -2.516  1.00  0.00    -0.550 OA
ENDBRANCH   1   2
BRANCH   1   5
ATOM      5  C   UNL     1      24.507  14.439  -5.015  1.00  0.00     0.059 C 
BRANCH   5   6
ATOM      6  C   UNL     1      24.215  13.014  -4.650  1.00  0.00     0.042 C 
ATOM      7  O   UNL     1      23.038  12.572  -4.716  1.00  0.00    -0.550 OA
ATOM      8  O   UNL     1      25.236  12.188  -4.198  1.00  0.00    -0.550 OA
ENDBRANCH   5   6
ENDBRANCH   1   5
TORSDOF 3
ENDMDL
MODEL 2
REMARK VINA RESULT:    -3.191      0.343      3.637
REMARK INTER + INTRA:          -3.877
REMARK INTER:                  -3.724
REMARK INTRA:                  -0.152
REMARK UNBOUND:                -0.126
REMARK SMILES O=C([O-])CCC(=O)[O-]
REMARK SMILES IDX 4 1 2 2 1 3 3 4 5 5 6 6 7 7 8 8
REMARK H PARENT
REMARK Flexibility Score: inf
ROOT
ATOM      1  C   UNL     1      24.603  14.481  -5.090  1.00  0.00     0.059 C 
ENDROOT
BRANCH   1   2
ATOM      2  C   UNL     1      24.285  13.091  -4.628  1.00  0.00     0.042 C 
ATOM      3  O   UNL     1      23.118  12.633  -4.751  1.00  0.00    -0.550 OA
ATOM      4  O   UNL     1      25.287  12.288  -4.099  1.00  0.00    -0.550 OA
ENDBRANCH   1   2
BRANCH   1   5
ATOM      5  C   UNL     1      25.617  15.164  -4.165  1.00  0.00     0.059 C 
BRANCH   5   6
ATOM      6  C   UNL     1      24.991  15.569  -2.865  1.00  0.00     0.042 C 
ATOM      7  O   UNL     1      25.496  15.191  -1.775  1.00  0.00    -0.550 OA
ATOM      8  O   UNL     1      23.829  16.330  -2.858  1.00  0.00    -0.550 OA
ENDBRANCH   5   6
ENDBRANCH   1   5
TORSDOF 3
ENDMDL
MODEL 3
REMARK VINA RESULT:    -3.053     20.067     21.028
REMARK INTER + INTRA:          -3.714
REMARK INTER:                  -3.662
REMARK INTRA:                  -0.053
REMARK UNBOUND:                -0.126
REMARK SMILES O=C([O-])CCC(=O)[O-]
REMARK SMILES IDX 4 1 2 2 1 3 3 4 5 5 6 6 7 7 8 8
REMARK H PARENT
REMARK Flexibility Score: inf
ROOT
ATOM      1  C   UNL     1      13.671   0.007   7.928  1.00  0.00     0.059 C 
ENDROOT
BRANCH   1   2
ATOM      2  C   UNL     1      12.626  -0.081   8.998  1.00  0.00     0.042 C 
ATOM      3  O   UNL     1      11.961  -1.140   9.151  1.00  0.00    -0.550 OA
ATOM      4  O   UNL     1      12.414   0.994   9.852  1.00  0.00    -0.550 OA
ENDBRANCH   1   2
BRANCH   1   5
ATOM      5  C   UNL     1      14.667   1.138   8.203  1.00  0.00     0.059 C 
BRANCH   5   6
ATOM      6  C   UNL     1      14.950   1.938   6.967  1.00  0.00     0.042 C 
ATOM      7  O   UNL     1      14.829   1.411   5.830  1.00  0.00    -0.550 OA
ATOM      8  O   UNL     1      15.386   3.253   7.073  1.00  0.00    -0.550 OA
ENDBRANCH   5   6
ENDBRANCH   1   5
TORSDOF 3
ENDMDL
MODEL 4
REMARK VINA RESULT:    -3.049     20.121     21.018
REMARK INTER + INTRA:          -3.710
REMARK INTER:                  -3.655
REMARK INTRA:                  -0.055
REMARK UNBOUND:                -0.126
REMARK SMILES O=C([O-])CCC(=O)[O-]
REMARK SMILES IDX 4 1 2 2 1 3 3 4 5 5 6 6 7 7 8 8
REMARK H PARENT
REMARK Flexibility Score: inf
ROOT
ATOM      1  C   UNL     1      14.583   1.244   8.295  1.00  0.00     0.059 C 
ENDROOT
BRANCH   1   2
ATOM      2  C   UNL     1      14.911   1.968   7.023  1.00  0.00     0.042 C 
ATOM      3  O   UNL     1      14.816   1.377   5.915  1.00  0.00    -0.550 OA
ATOM      4  O   UNL     1      15.282   3.305   7.061  1.00  0.00    -0.550 OA
ENDBRANCH   1   2
BRANCH   1   5
ATOM      5  C   UNL     1      13.601   0.094   8.051  1.00  0.00     0.059 C 
BRANCH   5   6
ATOM      6  C   UNL     1      12.535   0.045   9.105  1.00  0.00     0.042 C 
ATOM      7  O   UNL     1      12.253   1.078   9.768  1.00  0.00    -0.550 OA
ATOM      8  O   UNL     1      11.883  -1.150   9.381  1.00  0.00    -0.550 OA
ENDBRANCH   5   6
ENDBRANCH   1   5
TORSDOF 3
ENDMDL
MODEL 5
REMARK VINA RESULT:    -2.998      1.584      3.857
REMARK INTER + INTRA:          -3.650
REMARK INTER:                  -3.550
REMARK INTRA:                  -0.100
REMARK UNBOUND:                -0.126
REMARK SMILES O=C([O-])CCC(=O)[O-]
REMARK SMILES IDX 4 1 2 2 1 3 3 4 5 5 6 6 7 7 8 8
REMARK H PARENT
REMARK Flexibility Score: inf
ROOT
ATOM      1  C   UNL     1      25.670  13.269  -3.730  1.00  0.00     0.059 C 
ENDROOT
BRANCH   1   2
ATOM      2  C   UNL     1      24.451  13.580  -4.545  1.00  0.00     0.042 C 
ATOM      3  O   UNL     1      24.342  14.693  -5.125  1.00  0.00    -0.550 OA
ATOM      4  O   UNL     1      23.455  12.624  -4.697  1.00  0.00    -0.550 OA
ENDBRANCH   1   2
BRANCH   1   5
ATOM      5  C   UNL     1      26.710  14.392  -3.820  1.00  0.00     0.059 C 
BRANCH   5   6
ATOM      6  C   UNL     1      26.759  15.203  -2.561  1.00  0.00     0.042 C 
ATOM      7  O   UNL     1      27.834  15.752  -2.203  1.00  0.00    -0.550 OA
ATOM      8  O   UNL     1      25.628  15.317  -1.762  1.00  0.00    -0.550 OA
ENDBRANCH   5   6
ENDBRANCH   1   5
TORSDOF 3
ENDMDL
MODEL 6
REMARK VINA RESULT:    -2.905      1.598      2.319
REMARK INTER + INTRA:          -3.541
REMARK INTER:                  -3.510
REMARK INTRA:                  -0.031
REMARK UNBOUND:                -0.126
REMARK SMILES O=C([O-])CCC(=O)[O-]
REMARK SMILES IDX 4 1 2 2 1 3 3 4 5 5 6 6 7 7 8 8
REMARK H PARENT
REMARK Flexibility Score: inf
ROOT
ATOM      1  C   UNL     1      25.404  15.448  -2.434  1.00  0.00     0.059 C 
ENDROOT
BRANCH   1   2
ATOM      2  C   UNL     1      24.389  16.449  -1.971  1.00  0.00     0.042 C 
ATOM      3  O   UNL     1      23.617  17.000  -2.800  1.00  0.00    -0.550 OA
ATOM      4  O   UNL     1      24.271  16.744  -0.619  1.00  0.00    -0.550 OA
ENDBRANCH   1   2
BRANCH   1   5
ATOM      5  C   UNL     1      24.968  14.765  -3.735  1.00  0.00     0.059 C 
BRANCH   5   6
ATOM      6  C   UNL     1      25.784  13.539  -4.015  1.00  0.00     0.042 C 
ATOM      7  O   UNL     1      26.998  13.645  -4.332  1.00  0.00    -0.550 OA
ATOM      8  O   UNL     1      25.193  12.283  -3.966  1.00  0.00    -0.550 OA
ENDBRANCH   5   6
ENDBRANCH   1   5
TORSDOF 3
ENDMDL
MODEL 7
REMARK VINA RESULT:    -2.844     19.741     20.544
REMARK INTER + INTRA:          -3.469
REMARK INTER:                  -3.423
REMARK INTRA:                  -0.046
REMARK UNBOUND:                -0.126
REMARK SMILES O=C([O-])CCC(=O)[O-]
REMARK SMILES IDX 4 1 2 2 1 3 3 4 5 5 6 6 7 7 8 8
REMARK H PARENT
REMARK Flexibility Score: inf
ROOT
ATOM      1  C   UNL     1      14.884   1.267   7.580  1.00  0.00     0.059 C 
ENDROOT
BRANCH   1   2
ATOM      2  C   UNL     1      14.903   2.729   7.912  1.00  0.00     0.042 C 
ATOM      3  O   UNL     1      15.231   3.574   7.037  1.00  0.00    -0.550 OA
ATOM      4  O   UNL     1      14.520   3.160   9.176  1.00  0.00    -0.550 OA
ENDBRANCH   1   2
BRANCH   1   5
ATOM      5  C   UNL     1      13.824   0.518   8.395  1.00  0.00     0.059 C 
BRANCH   5   6
ATOM      6  C   UNL     1      13.140  -0.536   7.577  1.00  0.00     0.042 C 
ATOM      7  O   UNL     1      12.656  -0.247   6.451  1.00  0.00    -0.550 OA
ATOM      8  O   UNL     1      13.002  -1.825   8.076  1.00  0.00    -0.550 OA
ENDBRANCH   5   6
ENDBRANCH   1   5
TORSDOF 3
ENDMDL
MODEL 8
REMARK VINA RESULT:    -2.830     19.706     20.776
REMARK INTER + INTRA:          -3.453
REMARK INTER:                  -3.413
REMARK INTRA:                  -0.039
REMARK UNBOUND:                -0.126
REMARK SMILES O=C([O-])CCC(=O)[O-]
REMARK SMILES IDX 4 1 2 2 1 3 3 4 5 5 6 6 7 7 8 8
REMARK H PARENT
REMARK Flexibility Score: inf
ROOT
ATOM      1  C   UNL     1      13.773   0.569   8.399  1.00  0.00     0.059 C 
ENDROOT
BRANCH   1   2
ATOM      2  C   UNL     1      13.167  -0.541   7.594  1.00  0.00     0.042 C 
ATOM      3  O   UNL     1      13.112  -1.709   8.065  1.00  0.00    -0.550 OA
ATOM      4  O   UNL     1      12.629  -0.278   6.342  1.00  0.00    -0.550 OA
ENDBRANCH   1   2
BRANCH   1   5
ATOM      5  C   UNL     1      14.898   1.272   7.632  1.00  0.00     0.059 C 
BRANCH   5   6
ATOM      6  C   UNL     1      14.907   2.748   7.893  1.00  0.00     0.042 C 
ATOM      7  O   UNL     1      15.266   3.549   6.990  1.00  0.00    -0.550 OA
ATOM      8  O   UNL     1      14.559   3.235   9.146  1.00  0.00    -0.550 OA
ENDBRANCH   5   6
ENDBRANCH   1   5
TORSDOF 3
ENDMDL
MODEL 9
REMARK VINA RESULT:    -2.755      2.425      2.994
REMARK INTER + INTRA:          -3.365
REMARK INTER:                  -3.246
REMARK INTRA:                  -0.119
REMARK UNBOUND:                -0.126
REMARK SMILES O=C([O-])CCC(=O)[O-]
REMARK SMILES IDX 4 1 2 2 1 3 3 4 5 5 6 6 7 7 8 8
REMARK H PARENT
REMARK Flexibility Score: inf
ROOT
ATOM      1  C   UNL     1      26.091  14.911  -2.104  1.00  0.00     0.059 C 
ENDROOT
BRANCH   1   2
ATOM      2  C   UNL     1      24.917  15.842  -2.093  1.00  0.00     0.042 C 
ATOM      3  O   UNL     1      24.694  16.570  -1.090  1.00  0.00    -0.550 OA
ATOM      4  O   UNL     1      24.092  15.934  -3.207  1.00  0.00    -0.550 OA
ENDBRANCH   1   2
BRANCH   1   5
ATOM      5  C   UNL     1      26.104  14.035  -3.362  1.00  0.00     0.059 C 
BRANCH   5   6
ATOM      6  C   UNL     1      27.118  14.513  -4.357  1.00  0.00     0.042 C 
ATOM      7  O   UNL     1      28.220  13.915  -4.476  1.00  0.00    -0.550 OA
ATOM      8  O   UNL     1      26.862  15.642  -5.124  1.00  0.00    -0.550 OA
ENDBRANCH   5   6
ENDBRANCH   1   5
TORSDOF 3
ENDMDL
