MODEL 1
REMARK VINA RESULT:    -0.383      0.000      0.000
REMARK INTER + INTRA:          -5.007
REMARK INTER:                  -1.011
REMARK INTRA:                  -3.996
REMARK UNBOUND:                -3.996
REMARK SMILES CCCCCCCCCCCCCCCCCCCCCCCCCCCCCC(=O)[O-]
REMARK SMILES IDX 16 1 17 2 18 3 19 4 20 5 21 6 22 7 23 8 24 9 25 10 26 11
REMARK SMILES IDX 27 12 28 13 29 14 30 15 31 16 32 17 15 18 14 19 13 20 12 21
REMARK SMILES IDX 11 22 10 23 9 24 8 25 7 26 6 27 5 28 4 29 3 30 2 31 1 32
REMARK H PARENT
REMARK Flexibility Score: inf
ROOT
ATOM      1  C   UNL     1       9.186 -30.759  12.714  1.00  0.00     0.000 C 
ENDROOT
BRANCH   1   2
ATOM      2  C   UNL     1       8.504 -29.414  13.039  1.00  0.00     0.000 C 
BRANCH   2   3
ATOM      3  C   UNL     1       7.197 -29.592  13.824  1.00  0.00     0.000 C 
BRANCH   3   4
ATOM      4  C   UNL     1       7.433 -29.992  15.290  1.00  0.00     0.000 C 
BRANCH   4   5
ATOM      5  C   UNL     1       6.246 -29.638  16.205  1.00  0.00     0.000 C 
BRANCH   5   6
ATOM      6  C   UNL     1       6.100 -30.528  17.454  1.00  0.00     0.000 C 
BRANCH   6   7
ATOM      7  C   UNL     1       7.406 -30.663  18.252  1.00  0.00     0.000 C 
BRANCH   7   8
ATOM      8  C   UNL     1       7.544 -29.530  19.278  1.00  0.00     0.000 C 
BRANCH   8   9
ATOM      9  C   UNL     1       8.991 -29.022  19.414  1.00  0.00     0.000 C 
BRANCH   9  10
ATOM     10  C   UNL     1       9.428 -28.087  18.268  1.00  0.00     0.000 C 
BRANCH  10  11
ATOM     11  C   UNL     1      10.638 -28.640  17.492  1.00  0.00     0.000 C 
BRANCH  11  12
ATOM     12  C   UNL     1      10.351 -28.803  15.989  1.00  0.00     0.000 C 
BRANCH  12  13
ATOM     13  C   UNL     1      11.169 -27.831  15.121  1.00  0.00     0.006 C 
BRANCH  13  14
ATOM     14  C   UNL     1      12.019 -28.564  14.074  1.00  0.00     0.053 C 
BRANCH  14  15
ATOM     15  C   UNL     1      13.473 -28.219  14.183  1.00  0.00     0.041 C 
ATOM     16  O   UNL     1      13.851 -27.022  14.073  1.00  0.00    -0.550 OA
ATOM     17  O   UNL     1      14.409 -29.219  14.416  1.00  0.00    -0.550 OA
ENDBRANCH  14  15
ENDBRANCH  13  14
ENDBRANCH  12  13
ENDBRANCH  11  12
ENDBRANCH  10  11
ENDBRANCH   9  10
ENDBRANCH   8   9
ENDBRANCH   7   8
ENDBRANCH   6   7
ENDBRANCH   5   6
ENDBRANCH   4   5
ENDBRANCH   3   4
ENDBRANCH   2   3
ENDBRANCH   1   2
BRANCH   1  18
ATOM     18  C   UNL     1      10.661 -30.603  12.288  1.00  0.00     0.000 C 
BRANCH  18  19
ATOM     19  C   UNL     1      11.403 -31.938  12.083  1.00  0.00     0.000 C 
BRANCH  19  20
ATOM     20  C   UNL     1      11.774 -32.689  13.376  1.00  0.00     0.000 C 
BRANCH  20  21
ATOM     21  C   UNL     1      10.650 -32.780  14.428  1.00  0.00     0.000 C 
BRANCH  21  22
ATOM     22  C   UNL     1       9.640 -33.923  14.205  1.00  0.00     0.000 C 
BRANCH  22  23
ATOM     23  C   UNL     1      10.060 -34.959  13.146  1.00  0.00     0.000 C 
BRANCH  23  24
ATOM     24  C   UNL     1       9.080 -35.121  11.965  1.00  0.00    -0.000 C 
BRANCH  24  25
ATOM     25  C   UNL     1       7.950 -34.072  11.876  1.00  0.00    -0.000 C 
BRANCH  25  26
ATOM     26  C   UNL     1       6.514 -34.634  11.984  1.00  0.00    -0.000 C 
BRANCH  26  27
ATOM     27  C   UNL     1       5.919 -34.589  13.401  1.00  0.00    -0.000 C 
BRANCH  27  28
ATOM     28  C   UNL     1       6.140 -33.241  14.107  1.00  0.00    -0.000 C 
BRANCH  28  29
ATOM     29  C   UNL     1       5.875 -33.315  15.621  1.00  0.00    -0.000 C 
BRANCH  29  30
ATOM     30  C   UNL     1       6.970 -34.048  16.419  1.00  0.00    -0.000 C 
BRANCH  30  31
ATOM     31  C   UNL     1       6.423 -34.750  17.673  1.00  0.00    -0.003 C 
ATOM     32  C   UNL     1       7.451 -34.744  18.801  1.00  0.00     0.004 C 
ENDBRANCH  30  31
ENDBRANCH  29  30
ENDBRANCH  28  29
ENDBRANCH  27  28
ENDBRANCH  26  27
ENDBRANCH  25  26
ENDBRANCH  24  25
ENDBRANCH  23  24
ENDBRANCH  22  23
ENDBRANCH  21  22
ENDBRANCH  20  21
ENDBRANCH  19  20
ENDBRANCH  18  19
ENDBRANCH   1  18
TORSDOF 28
ENDMDL
MODEL 2
REMARK VINA RESULT:     0.148      1.436      4.496
REMARK INTER + INTRA:          -3.606
REMARK INTER:                  -2.732
REMARK INTRA:                  -0.874
REMARK UNBOUND:                -3.996
REMARK SMILES CCCCCCCCCCCCCCCCCCCCCCCCCCCCCC(=O)[O-]
REMARK SMILES IDX 16 1 17 2 18 3 19 4 20 5 21 6 22 7 23 8 24 9 25 10 26 11
REMARK SMILES IDX 27 12 28 13 29 14 30 15 31 16 32 17 15 18 14 19 13 20 12 21
REMARK SMILES IDX 11 22 10 23 9 24 8 25 7 26 6 27 5 28 4 29 3 30 2 31 1 32
REMARK H PARENT
REMARK Flexibility Score: inf
ROOT
ATOM      1  C   UNL     1       9.696 -28.799  17.271  1.00  0.00     0.000 C 
ENDROOT
BRANCH   1   2
ATOM      2  C   UNL     1       8.708 -28.125  18.244  1.00  0.00     0.000 C 
BRANCH   2   3
ATOM      3  C   UNL     1       8.128 -29.110  19.269  1.00  0.00     0.000 C 
BRANCH   3   4
ATOM      4  C   UNL     1       6.889 -29.854  18.743  1.00  0.00     0.000 C 
BRANCH   4   5
ATOM      5  C   UNL     1       5.875 -28.918  18.060  1.00  0.00     0.000 C 
BRANCH   5   6
ATOM      6  C   UNL     1       5.936 -28.907  16.520  1.00  0.00     0.000 C 
BRANCH   6   7
ATOM      7  C   UNL     1       6.017 -30.316  15.913  1.00  0.00     0.000 C 
BRANCH   7   8
ATOM      8  C   UNL     1       6.808 -30.304  14.597  1.00  0.00     0.000 C 
BRANCH   8   9
ATOM      9  C   UNL     1       5.934 -30.629  13.372  1.00  0.00     0.000 C 
BRANCH   9  10
ATOM     10  C   UNL     1       6.650 -30.404  12.025  1.00  0.00     0.000 C 
BRANCH  10  11
ATOM     11  C   UNL     1       7.366 -29.041  11.965  1.00  0.00     0.000 C 
BRANCH  11  12
ATOM     12  C   UNL     1       8.898 -29.180  11.939  1.00  0.00     0.000 C 
BRANCH  12  13
ATOM     13  C   UNL     1       9.497 -29.398  13.340  1.00  0.00     0.006 C 
BRANCH  13  14
ATOM     14  C   UNL     1      10.995 -29.728  13.285  1.00  0.00     0.053 C 
BRANCH  14  15
ATOM     15  C   UNL     1      11.812 -28.790  14.122  1.00  0.00     0.041 C 
ATOM     16  O   UNL     1      11.268 -28.121  15.039  1.00  0.00    -0.550 OA
ATOM     17  O   UNL     1      13.177 -28.666  13.894  1.00  0.00    -0.550 OA
ENDBRANCH  14  15
ENDBRANCH  13  14
ENDBRANCH  12  13
ENDBRANCH  11  12
ENDBRANCH  10  11
ENDBRANCH   9  10
ENDBRANCH   8   9
ENDBRANCH   7   8
ENDBRANCH   6   7
ENDBRANCH   5   6
ENDBRANCH   4   5
ENDBRANCH   3   4
ENDBRANCH   2   3
ENDBRANCH   1   2
BRANCH   1  18
ATOM     18  C   UNL     1       9.057 -29.938  16.449  1.00  0.00     0.000 C 
BRANCH  18  19
ATOM     19  C   UNL     1       9.420 -31.352  16.941  1.00  0.00     0.000 C 
BRANCH  19  20
ATOM     20  C   UNL     1       8.574 -32.493  16.344  1.00  0.00     0.000 C 
BRANCH  20  21
ATOM     21  C   UNL     1       8.325 -33.688  17.286  1.00  0.00     0.000 C 
BRANCH  21  22
ATOM     22  C   UNL     1       6.938 -34.346  17.150  1.00  0.00     0.000 C 
BRANCH  22  23
ATOM     23  C   UNL     1       5.875 -33.477  16.454  1.00  0.00     0.000 C 
BRANCH  23  24
ATOM     24  C   UNL     1       5.913 -33.505  14.912  1.00  0.00    -0.000 C 
BRANCH  24  25
ATOM     25  C   UNL     1       5.938 -34.907  14.263  1.00  0.00    -0.000 C 
BRANCH  25  26
ATOM     26  C   UNL     1       5.896 -34.922  12.719  1.00  0.00    -0.000 C 
BRANCH  26  27
ATOM     27  C   UNL     1       7.219 -34.522  12.043  1.00  0.00    -0.000 C 
BRANCH  27  28
ATOM     28  C   UNL     1       8.238 -33.917  13.023  1.00  0.00    -0.000 C 
BRANCH  28  29
ATOM     29  C   UNL     1       9.273 -33.019  12.321  1.00  0.00    -0.000 C 
BRANCH  29  30
ATOM     30  C   UNL     1      10.615 -33.715  12.023  1.00  0.00    -0.000 C 
BRANCH  30  31
ATOM     31  C   UNL     1      11.723 -33.317  13.012  1.00  0.00    -0.003 C 
ATOM     32  C   UNL     1      12.227 -34.528  13.792  1.00  0.00     0.004 C 
ENDBRANCH  30  31
ENDBRANCH  29  30
ENDBRANCH  28  29
ENDBRANCH  27  28
ENDBRANCH  26  27
ENDBRANCH  25  26
ENDBRANCH  24  25
ENDBRANCH  23  24
ENDBRANCH  22  23
ENDBRANCH  21  22
ENDBRANCH  20  21
ENDBRANCH  19  20
ENDBRANCH  18  19
ENDBRANCH   1  18
TORSDOF 28
ENDMDL
MODEL 3
REMARK VINA RESULT:     1.030      2.764      6.610
REMARK INTER + INTRA:          -1.280
REMARK INTER:                   0.538
REMARK INTRA:                  -1.819
REMARK UNBOUND:                -3.996
REMARK SMILES CCCCCCCCCCCCCCCCCCCCCCCCCCCCCC(=O)[O-]
REMARK SMILES IDX 16 1 17 2 18 3 19 4 20 5 21 6 22 7 23 8 24 9 25 10 26 11
REMARK SMILES IDX 27 12 28 13 29 14 30 15 31 16 32 17 15 18 14 19 13 20 12 21
REMARK SMILES IDX 11 22 10 23 9 24 8 25 7 26 6 27 5 28 4 29 3 30 2 31 1 32
REMARK H PARENT
REMARK Flexibility Score: inf
ROOT
ATOM      1  C   UNL     1       8.299 -29.174  18.012  1.00  0.00     0.000 C 
ENDROOT
BRANCH   1   2
ATOM      2  C   UNL     1       8.007 -29.464  16.525  1.00  0.00     0.000 C 
BRANCH   2   3
ATOM      3  C   UNL     1       6.528 -29.786  16.268  1.00  0.00     0.000 C 
BRANCH   3   4
ATOM      4  C   UNL     1       6.221 -30.030  14.782  1.00  0.00     0.000 C 
BRANCH   4   5
ATOM      5  C   UNL     1       7.440 -29.785  13.873  1.00  0.00     0.000 C 
BRANCH   5   6
ATOM      6  C   UNL     1       7.165 -29.931  12.363  1.00  0.00     0.000 C 
BRANCH   6   7
ATOM      7  C   UNL     1       6.006 -30.890  12.054  1.00  0.00     0.000 C 
BRANCH   7   8
ATOM      8  C   UNL     1       6.366 -32.331  12.441  1.00  0.00     0.000 C 
BRANCH   8   9
ATOM      9  C   UNL     1       7.734 -32.773  11.891  1.00  0.00     0.000 C 
BRANCH   9  10
ATOM     10  C   UNL     1       7.974 -34.294  11.977  1.00  0.00     0.000 C 
BRANCH  10  11
ATOM     11  C   UNL     1       6.662 -35.082  12.154  1.00  0.00     0.000 C 
BRANCH  11  12
ATOM     12  C   UNL     1       5.912 -34.700  13.441  1.00  0.00     0.000 C 
BRANCH  12  13
ATOM     13  C   UNL     1       6.757 -34.924  14.708  1.00  0.00     0.006 C 
BRANCH  13  14
ATOM     14  C   UNL     1       6.872 -33.653  15.560  1.00  0.00     0.053 C 
BRANCH  14  15
ATOM     15  C   UNL     1       6.709 -33.935  17.023  1.00  0.00     0.041 C 
ATOM     16  O   UNL     1       6.207 -35.025  17.407  1.00  0.00    -0.550 OA
ATOM     17  O   UNL     1       7.121 -32.997  17.962  1.00  0.00    -0.550 OA
ENDBRANCH  14  15
ENDBRANCH  13  14
ENDBRANCH  12  13
ENDBRANCH  11  12
ENDBRANCH  10  11
ENDBRANCH   9  10
ENDBRANCH   8   9
ENDBRANCH   7   8
ENDBRANCH   6   7
ENDBRANCH   5   6
ENDBRANCH   4   5
ENDBRANCH   3   4
ENDBRANCH   2   3
ENDBRANCH   1   2
BRANCH   1  18
ATOM     18  C   UNL     1       9.593 -28.363  18.228  1.00  0.00     0.000 C 
BRANCH  18  19
ATOM     19  C   UNL     1       9.897 -27.348  17.110  1.00  0.00     0.000 C 
BRANCH  19  20
ATOM     20  C   UNL     1      11.353 -27.340  16.608  1.00  0.00     0.000 C 
BRANCH  20  21
ATOM     21  C   UNL     1      11.689 -28.409  15.548  1.00  0.00     0.000 C 
BRANCH  21  22
ATOM     22  C   UNL     1      10.710 -28.477  14.359  1.00  0.00     0.000 C 
BRANCH  22  23
ATOM     23  C   UNL     1      10.577 -29.867  13.710  1.00  0.00     0.000 C 
BRANCH  23  24
ATOM     24  C   UNL     1      11.670 -30.215  12.677  1.00  0.00    -0.000 C 
BRANCH  24  25
ATOM     25  C   UNL     1      11.643 -31.658  12.127  1.00  0.00    -0.000 C 
BRANCH  25  26
ATOM     26  C   UNL     1      12.880 -32.520  12.468  1.00  0.00    -0.000 C 
BRANCH  26  27
ATOM     27  C   UNL     1      12.843 -33.942  11.885  1.00  0.00    -0.000 C 
BRANCH  27  28
ATOM     28  C   UNL     1      12.005 -34.919  12.727  1.00  0.00    -0.000 C 
BRANCH  28  29
ATOM     29  C   UNL     1      11.749 -34.403  14.154  1.00  0.00    -0.000 C 
BRANCH  29  30
ATOM     30  C   UNL     1      10.271 -34.094  14.458  1.00  0.00    -0.000 C 
BRANCH  30  31
ATOM     31  C   UNL     1      10.002 -32.591  14.639  1.00  0.00    -0.003 C 
ATOM     32  C   UNL     1       9.710 -32.255  16.099  1.00  0.00     0.004 C 
ENDBRANCH  30  31
ENDBRANCH  29  30
ENDBRANCH  28  29
ENDBRANCH  27  28
ENDBRANCH  26  27
ENDBRANCH  25  26
ENDBRANCH  24  25
ENDBRANCH  23  24
ENDBRANCH  22  23
ENDBRANCH  21  22
ENDBRANCH  20  21
ENDBRANCH  19  20
ENDBRANCH  18  19
ENDBRANCH   1  18
TORSDOF 28
ENDMDL
MODEL 4
REMARK VINA RESULT:     1.438      1.452      4.172
REMARK INTER + INTRA:          -0.203
REMARK INTER:                   0.555
REMARK INTRA:                  -0.758
REMARK UNBOUND:                -3.996
REMARK SMILES CCCCCCCCCCCCCCCCCCCCCCCCCCCCCC(=O)[O-]
REMARK SMILES IDX 16 1 17 2 18 3 19 4 20 5 21 6 22 7 23 8 24 9 25 10 26 11
REMARK SMILES IDX 27 12 28 13 29 14 30 15 31 16 32 17 15 18 14 19 13 20 12 21
REMARK SMILES IDX 11 22 10 23 9 24 8 25 7 26 6 27 5 28 4 29 3 30 2 31 1 32
REMARK H PARENT
REMARK Flexibility Score: inf
ROOT
ATOM      1  C   UNL     1       7.829 -30.887  15.941  1.00  0.00     0.000 C 
ENDROOT
BRANCH   1   2
ATOM      2  C   UNL     1       6.672 -30.910  16.961  1.00  0.00     0.000 C 
BRANCH   2   3
ATOM      3  C   UNL     1       5.913 -29.577  17.020  1.00  0.00     0.000 C 
BRANCH   3   4
ATOM      4  C   UNL     1       6.011 -28.897  18.395  1.00  0.00     0.000 C 
BRANCH   4   5
ATOM      5  C   UNL     1       7.028 -29.580  19.328  1.00  0.00     0.000 C 
BRANCH   5   6
ATOM      6  C   UNL     1       8.504 -29.409  18.917  1.00  0.00     0.000 C 
BRANCH   6   7
ATOM      7  C   UNL     1       8.833 -27.985  18.441  1.00  0.00     0.000 C 
BRANCH   7   8
ATOM      8  C   UNL     1      10.120 -27.968  17.605  1.00  0.00     0.000 C 
BRANCH   8   9
ATOM      9  C   UNL     1      10.162 -29.091  16.552  1.00  0.00     0.000 C 
BRANCH   9  10
ATOM     10  C   UNL     1       9.686 -28.645  15.154  1.00  0.00     0.000 C 
BRANCH  10  11
ATOM     11  C   UNL     1      10.846 -28.137  14.277  1.00  0.00     0.000 C 
BRANCH  11  12
ATOM     12  C   UNL     1      12.126 -28.972  14.448  1.00  0.00     0.000 C 
BRANCH  12  13
ATOM     13  C   UNL     1      13.378 -28.255  13.912  1.00  0.00     0.006 C 
BRANCH  13  14
ATOM     14  C   UNL     1      14.225 -27.647  15.039  1.00  0.00     0.053 C 
BRANCH  14  15
ATOM     15  C   UNL     1      14.793 -26.313  14.662  1.00  0.00     0.041 C 
ATOM     16  O   UNL     1      14.744 -25.916  13.468  1.00  0.00    -0.550 OA
ATOM     17  O   UNL     1      15.367 -25.503  15.635  1.00  0.00    -0.550 OA
ENDBRANCH  14  15
ENDBRANCH  13  14
ENDBRANCH  12  13
ENDBRANCH  11  12
ENDBRANCH  10  11
ENDBRANCH   9  10
ENDBRANCH   8   9
ENDBRANCH   7   8
ENDBRANCH   6   7
ENDBRANCH   5   6
ENDBRANCH   4   5
ENDBRANCH   3   4
ENDBRANCH   2   3
ENDBRANCH   1   2
BRANCH   1  18
ATOM     18  C   UNL     1       8.717 -32.147  16.002  1.00  0.00     0.000 C 
BRANCH  18  19
ATOM     19  C   UNL     1       7.932 -33.472  16.041  1.00  0.00     0.000 C 
BRANCH  19  20
ATOM     20  C   UNL     1       7.695 -34.136  14.672  1.00  0.00     0.000 C 
BRANCH  20  21
ATOM     21  C   UNL     1       6.219 -34.418  14.325  1.00  0.00     0.000 C 
BRANCH  21  22
ATOM     22  C   UNL     1       5.902 -34.465  12.818  1.00  0.00     0.000 C 
BRANCH  22  23
ATOM     23  C   UNL     1       6.000 -33.110  12.094  1.00  0.00     0.000 C 
BRANCH  23  24
ATOM     24  C   UNL     1       6.693 -31.988  12.895  1.00  0.00    -0.000 C 
BRANCH  24  25
ATOM     25  C   UNL     1       7.527 -30.985  12.068  1.00  0.00    -0.000 C 
BRANCH  25  26
ATOM     26  C   UNL     1       8.831 -30.497  12.739  1.00  0.00    -0.000 C 
BRANCH  26  27
ATOM     27  C   UNL     1      10.093 -30.672  11.876  1.00  0.00    -0.000 C 
BRANCH  27  28
ATOM     28  C   UNL     1      10.723 -32.069  12.004  1.00  0.00    -0.000 C 
BRANCH  28  29
ATOM     29  C   UNL     1       9.670 -33.184  12.135  1.00  0.00    -0.000 C 
BRANCH  29  30
ATOM     30  C   UNL     1       9.986 -34.226  13.225  1.00  0.00    -0.000 C 
BRANCH  30  31
ATOM     31  C   UNL     1      11.410 -34.085  13.788  1.00  0.00    -0.003 C 
ATOM     32  C   UNL     1      12.391 -34.979  13.035  1.00  0.00     0.004 C 
ENDBRANCH  30  31
ENDBRANCH  29  30
ENDBRANCH  28  29
ENDBRANCH  27  28
ENDBRANCH  26  27
ENDBRANCH  25  26
ENDBRANCH  24  25
ENDBRANCH  23  24
ENDBRANCH  22  23
ENDBRANCH  21  22
ENDBRANCH  20  21
ENDBRANCH  19  20
ENDBRANCH  18  19
ENDBRANCH   1  18
TORSDOF 28
ENDMDL
MODEL 5
REMARK VINA RESULT:     1.482      1.493      3.983
REMARK INTER + INTRA:          -0.088
REMARK INTER:                  -1.881
REMARK INTRA:                   1.792
REMARK UNBOUND:                -3.996
REMARK SMILES CCCCCCCCCCCCCCCCCCCCCCCCCCCCCC(=O)[O-]
REMARK SMILES IDX 16 1 17 2 18 3 19 4 20 5 21 6 22 7 23 8 24 9 25 10 26 11
REMARK SMILES IDX 27 12 28 13 29 14 30 15 31 16 32 17 15 18 14 19 13 20 12 21
REMARK SMILES IDX 11 22 10 23 9 24 8 25 7 26 6 27 5 28 4 29 3 30 2 31 1 32
REMARK H PARENT
REMARK Flexibility Score: inf
ROOT
ATOM      1  C   UNL     1       8.499 -30.056  15.098  1.00  0.00     0.000 C 
ENDROOT
BRANCH   1   2
ATOM      2  C   UNL     1       8.519 -30.962  16.346  1.00  0.00     0.000 C 
BRANCH   2   3
ATOM      3  C   UNL     1       7.305 -31.901  16.410  1.00  0.00     0.000 C 
BRANCH   3   4
ATOM      4  C   UNL     1       5.971 -31.143  16.509  1.00  0.00     0.000 C 
BRANCH   4   5
ATOM      5  C   UNL     1       6.138 -29.708  17.042  1.00  0.00     0.000 C 
BRANCH   5   6
ATOM      6  C   UNL     1       6.341 -29.600  18.567  1.00  0.00     0.000 C 
BRANCH   6   7
ATOM      7  C   UNL     1       7.716 -30.109  19.027  1.00  0.00     0.000 C 
BRANCH   7   8
ATOM      8  C   UNL     1       8.424 -29.066  19.903  1.00  0.00     0.000 C 
BRANCH   8   9
ATOM      9  C   UNL     1       9.614 -28.397  19.191  1.00  0.00     0.000 C 
BRANCH   9  10
ATOM     10  C   UNL     1       9.511 -28.431  17.652  1.00  0.00     0.000 C 
BRANCH  10  11
ATOM     11  C   UNL     1      10.753 -27.826  16.970  1.00  0.00     0.000 C 
BRANCH  11  12
ATOM     12  C   UNL     1      11.088 -28.514  15.636  1.00  0.00     0.000 C 
BRANCH  12  13
ATOM     13  C   UNL     1      11.935 -27.624  14.707  1.00  0.00     0.006 C 
BRANCH  13  14
ATOM     14  C   UNL     1      13.415 -28.029  14.708  1.00  0.00     0.053 C 
BRANCH  14  15
ATOM     15  C   UNL     1      14.292 -26.968  14.116  1.00  0.00     0.041 C 
ATOM     16  O   UNL     1      14.174 -26.651  12.902  1.00  0.00    -0.550 OA
ATOM     17  O   UNL     1      15.232 -26.322  14.909  1.00  0.00    -0.550 OA
ENDBRANCH  14  15
ENDBRANCH  13  14
ENDBRANCH  12  13
ENDBRANCH  11  12
ENDBRANCH  10  11
ENDBRANCH   9  10
ENDBRANCH   8   9
ENDBRANCH   7   8
ENDBRANCH   6   7
ENDBRANCH   5   6
ENDBRANCH   4   5
ENDBRANCH   3   4
ENDBRANCH   2   3
ENDBRANCH   1   2
BRANCH   1  18
ATOM     18  C   UNL     1       7.075 -29.769  14.579  1.00  0.00     0.000 C 
BRANCH  18  19
ATOM     19  C   UNL     1       7.001 -29.467  13.070  1.00  0.00     0.000 C 
BRANCH  19  20
ATOM     20  C   UNL     1       6.245 -30.511  12.227  1.00  0.00     0.000 C 
BRANCH  20  21
ATOM     21  C   UNL     1       6.857 -31.926  12.230  1.00  0.00     0.000 C 
BRANCH  21  22
ATOM     22  C   UNL     1       6.100 -32.962  13.083  1.00  0.00     0.000 C 
BRANCH  22  23
ATOM     23  C   UNL     1       6.210 -34.415  12.585  1.00  0.00     0.000 C 
BRANCH  23  24
ATOM     24  C   UNL     1       7.541 -35.123  12.917  1.00  0.00    -0.000 C 
BRANCH  24  25
ATOM     25  C   UNL     1       8.374 -34.493  14.055  1.00  0.00    -0.000 C 
BRANCH  25  26
ATOM     26  C   UNL     1       9.843 -34.170  13.699  1.00  0.00    -0.000 C 
BRANCH  26  27
ATOM     27  C   UNL     1      10.450 -35.083  12.621  1.00  0.00    -0.000 C 
BRANCH  27  28
ATOM     28  C   UNL     1      11.940 -34.802  12.360  1.00  0.00    -0.000 C 
BRANCH  28  29
ATOM     29  C   UNL     1      12.230 -33.307  12.135  1.00  0.00    -0.000 C 
BRANCH  29  30
ATOM     30  C   UNL     1      10.975 -32.452  11.875  1.00  0.00    -0.000 C 
BRANCH  30  31
ATOM     31  C   UNL     1      11.269 -30.943  11.900  1.00  0.00    -0.003 C 
ATOM     32  C   UNL     1      10.109 -30.165  12.516  1.00  0.00     0.004 C 
ENDBRANCH  30  31
ENDBRANCH  29  30
ENDBRANCH  28  29
ENDBRANCH  27  28
ENDBRANCH  26  27
ENDBRANCH  25  26
ENDBRANCH  24  25
ENDBRANCH  23  24
ENDBRANCH  22  23
ENDBRANCH  21  22
ENDBRANCH  20  21
ENDBRANCH  19  20
ENDBRANCH  18  19
ENDBRANCH   1  18
TORSDOF 28
ENDMDL
