MODEL 1
REMARK VINA RESULT:    -2.936      0.000      0.000
REMARK INTER + INTRA:          -3.194
REMARK INTER:                  -3.194
REMARK INTRA:                   0.000
REMARK UNBOUND:                 0.000
REMARK SMILES [NH3+]CC(=O)[O-]
REMARK SMILES IDX 2 1 1 2 3 6 4 7 5 8
REMARK H PARENT 1 3 1 4 1 5
REMARK Flexibility Score: inf
ROOT
ATOM      1  C   UNL     1      17.922  18.607   8.809  1.00  0.00     0.312 C 
ENDROOT
BRANCH   1   2
ATOM      2  N   UNL     1      18.781  19.347   7.885  1.00  0.00    -0.353 N 
ATOM      3  H   UNL     1      18.839  20.351   8.175  1.00  0.00     0.344 HD
ATOM      4  H   UNL     1      19.739  18.927   7.872  1.00  0.00     0.344 HD
ATOM      5  H   UNL     1      18.375  19.295   6.924  1.00  0.00     0.344 HD
ENDBRANCH   1   2
BRANCH   1   6
ATOM      6  C   UNL     1      18.720  17.606   9.584  1.00  0.00     0.096 C 
ATOM      7  O   UNL     1      19.602  17.991  10.396  1.00  0.00    -0.544 OA
ATOM      8  O   UNL     1      18.526  16.247   9.373  1.00  0.00    -0.544 OA
ENDBRANCH   1   6
TORSDOF 2
ENDMDL
MODEL 2
REMARK VINA RESULT:    -2.901      0.215      1.453
REMARK INTER + INTRA:          -3.155
REMARK INTER:                  -3.155
REMARK INTRA:                   0.000
REMARK UNBOUND:                 0.000
REMARK SMILES [NH3+]CC(=O)[O-]
REMARK SMILES IDX 2 1 1 2 3 6 4 7 5 8
REMARK H PARENT 1 3 1 4 1 5
REMARK Flexibility Score: inf
ROOT
ATOM      1  C   UNL     1      17.943  18.576   8.888  1.00  0.00     0.312 C 
ENDROOT
BRANCH   1   2
ATOM      2  N   UNL     1      18.831  19.245   7.938  1.00  0.00    -0.353 N 
ATOM      3  H   UNL     1      19.398  18.537   7.417  1.00  0.00     0.344 HD
ATOM      4  H   UNL     1      18.269  19.815   7.264  1.00  0.00     0.344 HD
ATOM      5  H   UNL     1      19.476  19.879   8.461  1.00  0.00     0.344 HD
ENDBRANCH   1   2
BRANCH   1   6
ATOM      6  C   UNL     1      18.700  17.573   9.702  1.00  0.00     0.096 C 
ATOM      7  O   UNL     1      18.611  16.346   9.437  1.00  0.00    -0.544 OA
ATOM      8  O   UNL     1      19.462  17.989  10.785  1.00  0.00    -0.544 OA
ENDBRANCH   1   6
TORSDOF 2
ENDMDL
MODEL 3
REMARK VINA RESULT:    -2.535      2.333      2.792
REMARK INTER + INTRA:          -2.758
REMARK INTER:                  -2.758
REMARK INTRA:                   0.000
REMARK UNBOUND:                 0.000
REMARK SMILES [NH3+]CC(=O)[O-]
REMARK SMILES IDX 2 1 1 2 3 6 4 7 5 8
REMARK H PARENT 1 3 1 4 1 5
REMARK Flexibility Score: inf
ROOT
ATOM      1  C   UNL     1      18.252  17.633  11.376  1.00  0.00     0.312 C 
ENDROOT
BRANCH   1   2
ATOM      2  N   UNL     1      19.423  17.904  12.208  1.00  0.00    -0.353 N 
ATOM      3  H   UNL     1      20.075  17.086  12.187  1.00  0.00     0.344 HD
ATOM      4  H   UNL     1      19.917  18.760  11.864  1.00  0.00     0.344 HD
ATOM      5  H   UNL     1      19.113  18.066  13.193  1.00  0.00     0.344 HD
ENDBRANCH   1   2
BRANCH   1   6
ATOM      6  C   UNL     1      18.651  17.465   9.942  1.00  0.00     0.096 C 
ATOM      7  O   UNL     1      18.796  16.312   9.457  1.00  0.00    -0.544 OA
ATOM      8  O   UNL     1      18.911  18.580   9.157  1.00  0.00    -0.544 OA
ENDBRANCH   1   6
TORSDOF 2
ENDMDL
MODEL 4
REMARK VINA RESULT:    -2.399      6.466      6.752
REMARK INTER + INTRA:          -2.609
REMARK INTER:                  -2.609
REMARK INTRA:                   0.000
REMARK UNBOUND:                 0.000
REMARK SMILES [NH3+]CC(=O)[O-]
REMARK SMILES IDX 2 1 1 2 3 6 4 7 5 8
REMARK H PARENT 1 3 1 4 1 5
REMARK Flexibility Score: inf
ROOT
ATOM      1  C   UNL     1      21.350  23.730   5.324  1.00  0.00     0.312 C 
ENDROOT
BRANCH   1   2
ATOM      2  N   UNL     1      22.527  24.173   4.579  1.00  0.00    -0.353 N 
ATOM      3  H   UNL     1      23.259  23.425   4.587  1.00  0.00     0.344 HD
ATOM      4  H   UNL     1      22.262  24.400   3.592  1.00  0.00     0.344 HD
ATOM      5  H   UNL     1      22.915  25.032   5.031  1.00  0.00     0.344 HD
ENDBRANCH   1   2
BRANCH   1   6
ATOM      6  C   UNL     1      21.622  22.430   6.016  1.00  0.00     0.096 C 
ATOM      7  O   UNL     1      22.748  22.211   6.533  1.00  0.00    -0.544 OA
ATOM      8  O   UNL     1      20.648  21.440   6.044  1.00  0.00    -0.544 OA
ENDBRANCH   1   6
TORSDOF 2
ENDMDL
MODEL 5
REMARK VINA RESULT:    -2.379      2.397      2.887
REMARK INTER + INTRA:          -2.587
REMARK INTER:                  -2.587
REMARK INTRA:                   0.000
REMARK UNBOUND:                 0.000
REMARK SMILES [NH3+]CC(=O)[O-]
REMARK SMILES IDX 2 1 1 2 3 6 4 7 5 8
REMARK H PARENT 1 3 1 4 1 5
REMARK Flexibility Score: inf
ROOT
ATOM      1  C   UNL     1      18.760  17.457   9.514  1.00  0.00     0.312 C 
ENDROOT
BRANCH   1   2
ATOM      2  N   UNL     1      18.394  17.536  10.927  1.00  0.00    -0.353 N 
ATOM      3  H   UNL     1      18.185  16.579  11.298  1.00  0.00     0.344 HD
ATOM      4  H   UNL     1      19.174  17.966  11.476  1.00  0.00     0.344 HD
ATOM      5  H   UNL     1      17.542  18.132  11.027  1.00  0.00     0.344 HD
ENDBRANCH   1   2
BRANCH   1   6
ATOM      6  C   UNL     1      18.125  18.571   8.741  1.00  0.00     0.096 C 
ATOM      7  O   UNL     1      16.929  18.476   8.360  1.00  0.00    -0.544 OA
ATOM      8  O   UNL     1      18.870  19.691   8.397  1.00  0.00    -0.544 OA
ENDBRANCH   1   6
TORSDOF 2
ENDMDL
MODEL 6
REMARK VINA RESULT:    -2.359     11.703     11.865
REMARK INTER + INTRA:          -2.565
REMARK INTER:                  -2.565
REMARK INTRA:                   0.000
REMARK UNBOUND:                 0.000
REMARK SMILES [NH3+]CC(=O)[O-]
REMARK SMILES IDX 2 1 1 2 3 6 4 7 5 8
REMARK H PARENT 1 3 1 4 1 5
REMARK Flexibility Score: inf
ROOT
ATOM      1  C   UNL     1      21.473  26.415  16.651  1.00  0.00     0.312 C 
ENDROOT
BRANCH   1   2
ATOM      2  N   UNL     1      21.388  25.306  15.702  1.00  0.00    -0.353 N 
ATOM      3  H   UNL     1      22.015  24.525  16.005  1.00  0.00     0.344 HD
ATOM      4  H   UNL     1      20.401  24.964  15.638  1.00  0.00     0.344 HD
ATOM      5  H   UNL     1      21.692  25.639  14.759  1.00  0.00     0.344 HD
ENDBRANCH   1   2
BRANCH   1   6
ATOM      6  C   UNL     1      21.512  25.904  18.058  1.00  0.00     0.096 C 
ATOM      7  O   UNL     1      22.554  25.354  18.503  1.00  0.00    -0.544 OA
ATOM      8  O   UNL     1      20.382  25.989  18.860  1.00  0.00    -0.544 OA
ENDBRANCH   1   6
TORSDOF 2
ENDMDL
MODEL 7
REMARK VINA RESULT:    -2.334      8.577      9.145
REMARK INTER + INTRA:          -2.539
REMARK INTER:                  -2.539
REMARK INTRA:                   0.000
REMARK UNBOUND:                 0.000
REMARK SMILES [NH3+]CC(=O)[O-]
REMARK SMILES IDX 2 1 1 2 3 6 4 7 5 8
REMARK H PARENT 1 3 1 4 1 5
REMARK Flexibility Score: inf
ROOT
ATOM      1  C   UNL     1      22.080  25.759  12.077  1.00  0.00     0.312 C 
ENDROOT
BRANCH   1   2
ATOM      2  N   UNL     1      22.580  24.529  12.690  1.00  0.00    -0.353 N 
ATOM      3  H   UNL     1      23.402  24.742  13.302  1.00  0.00     0.344 HD
ATOM      4  H   UNL     1      21.825  24.077  13.254  1.00  0.00     0.344 HD
ATOM      5  H   UNL     1      22.880  23.870  11.937  1.00  0.00     0.344 HD
ENDBRANCH   1   2
BRANCH   1   6
ATOM      6  C   UNL     1      22.492  25.838  10.639  1.00  0.00     0.096 C 
ATOM      7  O   UNL     1      22.209  24.901   9.847  1.00  0.00    -0.544 OA
ATOM      8  O   UNL     1      23.233  26.922  10.187  1.00  0.00    -0.544 OA
ENDBRANCH   1   6
TORSDOF 2
ENDMDL
MODEL 8
REMARK VINA RESULT:    -2.316      8.601      9.119
REMARK INTER + INTRA:          -2.520
REMARK INTER:                  -2.520
REMARK INTRA:                   0.000
REMARK UNBOUND:                 0.000
REMARK SMILES [NH3+]CC(=O)[O-]
REMARK SMILES IDX 2 1 1 2 3 6 4 7 5 8
REMARK H PARENT 1 3 1 4 1 5
REMARK Flexibility Score: inf
ROOT
ATOM      1  C   UNL     1      21.998  25.475  11.856  1.00  0.00     0.312 C 
ENDROOT
BRANCH   1   2
ATOM      2  N   UNL     1      22.507  24.402  11.004  1.00  0.00    -0.353 N 
ATOM      3  H   UNL     1      21.722  23.776  10.708  1.00  0.00     0.344 HD
ATOM      4  H   UNL     1      22.975  24.807  10.160  1.00  0.00     0.344 HD
ATOM      5  H   UNL     1      23.205  23.841  11.541  1.00  0.00     0.344 HD
ENDBRANCH   1   2
BRANCH   1   6
ATOM      6  C   UNL     1      22.567  25.367  13.237  1.00  0.00     0.096 C 
ATOM      7  O   UNL     1      21.975  24.685  14.114  1.00  0.00    -0.544 OA
ATOM      8  O   UNL     1      23.722  26.063  13.570  1.00  0.00    -0.544 OA
ENDBRANCH   1   6
TORSDOF 2
ENDMDL
MODEL 9
REMARK VINA RESULT:    -2.230     11.623     11.938
REMARK INTER + INTRA:          -2.425
REMARK INTER:                  -2.425
REMARK INTRA:                   0.000
REMARK UNBOUND:                 0.000
REMARK SMILES [NH3+]CC(=O)[O-]
REMARK SMILES IDX 2 1 1 2 3 6 4 7 5 8
REMARK H PARENT 1 3 1 4 1 5
REMARK Flexibility Score: inf
ROOT
ATOM      1  C   UNL     1      19.145  26.887  16.674  1.00  0.00     0.312 C 
ENDROOT
BRANCH   1   2
ATOM      2  N   UNL     1      19.930  25.987  15.829  1.00  0.00    -0.353 N 
ATOM      3  H   UNL     1      19.704  26.155  14.821  1.00  0.00     0.344 HD
ATOM      4  H   UNL     1      20.951  26.140  15.995  1.00  0.00     0.344 HD
ATOM      5  H   UNL     1      19.692  24.999  16.070  1.00  0.00     0.344 HD
ENDBRANCH   1   2
BRANCH   1   6
ATOM      6  C   UNL     1      19.071  26.365  18.075  1.00  0.00     0.096 C 
ATOM      7  O   UNL     1      19.988  25.629  18.526  1.00  0.00    -0.544 OA
ATOM      8  O   UNL     1      17.965  26.648  18.865  1.00  0.00    -0.544 OA
ENDBRANCH   1   6
TORSDOF 2
ENDMDL
