MODEL 1
REMARK VINA RESULT:    -5.351      0.000      0.000
REMARK INTER + INTRA:          -6.282
REMARK INTER:                  -6.133
REMARK INTRA:                  -0.148
REMARK UNBOUND:                -0.148
REMARK SMILES O=C([O-])C=Cc1ccc(O)cc1
REMARK SMILES IDX 6 1 7 2 12 3 8 4 11 5 9 6 5 7 4 8 2 9 1 10 3 11 10 12
REMARK H PARENT 10 13
REMARK Flexibility Score: inf
ROOT
ATOM      1  C   UNL     1      -1.419 -22.523  49.314  1.00  0.00    -0.025 A 
ATOM      2  C   UNL     1      -0.405 -21.798  48.655  1.00  0.00     0.012 A 
ATOM      3  C   UNL     1      -1.147 -23.073  50.578  1.00  0.00     0.012 A 
ATOM      4  C   UNL     1       0.839 -21.612  49.263  1.00  0.00     0.047 A 
ATOM      5  C   UNL     1       0.099 -22.884  51.183  1.00  0.00     0.047 A 
ATOM      6  C   UNL     1       1.094 -22.152  50.531  1.00  0.00     0.115 A 
ENDROOT
BRANCH   1   7
ATOM      7  C   UNL     1      -2.754 -22.761  48.709  1.00  0.00     0.010 C 
ATOM      8  C   UNL     1      -3.854 -23.050  49.419  1.00  0.00     0.025 C 
BRANCH   8   9
ATOM      9  C   UNL     1      -5.159 -23.291  48.782  1.00  0.00     0.064 C 
ATOM     10  O   UNL     1      -5.618 -24.458  48.654  1.00  0.00    -0.545 OA
ATOM     11  O   UNL     1      -5.898 -22.213  48.311  1.00  0.00    -0.545 OA
ENDBRANCH   8   9
ENDBRANCH   1   7
BRANCH   6  12
ATOM     12  O   UNL     1       2.331 -21.970  51.146  1.00  0.00    -0.508 OA
ATOM     13  H   UNL     1       3.152 -21.704  50.615  1.00  0.00     0.293 HD
ENDBRANCH   6  12
TORSDOF 3
ENDMDL
MODEL 2
REMARK VINA RESULT:    -5.347      3.068      4.498
REMARK INTER + INTRA:          -6.277
REMARK INTER:                  -6.126
REMARK INTRA:                  -0.151
REMARK UNBOUND:                -0.148
REMARK SMILES O=C([O-])C=Cc1ccc(O)cc1
REMARK SMILES IDX 6 1 7 2 12 3 8 4 11 5 9 6 5 7 4 8 2 9 1 10 3 11 10 12
REMARK H PARENT 10 13
REMARK Flexibility Score: inf
ROOT
ATOM      1  C   UNL     1      -4.800 -22.300  48.442  1.00  0.00    -0.025 A 
ATOM      2  C   UNL     1      -5.170 -23.573  48.923  1.00  0.00     0.012 A 
ATOM      3  C   UNL     1      -3.590 -21.736  48.879  1.00  0.00     0.012 A 
ATOM      4  C   UNL     1      -4.332 -24.268  49.800  1.00  0.00     0.047 A 
ATOM      5  C   UNL     1      -2.755 -22.435  49.756  1.00  0.00     0.047 A 
ATOM      6  C   UNL     1      -3.121 -23.701  50.217  1.00  0.00     0.115 A 
ENDROOT
BRANCH   1   7
ATOM      7  C   UNL     1      -5.657 -21.514  47.519  1.00  0.00     0.010 C 
ATOM      8  C   UNL     1      -5.193 -20.551  46.709  1.00  0.00     0.025 C 
BRANCH   8   9
ATOM      9  C   UNL     1      -6.077 -19.784  45.815  1.00  0.00     0.064 C 
ATOM     10  O   UNL     1      -7.289 -20.096  45.669  1.00  0.00    -0.545 OA
ATOM     11  O   UNL     1      -5.565 -18.699  45.117  1.00  0.00    -0.545 OA
ENDBRANCH   8   9
ENDBRANCH   1   7
BRANCH   6  12
ATOM     12  O   UNL     1      -2.278 -24.387  51.090  1.00  0.00    -0.508 OA
ATOM     13  H   UNL     1      -2.293 -25.398  51.154  1.00  0.00     0.293 HD
ENDBRANCH   6  12
TORSDOF 3
ENDMDL
MODEL 3
REMARK VINA RESULT:    -5.213      3.023      4.076
REMARK INTER + INTRA:          -6.123
REMARK INTER:                  -5.987
REMARK INTRA:                  -0.136
REMARK UNBOUND:                -0.148
REMARK SMILES O=C([O-])C=Cc1ccc(O)cc1
REMARK SMILES IDX 6 1 7 2 12 3 8 4 11 5 9 6 5 7 4 8 2 9 1 10 3 11 10 12
REMARK H PARENT 10 13
REMARK Flexibility Score: inf
ROOT
ATOM      1  C   UNL     1      -4.450 -22.086  48.889  1.00  0.00    -0.025 A 
ATOM      2  C   UNL     1      -3.445 -21.507  49.691  1.00  0.00     0.012 A 
ATOM      3  C   UNL     1      -4.573 -23.486  48.862  1.00  0.00     0.012 A 
ATOM      4  C   UNL     1      -2.605 -22.314  50.464  1.00  0.00     0.047 A 
ATOM      5  C   UNL     1      -3.731 -24.289  49.636  1.00  0.00     0.047 A 
ATOM      6  C   UNL     1      -2.747 -23.707  50.440  1.00  0.00     0.115 A 
ENDROOT
BRANCH   1   7
ATOM      7  C   UNL     1      -5.361 -21.276  48.041  1.00  0.00     0.010 C 
ATOM      8  C   UNL     1      -4.998 -20.722  46.875  1.00  0.00     0.025 C 
BRANCH   8   9
ATOM      9  C   UNL     1      -5.927 -19.915  46.066  1.00  0.00     0.064 C 
ATOM     10  O   UNL     1      -7.155 -20.191  46.012  1.00  0.00    -0.545 OA
ATOM     11  O   UNL     1      -5.440 -18.831  45.348  1.00  0.00    -0.545 OA
ENDBRANCH   8   9
ENDBRANCH   1   7
BRANCH   6  12
ATOM     12  O   UNL     1      -1.915 -24.520  51.208  1.00  0.00    -0.508 OA
ATOM     13  H   UNL     1      -1.108 -24.145  51.690  1.00  0.00     0.293 HD
ENDBRANCH   6  12
TORSDOF 3
ENDMDL
MODEL 4
REMARK VINA RESULT:    -5.185      2.213      5.899
REMARK INTER + INTRA:          -6.091
REMARK INTER:                  -5.952
REMARK INTRA:                  -0.139
REMARK UNBOUND:                -0.148
REMARK SMILES O=C([O-])C=Cc1ccc(O)cc1
REMARK SMILES IDX 6 1 7 2 12 3 8 4 11 5 9 6 5 7 4 8 2 9 1 10 3 11 10 12
REMARK H PARENT 10 13
REMARK Flexibility Score: inf
ROOT
ATOM      1  C   UNL     1      -3.894 -21.931  49.859  1.00  0.00    -0.025 A 
ATOM      2  C   UNL     1      -4.661 -22.493  48.818  1.00  0.00     0.012 A 
ATOM      3  C   UNL     1      -4.230 -20.653  50.335  1.00  0.00     0.012 A 
ATOM      4  C   UNL     1      -5.752 -21.797  48.289  1.00  0.00     0.047 A 
ATOM      5  C   UNL     1      -5.321 -19.960  49.804  1.00  0.00     0.047 A 
ATOM      6  C   UNL     1      -6.086 -20.529  48.782  1.00  0.00     0.115 A 
ENDROOT
BRANCH   1   7
ATOM      7  C   UNL     1      -2.719 -22.622  50.449  1.00  0.00     0.010 C 
ATOM      8  C   UNL     1      -1.453 -22.212  50.286  1.00  0.00     0.025 C 
BRANCH   8   9
ATOM      9  C   UNL     1      -0.312 -22.931  50.877  1.00  0.00     0.064 C 
ATOM     10  O   UNL     1       0.696 -22.312  51.310  1.00  0.00    -0.545 OA
ATOM     11  O   UNL     1      -0.347 -24.316  50.956  1.00  0.00    -0.545 OA
ENDBRANCH   8   9
ENDBRANCH   1   7
BRANCH   6  12
ATOM     12  O   UNL     1      -7.172 -19.828  48.262  1.00  0.00    -0.508 OA
ATOM     13  H   UNL     1      -7.616 -19.079  48.780  1.00  0.00     0.293 HD
ENDBRANCH   6  12
TORSDOF 3
ENDMDL
MODEL 5
REMARK VINA RESULT:    -5.090      8.319     10.823
REMARK INTER + INTRA:          -5.982
REMARK INTER:                  -5.845
REMARK INTRA:                  -0.137
REMARK UNBOUND:                -0.148
REMARK SMILES O=C([O-])C=Cc1ccc(O)cc1
REMARK SMILES IDX 6 1 7 2 12 3 8 4 11 5 9 6 5 7 4 8 2 9 1 10 3 11 10 12
REMARK H PARENT 10 13
REMARK Flexibility Score: inf
ROOT
ATOM      1  C   UNL     1       1.741 -17.952  56.455  1.00  0.00    -0.025 A 
ATOM      2  C   UNL     1       0.537 -18.174  57.156  1.00  0.00     0.012 A 
ATOM      3  C   UNL     1       2.452 -19.060  55.962  1.00  0.00     0.012 A 
ATOM      4  C   UNL     1       0.052 -19.472  57.334  1.00  0.00     0.047 A 
ATOM      5  C   UNL     1       1.962 -20.356  56.142  1.00  0.00     0.047 A 
ATOM      6  C   UNL     1       0.762 -20.567  56.825  1.00  0.00     0.115 A 
ENDROOT
BRANCH   1   7
ATOM      7  C   UNL     1       2.307 -16.595  56.247  1.00  0.00     0.010 C 
ATOM      8  C   UNL     1       3.421 -16.153  56.847  1.00  0.00     0.025 C 
BRANCH   8   9
ATOM      9  C   UNL     1       3.946 -14.795  56.626  1.00  0.00     0.064 C 
ATOM     10  O   UNL     1       3.449 -13.798  57.215  1.00  0.00    -0.545 OA
ATOM     11  O   UNL     1       5.008 -14.609  55.750  1.00  0.00    -0.545 OA
ENDBRANCH   8   9
ENDBRANCH   1   7
BRANCH   6  12
ATOM     12  O   UNL     1       0.285 -21.866  56.996  1.00  0.00    -0.508 OA
ATOM     13  H   UNL     1      -0.705 -22.075  56.960  1.00  0.00     0.293 HD
ENDBRANCH   6  12
TORSDOF 3
ENDMDL
MODEL 6
REMARK VINA RESULT:    -5.021      3.972      5.091
REMARK INTER + INTRA:          -5.904
REMARK INTER:                  -5.764
REMARK INTRA:                  -0.140
REMARK UNBOUND:                -0.148
REMARK SMILES O=C([O-])C=Cc1ccc(O)cc1
REMARK SMILES IDX 6 1 7 2 12 3 8 4 11 5 9 6 5 7 4 8 2 9 1 10 3 11 10 12
REMARK H PARENT 10 13
REMARK Flexibility Score: inf
ROOT
ATOM      1  C   UNL     1      -3.749 -24.946  47.189  1.00  0.00    -0.025 A 
ATOM      2  C   UNL     1      -4.618 -24.436  48.175  1.00  0.00     0.012 A 
ATOM      3  C   UNL     1      -2.404 -25.176  47.525  1.00  0.00     0.012 A 
ATOM      4  C   UNL     1      -4.151 -24.189  49.469  1.00  0.00     0.047 A 
ATOM      5  C   UNL     1      -1.941 -24.928  48.820  1.00  0.00     0.047 A 
ATOM      6  C   UNL     1      -2.812 -24.437  49.796  1.00  0.00     0.115 A 
ENDROOT
BRANCH   1   7
ATOM      7  C   UNL     1      -4.189 -25.214  45.797  1.00  0.00     0.010 C 
ATOM      8  C   UNL     1      -4.181 -26.432  45.234  1.00  0.00     0.025 C 
BRANCH   8   9
ATOM      9  C   UNL     1      -4.615 -26.658  43.846  1.00  0.00     0.064 C 
ATOM     10  O   UNL     1      -4.438 -27.769  43.279  1.00  0.00    -0.545 OA
ATOM     11  O   UNL     1      -5.228 -25.627  43.147  1.00  0.00    -0.545 OA
ENDBRANCH   8   9
ENDBRANCH   1   7
BRANCH   6  12
ATOM     12  O   UNL     1      -2.338 -24.195  51.084  1.00  0.00    -0.508 OA
ATOM     13  H   UNL     1      -1.349 -24.080  51.271  1.00  0.00     0.293 HD
ENDBRANCH   6  12
TORSDOF 3
ENDMDL
MODEL 7
REMARK VINA RESULT:    -4.914      2.644      2.969
REMARK INTER + INTRA:          -5.780
REMARK INTER:                  -5.646
REMARK INTRA:                  -0.135
REMARK UNBOUND:                -0.148
REMARK SMILES O=C([O-])C=Cc1ccc(O)cc1
REMARK SMILES IDX 6 1 7 2 12 3 8 4 11 5 9 6 5 7 4 8 2 9 1 10 3 11 10 12
REMARK H PARENT 10 13
REMARK Flexibility Score: inf
ROOT
ATOM      1  C   UNL     1      -1.100 -24.060  48.649  1.00  0.00    -0.025 A 
ATOM      2  C   UNL     1      -0.762 -22.772  48.185  1.00  0.00     0.012 A 
ATOM      3  C   UNL     1      -0.867 -24.377  49.998  1.00  0.00     0.012 A 
ATOM      4  C   UNL     1      -0.227 -21.823  49.062  1.00  0.00     0.047 A 
ATOM      5  C   UNL     1      -0.333 -23.425  50.871  1.00  0.00     0.047 A 
ATOM      6  C   UNL     1      -0.013 -22.146  50.407  1.00  0.00     0.115 A 
ENDROOT
BRANCH   1   7
ATOM      7  C   UNL     1      -1.660 -25.108  47.759  1.00  0.00     0.010 C 
ATOM      8  C   UNL     1      -2.668 -24.897  46.901  1.00  0.00     0.025 C 
BRANCH   8   9
ATOM      9  C   UNL     1      -3.205 -25.966  46.042  1.00  0.00     0.064 C 
ATOM     10  O   UNL     1      -4.394 -25.934  45.626  1.00  0.00    -0.545 OA
ATOM     11  O   UNL     1      -2.386 -27.029  45.685  1.00  0.00    -0.545 OA
ENDBRANCH   8   9
ENDBRANCH   1   7
BRANCH   6  12
ATOM     12  O   UNL     1       0.518 -21.207  51.289  1.00  0.00    -0.508 OA
ATOM     13  H   UNL     1       1.300 -20.619  51.027  1.00  0.00     0.293 HD
ENDBRANCH   6  12
TORSDOF 3
ENDMDL
MODEL 8
REMARK VINA RESULT:    -4.876      2.188      6.125
REMARK INTER + INTRA:          -5.737
REMARK INTER:                  -5.588
REMARK INTRA:                  -0.149
REMARK UNBOUND:                -0.148
REMARK SMILES O=C([O-])C=Cc1ccc(O)cc1
REMARK SMILES IDX 6 1 7 2 12 3 8 4 11 5 9 6 5 7 4 8 2 9 1 10 3 11 10 12
REMARK H PARENT 10 13
REMARK Flexibility Score: inf
ROOT
ATOM      1  C   UNL     1       0.365 -22.197  49.299  1.00  0.00    -0.025 A 
ATOM      2  C   UNL     1      -0.848 -22.061  48.594  1.00  0.00     0.012 A 
ATOM      3  C   UNL     1       0.401 -23.026  50.433  1.00  0.00     0.012 A 
ATOM      4  C   UNL     1      -1.986 -22.761  49.004  1.00  0.00     0.047 A 
ATOM      5  C   UNL     1      -0.740 -23.724  50.840  1.00  0.00     0.047 A 
ATOM      6  C   UNL     1      -1.935 -23.596  50.127  1.00  0.00     0.115 A 
ENDROOT
BRANCH   1   7
ATOM      7  C   UNL     1       1.600 -21.469  48.914  1.00  0.00     0.010 C 
ATOM      8  C   UNL     1       2.835 -21.860  49.259  1.00  0.00     0.025 C 
BRANCH   8   9
ATOM      9  C   UNL     1       4.037 -21.105  48.868  1.00  0.00     0.064 C 
ATOM     10  O   UNL     1       4.876 -20.722  49.726  1.00  0.00    -0.545 OA
ATOM     11  O   UNL     1       4.248 -20.806  47.528  1.00  0.00    -0.545 OA
ENDBRANCH   8   9
ENDBRANCH   1   7
BRANCH   6  12
ATOM     12  O   UNL     1      -3.064 -24.299  50.543  1.00  0.00    -0.508 OA
ATOM     13  H   UNL     1      -3.161 -25.293  50.375  1.00  0.00     0.293 HD
ENDBRANCH   6  12
TORSDOF 3
ENDMDL
MODEL 9
REMARK VINA RESULT:    -4.799      4.807      5.986
REMARK INTER + INTRA:          -5.649
REMARK INTER:                  -5.511
REMARK INTRA:                  -0.138
REMARK UNBOUND:                -0.148
REMARK SMILES O=C([O-])C=Cc1ccc(O)cc1
REMARK SMILES IDX 6 1 7 2 12 3 8 4 11 5 9 6 5 7 4 8 2 9 1 10 3 11 10 12
REMARK H PARENT 10 13
REMARK Flexibility Score: inf
ROOT
ATOM      1  C   UNL     1      -4.165 -24.181  47.008  1.00  0.00    -0.025 A 
ATOM      2  C   UNL     1      -4.173 -22.858  46.519  1.00  0.00     0.012 A 
ATOM      3  C   UNL     1      -4.893 -24.477  48.173  1.00  0.00     0.012 A 
ATOM      4  C   UNL     1      -4.914 -21.868  47.172  1.00  0.00     0.047 A 
ATOM      5  C   UNL     1      -5.633 -23.485  48.821  1.00  0.00     0.047 A 
ATOM      6  C   UNL     1      -5.648 -22.179  48.323  1.00  0.00     0.115 A 
ENDROOT
BRANCH   1   7
ATOM      7  C   UNL     1      -3.387 -25.267  46.361  1.00  0.00     0.010 C 
ATOM      8  C   UNL     1      -3.945 -26.294  45.703  1.00  0.00     0.025 C 
BRANCH   8   9
ATOM      9  C   UNL     1      -3.140 -27.360  45.083  1.00  0.00     0.064 C 
ATOM     10  O   UNL     1      -1.979 -27.133  44.648  1.00  0.00    -0.545 OA
ATOM     11  O   UNL     1      -3.670 -28.638  44.975  1.00  0.00    -0.545 OA
ENDBRANCH   8   9
ENDBRANCH   1   7
BRANCH   6  12
ATOM     12  O   UNL     1      -6.390 -21.200  48.980  1.00  0.00    -0.508 OA
ATOM     13  H   UNL     1      -6.419 -20.244  48.644  1.00  0.00     0.293 HD
ENDBRANCH   6  12
TORSDOF 3
ENDMDL
