MODEL 1
REMARK VINA RESULT:    -4.688      0.000      0.000
REMARK INTER + INTRA:          -7.060
REMARK INTER:                  -6.333
REMARK INTRA:                  -0.728
REMARK UNBOUND:                -0.728
REMARK SMILES CC[C@H](CC[C@H](C)[C@@H]1CC[C@@H]2[C@H]3CC(=O)C4=CC(=O)CC[C@]4(C)[C@H]3CC[C@@]21C)C(C)C
REMARK SMILES IDX 4 1 3 2 2 3 1 4 29 5 30 6 31 7 5 8 6 9 7 10 8 11 9 12 27 13
REMARK SMILES IDX 10 14 11 15 26 16 28 17 12 18 25 19 24 20 13 21 22 22 14 23
REMARK SMILES IDX 16 24 21 25 23 26 15 27 17 28 20 29 18 30 19 31
REMARK H PARENT
REMARK Flexibility Score: inf
ROOT
ATOM      1  C   UNL     1       7.151  12.942  -7.349  1.00  0.00     0.004 C 
ENDROOT
BRANCH   1   2
ATOM      2  C   UNL     1       8.630  13.028  -6.850  1.00  0.00    -0.009 C 
BRANCH   2   3
ATOM      3  C   UNL     1       8.705  13.490  -5.371  1.00  0.00     0.000 C 
ATOM      4  C   UNL     1       7.381  13.289  -4.629  1.00  0.00     0.004 C 
ENDBRANCH   2   3
BRANCH   2   5
ATOM      5  C   UNL     1       9.444  11.713  -7.073  1.00  0.00    -0.014 C 
ATOM      6  C   UNL     1       9.246  11.149  -8.490  1.00  0.00     0.007 C 
ATOM      7  C   UNL     1       9.179  10.625  -6.018  1.00  0.00     0.007 C 
ENDBRANCH   2   5
ENDBRANCH   1   2
BRANCH   1   8
ATOM      8  C   UNL     1       6.881  13.925  -8.509  1.00  0.00     0.004 C 
BRANCH   8   9
ATOM      9  C   UNL     1       6.218  13.287  -9.764  1.00  0.00    -0.011 C 
ATOM     10  C   UNL     1       6.890  13.831 -11.041  1.00  0.00     0.008 C 
BRANCH   9  11
ATOM     11  C   UNL     1       4.654  13.441  -9.782  1.00  0.00    -0.002 C 
ATOM     12  C   UNL     1       4.054  13.349  -8.370  1.00  0.00     0.005 C 
ATOM     13  C   UNL     1       3.815  12.427 -10.635  1.00  0.00    -0.026 C 
ATOM     14  C   UNL     1       2.645  12.791  -8.508  1.00  0.00     0.005 C 
ATOM     15  C   UNL     1       2.403  12.547 -10.002  1.00  0.00    -0.001 C 
ATOM     16  C   UNL     1       4.353  10.976 -10.487  1.00  0.00     0.007 C 
ATOM     17  C   UNL     1       3.771  12.860 -12.125  1.00  0.00     0.012 C 
ATOM     18  C   UNL     1       1.400  11.368 -10.237  1.00  0.00     0.004 C 
ATOM     19  C   UNL     1       3.371   9.923 -10.999  1.00  0.00     0.005 C 
ATOM     20  C   UNL     1       2.039   9.948 -10.216  1.00  0.00     0.003 C 
ATOM     21  C   UNL     1       0.505  11.557 -11.475  1.00  0.00     0.085 C 
ATOM     22  C   UNL     1       1.023   8.769 -10.609  1.00  0.00    -0.000 C 
ATOM     23  C   UNL     1      -0.638  10.596 -11.385  1.00  0.00     0.159 C 
ATOM     24  C   UNL     1      -0.420   9.280 -10.743  1.00  0.00     0.005 C 
ATOM     25  C   UNL     1       1.099   7.676  -9.495  1.00  0.00     0.020 C 
ATOM     26  C   UNL     1       1.362   8.116 -11.979  1.00  0.00     0.017 C 
ATOM     27  O   UNL     1      -1.758  10.909 -11.873  1.00  0.00    -0.295 OA
ATOM     28  C   UNL     1      -1.477   8.514 -10.411  1.00  0.00     0.055 C 
ATOM     29  C   UNL     1       0.046   6.573  -9.648  1.00  0.00     0.081 C 
ATOM     30  C   UNL     1      -1.316   7.169  -9.836  1.00  0.00     0.156 C 
ATOM     31  O   UNL     1      -2.336   6.497  -9.533  1.00  0.00    -0.295 OA
ENDBRANCH   9  11
ENDBRANCH   8   9
ENDBRANCH   1   8
TORSDOF 6
ENDMDL
MODEL 2
REMARK VINA RESULT:    -3.493      4.105      9.233
REMARK INTER + INTRA:          -5.446
REMARK INTER:                  -4.583
REMARK INTRA:                  -0.863
REMARK UNBOUND:                -0.728
REMARK SMILES CC[C@H](CC[C@H](C)[C@@H]1CC[C@@H]2[C@H]3CC(=O)C4=CC(=O)CC[C@]4(C)[C@H]3CC[C@@]21C)C(C)C
REMARK SMILES IDX 4 1 3 2 2 3 1 4 29 5 30 6 31 7 5 8 6 9 7 10 8 11 9 12 27 13
REMARK SMILES IDX 10 14 11 15 26 16 28 17 12 18 25 19 24 20 13 21 22 22 14 23
REMARK SMILES IDX 16 24 21 25 23 26 15 27 17 28 20 29 18 30 19 31
REMARK H PARENT
REMARK Flexibility Score: inf
ROOT
ATOM      1  C   UNL     1       1.580   9.788 -10.437  1.00  0.00     0.004 C 
ENDROOT
BRANCH   1   2
ATOM      2  C   UNL     1       1.146   8.289 -10.540  1.00  0.00    -0.009 C 
BRANCH   2   3
ATOM      3  C   UNL     1       1.315   7.555  -9.185  1.00  0.00     0.000 C 
ATOM      4  C   UNL     1       0.857   8.406  -7.998  1.00  0.00     0.004 C 
ENDBRANCH   2   3
BRANCH   2   5
ATOM      5  C   UNL     1      -0.293   8.092 -11.115  1.00  0.00    -0.014 C 
ATOM      6  C   UNL     1      -1.190   9.310 -10.849  1.00  0.00     0.007 C 
ATOM      7  C   UNL     1      -0.984   6.800 -10.644  1.00  0.00     0.007 C 
ENDBRANCH   2   5
ENDBRANCH   1   2
BRANCH   1   8
ATOM      8  C   UNL     1       2.337  10.252 -11.700  1.00  0.00     0.004 C 
BRANCH   8   9
ATOM      9  C   UNL     1       3.236  11.507 -11.498  1.00  0.00    -0.011 C 
ATOM     10  C   UNL     1       2.555  12.740 -12.124  1.00  0.00     0.008 C 
BRANCH   9  11
ATOM     11  C   UNL     1       4.710  11.298 -12.003  1.00  0.00    -0.002 C 
ATOM     12  C   UNL     1       5.176   9.845 -11.823  1.00  0.00     0.005 C 
ATOM     13  C   UNL     1       5.848  12.162 -11.358  1.00  0.00    -0.026 C 
ATOM     14  C   UNL     1       6.686   9.871 -11.628  1.00  0.00     0.005 C 
ATOM     15  C   UNL     1       7.122  11.340 -11.691  1.00  0.00    -0.001 C 
ATOM     16  C   UNL     1       5.668  12.283  -9.819  1.00  0.00     0.007 C 
ATOM     17  C   UNL     1       5.927  13.562 -12.024  1.00  0.00     0.012 C 
ATOM     18  C   UNL     1       8.399  11.597 -10.824  1.00  0.00     0.004 C 
ATOM     19  C   UNL     1       6.922  12.798  -9.112  1.00  0.00     0.005 C 
ATOM     20  C   UNL     1       8.126  11.851  -9.311  1.00  0.00     0.003 C 
ATOM     21  C   UNL     1       9.335  12.671 -11.408  1.00  0.00     0.085 C 
ATOM     22  C   UNL     1       9.432  12.262  -8.473  1.00  0.00    -0.000 C 
ATOM     23  C   UNL     1      10.663  12.561 -10.729  1.00  0.00     0.159 C 
ATOM     24  C   UNL     1      10.713  12.136  -9.312  1.00  0.00     0.005 C 
ATOM     25  C   UNL     1       9.518  11.324  -7.226  1.00  0.00     0.020 C 
ATOM     26  C   UNL     1       9.395  13.740  -7.990  1.00  0.00     0.017 C 
ATOM     27  O   UNL     1      11.715  12.852 -11.363  1.00  0.00    -0.295 OA
ATOM     28  C   UNL     1      11.888  11.774  -8.762  1.00  0.00     0.055 C 
ATOM     29  C   UNL     1      10.818  11.485  -6.430  1.00  0.00     0.081 C 
ATOM     30  C   UNL     1      12.005  11.411  -7.341  1.00  0.00     0.156 C 
ATOM     31  O   UNL     1      13.125  11.070  -6.877  1.00  0.00    -0.295 OA
ENDBRANCH   9  11
ENDBRANCH   8   9
ENDBRANCH   1   8
TORSDOF 6
ENDMDL
MODEL 3
REMARK VINA RESULT:    -3.384      1.372      2.449
REMARK INTER + INTRA:          -5.299
REMARK INTER:                  -5.346
REMARK INTRA:                   0.048
REMARK UNBOUND:                -0.728
REMARK SMILES CC[C@H](CC[C@H](C)[C@@H]1CC[C@@H]2[C@H]3CC(=O)C4=CC(=O)CC[C@]4(C)[C@H]3CC[C@@]21C)C(C)C
REMARK SMILES IDX 4 1 3 2 2 3 1 4 29 5 30 6 31 7 5 8 6 9 7 10 8 11 9 12 27 13
REMARK SMILES IDX 10 14 11 15 26 16 28 17 12 18 25 19 24 20 13 21 22 22 14 23
REMARK SMILES IDX 16 24 21 25 23 26 15 27 17 28 20 29 18 30 19 31
REMARK H PARENT
REMARK Flexibility Score: inf
ROOT
ATOM      1  C   UNL     1       7.764  11.367 -10.082  1.00  0.00     0.004 C 
ENDROOT
BRANCH   1   2
ATOM      2  C   UNL     1       8.928  10.970 -11.048  1.00  0.00    -0.009 C 
BRANCH   2   3
ATOM      3  C   UNL     1       9.248  12.109 -12.050  1.00  0.00     0.000 C 
ATOM      4  C   UNL     1      10.200  13.154 -11.463  1.00  0.00     0.004 C 
ENDBRANCH   2   3
BRANCH   2   5
ATOM      5  C   UNL     1      10.218  10.487 -10.310  1.00  0.00    -0.014 C 
ATOM      6  C   UNL     1      11.168   9.730 -11.251  1.00  0.00     0.007 C 
ATOM      7  C   UNL     1       9.942   9.660  -9.042  1.00  0.00     0.007 C 
ENDBRANCH   2   5
ENDBRANCH   1   2
BRANCH   1   8
ATOM      8  C   UNL     1       6.816  12.402 -10.724  1.00  0.00     0.004 C 
BRANCH   8   9
ATOM      9  C   UNL     1       6.275  13.487  -9.747  1.00  0.00    -0.011 C 
ATOM     10  C   UNL     1       6.831  13.236  -8.331  1.00  0.00     0.008 C 
BRANCH   9  11
ATOM     11  C   UNL     1       4.708  13.618  -9.777  1.00  0.00    -0.002 C 
ATOM     12  C   UNL     1       4.100  13.521  -8.368  1.00  0.00     0.005 C 
ATOM     13  C   UNL     1       3.891  12.590 -10.633  1.00  0.00    -0.026 C 
ATOM     14  C   UNL     1       2.700  12.942  -8.516  1.00  0.00     0.005 C 
ATOM     15  C   UNL     1       2.472  12.691 -10.011  1.00  0.00    -0.001 C 
ATOM     16  C   UNL     1       4.449  11.148 -10.477  1.00  0.00     0.007 C 
ATOM     17  C   UNL     1       3.852  13.018 -12.125  1.00  0.00     0.012 C 
ATOM     18  C   UNL     1       1.488  11.497 -10.250  1.00  0.00     0.004 C 
ATOM     19  C   UNL     1       3.486  10.078 -10.994  1.00  0.00     0.005 C 
ATOM     20  C   UNL     1       2.148  10.086 -10.221  1.00  0.00     0.003 C 
ATOM     21  C   UNL     1       0.600  11.670 -11.496  1.00  0.00     0.085 C 
ATOM     22  C   UNL     1       1.152   8.892 -10.618  1.00  0.00    -0.000 C 
ATOM     23  C   UNL     1      -0.529  10.693 -11.411  1.00  0.00     0.159 C 
ATOM     24  C   UNL     1      -0.297   9.381 -10.764  1.00  0.00     0.005 C 
ATOM     25  C   UNL     1       1.236   7.803  -9.500  1.00  0.00     0.020 C 
ATOM     26  C   UNL     1       1.511   8.240 -11.984  1.00  0.00     0.017 C 
ATOM     27  O   UNL     1      -1.650  10.988 -11.908  1.00  0.00    -0.295 OA
ATOM     28  C   UNL     1      -1.345   8.601 -10.437  1.00  0.00     0.055 C 
ATOM     29  C   UNL     1       0.200   6.685  -9.659  1.00  0.00     0.081 C 
ATOM     30  C   UNL     1      -1.169   7.260  -9.858  1.00  0.00     0.156 C 
ATOM     31  O   UNL     1      -2.181   6.574  -9.561  1.00  0.00    -0.295 OA
ENDBRANCH   9  11
ENDBRANCH   8   9
ENDBRANCH   1   8
TORSDOF 6
ENDMDL
MODEL 4
REMARK VINA RESULT:    -3.084      1.241      1.931
REMARK INTER + INTRA:          -4.893
REMARK INTER:                  -3.771
REMARK INTRA:                  -1.122
REMARK UNBOUND:                -0.728
REMARK SMILES CC[C@H](CC[C@H](C)[C@@H]1CC[C@@H]2[C@H]3CC(=O)C4=CC(=O)CC[C@]4(C)[C@H]3CC[C@@]21C)C(C)C
REMARK SMILES IDX 4 1 3 2 2 3 1 4 29 5 30 6 31 7 5 8 6 9 7 10 8 11 9 12 27 13
REMARK SMILES IDX 10 14 11 15 26 16 28 17 12 18 25 19 24 20 13 21 22 22 14 23
REMARK SMILES IDX 16 24 21 25 23 26 15 27 17 28 20 29 18 30 19 31
REMARK H PARENT
REMARK Flexibility Score: inf
ROOT
ATOM      1  C   UNL     1       8.555  11.706  -7.643  1.00  0.00     0.004 C 
ENDROOT
BRANCH   1   2
ATOM      2  C   UNL     1       9.939  11.659  -6.917  1.00  0.00    -0.009 C 
BRANCH   2   3
ATOM      3  C   UNL     1      10.845  12.842  -7.346  1.00  0.00     0.000 C 
ATOM      4  C   UNL     1      11.871  12.437  -8.408  1.00  0.00     0.004 C 
ENDBRANCH   2   3
BRANCH   2   5
ATOM      5  C   UNL     1       9.828  11.567  -5.362  1.00  0.00    -0.014 C 
ATOM      6  C   UNL     1       8.538  10.859  -4.919  1.00  0.00     0.007 C 
ATOM      7  C   UNL     1       9.977  12.919  -4.641  1.00  0.00     0.007 C 
ENDBRANCH   2   5
ENDBRANCH   1   2
BRANCH   1   8
ATOM      8  C   UNL     1       8.326  13.058  -8.351  1.00  0.00     0.004 C 
BRANCH   8   9
ATOM      9  C   UNL     1       7.676  12.955  -9.762  1.00  0.00    -0.011 C 
ATOM     10  C   UNL     1       8.502  13.769 -10.777  1.00  0.00     0.008 C 
BRANCH   9  11
ATOM     11  C   UNL     1       6.150  13.336  -9.768  1.00  0.00    -0.002 C 
ATOM     12  C   UNL     1       5.543  13.286  -8.357  1.00  0.00     0.005 C 
ATOM     13  C   UNL     1       5.174  12.484 -10.650  1.00  0.00    -0.026 C 
ATOM     14  C   UNL     1       4.067  12.944  -8.508  1.00  0.00     0.005 C 
ATOM     15  C   UNL     1       3.793  12.788 -10.008  1.00  0.00    -0.001 C 
ATOM     16  C   UNL     1       5.494  10.967 -10.552  1.00  0.00     0.007 C 
ATOM     17  C   UNL     1       5.194  12.968 -12.125  1.00  0.00     0.012 C 
ATOM     18  C   UNL     1       2.629  11.777 -10.277  1.00  0.00     0.004 C 
ATOM     19  C   UNL     1       4.369  10.085 -11.095  1.00  0.00     0.005 C 
ATOM     20  C   UNL     1       3.054  10.278 -10.305  1.00  0.00     0.003 C 
ATOM     21  C   UNL     1       1.772  12.135 -11.505  1.00  0.00     0.085 C 
ATOM     22  C   UNL     1       1.877   9.274 -10.733  1.00  0.00    -0.000 C 
ATOM     23  C   UNL     1       0.502  11.349 -11.441  1.00  0.00     0.159 C 
ATOM     24  C   UNL     1       0.524   9.994 -10.844  1.00  0.00     0.005 C 
ATOM     25  C   UNL     1       1.792   8.146  -9.655  1.00  0.00     0.020 C 
ATOM     26  C   UNL     1       2.118   8.624 -12.125  1.00  0.00     0.017 C 
ATOM     27  O   UNL     1      -0.561  11.838 -11.914  1.00  0.00    -0.295 OA
ATOM     28  C   UNL     1      -0.633   9.381 -10.532  1.00  0.00     0.055 C 
ATOM     29  C   UNL     1       0.589   7.214  -9.840  1.00  0.00     0.081 C 
ATOM     30  C   UNL     1      -0.671   8.008 -10.003  1.00  0.00     0.156 C 
ATOM     31  O   UNL     1      -1.778   7.482  -9.718  1.00  0.00    -0.295 OA
ENDBRANCH   9  11
ENDBRANCH   8   9
ENDBRANCH   1   8
TORSDOF 6
ENDMDL
MODEL 5
REMARK VINA RESULT:    -2.931      3.978      9.009
REMARK INTER + INTRA:          -4.686
REMARK INTER:                  -3.529
REMARK INTRA:                  -1.157
REMARK UNBOUND:                -0.728
REMARK SMILES CC[C@H](CC[C@H](C)[C@@H]1CC[C@@H]2[C@H]3CC(=O)C4=CC(=O)CC[C@]4(C)[C@H]3CC[C@@]21C)C(C)C
REMARK SMILES IDX 4 1 3 2 2 3 1 4 29 5 30 6 31 7 5 8 6 9 7 10 8 11 9 12 27 13
REMARK SMILES IDX 10 14 11 15 26 16 28 17 12 18 25 19 24 20 13 21 22 22 14 23
REMARK SMILES IDX 16 24 21 25 23 26 15 27 17 28 20 29 18 30 19 31
REMARK H PARENT
REMARK Flexibility Score: inf
ROOT
ATOM      1  C   UNL     1       0.945  10.276  -9.712  1.00  0.00     0.004 C 
ENDROOT
BRANCH   1   2
ATOM      2  C   UNL     1       0.497   8.822 -10.071  1.00  0.00    -0.009 C 
BRANCH   2   3
ATOM      3  C   UNL     1       1.520   8.127 -11.006  1.00  0.00     0.000 C 
ATOM      4  C   UNL     1       0.857   7.130 -11.960  1.00  0.00     0.004 C 
ENDBRANCH   2   3
BRANCH   2   5
ATOM      5  C   UNL     1       0.179   7.937  -8.823  1.00  0.00    -0.014 C 
ATOM      6  C   UNL     1      -1.289   8.066  -8.387  1.00  0.00     0.007 C 
ATOM      7  C   UNL     1       1.119   8.178  -7.628  1.00  0.00     0.007 C 
ENDBRANCH   2   5
ENDBRANCH   1   2
BRANCH   1   8
ATOM      8  C   UNL     1       2.390  10.560 -10.176  1.00  0.00     0.004 C 
BRANCH   8   9
ATOM      9  C   UNL     1       2.535  11.753 -11.166  1.00  0.00    -0.011 C 
ATOM     10  C   UNL     1       1.329  11.783 -12.125  1.00  0.00     0.008 C 
BRANCH   9  11
ATOM     11  C   UNL     1       3.916  11.767 -11.917  1.00  0.00    -0.002 C 
ATOM     12  C   UNL     1       4.511  10.355 -12.048  1.00  0.00     0.005 C 
ATOM     13  C   UNL     1       5.079  12.633 -11.322  1.00  0.00    -0.026 C 
ATOM     14  C   UNL     1       6.026  10.500 -12.085  1.00  0.00     0.005 C 
ATOM     15  C   UNL     1       6.336  11.998 -11.974  1.00  0.00    -0.001 C 
ATOM     16  C   UNL     1       5.149  12.506  -9.774  1.00  0.00     0.007 C 
ATOM     17  C   UNL     1       4.944  14.117 -11.757  1.00  0.00     0.012 C 
ATOM     18  C   UNL     1       7.718  12.248 -11.282  1.00  0.00     0.004 C 
ATOM     19  C   UNL     1       6.462  13.032  -9.193  1.00  0.00     0.005 C 
ATOM     20  C   UNL     1       7.683  12.247  -9.725  1.00  0.00     0.003 C 
ATOM     21  C   UNL     1       8.463  13.483 -11.821  1.00  0.00     0.085 C 
ATOM     22  C   UNL     1       9.076  12.656  -9.040  1.00  0.00    -0.000 C 
ATOM     23  C   UNL     1       9.890  13.405 -11.380  1.00  0.00     0.159 C 
ATOM     24  C   UNL     1      10.206  12.781 -10.075  1.00  0.00     0.005 C 
ATOM     25  C   UNL     1       9.436  11.557  -7.990  1.00  0.00     0.020 C 
ATOM     26  C   UNL     1       9.012  14.035  -8.325  1.00  0.00     0.017 C 
ATOM     27  O   UNL     1      10.797  13.888 -12.111  1.00  0.00    -0.295 OA
ATOM     28  C   UNL     1      11.478  12.459  -9.777  1.00  0.00     0.055 C 
ATOM     29  C   UNL     1      10.836  11.724  -7.387  1.00  0.00     0.081 C 
ATOM     30  C   UNL     1      11.856  11.903  -8.468  1.00  0.00     0.156 C 
ATOM     31  O   UNL     1      13.060  11.608  -8.242  1.00  0.00    -0.295 OA
ENDBRANCH   9  11
ENDBRANCH   8   9
ENDBRANCH   1   8
TORSDOF 6
ENDMDL
MODEL 6
REMARK VINA RESULT:    -2.564     14.672     16.808
REMARK INTER + INTRA:          -4.192
REMARK INTER:                  -3.863
REMARK INTRA:                  -0.329
REMARK UNBOUND:                -0.728
REMARK SMILES CC[C@H](CC[C@H](C)[C@@H]1CC[C@@H]2[C@H]3CC(=O)C4=CC(=O)CC[C@]4(C)[C@H]3CC[C@@]21C)C(C)C
REMARK SMILES IDX 4 1 3 2 2 3 1 4 29 5 30 6 31 7 5 8 6 9 7 10 8 11 9 12 27 13
REMARK SMILES IDX 10 14 11 15 26 16 28 17 12 18 25 19 24 20 13 21 22 22 14 23
REMARK SMILES IDX 16 24 21 25 23 26 15 27 17 28 20 29 18 30 19 31
REMARK H PARENT
REMARK Flexibility Score: inf
ROOT
ATOM      1  C   UNL     1       2.346  12.149   5.862  1.00  0.00     0.004 C 
ENDROOT
BRANCH   1   2
ATOM      2  C   UNL     1       3.865  12.305   5.527  1.00  0.00    -0.009 C 
BRANCH   2   3
ATOM      3  C   UNL     1       4.218  13.769   5.159  1.00  0.00     0.000 C 
ATOM      4  C   UNL     1       4.635  13.920   3.694  1.00  0.00     0.004 C 
ENDBRANCH   2   3
BRANCH   2   5
ATOM      5  C   UNL     1       4.813  11.758   6.642  1.00  0.00    -0.014 C 
ATOM      6  C   UNL     1       4.922  12.727   7.830  1.00  0.00     0.007 C 
ATOM      7  C   UNL     1       6.212  11.364   6.137  1.00  0.00     0.007 C 
ENDBRANCH   2   5
ENDBRANCH   1   2
BRANCH   1   8
ATOM      8  C   UNL     1       1.561  13.446   5.574  1.00  0.00     0.004 C 
BRANCH   8   9
ATOM      9  C   UNL     1       0.859  14.074   6.813  1.00  0.00    -0.011 C 
ATOM     10  C   UNL     1       1.402  13.427   8.103  1.00  0.00     0.008 C 
BRANCH   9  11
ATOM     11  C   UNL     1      -0.710  14.032   6.721  1.00  0.00    -0.002 C 
ATOM     12  C   UNL     1      -1.368  14.124   8.108  1.00  0.00     0.005 C 
ATOM     13  C   UNL     1      -1.384  12.788   6.045  1.00  0.00    -0.026 C 
ATOM     14  C   UNL     1      -2.696  13.384   8.033  1.00  0.00     0.005 C 
ATOM     15  C   UNL     1      -2.832  12.849   6.603  1.00  0.00    -0.001 C 
ATOM     16  C   UNL     1      -0.694  11.464   6.474  1.00  0.00     0.007 C 
ATOM     17  C   UNL     1      -1.400  12.938   4.500  1.00  0.00     0.012 C 
ATOM     18  C   UNL     1      -3.682  11.535   6.559  1.00  0.00     0.004 C 
ATOM     19  C   UNL     1      -1.522  10.224   6.136  1.00  0.00     0.005 C 
ATOM     20  C   UNL     1      -2.887  10.229   6.861  1.00  0.00     0.003 C 
ATOM     21  C   UNL     1      -4.527  11.388   5.281  1.00  0.00     0.085 C 
ATOM     22  C   UNL     1      -3.742   8.885   6.662  1.00  0.00    -0.000 C 
ATOM     23  C   UNL     1      -5.557  10.329   5.513  1.00  0.00     0.159 C 
ATOM     24  C   UNL     1      -5.225   9.185   6.394  1.00  0.00     0.005 C 
ATOM     25  C   UNL     1      -3.600   8.028   7.961  1.00  0.00     0.020 C 
ATOM     26  C   UNL     1      -3.261   8.042   5.447  1.00  0.00     0.017 C 
ATOM     27  O   UNL     1      -6.678  10.412   4.943  1.00  0.00    -0.295 OA
ATOM     28  C   UNL     1      -6.204   8.370   6.830  1.00  0.00     0.055 C 
ATOM     29  C   UNL     1      -4.513   6.796   7.982  1.00  0.00     0.081 C 
ATOM     30  C   UNL     1      -5.921   7.180   7.647  1.00  0.00     0.156 C 
ATOM     31  O   UNL     1      -6.873   6.455   8.039  1.00  0.00    -0.295 OA
ENDBRANCH   9  11
ENDBRANCH   8   9
ENDBRANCH   1   8
TORSDOF 6
ENDMDL
MODEL 7
REMARK VINA RESULT:    -1.900      3.279      8.306
REMARK INTER + INTRA:          -3.294
REMARK INTER:                  -1.760
REMARK INTRA:                  -1.534
REMARK UNBOUND:                -0.728
REMARK SMILES CC[C@H](CC[C@H](C)[C@@H]1CC[C@@H]2[C@H]3CC(=O)C4=CC(=O)CC[C@]4(C)[C@H]3CC[C@@]21C)C(C)C
REMARK SMILES IDX 4 1 3 2 2 3 1 4 29 5 30 6 31 7 5 8 6 9 7 10 8 11 9 12 27 13
REMARK SMILES IDX 10 14 11 15 26 16 28 17 12 18 25 19 24 20 13 21 22 22 14 23
REMARK SMILES IDX 16 24 21 25 23 26 15 27 17 28 20 29 18 30 19 31
REMARK H PARENT
REMARK Flexibility Score: inf
ROOT
ATOM      1  C   UNL     1      -0.230   6.947 -10.318  1.00  0.00     0.004 C 
ENDROOT
BRANCH   1   2
ATOM      2  C   UNL     1      -0.384   7.917  -9.102  1.00  0.00    -0.009 C 
BRANCH   2   3
ATOM      3  C   UNL     1      -1.818   7.869  -8.515  1.00  0.00     0.000 C 
ATOM      4  C   UNL     1      -2.871   8.376  -9.504  1.00  0.00     0.004 C 
ENDBRANCH   2   3
BRANCH   2   5
ATOM      5  C   UNL     1       0.690   7.701  -7.988  1.00  0.00    -0.014 C 
ATOM      6  C   UNL     1       0.972   8.992  -7.203  1.00  0.00     0.007 C 
ATOM      7  C   UNL     1       2.004   7.081  -8.496  1.00  0.00     0.007 C 
ENDBRANCH   2   5
ENDBRANCH   1   2
BRANCH   1   8
ATOM      8  C   UNL     1       0.505   7.620 -11.497  1.00  0.00     0.004 C 
BRANCH   8   9
ATOM      9  C   UNL     1       0.819   9.132 -11.293  1.00  0.00    -0.011 C 
ATOM     10  C   UNL     1      -0.373   9.981 -11.778  1.00  0.00     0.008 C 
BRANCH   9  11
ATOM     11  C   UNL     1       2.185   9.571 -11.934  1.00  0.00    -0.002 C 
ATOM     12  C   UNL     1       3.268   8.492 -11.767  1.00  0.00     0.005 C 
ATOM     13  C   UNL     1       2.858  10.891 -11.422  1.00  0.00    -0.026 C 
ATOM     14  C   UNL     1       4.614   9.202 -11.721  1.00  0.00     0.005 C 
ATOM     15  C   UNL     1       4.336  10.703 -11.859  1.00  0.00    -0.001 C 
ATOM     16  C   UNL     1       2.763  11.017  -9.876  1.00  0.00     0.007 C 
ATOM     17  C   UNL     1       2.247  12.133 -12.125  1.00  0.00     0.012 C 
ATOM     18  C   UNL     1       5.424  11.559 -11.127  1.00  0.00     0.004 C 
ATOM     19  C   UNL     1       3.700  12.082  -9.307  1.00  0.00     0.005 C 
ATOM     20  C   UNL     1       5.183  11.760  -9.601  1.00  0.00     0.003 C 
ATOM     21  C   UNL     1       5.728  12.897 -11.823  1.00  0.00     0.085 C 
ATOM     22  C   UNL     1       6.224  12.764  -8.904  1.00  0.00    -0.000 C 
ATOM     23  C   UNL     1       7.011  13.435 -11.276  1.00  0.00     0.159 C 
ATOM     24  C   UNL     1       7.356  13.168  -9.860  1.00  0.00     0.005 C 
ATOM     25  C   UNL     1       6.819  12.045  -7.650  1.00  0.00     0.020 C 
ATOM     26  C   UNL     1       5.563  14.097  -8.453  1.00  0.00     0.017 C 
ATOM     27  O   UNL     1       7.767  14.123 -12.015  1.00  0.00    -0.295 OA
ATOM     28  C   UNL     1       8.606  13.405  -9.420  1.00  0.00     0.055 C 
ATOM     29  C   UNL     1       7.964  12.820  -6.988  1.00  0.00     0.081 C 
ATOM     30  C   UNL     1       8.983  13.224  -8.009  1.00  0.00     0.156 C 
ATOM     31  O   UNL     1      10.169  13.449  -7.649  1.00  0.00    -0.295 OA
ENDBRANCH   9  11
ENDBRANCH   8   9
ENDBRANCH   1   8
TORSDOF 6
ENDMDL
