MODEL 1
REMARK VINA RESULT:    -1.628      0.000      0.000
REMARK INTER + INTRA:          -1.771
REMARK INTER:                  -1.771
REMARK INTRA:                   0.000
REMARK UNBOUND:                 0.000
REMARK SMILES [NH3+]CC(=O)[O-]
REMARK SMILES IDX 2 1 1 2 3 6 4 7 5 8
REMARK H PARENT 1 3 1 4 1 5
REMARK Flexibility Score: inf
ROOT
ATOM      1  C   UNL     1      -2.646  -4.195 -10.979  1.00  0.00     0.312 C 
ENDROOT
BRANCH   1   2
ATOM      2  N   UNL     1      -1.628  -3.443 -10.247  1.00  0.00    -0.353 N 
ATOM      3  H   UNL     1      -1.454  -3.889  -9.315  1.00  0.00     0.344 HD
ATOM      4  H   UNL     1      -0.739  -3.447 -10.796  1.00  0.00     0.344 HD
ATOM      5  H   UNL     1      -1.940  -2.453 -10.113  1.00  0.00     0.344 HD
ENDBRANCH   1   2
BRANCH   1   6
ATOM      6  C   UNL     1      -2.008  -5.188 -11.902  1.00  0.00     0.096 C 
ATOM      7  O   UNL     1      -1.353  -4.792 -12.902  1.00  0.00    -0.544 OA
ATOM      8  O   UNL     1      -2.181  -6.548 -11.686  1.00  0.00    -0.544 OA
ENDBRANCH   1   6
TORSDOF 2
ENDMDL
MODEL 2
REMARK VINA RESULT:    -1.199      2.350      2.872
REMARK INTER + INTRA:          -1.304
REMARK INTER:                  -1.304
REMARK INTRA:                   0.000
REMARK UNBOUND:                 0.000
REMARK SMILES [NH3+]CC(=O)[O-]
REMARK SMILES IDX 2 1 1 2 3 6 4 7 5 8
REMARK H PARENT 1 3 1 4 1 5
REMARK Flexibility Score: inf
ROOT
ATOM      1  C   UNL     1      -2.284  -5.014 -12.079  1.00  0.00     0.312 C 
ENDROOT
BRANCH   1   2
ATOM      2  N   UNL     1      -2.226  -6.467 -11.928  1.00  0.00    -0.353 N 
ATOM      3  H   UNL     1      -1.596  -6.879 -12.656  1.00  0.00     0.344 HD
ATOM      4  H   UNL     1      -1.846  -6.697 -10.982  1.00  0.00     0.344 HD
ATOM      5  H   UNL     1      -3.185  -6.876 -12.018  1.00  0.00     0.344 HD
ENDBRANCH   1   2
BRANCH   1   6
ATOM      6  C   UNL     1      -2.068  -4.337 -10.761  1.00  0.00     0.096 C 
ATOM      7  O   UNL     1      -2.141  -4.996  -9.691  1.00  0.00    -0.544 OA
ATOM      8  O   UNL     1      -1.839  -2.968 -10.712  1.00  0.00    -0.544 OA
ENDBRANCH   1   6
TORSDOF 2
ENDMDL
MODEL 3
REMARK VINA RESULT:    -1.146      7.601      7.804
REMARK INTER + INTRA:          -1.246
REMARK INTER:                  -1.246
REMARK INTRA:                   0.000
REMARK UNBOUND:                 0.000
REMARK SMILES [NH3+]CC(=O)[O-]
REMARK SMILES IDX 2 1 1 2 3 6 4 7 5 8
REMARK H PARENT 1 3 1 4 1 5
REMARK Flexibility Score: inf
ROOT
ATOM      1  C   UNL     1       1.168  -0.036  -8.377  1.00  0.00     0.312 C 
ENDROOT
BRANCH   1   2
ATOM      2  N   UNL     1       2.448   0.376  -8.950  1.00  0.00    -0.353 N 
ATOM      3  H   UNL     1       3.039   0.834  -8.217  1.00  0.00     0.344 HD
ATOM      4  H   UNL     1       2.949  -0.468  -9.310  1.00  0.00     0.344 HD
ATOM      5  H   UNL     1       2.290   1.040  -9.743  1.00  0.00     0.344 HD
ENDBRANCH   1   2
BRANCH   1   6
ATOM      6  C   UNL     1       1.112   0.296  -6.917  1.00  0.00     0.096 C 
ATOM      7  O   UNL     1       0.207   1.051  -6.473  1.00  0.00    -0.544 OA
ATOM      8  O   UNL     1       2.090  -0.186  -6.056  1.00  0.00    -0.544 OA
ENDBRANCH   1   6
TORSDOF 2
ENDMDL
MODEL 4
REMARK VINA RESULT:    -1.127      2.234      2.425
REMARK INTER + INTRA:          -1.226
REMARK INTER:                  -1.226
REMARK INTRA:                   0.000
REMARK UNBOUND:                 0.000
REMARK SMILES [NH3+]CC(=O)[O-]
REMARK SMILES IDX 2 1 1 2 3 6 4 7 5 8
REMARK H PARENT 1 3 1 4 1 5
REMARK Flexibility Score: inf
ROOT
ATOM      1  C   UNL     1      -2.647  -5.783 -10.956  1.00  0.00     0.312 C 
ENDROOT
BRANCH   1   2
ATOM      2  N   UNL     1      -2.268  -6.897 -11.822  1.00  0.00    -0.353 N 
ATOM      3  H   UNL     1      -1.655  -6.555 -12.600  1.00  0.00     0.344 HD
ATOM      4  H   UNL     1      -1.740  -7.603 -11.260  1.00  0.00     0.344 HD
ATOM      5  H   UNL     1      -3.124  -7.351 -12.219  1.00  0.00     0.344 HD
ENDBRANCH   1   2
BRANCH   1   6
ATOM      6  C   UNL     1      -2.064  -4.498 -11.461  1.00  0.00     0.096 C 
ATOM      7  O   UNL     1      -1.601  -4.430 -12.630  1.00  0.00    -0.544 OA
ATOM      8  O   UNL     1      -1.986  -3.394 -10.623  1.00  0.00    -0.544 OA
ENDBRANCH   1   6
TORSDOF 2
ENDMDL
MODEL 5
REMARK VINA RESULT:    -0.881      6.530      6.869
REMARK INTER + INTRA:          -0.958
REMARK INTER:                  -0.958
REMARK INTRA:                   0.000
REMARK UNBOUND:                 0.000
REMARK SMILES [NH3+]CC(=O)[O-]
REMARK SMILES IDX 2 1 1 2 3 6 4 7 5 8
REMARK H PARENT 1 3 1 4 1 5
REMARK Flexibility Score: inf
ROOT
ATOM      1  C   UNL     1       1.056   0.249  -7.137  1.00  0.00     0.312 C 
ENDROOT
BRANCH   1   2
ATOM      2  N   UNL     1       2.114  -0.285  -6.280  1.00  0.00    -0.353 N 
ATOM      3  H   UNL     1       1.701  -0.907  -5.546  1.00  0.00     0.344 HD
ATOM      4  H   UNL     1       2.777  -0.843  -6.864  1.00  0.00     0.344 HD
ATOM      5  H   UNL     1       2.638   0.499  -5.826  1.00  0.00     0.344 HD
ENDBRANCH   1   2
BRANCH   1   6
ATOM      6  C   UNL     1       1.333  -0.064  -8.575  1.00  0.00     0.096 C 
ATOM      7  O   UNL     1       2.254   0.536  -9.188  1.00  0.00    -0.544 OA
ATOM      8  O   UNL     1       0.539  -0.981  -9.252  1.00  0.00    -0.544 OA
ENDBRANCH   1   6
TORSDOF 2
ENDMDL
MODEL 6
REMARK VINA RESULT:    -0.777      6.634      7.090
REMARK INTER + INTRA:          -0.845
REMARK INTER:                  -0.845
REMARK INTRA:                   0.000
REMARK UNBOUND:                 0.000
REMARK SMILES [NH3+]CC(=O)[O-]
REMARK SMILES IDX 2 1 1 2 3 6 4 7 5 8
REMARK H PARENT 1 3 1 4 1 5
REMARK Flexibility Score: inf
ROOT
ATOM      1  C   UNL     1       1.075   0.261  -7.015  1.00  0.00     0.312 C 
ENDROOT
BRANCH   1   2
ATOM      2  N   UNL     1       2.161  -0.302  -6.215  1.00  0.00    -0.353 N 
ATOM      3  H   UNL     1       1.776  -0.968  -5.505  1.00  0.00     0.344 HD
ATOM      4  H   UNL     1       2.816  -0.819  -6.845  1.00  0.00     0.344 HD
ATOM      5  H   UNL     1       2.687   0.464  -5.734  1.00  0.00     0.344 HD
ENDBRANCH   1   2
BRANCH   1   6
ATOM      6  C   UNL     1       1.294  -0.012  -8.472  1.00  0.00     0.096 C 
ATOM      7  O   UNL     1       0.568  -0.844  -9.076  1.00  0.00    -0.544 OA
ATOM      8  O   UNL     1       2.334   0.613  -9.147  1.00  0.00    -0.544 OA
ENDBRANCH   1   6
TORSDOF 2
ENDMDL
MODEL 7
REMARK VINA RESULT:    -0.725      7.756      8.095
REMARK INTER + INTRA:          -0.789
REMARK INTER:                  -0.789
REMARK INTRA:                   0.000
REMARK UNBOUND:                 0.000
REMARK SMILES [NH3+]CC(=O)[O-]
REMARK SMILES IDX 2 1 1 2 3 6 4 7 5 8
REMARK H PARENT 1 3 1 4 1 5
REMARK Flexibility Score: inf
ROOT
ATOM      1  C   UNL     1       2.215  -0.061  -5.908  1.00  0.00     0.312 C 
ENDROOT
BRANCH   1   2
ATOM      2  N   UNL     1       3.484  -0.156  -6.627  1.00  0.00    -0.353 N 
ATOM      3  H   UNL     1       4.037   0.724  -6.496  1.00  0.00     0.344 HD
ATOM      4  H   UNL     1       4.033  -0.960  -6.248  1.00  0.00     0.344 HD
ATOM      5  H   UNL     1       3.309  -0.315  -7.646  1.00  0.00     0.344 HD
ENDBRANCH   1   2
BRANCH   1   6
ATOM      6  C   UNL     1       1.110   0.339  -6.837  1.00  0.00     0.096 C 
ATOM      7  O   UNL     1       1.121  -0.044  -8.036  1.00  0.00    -0.544 OA
ATOM      8  O   UNL     1       0.097   1.178  -6.390  1.00  0.00    -0.544 OA
ENDBRANCH   1   6
TORSDOF 2
ENDMDL
MODEL 8
REMARK VINA RESULT:    -0.679     11.242     11.644
REMARK INTER + INTRA:          -0.739
REMARK INTER:                  -0.739
REMARK INTRA:                   0.000
REMARK UNBOUND:                 0.000
REMARK SMILES [NH3+]CC(=O)[O-]
REMARK SMILES IDX 2 1 1 2 3 6 4 7 5 8
REMARK H PARENT 1 3 1 4 1 5
REMARK Flexibility Score: inf
ROOT
ATOM      1  C   UNL     1      -2.597   2.988  -4.776  1.00  0.00     0.312 C 
ENDROOT
BRANCH   1   2
ATOM      2  N   UNL     1      -1.483   2.771  -5.697  1.00  0.00    -0.353 N 
ATOM      3  H   UNL     1      -0.990   3.676  -5.884  1.00  0.00     0.344 HD
ATOM      4  H   UNL     1      -0.807   2.101  -5.264  1.00  0.00     0.344 HD
ATOM      5  H   UNL     1      -1.833   2.366  -6.596  1.00  0.00     0.344 HD
ENDBRANCH   1   2
BRANCH   1   6
ATOM      6  C   UNL     1      -2.492   4.334  -4.127  1.00  0.00     0.096 C 
ATOM      7  O   UNL     1      -2.141   4.430  -2.922  1.00  0.00    -0.544 OA
ATOM      8  O   UNL     1      -2.833   5.477  -4.838  1.00  0.00    -0.544 OA
ENDBRANCH   1   6
TORSDOF 2
ENDMDL
MODEL 9
REMARK VINA RESULT:     0.222     12.348     12.771
REMARK INTER + INTRA:           0.241
REMARK INTER:                   0.241
REMARK INTRA:                   0.000
REMARK UNBOUND:                 0.000
REMARK SMILES [NH3+]CC(=O)[O-]
REMARK SMILES IDX 2 1 1 2 3 6 4 7 5 8
REMARK H PARENT 1 3 1 4 1 5
REMARK Flexibility Score: inf
ROOT
ATOM      1  C   UNL     1     -10.042   4.482 -16.570  1.00  0.00     0.312 C 
ENDROOT
BRANCH   1   2
ATOM      2  N   UNL     1      -9.757   5.915 -16.542  1.00  0.00    -0.353 N 
ATOM      3  H   UNL     1      -9.288   6.206 -17.432  1.00  0.00     0.344 HD
ATOM      4  H   UNL     1     -10.656   6.441 -16.446  1.00  0.00     0.344 HD
ATOM      5  H   UNL     1      -9.142   6.143 -15.727  1.00  0.00     0.344 HD
ENDBRANCH   1   2
BRANCH   1   6
ATOM      6  C   UNL     1      -8.836   3.712 -17.015  1.00  0.00     0.096 C 
ATOM      7  O   UNL     1      -8.697   2.506 -16.681  1.00  0.00    -0.544 OA
ATOM      8  O   UNL     1      -7.843   4.342 -17.753  1.00  0.00    -0.544 OA
ENDBRANCH   1   6
TORSDOF 2
ENDMDL
