MODEL 1
REMARK VINA RESULT:    -7.712      0.000      0.000
REMARK INTER + INTRA:         -10.209
REMARK INTER:                  -9.741
REMARK INTRA:                  -0.468
REMARK UNBOUND:                -0.468
REMARK SMILES COc1cc(O)c2c(=O)c(OC)c(-c3ccc(O)c(O)c3)oc2c1
REMARK SMILES IDX 3 1 4 2 5 3 7 4 23 5 24 6 22 7 13 8 10 9 8 10 9 11 2 12 1 13
REMARK SMILES IDX 6 14 14 16 21 17 15 18 19 19 16 20 17 21 20 22 18 24 11 26
REMARK SMILES IDX 12 27
REMARK H PARENT 6 15 20 23 18 25
REMARK Flexibility Score: inf
ROOT
ATOM      1  C   UNL     1      18.339  12.459  34.854  1.00  0.00     0.126 A 
ATOM      2  C   UNL     1      18.764  11.142  34.622  1.00  0.00     0.093 A 
ATOM      3  C   UNL     1      18.532  10.514  33.392  1.00  0.00     0.134 A 
ATOM      4  C   UNL     1      17.789  11.192  32.380  1.00  0.00     0.111 A 
ATOM      5  C   UNL     1      17.393  12.530  32.620  1.00  0.00     0.146 A 
ATOM      6  C   UNL     1      17.672  13.147  33.842  1.00  0.00     0.094 A 
ATOM      7  O   UNL     1      16.748  13.225  31.695  1.00  0.00    -0.452 OA
ATOM      8  C   UNL     1      16.412  12.731  30.509  1.00  0.00     0.180 A 
ATOM      9  C   UNL     1      16.687  11.385  30.200  1.00  0.00     0.210 A 
ATOM     10  C   UNL     1      17.374  10.604  31.160  1.00  0.00     0.239 A 
ATOM     11  O   UNL     1      17.569   9.382  30.943  1.00  0.00    -0.285 OA
ENDROOT
BRANCH   1  12
ATOM     12  O   UNL     1      18.569  13.121  36.069  1.00  0.00    -0.496 OA
ATOM     13  C   UNL     1      19.752  13.852  36.377  1.00  0.00     0.278 C 
ENDBRANCH   1  12
BRANCH   3  14
ATOM     14  O   UNL     1      19.089   9.242  33.226  1.00  0.00    -0.507 OA
ATOM     15  H   UNL     1      20.029   9.067  32.904  1.00  0.00     0.293 HD
ENDBRANCH   3  14
BRANCH   8  16
ATOM     16  C   UNL     1      15.722  13.631  29.556  1.00  0.00     0.025 A 
ATOM     17  C   UNL     1      14.319  13.633  29.498  1.00  0.00     0.062 A 
ATOM     18  C   UNL     1      16.442  14.528  28.748  1.00  0.00     0.016 A 
ATOM     19  C   UNL     1      13.643  14.490  28.623  1.00  0.00     0.158 A 
ATOM     20  C   UNL     1      15.770  15.385  27.873  1.00  0.00     0.051 A 
ATOM     21  C   UNL     1      14.371  15.369  27.803  1.00  0.00     0.157 A 
BRANCH  19  22
ATOM     22  O   UNL     1      12.249  14.456  28.582  1.00  0.00    -0.504 OA
ATOM     23  H   UNL     1      11.744  13.754  28.056  1.00  0.00     0.293 HD
ENDBRANCH  19  22
BRANCH  21  24
ATOM     24  O   UNL     1      13.703  16.225  26.928  1.00  0.00    -0.504 OA
ATOM     25  H   UNL     1      13.443  17.166  27.200  1.00  0.00     0.293 HD
ENDBRANCH  21  24
ENDBRANCH   8  16
BRANCH   9  26
ATOM     26  O   UNL     1      16.230  10.880  28.965  1.00  0.00    -0.490 OA
ATOM     27  C   UNL     1      16.992  10.737  27.771  1.00  0.00     0.278 C 
ENDBRANCH   9  26
TORSDOF 6
ENDMDL
MODEL 2
REMARK VINA RESULT:    -7.655     11.077     12.876
REMARK INTER + INTRA:         -10.136
REMARK INTER:                  -9.664
REMARK INTRA:                  -0.472
REMARK UNBOUND:                -0.468
REMARK SMILES COc1cc(O)c2c(=O)c(OC)c(-c3ccc(O)c(O)c3)oc2c1
REMARK SMILES IDX 3 1 4 2 5 3 7 4 23 5 24 6 22 7 13 8 10 9 8 10 9 11 2 12 1 13
REMARK SMILES IDX 6 14 14 16 21 17 15 18 19 19 16 20 17 21 20 22 18 24 11 26
REMARK SMILES IDX 12 27
REMARK H PARENT 6 15 20 23 18 25
REMARK Flexibility Score: inf
ROOT
ATOM      1  C   UNL     1      18.435  23.838  34.525  1.00  0.00     0.126 A 
ATOM      2  C   UNL     1      18.453  25.143  35.040  1.00  0.00     0.093 A 
ATOM      3  C   UNL     1      17.274  25.773  35.457  1.00  0.00     0.134 A 
ATOM      4  C   UNL     1      16.021  25.111  35.290  1.00  0.00     0.111 A 
ATOM      5  C   UNL     1      16.023  23.784  34.796  1.00  0.00     0.146 A 
ATOM      6  C   UNL     1      17.219  23.164  34.424  1.00  0.00     0.094 A 
ATOM      7  O   UNL     1      14.893  23.104  34.671  1.00  0.00    -0.452 OA
ATOM      8  C   UNL     1      13.700  23.603  34.972  1.00  0.00     0.180 A 
ATOM      9  C   UNL     1      13.580  24.940  35.395  1.00  0.00     0.210 A 
ATOM     10  C   UNL     1      14.761  25.706  35.541  1.00  0.00     0.239 A 
ATOM     11  O   UNL     1      14.680  26.922  35.847  1.00  0.00    -0.285 OA
ENDROOT
BRANCH   1  12
ATOM     12  O   UNL     1      19.599  23.173  34.113  1.00  0.00    -0.496 OA
ATOM     13  C   UNL     1      20.496  22.500  34.992  1.00  0.00     0.278 C 
ENDBRANCH   1  12
BRANCH   3  14
ATOM     14  O   UNL     1      17.416  27.030  36.054  1.00  0.00    -0.507 OA
ATOM     15  H   UNL     1      16.739  27.447  36.675  1.00  0.00     0.293 HD
ENDBRANCH   3  14
BRANCH   8  16
ATOM     16  C   UNL     1      12.522  22.719  34.817  1.00  0.00     0.025 A 
ATOM     17  C   UNL     1      11.847  22.674  33.587  1.00  0.00     0.062 A 
ATOM     18  C   UNL     1      12.101  21.875  35.860  1.00  0.00     0.016 A 
ATOM     19  C   UNL     1      10.745  21.830  33.408  1.00  0.00     0.158 A 
ATOM     20  C   UNL     1      11.002  21.031  35.685  1.00  0.00     0.051 A 
ATOM     21  C   UNL     1      10.317  21.006  34.462  1.00  0.00     0.157 A 
BRANCH  19  22
ATOM     22  O   UNL     1      10.090  21.823  32.177  1.00  0.00    -0.504 OA
ATOM     23  H   UNL     1      10.499  22.235  31.348  1.00  0.00     0.293 HD
ENDBRANCH  19  22
BRANCH  21  24
ATOM     24  O   UNL     1       9.220  20.163  34.291  1.00  0.00    -0.504 OA
ATOM     25  H   UNL     1       8.646  19.872  35.075  1.00  0.00     0.293 HD
ENDBRANCH  21  24
ENDBRANCH   8  16
BRANCH   9  26
ATOM     26  O   UNL     1      12.285  25.454  35.615  1.00  0.00    -0.490 OA
ATOM     27  C   UNL     1      11.521  26.250  34.715  1.00  0.00     0.278 C 
ENDBRANCH   9  26
TORSDOF 6
ENDMDL
MODEL 3
REMARK VINA RESULT:    -7.521      1.552      6.979
REMARK INTER + INTRA:          -9.967
REMARK INTER:                  -9.524
REMARK INTRA:                  -0.443
REMARK UNBOUND:                -0.468
REMARK SMILES COc1cc(O)c2c(=O)c(OC)c(-c3ccc(O)c(O)c3)oc2c1
REMARK SMILES IDX 3 1 4 2 5 3 7 4 23 5 24 6 22 7 13 8 10 9 8 10 9 11 2 12 1 13
REMARK SMILES IDX 6 14 14 16 21 17 15 18 19 19 16 20 17 21 20 22 18 24 11 26
REMARK SMILES IDX 12 27
REMARK H PARENT 6 15 20 23 18 25
REMARK Flexibility Score: inf
ROOT
ATOM      1  C   UNL     1      16.368  13.919  28.445  1.00  0.00     0.126 A 
ATOM      2  C   UNL     1      16.476  12.654  27.846  1.00  0.00     0.093 A 
ATOM      3  C   UNL     1      17.045  11.575  28.532  1.00  0.00     0.134 A 
ATOM      4  C   UNL     1      17.594  11.774  29.834  1.00  0.00     0.111 A 
ATOM      5  C   UNL     1      17.452  13.049  30.435  1.00  0.00     0.146 A 
ATOM      6  C   UNL     1      16.843  14.099  29.743  1.00  0.00     0.094 A 
ATOM      7  O   UNL     1      17.896  13.274  31.662  1.00  0.00    -0.452 OA
ATOM      8  C   UNL     1      18.510  12.356  32.400  1.00  0.00     0.180 A 
ATOM      9  C   UNL     1      18.773  11.081  31.866  1.00  0.00     0.210 A 
ATOM     10  C   UNL     1      18.319  10.795  30.557  1.00  0.00     0.239 A 
ATOM     11  O   UNL     1      18.602   9.691  30.027  1.00  0.00    -0.285 OA
ENDROOT
BRANCH   1  12
ATOM     12  O   UNL     1      15.789  15.017  27.791  1.00  0.00    -0.496 OA
ATOM     13  C   UNL     1      14.422  15.395  27.911  1.00  0.00     0.278 C 
ENDBRANCH   1  12
BRANCH   3  14
ATOM     14  O   UNL     1      17.006  10.334  27.886  1.00  0.00    -0.507 OA
ATOM     15  H   UNL     1      16.161   9.879  27.575  1.00  0.00     0.293 HD
ENDBRANCH   3  14
BRANCH   8  16
ATOM     16  C   UNL     1      18.923  12.735  33.771  1.00  0.00     0.025 A 
ATOM     17  C   UNL     1      20.250  13.129  34.010  1.00  0.00     0.062 A 
ATOM     18  C   UNL     1      17.999  12.766  34.829  1.00  0.00     0.016 A 
ATOM     19  C   UNL     1      20.660  13.514  35.291  1.00  0.00     0.158 A 
ATOM     20  C   UNL     1      18.405  13.150  36.110  1.00  0.00     0.051 A 
ATOM     21  C   UNL     1      19.735  13.522  36.348  1.00  0.00     0.157 A 
BRANCH  19  22
ATOM     22  O   UNL     1      21.988  13.885  35.494  1.00  0.00    -0.504 OA
ATOM     23  H   UNL     1      22.740  13.207  35.510  1.00  0.00     0.293 HD
ENDBRANCH  19  22
BRANCH  21  24
ATOM     24  O   UNL     1      20.137  13.903  37.628  1.00  0.00    -0.504 OA
ATOM     25  H   UNL     1      19.556  14.491  38.214  1.00  0.00     0.293 HD
ENDBRANCH  21  24
ENDBRANCH   8  16
BRANCH   9  26
ATOM     26  O   UNL     1      19.508  10.169  32.653  1.00  0.00    -0.490 OA
ATOM     27  C   UNL     1      18.978   9.119  33.456  1.00  0.00     0.278 C 
ENDBRANCH   9  26
TORSDOF 6
ENDMDL
MODEL 4
REMARK VINA RESULT:    -7.473     10.977     13.713
REMARK INTER + INTRA:          -9.906
REMARK INTER:                  -9.455
REMARK INTRA:                  -0.451
REMARK UNBOUND:                -0.468
REMARK SMILES COc1cc(O)c2c(=O)c(OC)c(-c3ccc(O)c(O)c3)oc2c1
REMARK SMILES IDX 3 1 4 2 5 3 7 4 23 5 24 6 22 7 13 8 10 9 8 10 9 11 2 12 1 13
REMARK SMILES IDX 6 14 14 16 21 17 15 18 19 19 16 20 17 21 20 22 18 24 11 26
REMARK SMILES IDX 12 27
REMARK H PARENT 6 15 20 23 18 25
REMARK Flexibility Score: inf
ROOT
ATOM      1  C   UNL     1      12.039  22.087  35.775  1.00  0.00     0.126 A 
ATOM      2  C   UNL     1      11.525  23.325  36.189  1.00  0.00     0.093 A 
ATOM      3  C   UNL     1      12.367  24.422  36.407  1.00  0.00     0.134 A 
ATOM      4  C   UNL     1      13.780  24.265  36.280  1.00  0.00     0.111 A 
ATOM      5  C   UNL     1      14.280  23.018  35.834  1.00  0.00     0.146 A 
ATOM      6  C   UNL     1      13.413  21.951  35.584  1.00  0.00     0.094 A 
ATOM      7  O   UNL     1      15.578  22.834  35.646  1.00  0.00    -0.452 OA
ATOM      8  C   UNL     1      16.492  23.770  35.874  1.00  0.00     0.180 A 
ATOM      9  C   UNL     1      16.108  25.020  36.396  1.00  0.00     0.210 A 
ATOM     10  C   UNL     1      14.730  25.261  36.614  1.00  0.00     0.239 A 
ATOM     11  O   UNL     1      14.364  26.338  37.147  1.00  0.00    -0.285 OA
ENDROOT
BRANCH   1  12
ATOM     12  O   UNL     1      11.221  20.973  35.533  1.00  0.00    -0.496 OA
ATOM     13  C   UNL     1      10.669  20.641  34.263  1.00  0.00     0.278 C 
ENDBRANCH   1  12
BRANCH   3  14
ATOM     14  O   UNL     1      11.744  25.636  36.713  1.00  0.00    -0.507 OA
ATOM     15  H   UNL     1      10.817  25.721  37.101  1.00  0.00     0.293 HD
ENDBRANCH   3  14
BRANCH   8  16
ATOM     16  C   UNL     1      17.907  23.439  35.588  1.00  0.00     0.025 A 
ATOM     17  C   UNL     1      18.719  22.931  36.615  1.00  0.00     0.062 A 
ATOM     18  C   UNL     1      18.439  23.567  34.294  1.00  0.00     0.016 A 
ATOM     19  C   UNL     1      20.053  22.589  36.365  1.00  0.00     0.158 A 
ATOM     20  C   UNL     1      19.770  23.226  34.041  1.00  0.00     0.051 A 
ATOM     21  C   UNL     1      20.584  22.739  35.073  1.00  0.00     0.157 A 
BRANCH  19  22
ATOM     22  O   UNL     1      20.835  22.100  37.412  1.00  0.00    -0.504 OA
ATOM     23  H   UNL     1      20.444  21.893  38.323  1.00  0.00     0.293 HD
ENDBRANCH  19  22
BRANCH  21  24
ATOM     24  O   UNL     1      21.912  22.402  34.818  1.00  0.00    -0.504 OA
ATOM     25  H   UNL     1      22.187  21.939  33.959  1.00  0.00     0.293 HD
ENDBRANCH  21  24
ENDBRANCH   8  16
BRANCH   9  26
ATOM     26  O   UNL     1      17.121  25.950  36.708  1.00  0.00    -0.490 OA
ATOM     27  C   UNL     1      17.664  26.216  37.997  1.00  0.00     0.278 C 
ENDBRANCH   9  26
TORSDOF 6
ENDMDL
MODEL 5
REMARK VINA RESULT:    -6.928     11.840     13.803
REMARK INTER + INTRA:          -9.219
REMARK INTER:                  -8.764
REMARK INTRA:                  -0.455
REMARK UNBOUND:                -0.468
REMARK SMILES COc1cc(O)c2c(=O)c(OC)c(-c3ccc(O)c(O)c3)oc2c1
REMARK SMILES IDX 3 1 4 2 5 3 7 4 23 5 24 6 22 7 13 8 10 9 8 10 9 11 2 12 1 13
REMARK SMILES IDX 6 14 14 16 21 17 15 18 19 19 16 20 17 21 20 22 18 24 11 26
REMARK SMILES IDX 12 27
REMARK H PARENT 6 15 20 23 18 25
REMARK Flexibility Score: inf
ROOT
ATOM      1  C   UNL     1      10.147  23.231  37.602  1.00  0.00     0.126 A 
ATOM      2  C   UNL     1      10.027  22.152  36.713  1.00  0.00     0.093 A 
ATOM      3  C   UNL     1      11.091  21.779  35.882  1.00  0.00     0.134 A 
ATOM      4  C   UNL     1      12.292  22.549  35.881  1.00  0.00     0.111 A 
ATOM      5  C   UNL     1      12.406  23.616  36.804  1.00  0.00     0.146 A 
ATOM      6  C   UNL     1      11.344  23.942  37.652  1.00  0.00     0.094 A 
ATOM      7  O   UNL     1      13.520  24.330  36.884  1.00  0.00    -0.452 OA
ATOM      8  C   UNL     1      14.580  24.122  36.112  1.00  0.00     0.180 A 
ATOM      9  C   UNL     1      14.541  23.138  35.107  1.00  0.00     0.210 A 
ATOM     10  C   UNL     1      13.370  22.352  34.984  1.00  0.00     0.239 A 
ATOM     11  O   UNL     1      13.277  21.516  34.050  1.00  0.00    -0.285 OA
ENDROOT
BRANCH   1  12
ATOM     12  O   UNL     1       9.106  23.620  38.459  1.00  0.00    -0.496 OA
ATOM     13  C   UNL     1       9.274  23.937  39.837  1.00  0.00     0.278 C 
ENDBRANCH   1  12
BRANCH   3  14
ATOM     14  O   UNL     1      10.906  20.625  35.112  1.00  0.00    -0.507 OA
ATOM     15  H   UNL     1      10.021  20.330  34.729  1.00  0.00     0.293 HD
ENDBRANCH   3  14
BRANCH   8  16
ATOM     16  C   UNL     1      15.772  24.973  36.332  1.00  0.00     0.025 A 
ATOM     17  C   UNL     1      16.821  24.500  37.137  1.00  0.00     0.062 A 
ATOM     18  C   UNL     1      15.902  26.224  35.704  1.00  0.00     0.016 A 
ATOM     19  C   UNL     1      17.969  25.275  37.342  1.00  0.00     0.158 A 
ATOM     20  C   UNL     1      17.046  26.999  35.906  1.00  0.00     0.051 A 
ATOM     21  C   UNL     1      18.082  26.532  36.727  1.00  0.00     0.157 A 
BRANCH  19  22
ATOM     22  O   UNL     1      18.984  24.778  38.158  1.00  0.00    -0.504 OA
ATOM     23  H   UNL     1      18.902  23.891  38.639  1.00  0.00     0.293 HD
ENDBRANCH  19  22
BRANCH  21  24
ATOM     24  O   UNL     1      19.221  27.310  36.928  1.00  0.00    -0.504 OA
ATOM     25  H   UNL     1      19.187  28.322  36.891  1.00  0.00     0.293 HD
ENDBRANCH  21  24
ENDBRANCH   8  16
BRANCH   9  26
ATOM     26  O   UNL     1      15.656  23.015  34.253  1.00  0.00    -0.490 OA
ATOM     27  C   UNL     1      16.738  22.099  34.393  1.00  0.00     0.278 C 
ENDBRANCH   9  26
TORSDOF 6
ENDMDL
MODEL 6
REMARK VINA RESULT:    -6.908      2.152      7.658
REMARK INTER + INTRA:          -9.192
REMARK INTER:                  -8.751
REMARK INTRA:                  -0.442
REMARK UNBOUND:                -0.468
REMARK SMILES COc1cc(O)c2c(=O)c(OC)c(-c3ccc(O)c(O)c3)oc2c1
REMARK SMILES IDX 3 1 4 2 5 3 7 4 23 5 24 6 22 7 13 8 10 9 8 10 9 11 2 12 1 13
REMARK SMILES IDX 6 14 14 16 21 17 15 18 19 19 16 20 17 21 20 22 18 24 11 26
REMARK SMILES IDX 12 27
REMARK H PARENT 6 15 20 23 18 25
REMARK Flexibility Score: inf
ROOT
ATOM      1  C   UNL     1      17.017  13.108  25.925  1.00  0.00     0.126 A 
ATOM      2  C   UNL     1      16.167  14.181  26.233  1.00  0.00     0.093 A 
ATOM      3  C   UNL     1      15.903  14.536  27.562  1.00  0.00     0.134 A 
ATOM      4  C   UNL     1      16.445  13.753  28.625  1.00  0.00     0.111 A 
ATOM      5  C   UNL     1      17.324  12.692  28.296  1.00  0.00     0.146 A 
ATOM      6  C   UNL     1      17.602  12.384  26.962  1.00  0.00     0.094 A 
ATOM      7  O   UNL     1      17.897  11.967  29.245  1.00  0.00    -0.452 OA
ATOM      8  C   UNL     1      17.686  12.157  30.542  1.00  0.00     0.180 A 
ATOM      9  C   UNL     1      16.768  13.134  30.973  1.00  0.00     0.210 A 
ATOM     10  C   UNL     1      16.130  13.931  29.993  1.00  0.00     0.239 A 
ATOM     11  O   UNL     1      15.252  14.761  30.342  1.00  0.00    -0.285 OA
ENDROOT
BRANCH   1  12
ATOM     12  O   UNL     1      17.314  12.737  24.605  1.00  0.00    -0.496 OA
ATOM     13  C   UNL     1      18.618  12.408  24.135  1.00  0.00     0.278 C 
ENDBRANCH   1  12
BRANCH   3  14
ATOM     14  O   UNL     1      15.131  15.685  27.759  1.00  0.00    -0.507 OA
ATOM     15  H   UNL     1      15.479  16.629  27.678  1.00  0.00     0.293 HD
ENDBRANCH   3  14
BRANCH   8  16
ATOM     16  C   UNL     1      18.421  11.295  31.496  1.00  0.00     0.025 A 
ATOM     17  C   UNL     1      19.597  11.773  32.095  1.00  0.00     0.062 A 
ATOM     18  C   UNL     1      17.932  10.028  31.861  1.00  0.00     0.016 A 
ATOM     19  C   UNL     1      20.299  10.987  33.017  1.00  0.00     0.158 A 
ATOM     20  C   UNL     1      18.630   9.241  32.781  1.00  0.00     0.051 A 
ATOM     21  C   UNL     1      19.815   9.713  33.360  1.00  0.00     0.157 A 
BRANCH  19  22
ATOM     22  O   UNL     1      21.471  11.488  33.581  1.00  0.00    -0.504 OA
ATOM     23  H   UNL     1      22.340  11.536  33.063  1.00  0.00     0.293 HD
ENDBRANCH  19  22
BRANCH  21  24
ATOM     24  O   UNL     1      20.509   8.925  34.277  1.00  0.00    -0.504 OA
ATOM     25  H   UNL     1      20.124   8.057  34.630  1.00  0.00     0.293 HD
ENDBRANCH  21  24
ENDBRANCH   8  16
BRANCH   9  26
ATOM     26  O   UNL     1      16.508  13.238  32.355  1.00  0.00    -0.490 OA
ATOM     27  C   UNL     1      17.124  14.137  33.271  1.00  0.00     0.278 C 
ENDBRANCH   9  26
TORSDOF 6
ENDMDL
MODEL 7
REMARK VINA RESULT:    -6.708      2.230      3.938
REMARK INTER + INTRA:          -8.941
REMARK INTER:                  -8.486
REMARK INTRA:                  -0.455
REMARK UNBOUND:                -0.468
REMARK SMILES COc1cc(O)c2c(=O)c(OC)c(-c3ccc(O)c(O)c3)oc2c1
REMARK SMILES IDX 3 1 4 2 5 3 7 4 23 5 24 6 22 7 13 8 10 9 8 10 9 11 2 12 1 13
REMARK SMILES IDX 6 14 14 16 21 17 15 18 19 19 16 20 17 21 20 22 18 24 11 26
REMARK SMILES IDX 12 27
REMARK H PARENT 6 15 20 23 18 25
REMARK Flexibility Score: inf
ROOT
ATOM      1  C   UNL     1      18.286   9.638  35.951  1.00  0.00     0.126 A 
ATOM      2  C   UNL     1      18.626  10.872  36.527  1.00  0.00     0.093 A 
ATOM      3  C   UNL     1      18.561  12.058  35.786  1.00  0.00     0.134 A 
ATOM      4  C   UNL     1      18.215  12.010  34.402  1.00  0.00     0.111 A 
ATOM      5  C   UNL     1      17.847  10.762  33.845  1.00  0.00     0.146 A 
ATOM      6  C   UNL     1      17.882   9.598  34.618  1.00  0.00     0.094 A 
ATOM      7  O   UNL     1      17.465  10.669  32.579  1.00  0.00    -0.452 OA
ATOM      8  C   UNL     1      17.418  11.704  31.750  1.00  0.00     0.180 A 
ATOM      9  C   UNL     1      17.840  12.976  32.182  1.00  0.00     0.210 A 
ATOM     10  C   UNL     1      18.258  13.122  33.526  1.00  0.00     0.239 A 
ATOM     11  O   UNL     1      18.709  14.227  33.921  1.00  0.00    -0.285 OA
ENDROOT
BRANCH   1  12
ATOM     12  O   UNL     1      18.325   8.434  36.670  1.00  0.00    -0.496 OA
ATOM     13  C   UNL     1      17.217   7.879  37.372  1.00  0.00     0.278 C 
ENDBRANCH   1  12
BRANCH   3  14
ATOM     14  O   UNL     1      18.816  13.244  36.483  1.00  0.00    -0.507 OA
ATOM     15  H   UNL     1      18.645  13.376  37.468  1.00  0.00     0.293 HD
ENDBRANCH   3  14
BRANCH   8  16
ATOM     16  C   UNL     1      16.938  11.463  30.370  1.00  0.00     0.025 A 
ATOM     17  C   UNL     1      15.582  11.660  30.064  1.00  0.00     0.062 A 
ATOM     18  C   UNL     1      17.825  11.097  29.342  1.00  0.00     0.016 A 
ATOM     19  C   UNL     1      15.107  11.460  28.763  1.00  0.00     0.158 A 
ATOM     20  C   UNL     1      17.355  10.898  28.042  1.00  0.00     0.051 A 
ATOM     21  C   UNL     1      15.997  11.075  27.746  1.00  0.00     0.157 A 
BRANCH  19  22
ATOM     22  O   UNL     1      13.752  11.652  28.499  1.00  0.00    -0.504 OA
ATOM     23  H   UNL     1      13.030  11.336  29.135  1.00  0.00     0.293 HD
ENDBRANCH  19  22
BRANCH  21  24
ATOM     24  O   UNL     1      15.531  10.873  26.448  1.00  0.00    -0.504 OA
ATOM     25  H   UNL     1      15.149   9.982  26.152  1.00  0.00     0.293 HD
ENDBRANCH  21  24
ENDBRANCH   8  16
BRANCH   9  26
ATOM     26  O   UNL     1      17.858  14.026  31.241  1.00  0.00    -0.490 OA
ATOM     27  C   UNL     1      16.828  14.982  31.013  1.00  0.00     0.278 C 
ENDBRANCH   9  26
TORSDOF 6
ENDMDL
MODEL 8
REMARK VINA RESULT:    -6.466     12.080     13.468
REMARK INTER + INTRA:          -8.634
REMARK INTER:                  -8.159
REMARK INTRA:                  -0.476
REMARK UNBOUND:                -0.468
REMARK SMILES COc1cc(O)c2c(=O)c(OC)c(-c3ccc(O)c(O)c3)oc2c1
REMARK SMILES IDX 3 1 4 2 5 3 7 4 23 5 24 6 22 7 13 8 10 9 8 10 9 11 2 12 1 13
REMARK SMILES IDX 6 14 14 16 21 17 15 18 19 19 16 20 17 21 20 22 18 24 11 26
REMARK SMILES IDX 12 27
REMARK H PARENT 6 15 20 23 18 25
REMARK Flexibility Score: inf
ROOT
ATOM      1  C   UNL     1      19.220  26.663  35.243  1.00  0.00     0.126 A 
ATOM      2  C   UNL     1      19.827  25.528  34.684  1.00  0.00     0.093 A 
ATOM      3  C   UNL     1      19.069  24.410  34.316  1.00  0.00     0.134 A 
ATOM      4  C   UNL     1      17.666  24.389  34.578  1.00  0.00     0.111 A 
ATOM      5  C   UNL     1      17.066  25.553  35.116  1.00  0.00     0.146 A 
ATOM      6  C   UNL     1      17.840  26.670  35.438  1.00  0.00     0.094 A 
ATOM      7  O   UNL     1      15.759  25.606  35.330  1.00  0.00    -0.452 OA
ATOM      8  C   UNL     1      14.934  24.596  35.082  1.00  0.00     0.180 A 
ATOM      9  C   UNL     1      15.440  23.367  34.621  1.00  0.00     0.210 A 
ATOM     10  C   UNL     1      16.831  23.262  34.381  1.00  0.00     0.239 A 
ATOM     11  O   UNL     1      17.322  22.157  34.039  1.00  0.00    -0.285 OA
ENDROOT
BRANCH   1  12
ATOM     12  O   UNL     1      19.949  27.805  35.609  1.00  0.00    -0.496 OA
ATOM     13  C   UNL     1      20.327  28.124  36.944  1.00  0.00     0.278 C 
ENDBRANCH   1  12
BRANCH   3  14
ATOM     14  O   UNL     1      19.755  23.377  33.669  1.00  0.00    -0.507 OA
ATOM     15  H   UNL     1      19.451  22.415  33.648  1.00  0.00     0.293 HD
ENDBRANCH   3  14
BRANCH   8  16
ATOM     16  C   UNL     1      13.490  24.806  35.335  1.00  0.00     0.025 A 
ATOM     17  C   UNL     1      12.978  24.606  36.627  1.00  0.00     0.062 A 
ATOM     18  C   UNL     1      12.630  25.261  34.321  1.00  0.00     0.016 A 
ATOM     19  C   UNL     1      11.621  24.820  36.898  1.00  0.00     0.158 A 
ATOM     20  C   UNL     1      11.275  25.476  34.588  1.00  0.00     0.051 A 
ATOM     21  C   UNL     1      10.764  25.254  35.873  1.00  0.00     0.157 A 
BRANCH  19  22
ATOM     22  O   UNL     1      11.144  24.598  38.189  1.00  0.00    -0.504 OA
ATOM     23  H   UNL     1      10.895  23.674  38.519  1.00  0.00     0.293 HD
ENDBRANCH  19  22
BRANCH  21  24
ATOM     24  O   UNL     1       9.411  25.468  36.135  1.00  0.00    -0.504 OA
ATOM     25  H   UNL     1       9.085  25.743  37.054  1.00  0.00     0.293 HD
ENDBRANCH  21  24
ENDBRANCH   8  16
BRANCH   9  26
ATOM     26  O   UNL     1      14.538  22.295  34.460  1.00  0.00    -0.490 OA
ATOM     27  C   UNL     1      14.208  21.307  35.431  1.00  0.00     0.278 C 
ENDBRANCH   9  26
TORSDOF 6
ENDMDL
MODEL 9
REMARK VINA RESULT:    -6.336     12.417     13.805
REMARK INTER + INTRA:          -8.470
REMARK INTER:                  -8.050
REMARK INTRA:                  -0.420
REMARK UNBOUND:                -0.468
REMARK SMILES COc1cc(O)c2c(=O)c(OC)c(-c3ccc(O)c(O)c3)oc2c1
REMARK SMILES IDX 3 1 4 2 5 3 7 4 23 5 24 6 22 7 13 8 10 9 8 10 9 11 2 12 1 13
REMARK SMILES IDX 6 14 14 16 21 17 15 18 19 19 16 20 17 21 20 22 18 24 11 26
REMARK SMILES IDX 12 27
REMARK H PARENT 6 15 20 23 18 25
REMARK Flexibility Score: inf
ROOT
ATOM      1  C   UNL     1      16.499  25.610  35.590  1.00  0.00     0.126 A 
ATOM      2  C   UNL     1      16.814  24.522  34.761  1.00  0.00     0.093 A 
ATOM      3  C   UNL     1      15.885  23.501  34.525  1.00  0.00     0.134 A 
ATOM      4  C   UNL     1      14.624  23.523  35.192  1.00  0.00     0.111 A 
ATOM      5  C   UNL     1      14.312  24.641  36.003  1.00  0.00     0.146 A 
ATOM      6  C   UNL     1      15.242  25.667  36.189  1.00  0.00     0.094 A 
ATOM      7  O   UNL     1      13.135  24.739  36.603  1.00  0.00    -0.452 OA
ATOM      8  C   UNL     1      12.188  23.813  36.513  1.00  0.00     0.180 A 
ATOM      9  C   UNL     1      12.427  22.624  35.797  1.00  0.00     0.210 A 
ATOM     10  C   UNL     1      13.672  22.476  35.141  1.00  0.00     0.239 A 
ATOM     11  O   UNL     1      13.942  21.396  34.556  1.00  0.00    -0.285 OA
ENDROOT
BRANCH   1  12
ATOM     12  O   UNL     1      17.401  26.656  35.835  1.00  0.00    -0.496 OA
ATOM     13  C   UNL     1      18.765  26.474  36.202  1.00  0.00     0.278 C 
ENDBRANCH   1  12
BRANCH   3  14
ATOM     14  O   UNL     1      16.258  22.520  33.599  1.00  0.00    -0.507 OA
ATOM     15  H   UNL     1      17.211  22.296  33.358  1.00  0.00     0.293 HD
ENDBRANCH   3  14
BRANCH   8  16
ATOM     16  C   UNL     1      10.905  24.068  37.207  1.00  0.00     0.025 A 
ATOM     17  C   UNL     1       9.929  24.866  36.588  1.00  0.00     0.062 A 
ATOM     18  C   UNL     1      10.618  23.477  38.450  1.00  0.00     0.016 A 
ATOM     19  C   UNL     1       8.700  25.103  37.213  1.00  0.00     0.158 A 
ATOM     20  C   UNL     1       9.391  23.712  39.077  1.00  0.00     0.051 A 
ATOM     21  C   UNL     1       8.429  24.526  38.465  1.00  0.00     0.157 A 
BRANCH  19  22
ATOM     22  O   UNL     1       7.760  25.912  36.575  1.00  0.00    -0.504 OA
ATOM     23  H   UNL     1       7.503  26.823  36.933  1.00  0.00     0.293 HD
ENDBRANCH  19  22
BRANCH  21  24
ATOM     24  O   UNL     1       7.207  24.759  39.094  1.00  0.00    -0.504 OA
ATOM     25  H   UNL     1       6.583  25.496  38.786  1.00  0.00     0.293 HD
ENDBRANCH  21  24
ENDBRANCH   8  16
BRANCH   9  26
ATOM     26  O   UNL     1      11.426  21.631  35.805  1.00  0.00    -0.490 OA
ATOM     27  C   UNL     1      10.559  21.287  34.729  1.00  0.00     0.278 C 
ENDBRANCH   9  26
TORSDOF 6
ENDMDL
