MODEL 1
REMARK VINA RESULT:    -4.716      0.000      0.000
REMARK INTER + INTRA:          -5.345
REMARK INTER:                  -5.130
REMARK INTRA:                  -0.215
REMARK UNBOUND:                -0.215
REMARK SMILES O=C([O-])c1ccccc1O
REMARK SMILES IDX 4 1 9 2 5 3 8 4 6 5 7 6 2 7 1 8 3 9 10 10
REMARK H PARENT 10 11
REMARK Flexibility Score: inf
ROOT
ATOM      1  C   UNL     1      -2.506  -2.867   1.506  1.00  0.00     0.039 A 
ATOM      2  C   UNL     1      -1.976  -4.045   2.083  1.00  0.00     0.124 A 
ATOM      3  C   UNL     1      -1.677  -2.086   0.674  1.00  0.00     0.014 A 
ATOM      4  C   UNL     1      -0.647  -4.415   1.823  1.00  0.00     0.047 A 
ATOM      5  C   UNL     1      -0.357  -2.467   0.424  1.00  0.00     0.001 A 
ATOM      6  C   UNL     1       0.158  -3.629   0.998  1.00  0.00     0.004 A 
ENDROOT
BRANCH   1   7
ATOM      7  C   UNL     1      -3.906  -2.437   1.754  1.00  0.00     0.075 C 
ATOM      8  O   UNL     1      -4.144  -1.350   2.345  1.00  0.00    -0.545 OA
ATOM      9  O   UNL     1      -4.981  -3.218   1.343  1.00  0.00    -0.545 OA
ENDBRANCH   1   7
BRANCH   2  10
ATOM     10  O   UNL     1      -2.758  -4.848   2.912  1.00  0.00    -0.507 OA
ATOM     11  H   UNL     1      -3.770  -4.779   2.922  1.00  0.00     0.293 HD
ENDBRANCH   2  10
TORSDOF 2
ENDMDL
MODEL 2
REMARK VINA RESULT:    -4.472      1.071      2.161
REMARK INTER + INTRA:          -5.080
REMARK INTER:                  -4.832
REMARK INTRA:                  -0.248
REMARK UNBOUND:                -0.215
REMARK SMILES O=C([O-])c1ccccc1O
REMARK SMILES IDX 4 1 9 2 5 3 8 4 6 5 7 6 2 7 1 8 3 9 10 10
REMARK H PARENT 10 11
REMARK Flexibility Score: inf
ROOT
ATOM      1  C   UNL     1      -2.378  -3.115   1.510  1.00  0.00     0.039 A 
ATOM      2  C   UNL     1      -1.480  -2.370   0.711  1.00  0.00     0.124 A 
ATOM      3  C   UNL     1      -1.903  -4.264   2.174  1.00  0.00     0.014 A 
ATOM      4  C   UNL     1      -0.143  -2.782   0.590  1.00  0.00     0.047 A 
ATOM      5  C   UNL     1      -0.571  -4.663   2.045  1.00  0.00     0.001 A 
ATOM      6  C   UNL     1       0.308  -3.924   1.254  1.00  0.00     0.004 A 
ENDROOT
BRANCH   1   7
ATOM      7  C   UNL     1      -3.800  -2.715   1.667  1.00  0.00     0.075 C 
ATOM      8  O   UNL     1      -4.096  -1.558   2.070  1.00  0.00    -0.545 OA
ATOM      9  O   UNL     1      -4.832  -3.601   1.376  1.00  0.00    -0.545 OA
ENDBRANCH   1   7
BRANCH   2  10
ATOM     10  O   UNL     1      -1.904  -1.226   0.036  1.00  0.00    -0.507 OA
ATOM     11  H   UNL     1      -2.520  -0.549   0.470  1.00  0.00     0.293 HD
ENDBRANCH   2  10
TORSDOF 2
ENDMDL
MODEL 3
REMARK VINA RESULT:    -4.282      0.945      2.404
REMARK INTER + INTRA:          -4.873
REMARK INTER:                  -4.623
REMARK INTRA:                  -0.250
REMARK UNBOUND:                -0.215
REMARK SMILES O=C([O-])c1ccccc1O
REMARK SMILES IDX 4 1 9 2 5 3 8 4 6 5 7 6 2 7 1 8 3 9 10 10
REMARK H PARENT 10 11
REMARK Flexibility Score: inf
ROOT
ATOM      1  C   UNL     1      -2.358  -3.731   2.035  1.00  0.00     0.039 A 
ATOM      2  C   UNL     1      -2.449  -2.470   1.400  1.00  0.00     0.124 A 
ATOM      3  C   UNL     1      -1.157  -4.461   1.925  1.00  0.00     0.014 A 
ATOM      4  C   UNL     1      -1.355  -1.970   0.676  1.00  0.00     0.047 A 
ATOM      5  C   UNL     1      -0.077  -3.952   1.202  1.00  0.00     0.001 A 
ATOM      6  C   UNL     1      -0.175  -2.709   0.578  1.00  0.00     0.004 A 
ENDROOT
BRANCH   1   7
ATOM      7  C   UNL     1      -3.491  -4.298   2.811  1.00  0.00     0.075 C 
ATOM      8  O   UNL     1      -3.315  -4.702   3.991  1.00  0.00    -0.545 OA
ATOM      9  O   UNL     1      -4.762  -4.397   2.258  1.00  0.00    -0.545 OA
ENDBRANCH   1   7
BRANCH   2  10
ATOM     10  O   UNL     1      -3.616  -1.712   1.481  1.00  0.00    -0.507 OA
ATOM     11  H   UNL     1      -3.592  -0.710   1.637  1.00  0.00     0.293 HD
ENDBRANCH   2  10
TORSDOF 2
ENDMDL
MODEL 4
REMARK VINA RESULT:    -4.160      1.362      1.989
REMARK INTER + INTRA:          -4.740
REMARK INTER:                  -4.494
REMARK INTRA:                  -0.246
REMARK UNBOUND:                -0.215
REMARK SMILES O=C([O-])c1ccccc1O
REMARK SMILES IDX 4 1 9 2 5 3 8 4 6 5 7 6 2 7 1 8 3 9 10 10
REMARK H PARENT 10 11
REMARK Flexibility Score: inf
ROOT
ATOM      1  C   UNL     1      -2.208  -3.886   1.993  1.00  0.00     0.039 A 
ATOM      2  C   UNL     1      -0.888  -4.395   1.978  1.00  0.00     0.124 A 
ATOM      3  C   UNL     1      -2.498  -2.726   1.247  1.00  0.00     0.014 A 
ATOM      4  C   UNL     1       0.103  -3.743   1.228  1.00  0.00     0.047 A 
ATOM      5  C   UNL     1      -1.502  -2.089   0.505  1.00  0.00     0.001 A 
ATOM      6  C   UNL     1      -0.203  -2.595   0.496  1.00  0.00     0.004 A 
ENDROOT
BRANCH   1   7
ATOM      7  C   UNL     1      -3.289  -4.543   2.773  1.00  0.00     0.075 C 
ATOM      8  O   UNL     1      -3.068  -4.967   3.938  1.00  0.00    -0.545 OA
ATOM      9  O   UNL     1      -4.563  -4.706   2.238  1.00  0.00    -0.545 OA
ENDBRANCH   1   7
BRANCH   2  10
ATOM     10  O   UNL     1      -0.555  -5.540   2.701  1.00  0.00    -0.507 OA
ATOM     11  H   UNL     1      -1.184  -6.331   2.765  1.00  0.00     0.293 HD
ENDBRANCH   2  10
TORSDOF 2
ENDMDL
MODEL 5
REMARK VINA RESULT:    -4.023      2.352      3.360
REMARK INTER + INTRA:          -4.591
REMARK INTER:                  -4.342
REMARK INTRA:                  -0.248
REMARK UNBOUND:                -0.215
REMARK SMILES O=C([O-])c1ccccc1O
REMARK SMILES IDX 4 1 9 2 5 3 8 4 6 5 7 6 2 7 1 8 3 9 10 10
REMARK H PARENT 10 11
REMARK Flexibility Score: inf
ROOT
ATOM      1  C   UNL     1      -1.772  -2.992   1.295  1.00  0.00     0.039 A 
ATOM      2  C   UNL     1      -1.818  -4.181   2.060  1.00  0.00     0.124 A 
ATOM      3  C   UNL     1      -2.881  -2.123   1.325  1.00  0.00     0.014 A 
ATOM      4  C   UNL     1      -2.955  -4.476   2.828  1.00  0.00     0.047 A 
ATOM      5  C   UNL     1      -4.006  -2.428   2.093  1.00  0.00     0.001 A 
ATOM      6  C   UNL     1      -4.044  -3.603   2.844  1.00  0.00     0.004 A 
ENDROOT
BRANCH   1   7
ATOM      7  C   UNL     1      -0.589  -2.641   0.468  1.00  0.00     0.075 C 
ATOM      8  O   UNL     1       0.558  -2.588   0.987  1.00  0.00    -0.545 OA
ATOM      9  O   UNL     1      -0.718  -2.362  -0.888  1.00  0.00    -0.545 OA
ENDBRANCH   1   7
BRANCH   2  10
ATOM     10  O   UNL     1      -0.744  -5.071   2.062  1.00  0.00    -0.507 OA
ATOM     11  H   UNL     1      -0.610  -5.743   2.810  1.00  0.00     0.293 HD
ENDBRANCH   2  10
TORSDOF 2
ENDMDL
MODEL 6
REMARK VINA RESULT:    -3.974      1.616      3.665
REMARK INTER + INTRA:          -4.538
REMARK INTER:                  -4.289
REMARK INTRA:                  -0.249
REMARK UNBOUND:                -0.215
REMARK SMILES O=C([O-])c1ccccc1O
REMARK SMILES IDX 4 1 9 2 5 3 8 4 6 5 7 6 2 7 1 8 3 9 10 10
REMARK H PARENT 10 11
REMARK Flexibility Score: inf
ROOT
ATOM      1  C   UNL     1      -0.596  -4.449   1.886  1.00  0.00     0.039 A 
ATOM      2  C   UNL     1      -1.945  -4.059   2.058  1.00  0.00     0.124 A 
ATOM      3  C   UNL     1       0.240  -3.662   1.068  1.00  0.00     0.014 A 
ATOM      4  C   UNL     1      -2.427  -2.906   1.418  1.00  0.00     0.047 A 
ATOM      5  C   UNL     1      -0.253  -2.517   0.438  1.00  0.00     0.001 A 
ATOM      6  C   UNL     1      -1.584  -2.140   0.612  1.00  0.00     0.004 A 
ENDROOT
BRANCH   1   7
ATOM      7  C   UNL     1      -0.043  -5.662   2.544  1.00  0.00     0.075 C 
ATOM      8  O   UNL     1       0.775  -6.400   1.935  1.00  0.00    -0.545 OA
ATOM      9  O   UNL     1      -0.413  -6.007   3.839  1.00  0.00    -0.545 OA
ENDBRANCH   1   7
BRANCH   2  10
ATOM     10  O   UNL     1      -2.809  -4.807   2.858  1.00  0.00    -0.507 OA
ATOM     11  H   UNL     1      -2.462  -5.453   3.558  1.00  0.00     0.293 HD
ENDBRANCH   2  10
TORSDOF 2
ENDMDL
MODEL 7
REMARK VINA RESULT:    -3.875      2.249      4.034
REMARK INTER + INTRA:          -4.430
REMARK INTER:                  -4.181
REMARK INTRA:                  -0.250
REMARK UNBOUND:                -0.215
REMARK SMILES O=C([O-])c1ccccc1O
REMARK SMILES IDX 4 1 9 2 5 3 8 4 6 5 7 6 2 7 1 8 3 9 10 10
REMARK H PARENT 10 11
REMARK Flexibility Score: inf
ROOT
ATOM      1  C   UNL     1      -1.483  -3.594   1.515  1.00  0.00     0.039 A 
ATOM      2  C   UNL     1      -2.153  -2.415   1.114  1.00  0.00     0.124 A 
ATOM      3  C   UNL     1      -2.136  -4.481   2.395  1.00  0.00     0.014 A 
ATOM      4  C   UNL     1      -3.445  -2.147   1.593  1.00  0.00     0.047 A 
ATOM      5  C   UNL     1      -3.422  -4.202   2.863  1.00  0.00     0.001 A 
ATOM      6  C   UNL     1      -4.075  -3.037   2.464  1.00  0.00     0.004 A 
ENDROOT
BRANCH   1   7
ATOM      7  C   UNL     1      -0.115  -3.918   1.033  1.00  0.00     0.075 C 
ATOM      8  O   UNL     1       0.820  -3.084   1.161  1.00  0.00    -0.545 OA
ATOM      9  O   UNL     1       0.164  -5.141   0.433  1.00  0.00    -0.545 OA
ENDBRANCH   1   7
BRANCH   2  10
ATOM     10  O   UNL     1      -1.546  -1.508   0.246  1.00  0.00    -0.507 OA
ATOM     11  H   UNL     1      -2.033  -0.686  -0.092  1.00  0.00     0.293 HD
ENDBRANCH   2  10
TORSDOF 2
ENDMDL
MODEL 8
REMARK VINA RESULT:    -3.811      7.382      7.728
REMARK INTER + INTRA:          -4.361
REMARK INTER:                  -4.133
REMARK INTRA:                  -0.228
REMARK UNBOUND:                -0.215
REMARK SMILES O=C([O-])c1ccccc1O
REMARK SMILES IDX 4 1 9 2 5 3 8 4 6 5 7 6 2 7 1 8 3 9 10 10
REMARK H PARENT 10 11
REMARK Flexibility Score: inf
ROOT
ATOM      1  C   UNL     1       0.538   1.547   6.726  1.00  0.00     0.039 A 
ATOM      2  C   UNL     1      -0.179   0.588   7.479  1.00  0.00     0.124 A 
ATOM      3  C   UNL     1       1.924   1.365   6.537  1.00  0.00     0.014 A 
ATOM      4  C   UNL     1       0.492  -0.518   8.024  1.00  0.00     0.047 A 
ATOM      5  C   UNL     1       2.578   0.259   7.084  1.00  0.00     0.001 A 
ATOM      6  C   UNL     1       1.864  -0.681   7.827  1.00  0.00     0.004 A 
ENDROOT
BRANCH   1   7
ATOM      7  C   UNL     1      -0.131   2.733   6.131  1.00  0.00     0.075 C 
ATOM      8  O   UNL     1      -1.321   2.657   5.727  1.00  0.00    -0.545 OA
ATOM      9  O   UNL     1       0.536   3.947   6.007  1.00  0.00    -0.545 OA
ENDBRANCH   1   7
BRANCH   2  10
ATOM     10  O   UNL     1      -1.550   0.727   7.692  1.00  0.00    -0.507 OA
ATOM     11  H   UNL     1      -1.979   1.635   7.828  1.00  0.00     0.293 HD
ENDBRANCH   2  10
TORSDOF 2
ENDMDL
MODEL 9
REMARK VINA RESULT:    -3.762      2.492      3.968
REMARK INTER + INTRA:          -4.307
REMARK INTER:                  -4.052
REMARK INTRA:                  -0.255
REMARK UNBOUND:                -0.215
REMARK SMILES O=C([O-])c1ccccc1O
REMARK SMILES IDX 4 1 9 2 5 3 8 4 6 5 7 6 2 7 1 8 3 9 10 10
REMARK H PARENT 10 11
REMARK Flexibility Score: inf
ROOT
ATOM      1  C   UNL     1      -1.672  -4.325   2.183  1.00  0.00     0.039 A 
ATOM      2  C   UNL     1      -1.228  -3.214   1.428  1.00  0.00     0.124 A 
ATOM      3  C   UNL     1      -3.007  -4.349   2.637  1.00  0.00     0.014 A 
ATOM      4  C   UNL     1      -2.113  -2.162   1.145  1.00  0.00     0.047 A 
ATOM      5  C   UNL     1      -3.876  -3.295   2.348  1.00  0.00     0.001 A 
ATOM      6  C   UNL     1      -3.431  -2.203   1.604  1.00  0.00     0.004 A 
ENDROOT
BRANCH   1   7
ATOM      7  C   UNL     1      -0.770  -5.461   2.506  1.00  0.00     0.075 C 
ATOM      8  O   UNL     1      -0.744  -5.943   3.669  1.00  0.00    -0.545 OA
ATOM      9  O   UNL     1       0.061  -6.015   1.538  1.00  0.00    -0.545 OA
ENDBRANCH   1   7
BRANCH   2  10
ATOM     10  O   UNL     1       0.083  -3.147   0.958  1.00  0.00    -0.507 OA
ATOM     11  H   UNL     1       0.760  -2.506   1.356  1.00  0.00     0.293 HD
ENDBRANCH   2  10
TORSDOF 2
ENDMDL
