MODEL 1
REMARK VINA RESULT:    -1.652      0.000      0.000
REMARK INTER + INTRA:          -1.797
REMARK INTER:                  -1.797
REMARK INTRA:                   0.000
REMARK UNBOUND:                 0.000
REMARK SMILES [NH3+]CC(=O)[O-]
REMARK SMILES IDX 2 1 1 2 3 6 4 7 5 8
REMARK H PARENT 1 3 1 4 1 5
REMARK Flexibility Score: inf
ROOT
ATOM      1  C   UNL     1      -1.861  -4.302 -10.373  1.00  0.00     0.312 C 
ENDROOT
BRANCH   1   2
ATOM      2  N   UNL     1      -1.130  -3.038 -10.293  1.00  0.00    -0.353 N 
ATOM      3  H   UNL     1      -0.879  -2.706 -11.253  1.00  0.00     0.344 HD
ATOM      4  H   UNL     1      -0.262  -3.161  -9.722  1.00  0.00     0.344 HD
ATOM      5  H   UNL     1      -1.737  -2.321  -9.835  1.00  0.00     0.344 HD
ENDBRANCH   1   2
BRANCH   1   6
ATOM      6  C   UNL     1      -1.854  -4.826 -11.776  1.00  0.00     0.096 C 
ATOM      7  O   UNL     1      -1.879  -4.030 -12.751  1.00  0.00    -0.544 OA
ATOM      8  O   UNL     1      -1.769  -6.194 -12.007  1.00  0.00    -0.544 OA
ENDBRANCH   1   6
TORSDOF 2
ENDMDL
MODEL 2
REMARK VINA RESULT:    -1.410      2.163      2.431
REMARK INTER + INTRA:          -1.534
REMARK INTER:                  -1.534
REMARK INTRA:                   0.000
REMARK UNBOUND:                 0.000
REMARK SMILES [NH3+]CC(=O)[O-]
REMARK SMILES IDX 2 1 1 2 3 6 4 7 5 8
REMARK H PARENT 1 3 1 4 1 5
REMARK Flexibility Score: inf
ROOT
ATOM      1  C   UNL     1      -2.252  -5.460 -11.075  1.00  0.00     0.312 C 
ENDROOT
BRANCH   1   2
ATOM      2  N   UNL     1      -1.848  -6.599 -11.897  1.00  0.00    -0.353 N 
ATOM      3  H   UNL     1      -1.562  -7.400 -11.287  1.00  0.00     0.344 HD
ATOM      4  H   UNL     1      -1.053  -6.327 -12.521  1.00  0.00     0.344 HD
ATOM      5  H   UNL     1      -2.656  -6.897 -12.490  1.00  0.00     0.344 HD
ENDBRANCH   1   2
BRANCH   1   6
ATOM      6  C   UNL     1      -1.635  -4.195 -11.587  1.00  0.00     0.096 C 
ATOM      7  O   UNL     1      -1.410  -4.053 -12.817  1.00  0.00    -0.544 OA
ATOM      8  O   UNL     1      -1.354  -3.154 -10.710  1.00  0.00    -0.544 OA
ENDBRANCH   1   6
TORSDOF 2
ENDMDL
MODEL 3
REMARK VINA RESULT:    -1.309      6.192      6.561
REMARK INTER + INTRA:          -1.424
REMARK INTER:                  -1.424
REMARK INTRA:                   0.000
REMARK UNBOUND:                 0.000
REMARK SMILES [NH3+]CC(=O)[O-]
REMARK SMILES IDX 2 1 1 2 3 6 4 7 5 8
REMARK H PARENT 1 3 1 4 1 5
REMARK Flexibility Score: inf
ROOT
ATOM      1  C   UNL     1       1.598   0.031  -7.281  1.00  0.00     0.312 C 
ENDROOT
BRANCH   1   2
ATOM      2  N   UNL     1       2.798  -0.365  -6.547  1.00  0.00    -0.353 N 
ATOM      3  H   UNL     1       3.286  -1.143  -7.048  1.00  0.00     0.344 HD
ATOM      4  H   UNL     1       2.543  -0.672  -5.580  1.00  0.00     0.344 HD
ATOM      5  H   UNL     1       3.445   0.454  -6.482  1.00  0.00     0.344 HD
ENDBRANCH   1   2
BRANCH   1   6
ATOM      6  C   UNL     1       1.802  -0.136  -8.756  1.00  0.00     0.096 C 
ATOM      7  O   UNL     1       2.670   0.550  -9.357  1.00  0.00    -0.544 OA
ATOM      8  O   UNL     1       1.070  -1.087  -9.456  1.00  0.00    -0.544 OA
ENDBRANCH   1   6
TORSDOF 2
ENDMDL
MODEL 4
REMARK VINA RESULT:    -0.856      2.326      2.860
REMARK INTER + INTRA:          -0.931
REMARK INTER:                  -0.931
REMARK INTRA:                   0.000
REMARK UNBOUND:                 0.000
REMARK SMILES [NH3+]CC(=O)[O-]
REMARK SMILES IDX 2 1 1 2 3 6 4 7 5 8
REMARK H PARENT 1 3 1 4 1 5
REMARK Flexibility Score: inf
ROOT
ATOM      1  C   UNL     1      -1.706  -4.519 -12.392  1.00  0.00     0.312 C 
ENDROOT
BRANCH   1   2
ATOM      2  N   UNL     1      -1.745  -5.981 -12.366  1.00  0.00    -0.353 N 
ATOM      3  H   UNL     1      -2.624  -6.325 -12.818  1.00  0.00     0.344 HD
ATOM      4  H   UNL     1      -1.697  -6.323 -11.379  1.00  0.00     0.344 HD
ATOM      5  H   UNL     1      -0.924  -6.353 -12.894  1.00  0.00     0.344 HD
ENDBRANCH   1   2
BRANCH   1   6
ATOM      6  C   UNL     1      -1.567  -3.971 -11.006  1.00  0.00     0.096 C 
ATOM      7  O   UNL     1      -1.919  -4.661 -10.013  1.00  0.00    -0.544 OA
ATOM      8  O   UNL     1      -1.002  -2.718 -10.807  1.00  0.00    -0.544 OA
ENDBRANCH   1   6
TORSDOF 2
ENDMDL
MODEL 5
REMARK VINA RESULT:    -0.702      7.180      7.534
REMARK INTER + INTRA:          -0.764
REMARK INTER:                  -0.764
REMARK INTRA:                   0.000
REMARK UNBOUND:                 0.000
REMARK SMILES [NH3+]CC(=O)[O-]
REMARK SMILES IDX 2 1 1 2 3 6 4 7 5 8
REMARK H PARENT 1 3 1 4 1 5
REMARK Flexibility Score: inf
ROOT
ATOM      1  C   UNL     1       2.806  -0.354  -6.359  1.00  0.00     0.312 C 
ENDROOT
BRANCH   1   2
ATOM      2  N   UNL     1       4.164  -0.287  -6.895  1.00  0.00    -0.353 N 
ATOM      3  H   UNL     1       4.673  -1.179  -6.696  1.00  0.00     0.344 HD
ATOM      4  H   UNL     1       4.678   0.518  -6.469  1.00  0.00     0.344 HD
ATOM      5  H   UNL     1       4.115  -0.148  -7.930  1.00  0.00     0.344 HD
ENDBRANCH   1   2
BRANCH   1   6
ATOM      6  C   UNL     1       1.811   0.101  -7.383  1.00  0.00     0.096 C 
ATOM      7  O   UNL     1       2.043  -0.067  -8.608  1.00  0.00    -0.544 OA
ATOM      8  O   UNL     1       0.606   0.663  -6.980  1.00  0.00    -0.544 OA
ENDBRANCH   1   6
TORSDOF 2
ENDMDL
MODEL 6
REMARK VINA RESULT:    -0.699      6.874      7.128
REMARK INTER + INTRA:          -0.760
REMARK INTER:                  -0.760
REMARK INTRA:                   0.000
REMARK UNBOUND:                 0.000
REMARK SMILES [NH3+]CC(=O)[O-]
REMARK SMILES IDX 2 1 1 2 3 6 4 7 5 8
REMARK H PARENT 1 3 1 4 1 5
REMARK Flexibility Score: inf
ROOT
ATOM      1  C   UNL     1       2.167   0.039  -8.874  1.00  0.00     0.312 C 
ENDROOT
BRANCH   1   2
ATOM      2  N   UNL     1       1.469  -1.048  -9.559  1.00  0.00    -0.353 N 
ATOM      3  H   UNL     1       1.339  -0.810 -10.570  1.00  0.00     0.344 HD
ATOM      4  H   UNL     1       0.538  -1.215  -9.111  1.00  0.00     0.344 HD
ATOM      5  H   UNL     1       2.041  -1.919  -9.486  1.00  0.00     0.344 HD
ENDBRANCH   1   2
BRANCH   1   6
ATOM      6  C   UNL     1       1.840   0.036  -7.412  1.00  0.00     0.096 C 
ATOM      7  O   UNL     1       2.650  -0.455  -6.583  1.00  0.00    -0.544 OA
ATOM      8  O   UNL     1       0.663   0.621  -6.961  1.00  0.00    -0.544 OA
ENDBRANCH   1   6
TORSDOF 2
ENDMDL
MODEL 7
REMARK VINA RESULT:    -0.614      6.783      7.067
REMARK INTER + INTRA:          -0.668
REMARK INTER:                  -0.668
REMARK INTRA:                   0.000
REMARK UNBOUND:                 0.000
REMARK SMILES [NH3+]CC(=O)[O-]
REMARK SMILES IDX 2 1 1 2 3 6 4 7 5 8
REMARK H PARENT 1 3 1 4 1 5
REMARK Flexibility Score: inf
ROOT
ATOM      1  C   UNL     1       2.182  -0.001  -8.881  1.00  0.00     0.312 C 
ENDROOT
BRANCH   1   2
ATOM      2  N   UNL     1       1.500  -1.124  -9.521  1.00  0.00    -0.353 N 
ATOM      3  H   UNL     1       2.046  -2.005  -9.379  1.00  0.00     0.344 HD
ATOM      4  H   UNL     1       1.387  -0.939 -10.545  1.00  0.00     0.344 HD
ATOM      5  H   UNL     1       0.554  -1.238  -9.092  1.00  0.00     0.344 HD
ENDBRANCH   1   2
BRANCH   1   6
ATOM      6  C   UNL     1       1.886   0.029  -7.413  1.00  0.00     0.096 C 
ATOM      7  O   UNL     1       0.747   0.377  -7.004  1.00  0.00    -0.544 OA
ATOM      8  O   UNL     1       2.852  -0.375  -6.500  1.00  0.00    -0.544 OA
ENDBRANCH   1   6
TORSDOF 2
ENDMDL
MODEL 8
REMARK VINA RESULT:    -0.161     14.025     14.153
REMARK INTER + INTRA:          -0.175
REMARK INTER:                  -0.175
REMARK INTRA:                   0.000
REMARK UNBOUND:                 0.000
REMARK SMILES [NH3+]CC(=O)[O-]
REMARK SMILES IDX 2 1 1 2 3 6 4 7 5 8
REMARK H PARENT 1 3 1 4 1 5
REMARK Flexibility Score: inf
ROOT
ATOM      1  C   UNL     1      -4.112   2.947  -0.230  1.00  0.00     0.312 C 
ENDROOT
BRANCH   1   2
ATOM      2  N   UNL     1      -5.177   3.304   0.707  1.00  0.00    -0.353 N 
ATOM      3  H   UNL     1      -4.837   3.205   1.691  1.00  0.00     0.344 HD
ATOM      4  H   UNL     1      -6.009   2.688   0.555  1.00  0.00     0.344 HD
ATOM      5  H   UNL     1      -5.457   4.297   0.542  1.00  0.00     0.344 HD
ENDBRANCH   1   2
BRANCH   1   6
ATOM      6  C   UNL     1      -2.955   2.333   0.496  1.00  0.00     0.096 C 
ATOM      7  O   UNL     1      -3.081   1.211   1.053  1.00  0.00    -0.544 OA
ATOM      8  O   UNL     1      -1.724   2.977   0.514  1.00  0.00    -0.544 OA
ENDBRANCH   1   6
TORSDOF 2
ENDMDL
MODEL 9
REMARK VINA RESULT:     0.071      6.071      6.356
REMARK INTER + INTRA:           0.078
REMARK INTER:                   0.078
REMARK INTRA:                   0.000
REMARK UNBOUND:                 0.000
REMARK SMILES [NH3+]CC(=O)[O-]
REMARK SMILES IDX 2 1 1 2 3 6 4 7 5 8
REMARK H PARENT 1 3 1 4 1 5
REMARK Flexibility Score: inf
ROOT
ATOM      1  C   UNL     1       0.993  -1.040  -9.531  1.00  0.00     0.312 C 
ENDROOT
BRANCH   1   2
ATOM      2  N   UNL     1       1.833  -1.636 -10.568  1.00  0.00    -0.353 N 
ATOM      3  H   UNL     1       2.207  -2.557 -10.243  1.00  0.00     0.344 HD
ATOM      4  H   UNL     1       2.626  -0.993 -10.800  1.00  0.00     0.344 HD
ATOM      5  H   UNL     1       1.259  -1.787 -11.428  1.00  0.00     0.344 HD
ENDBRANCH   1   2
BRANCH   1   6
ATOM      6  C   UNL     1       1.795  -0.111  -8.671  1.00  0.00     0.096 C 
ATOM      7  O   UNL     1       2.733   0.563  -9.171  1.00  0.00    -0.544 OA
ATOM      8  O   UNL     1       1.473   0.046  -7.329  1.00  0.00    -0.544 OA
ENDBRANCH   1   6
TORSDOF 2
ENDMDL
