MODEL 1
REMARK VINA RESULT:    -7.527      0.000      0.000
REMARK INTER + INTRA:         -12.240
REMARK INTER:                 -11.268
REMARK INTRA:                  -0.973
REMARK UNBOUND:                -0.973
REMARK SMILES O=c1c(O[C@@H]2O[C@H](CO)[C@H](O)[C@@H](O)[C@H]2O)c(-c2cc(O)c(O)c(O)c2)oc2cc(O)cc(O)c12
REMARK SMILES IDX 4 1 3 2 16 3 26 4 2 5 27 6 1 7 34 8 28 9 32 10 29 11 31 12
REMARK SMILES IDX 17 13 18 14 19 15 25 16 21 17 23 18 20 19 22 21 24 23 33 25
REMARK SMILES IDX 30 27 5 29 14 30 6 31 12 32 7 33 10 34 15 35 13 37 8 39 9 40
REMARK SMILES IDX 11 42
REMARK H PARENT 20 20 22 22 24 24 33 26 30 28 15 36 13 38 9 41 11 43
REMARK Flexibility Score: inf
ROOT
ATOM      1  O   UNL     1      53.966   6.274  77.207  1.00  0.00    -0.454 OA
ENDROOT
BRANCH   1   2
ATOM      2  C   UNL     1      54.716   5.602  78.183  1.00  0.00     0.214 A 
ATOM      3  C   UNL     1      54.127   4.730  79.123  1.00  0.00     0.181 A 
ATOM      4  O   UNL     1      54.866   4.262  80.126  1.00  0.00    -0.452 OA
ATOM      5  C   UNL     1      56.091   5.859  78.261  1.00  0.00     0.239 A 
ATOM      6  C   UNL     1      56.160   4.527  80.271  1.00  0.00     0.146 A 
ATOM      7  O   UNL     1      56.627   6.612  77.399  1.00  0.00    -0.285 OA
ATOM      8  C   UNL     1      56.843   5.321  79.322  1.00  0.00     0.111 A 
ATOM      9  C   UNL     1      56.842   4.011  81.377  1.00  0.00     0.094 A 
ATOM     10  C   UNL     1      58.228   5.562  79.491  1.00  0.00     0.134 A 
ATOM     11  C   UNL     1      58.206   4.268  81.547  1.00  0.00     0.123 A 
ATOM     12  C   UNL     1      58.895   5.035  80.604  1.00  0.00     0.093 A 
BRANCH   3  13
ATOM     13  C   UNL     1      52.708   4.299  79.046  1.00  0.00     0.029 A 
ATOM     14  C   UNL     1      51.886   4.418  80.181  1.00  0.00     0.062 A 
ATOM     15  C   UNL     1      50.546   4.022  80.137  1.00  0.00     0.162 A 
ATOM     16  C   UNL     1      52.174   3.727  77.876  1.00  0.00     0.062 A 
ATOM     17  C   UNL     1      50.018   3.468  78.957  1.00  0.00     0.200 A 
ATOM     18  C   UNL     1      50.838   3.320  77.827  1.00  0.00     0.162 A 
BRANCH  15  19
ATOM     19  O   UNL     1      49.752   4.200  81.267  1.00  0.00    -0.504 OA
ATOM     20  H   UNL     1      49.816   5.023  81.846  1.00  0.00     0.293 HD
ENDBRANCH  15  19
BRANCH  17  21
ATOM     21  O   UNL     1      48.689   3.065  78.903  1.00  0.00    -0.502 OA
ATOM     22  H   UNL     1      48.036   3.541  78.288  1.00  0.00     0.293 HD
ENDBRANCH  17  21
BRANCH  18  23
ATOM     23  O   UNL     1      50.347   2.757  76.650  1.00  0.00    -0.504 OA
ATOM     24  H   UNL     1      50.010   3.325  75.878  1.00  0.00     0.293 HD
ENDBRANCH  18  23
ENDBRANCH   3  13
BRANCH  10  25
ATOM     25  O   UNL     1      58.943   6.323  78.565  1.00  0.00    -0.507 OA
ATOM     26  H   UNL     1      59.374   5.904  77.748  1.00  0.00     0.293 HD
ENDBRANCH  10  25
BRANCH  11  27
ATOM     27  O   UNL     1      58.890   3.771  82.655  1.00  0.00    -0.508 OA
ATOM     28  H   UNL     1      58.467   3.765  83.576  1.00  0.00     0.293 HD
ENDBRANCH  11  27
ENDBRANCH   1   2
BRANCH   1  29
ATOM     29  C   UNL     1      53.076   7.349  77.517  1.00  0.00     0.339 C 
ATOM     30  C   UNL     1      53.538   8.057  78.838  1.00  0.00     0.214 C 
ATOM     31  O   UNL     1      53.024   8.207  76.378  1.00  0.00    -0.332 OA
ATOM     32  C   UNL     1      54.434   9.268  78.514  1.00  0.00     0.180 C 
ATOM     33  C   UNL     1      52.606   9.511  76.732  1.00  0.00     0.179 C 
ATOM     34  C   UNL     1      53.743  10.230  77.509  1.00  0.00     0.177 C 
BRANCH  30  35
ATOM     35  O   UNL     1      52.426   8.489  79.581  1.00  0.00    -0.384 OA
ATOM     36  H   UNL     1      52.567   9.452  79.782  1.00  0.00     0.211 HD
ENDBRANCH  30  35
BRANCH  32  37
ATOM     37  O   UNL     1      54.750   9.975  79.687  1.00  0.00    -0.387 OA
ATOM     38  H   UNL     1      55.735  10.021  79.744  1.00  0.00     0.211 HD
ENDBRANCH  32  37
BRANCH  33  39
ATOM     39  C   UNL     1      52.172  10.279  75.479  1.00  0.00     0.191 C 
BRANCH  39  40
ATOM     40  O   UNL     1      50.772  10.344  75.425  1.00  0.00    -0.394 OA
ATOM     41  H   UNL     1      50.481   9.563  74.885  1.00  0.00     0.210 HD
ENDBRANCH  39  40
ENDBRANCH  33  39
BRANCH  34  42
ATOM     42  O   UNL     1      54.706  10.783  76.639  1.00  0.00    -0.387 OA
ATOM     43  H   UNL     1      55.346  11.302  77.193  1.00  0.00     0.211 HD
ENDBRANCH  34  42
ENDBRANCH   1  29
TORSDOF 13
ENDMDL
MODEL 2
REMARK VINA RESULT:    -7.455      0.082      1.448
REMARK INTER + INTRA:         -12.132
REMARK INTER:                 -11.210
REMARK INTRA:                  -0.923
REMARK UNBOUND:                -0.973
REMARK SMILES O=c1c(O[C@@H]2O[C@H](CO)[C@H](O)[C@@H](O)[C@H]2O)c(-c2cc(O)c(O)c(O)c2)oc2cc(O)cc(O)c12
REMARK SMILES IDX 4 1 3 2 16 3 26 4 2 5 27 6 1 7 34 8 28 9 32 10 29 11 31 12
REMARK SMILES IDX 17 13 18 14 19 15 25 16 21 17 23 18 20 19 22 21 24 23 33 25
REMARK SMILES IDX 30 27 5 29 14 30 6 31 12 32 7 33 10 34 15 35 13 37 8 39 9 40
REMARK SMILES IDX 11 42
REMARK H PARENT 20 20 22 22 24 24 33 26 30 28 15 36 13 38 9 41 11 43
REMARK Flexibility Score: inf
ROOT
ATOM      1  O   UNL     1      53.950   6.229  77.293  1.00  0.00    -0.454 OA
ENDROOT
BRANCH   1   2
ATOM      2  C   UNL     1      54.703   5.559  78.267  1.00  0.00     0.214 A 
ATOM      3  C   UNL     1      54.117   4.695  79.217  1.00  0.00     0.181 A 
ATOM      4  O   UNL     1      54.861   4.230  80.217  1.00  0.00    -0.452 OA
ATOM      5  C   UNL     1      56.080   5.811  78.335  1.00  0.00     0.239 A 
ATOM      6  C   UNL     1      56.158   4.490  80.352  1.00  0.00     0.146 A 
ATOM      7  O   UNL     1      56.614   6.556  77.464  1.00  0.00    -0.285 OA
ATOM      8  C   UNL     1      56.837   5.275  79.394  1.00  0.00     0.111 A 
ATOM      9  C   UNL     1      56.844   3.977  81.456  1.00  0.00     0.094 A 
ATOM     10  C   UNL     1      58.224   5.512  79.551  1.00  0.00     0.134 A 
ATOM     11  C   UNL     1      58.211   4.229  81.615  1.00  0.00     0.123 A 
ATOM     12  C   UNL     1      58.896   4.988  80.663  1.00  0.00     0.093 A 
BRANCH   3  13
ATOM     13  C   UNL     1      52.696   4.269  79.152  1.00  0.00     0.029 A 
ATOM     14  C   UNL     1      52.185   3.747  77.951  1.00  0.00     0.062 A 
ATOM     15  C   UNL     1      50.851   3.336  77.862  1.00  0.00     0.162 A 
ATOM     16  C   UNL     1      51.831   4.419  80.252  1.00  0.00     0.062 A 
ATOM     17  C   UNL     1      50.000   3.474  78.972  1.00  0.00     0.200 A 
ATOM     18  C   UNL     1      50.494   4.020  80.168  1.00  0.00     0.162 A 
BRANCH  15  19
ATOM     19  O   UNL     1      50.394   2.780  76.669  1.00  0.00    -0.504 OA
ATOM     20  H   UNL     1      49.528   2.268  76.611  1.00  0.00     0.293 HD
ENDBRANCH  15  19
BRANCH  17  21
ATOM     21  O   UNL     1      48.670   3.076  78.893  1.00  0.00    -0.502 OA
ATOM     22  H   UNL     1      47.944   3.758  78.699  1.00  0.00     0.293 HD
ENDBRANCH  17  21
BRANCH  18  23
ATOM     23  O   UNL     1      49.669   4.186  81.279  1.00  0.00    -0.504 OA
ATOM     24  H   UNL     1      49.572   3.470  81.993  1.00  0.00     0.293 HD
ENDBRANCH  18  23
ENDBRANCH   3  13
BRANCH  10  25
ATOM     25  O   UNL     1      58.936   6.265  78.617  1.00  0.00    -0.507 OA
ATOM     26  H   UNL     1      58.746   6.200  77.622  1.00  0.00     0.293 HD
ENDBRANCH  10  25
BRANCH  11  27
ATOM     27  O   UNL     1      58.901   3.736  82.721  1.00  0.00    -0.508 OA
ATOM     28  H   UNL     1      58.686   2.825  83.113  1.00  0.00     0.293 HD
ENDBRANCH  11  27
ENDBRANCH   1   2
BRANCH   1  29
ATOM     29  C   UNL     1      53.081   7.322  77.599  1.00  0.00     0.339 C 
ATOM     30  C   UNL     1      53.592   8.061  78.886  1.00  0.00     0.214 C 
ATOM     31  O   UNL     1      53.002   8.148  76.440  1.00  0.00    -0.332 OA
ATOM     32  C   UNL     1      54.490   9.252  78.500  1.00  0.00     0.180 C 
ATOM     33  C   UNL     1      52.609   9.467  76.770  1.00  0.00     0.179 C 
ATOM     34  C   UNL     1      53.778  10.194  77.490  1.00  0.00     0.177 C 
BRANCH  30  35
ATOM     35  O   UNL     1      52.508   8.526  79.650  1.00  0.00    -0.384 OA
ATOM     36  H   UNL     1      52.513   8.015  80.502  1.00  0.00     0.211 HD
ENDBRANCH  30  35
BRANCH  32  37
ATOM     37  O   UNL     1      54.850   9.987  79.642  1.00  0.00    -0.387 OA
ATOM     38  H   UNL     1      54.583   9.454  80.430  1.00  0.00     0.211 HD
ENDBRANCH  32  37
BRANCH  33  39
ATOM     39  C   UNL     1      52.145  10.204  75.509  1.00  0.00     0.191 C 
BRANCH  39  40
ATOM     40  O   UNL     1      50.745  10.293  75.503  1.00  0.00    -0.394 OA
ATOM     41  H   UNL     1      50.443   9.812  74.688  1.00  0.00     0.210 HD
ENDBRANCH  39  40
ENDBRANCH  33  39
BRANCH  34  42
ATOM     42  O   UNL     1      54.719  10.711  76.576  1.00  0.00    -0.387 OA
ATOM     43  H   UNL     1      54.798  11.686  76.747  1.00  0.00     0.211 HD
ENDBRANCH  34  42
ENDBRANCH   1  29
TORSDOF 13
ENDMDL
MODEL 3
REMARK VINA RESULT:    -7.356      2.655      4.671
REMARK INTER + INTRA:         -11.984
REMARK INTER:                 -10.841
REMARK INTRA:                  -1.143
REMARK UNBOUND:                -0.973
REMARK SMILES O=c1c(O[C@@H]2O[C@H](CO)[C@H](O)[C@@H](O)[C@H]2O)c(-c2cc(O)c(O)c(O)c2)oc2cc(O)cc(O)c12
REMARK SMILES IDX 4 1 3 2 16 3 26 4 2 5 27 6 1 7 34 8 28 9 32 10 29 11 31 12
REMARK SMILES IDX 17 13 18 14 19 15 25 16 21 17 23 18 20 19 22 21 24 23 33 25
REMARK SMILES IDX 30 27 5 29 14 30 6 31 12 32 7 33 10 34 15 35 13 37 8 39 9 40
REMARK SMILES IDX 11 42
REMARK H PARENT 20 20 22 22 24 24 33 26 30 28 15 36 13 38 9 41 11 43
REMARK Flexibility Score: inf
ROOT
ATOM      1  O   UNL     1      55.800   3.645  79.525  1.00  0.00    -0.454 OA
ENDROOT
BRANCH   1   2
ATOM      2  C   UNL     1      56.329   4.693  80.291  1.00  0.00     0.214 A 
ATOM      3  C   UNL     1      55.766   5.091  81.522  1.00  0.00     0.181 A 
ATOM      4  O   UNL     1      56.209   6.199  82.111  1.00  0.00    -0.452 OA
ATOM      5  C   UNL     1      57.421   5.407  79.780  1.00  0.00     0.239 A 
ATOM      6  C   UNL     1      57.204   6.939  81.631  1.00  0.00     0.146 A 
ATOM      7  O   UNL     1      57.950   5.031  78.696  1.00  0.00    -0.285 OA
ATOM      8  C   UNL     1      57.879   6.558  80.449  1.00  0.00     0.111 A 
ATOM      9  C   UNL     1      57.576   8.102  82.309  1.00  0.00     0.094 A 
ATOM     10  C   UNL     1      58.951   7.352  79.978  1.00  0.00     0.134 A 
ATOM     11  C   UNL     1      58.626   8.893  81.829  1.00  0.00     0.123 A 
ATOM     12  C   UNL     1      59.312   8.514  80.673  1.00  0.00     0.093 A 
BRANCH   3  13
ATOM     13  C   UNL     1      54.692   4.324  82.205  1.00  0.00     0.029 A 
ATOM     14  C   UNL     1      54.783   2.923  82.277  1.00  0.00     0.062 A 
ATOM     15  C   UNL     1      53.788   2.176  82.915  1.00  0.00     0.162 A 
ATOM     16  C   UNL     1      53.558   4.962  82.742  1.00  0.00     0.062 A 
ATOM     17  C   UNL     1      52.668   2.824  83.463  1.00  0.00     0.200 A 
ATOM     18  C   UNL     1      52.555   4.221  83.373  1.00  0.00     0.162 A 
BRANCH  15  19
ATOM     19  O   UNL     1      53.937   0.794  83.007  1.00  0.00    -0.504 OA
ATOM     20  H   UNL     1      54.757   0.366  83.409  1.00  0.00     0.293 HD
ENDBRANCH  15  19
BRANCH  17  21
ATOM     21  O   UNL     1      51.669   2.091  84.094  1.00  0.00    -0.502 OA
ATOM     22  H   UNL     1      51.711   1.929  85.096  1.00  0.00     0.293 HD
ENDBRANCH  17  21
BRANCH  18  23
ATOM     23  O   UNL     1      51.447   4.890  83.891  1.00  0.00    -0.504 OA
ATOM     24  H   UNL     1      51.027   4.633  84.779  1.00  0.00     0.293 HD
ENDBRANCH  18  23
ENDBRANCH   3  13
BRANCH  10  25
ATOM     25  O   UNL     1      59.657   6.999  78.828  1.00  0.00    -0.507 OA
ATOM     26  H   UNL     1      59.446   6.152  78.311  1.00  0.00     0.293 HD
ENDBRANCH  10  25
BRANCH  11  27
ATOM     27  O   UNL     1      58.993  10.064  82.490  1.00  0.00    -0.508 OA
ATOM     28  H   UNL     1      59.892  10.147  82.953  1.00  0.00     0.293 HD
ENDBRANCH  11  27
ENDBRANCH   1   2
BRANCH   1  29
ATOM     29  C   UNL     1      54.836   3.851  78.490  1.00  0.00     0.339 C 
ATOM     30  C   UNL     1      53.559   2.986  78.773  1.00  0.00     0.214 C 
ATOM     31  O   UNL     1      54.589   5.253  78.403  1.00  0.00    -0.332 OA
ATOM     32  C   UNL     1      52.504   3.817  79.530  1.00  0.00     0.180 C 
ATOM     33  C   UNL     1      53.336   5.521  77.803  1.00  0.00     0.179 C 
ATOM     34  C   UNL     1      52.195   5.148  78.789  1.00  0.00     0.177 C 
BRANCH  30  35
ATOM     35  O   UNL     1      53.003   2.517  77.571  1.00  0.00    -0.384 OA
ATOM     36  H   UNL     1      53.368   1.605  77.418  1.00  0.00     0.211 HD
ENDBRANCH  30  35
BRANCH  32  37
ATOM     37  O   UNL     1      51.314   3.085  79.679  1.00  0.00    -0.387 OA
ATOM     38  H   UNL     1      51.568   2.141  79.825  1.00  0.00     0.211 HD
ENDBRANCH  32  37
BRANCH  33  39
ATOM     39  C   UNL     1      53.273   6.987  77.358  1.00  0.00     0.191 C 
BRANCH  39  40
ATOM     40  O   UNL     1      53.986   7.147  76.161  1.00  0.00    -0.394 OA
ATOM     41  H   UNL     1      53.393   6.806  75.440  1.00  0.00     0.210 HD
ENDBRANCH  39  40
ENDBRANCH  33  39
BRANCH  34  42
ATOM     42  O   UNL     1      51.956   6.172  79.730  1.00  0.00    -0.387 OA
ATOM     43  H   UNL     1      51.984   7.037  79.244  1.00  0.00     0.211 HD
ENDBRANCH  34  42
ENDBRANCH   1  29
TORSDOF 13
ENDMDL
MODEL 4
REMARK VINA RESULT:    -7.292      2.435      5.933
REMARK INTER + INTRA:         -11.889
REMARK INTER:                 -10.938
REMARK INTRA:                  -0.951
REMARK UNBOUND:                -0.973
REMARK SMILES O=c1c(O[C@@H]2O[C@H](CO)[C@H](O)[C@@H](O)[C@H]2O)c(-c2cc(O)c(O)c(O)c2)oc2cc(O)cc(O)c12
REMARK SMILES IDX 4 1 3 2 16 3 26 4 2 5 27 6 1 7 34 8 28 9 32 10 29 11 31 12
REMARK SMILES IDX 17 13 18 14 19 15 25 16 21 17 23 18 20 19 22 21 24 23 33 25
REMARK SMILES IDX 30 27 5 29 14 30 6 31 12 32 7 33 10 34 15 35 13 37 8 39 9 40
REMARK SMILES IDX 11 42
REMARK H PARENT 20 20 22 22 24 24 33 26 30 28 15 36 13 38 9 41 11 43
REMARK Flexibility Score: inf
ROOT
ATOM      1  O   UNL     1      55.137   3.618  80.479  1.00  0.00    -0.454 OA
ENDROOT
BRANCH   1   2
ATOM      2  C   UNL     1      55.190   4.850  79.813  1.00  0.00     0.214 A 
ATOM      3  C   UNL     1      54.105   5.352  79.062  1.00  0.00     0.181 A 
ATOM      4  O   UNL     1      54.281   6.440  78.316  1.00  0.00    -0.452 OA
ATOM      5  C   UNL     1      56.388   5.577  79.847  1.00  0.00     0.239 A 
ATOM      6  C   UNL     1      55.418   7.127  78.274  1.00  0.00     0.146 A 
ATOM      7  O   UNL     1      57.348   5.148  80.548  1.00  0.00    -0.285 OA
ATOM      8  C   UNL     1      56.522   6.739  79.065  1.00  0.00     0.111 A 
ATOM      9  C   UNL     1      55.510   8.240  77.434  1.00  0.00     0.094 A 
ATOM     10  C   UNL     1      57.710   7.508  79.018  1.00  0.00     0.134 A 
ATOM     11  C   UNL     1      56.693   8.985  77.379  1.00  0.00     0.123 A 
ATOM     12  C   UNL     1      57.784   8.622  78.172  1.00  0.00     0.093 A 
BRANCH   3  13
ATOM     13  C   UNL     1      52.760   4.722  79.066  1.00  0.00     0.029 A 
ATOM     14  C   UNL     1      52.274   4.123  77.891  1.00  0.00     0.062 A 
ATOM     15  C   UNL     1      51.012   3.521  77.867  1.00  0.00     0.162 A 
ATOM     16  C   UNL     1      51.937   4.750  80.207  1.00  0.00     0.062 A 
ATOM     17  C   UNL     1      50.204   3.540  79.017  1.00  0.00     0.200 A 
ATOM     18  C   UNL     1      50.670   4.159  80.188  1.00  0.00     0.162 A 
BRANCH  15  19
ATOM     19  O   UNL     1      50.584   2.897  76.697  1.00  0.00    -0.504 OA
ATOM     20  H   UNL     1      51.199   2.330  76.134  1.00  0.00     0.293 HD
ENDBRANCH  15  19
BRANCH  17  21
ATOM     21  O   UNL     1      48.945   2.950  79.003  1.00  0.00    -0.502 OA
ATOM     22  H   UNL     1      48.160   3.434  78.577  1.00  0.00     0.293 HD
ENDBRANCH  17  21
BRANCH  18  23
ATOM     23  O   UNL     1      49.885   4.210  81.338  1.00  0.00    -0.504 OA
ATOM     24  H   UNL     1      49.546   5.086  81.724  1.00  0.00     0.293 HD
ENDBRANCH  18  23
ENDBRANCH   3  13
BRANCH  10  25
ATOM     25  O   UNL     1      58.816   7.171  79.799  1.00  0.00    -0.507 OA
ATOM     26  H   UNL     1      59.416   7.879  80.210  1.00  0.00     0.293 HD
ENDBRANCH  10  25
BRANCH  11  27
ATOM     27  O   UNL     1      56.800  10.087  76.532  1.00  0.00    -0.508 OA
ATOM     28  H   UNL     1      56.272  10.936  76.703  1.00  0.00     0.293 HD
ENDBRANCH  11  27
ENDBRANCH   1   2
BRANCH   1  29
ATOM     29  C   UNL     1      55.214   3.502  81.902  1.00  0.00     0.339 C 
ATOM     30  C   UNL     1      54.741   4.840  82.571  1.00  0.00     0.214 C 
ATOM     31  O   UNL     1      54.457   2.355  82.282  1.00  0.00    -0.332 OA
ATOM     32  C   UNL     1      53.244   4.761  82.929  1.00  0.00     0.180 C 
ATOM     33  C   UNL     1      54.048   2.431  83.635  1.00  0.00     0.179 C 
ATOM     34  C   UNL     1      52.933   3.501  83.784  1.00  0.00     0.177 C 
BRANCH  30  35
ATOM     35  O   UNL     1      55.483   5.100  83.735  1.00  0.00    -0.384 OA
ATOM     36  H   UNL     1      55.168   5.972  84.092  1.00  0.00     0.211 HD
ENDBRANCH  30  35
BRANCH  32  37
ATOM     37  O   UNL     1      52.846   5.909  83.636  1.00  0.00    -0.387 OA
ATOM     38  H   UNL     1      53.448   6.643  83.364  1.00  0.00     0.211 HD
ENDBRANCH  32  37
BRANCH  33  39
ATOM     39  C   UNL     1      53.606   1.047  84.125  1.00  0.00     0.191 C 
BRANCH  39  40
ATOM     40  O   UNL     1      53.209   0.264  83.032  1.00  0.00    -0.394 OA
ATOM     41  H   UNL     1      53.179  -0.673  83.361  1.00  0.00     0.210 HD
ENDBRANCH  39  40
ENDBRANCH  33  39
BRANCH  34  42
ATOM     42  O   UNL     1      51.664   2.991  83.436  1.00  0.00    -0.387 OA
ATOM     43  H   UNL     1      50.991   3.459  83.996  1.00  0.00     0.211 HD
ENDBRANCH  34  42
ENDBRANCH   1  29
TORSDOF 13
ENDMDL
MODEL 5
REMARK VINA RESULT:    -7.227      2.954      5.941
REMARK INTER + INTRA:         -11.791
REMARK INTER:                 -10.752
REMARK INTRA:                  -1.039
REMARK UNBOUND:                -0.973
REMARK SMILES O=c1c(O[C@@H]2O[C@H](CO)[C@H](O)[C@@H](O)[C@H]2O)c(-c2cc(O)c(O)c(O)c2)oc2cc(O)cc(O)c12
REMARK SMILES IDX 4 1 3 2 16 3 26 4 2 5 27 6 1 7 34 8 28 9 32 10 29 11 31 12
REMARK SMILES IDX 17 13 18 14 19 15 25 16 21 17 23 18 20 19 22 21 24 23 33 25
REMARK SMILES IDX 30 27 5 29 14 30 6 31 12 32 7 33 10 34 15 35 13 37 8 39 9 40
REMARK SMILES IDX 11 42
REMARK H PARENT 20 20 22 22 24 24 33 26 30 28 15 36 13 38 9 41 11 43
REMARK Flexibility Score: inf
ROOT
ATOM      1  O   UNL     1      56.777   4.321  81.235  1.00  0.00    -0.454 OA
ENDROOT
BRANCH   1   2
ATOM      2  C   UNL     1      56.887   5.463  80.428  1.00  0.00     0.214 A 
ATOM      3  C   UNL     1      56.091   5.659  79.280  1.00  0.00     0.181 A 
ATOM      4  O   UNL     1      56.365   6.676  78.466  1.00  0.00    -0.452 OA
ATOM      5  C   UNL     1      57.869   6.411  80.746  1.00  0.00     0.239 A 
ATOM      6  C   UNL     1      57.325   7.565  78.699  1.00  0.00     0.146 A 
ATOM      7  O   UNL     1      58.559   6.256  81.793  1.00  0.00    -0.285 OA
ATOM      8  C   UNL     1      58.108   7.489  79.873  1.00  0.00     0.111 A 
ATOM      9  C   UNL     1      57.553   8.581  77.766  1.00  0.00     0.094 A 
ATOM     10  C   UNL     1      59.104   8.467  80.104  1.00  0.00     0.134 A 
ATOM     11  C   UNL     1      58.551   9.534  77.992  1.00  0.00     0.123 A 
ATOM     12  C   UNL     1      59.317   9.479  79.159  1.00  0.00     0.093 A 
BRANCH   3  13
ATOM     13  C   UNL     1      54.945   4.780  78.931  1.00  0.00     0.029 A 
ATOM     14  C   UNL     1      55.191   3.479  78.458  1.00  0.00     0.062 A 
ATOM     15  C   UNL     1      54.132   2.629  78.124  1.00  0.00     0.162 A 
ATOM     16  C   UNL     1      53.615   5.233  79.019  1.00  0.00     0.062 A 
ATOM     17  C   UNL     1      52.807   3.086  78.232  1.00  0.00     0.200 A 
ATOM     18  C   UNL     1      52.552   4.392  78.679  1.00  0.00     0.162 A 
BRANCH  15  19
ATOM     19  O   UNL     1      54.415   1.332  77.703  1.00  0.00    -0.504 OA
ATOM     20  H   UNL     1      55.322   0.910  77.832  1.00  0.00     0.293 HD
ENDBRANCH  15  19
BRANCH  17  21
ATOM     21  O   UNL     1      51.746   2.252  77.897  1.00  0.00    -0.502 OA
ATOM     22  H   UNL     1      51.052   2.556  77.220  1.00  0.00     0.293 HD
ENDBRANCH  17  21
BRANCH  18  23
ATOM     23  O   UNL     1      51.249   4.879  78.778  1.00  0.00    -0.504 OA
ATOM     24  H   UNL     1      50.509   4.354  79.234  1.00  0.00     0.293 HD
ENDBRANCH  18  23
ENDBRANCH   3  13
BRANCH  10  25
ATOM     25  O   UNL     1      59.885   8.439  81.260  1.00  0.00    -0.507 OA
ATOM     26  H   UNL     1      59.608   8.930  82.104  1.00  0.00     0.293 HD
ENDBRANCH  10  25
BRANCH  11  27
ATOM     27  O   UNL     1      58.797  10.541  77.060  1.00  0.00    -0.508 OA
ATOM     28  H   UNL     1      59.222  11.420  77.334  1.00  0.00     0.293 HD
ENDBRANCH  11  27
ENDBRANCH   1   2
BRANCH   1  29
ATOM     29  C   UNL     1      56.168   4.341  82.528  1.00  0.00     0.339 C 
ATOM     30  C   UNL     1      55.318   5.649  82.695  1.00  0.00     0.214 C 
ATOM     31  O   UNL     1      55.423   3.134  82.673  1.00  0.00    -0.332 OA
ATOM     32  C   UNL     1      53.847   5.385  82.319  1.00  0.00     0.180 C 
ATOM     33  C   UNL     1      54.408   3.266  83.650  1.00  0.00     0.179 C 
ATOM     34  C   UNL     1      53.272   4.172  83.102  1.00  0.00     0.177 C 
BRANCH  30  35
ATOM     35  O   UNL     1      55.381   6.114  84.020  1.00  0.00    -0.384 OA
ATOM     36  H   UNL     1      56.287   5.893  84.362  1.00  0.00     0.211 HD
ENDBRANCH  30  35
BRANCH  32  37
ATOM     37  O   UNL     1      53.060   6.519  82.582  1.00  0.00    -0.387 OA
ATOM     38  H   UNL     1      52.485   6.666  81.792  1.00  0.00     0.211 HD
ENDBRANCH  32  37
BRANCH  33  39
ATOM     39  C   UNL     1      53.906   1.881  84.072  1.00  0.00     0.191 C 
BRANCH  39  40
ATOM     40  O   UNL     1      53.939   1.012  82.972  1.00  0.00    -0.394 OA
ATOM     41  H   UNL     1      54.879   1.014  82.648  1.00  0.00     0.210 HD
ENDBRANCH  39  40
ENDBRANCH  33  39
BRANCH  34  42
ATOM     42  O   UNL     1      52.377   3.455  82.280  1.00  0.00    -0.387 OA
ATOM     43  H   UNL     1      51.966   2.743  82.836  1.00  0.00     0.211 HD
ENDBRANCH  34  42
ENDBRANCH   1  29
TORSDOF 13
ENDMDL
MODEL 6
REMARK VINA RESULT:    -7.199      2.553      7.587
REMARK INTER + INTRA:         -11.749
REMARK INTER:                 -11.111
REMARK INTRA:                  -0.638
REMARK UNBOUND:                -0.973
REMARK SMILES O=c1c(O[C@@H]2O[C@H](CO)[C@H](O)[C@@H](O)[C@H]2O)c(-c2cc(O)c(O)c(O)c2)oc2cc(O)cc(O)c12
REMARK SMILES IDX 4 1 3 2 16 3 26 4 2 5 27 6 1 7 34 8 28 9 32 10 29 11 31 12
REMARK SMILES IDX 17 13 18 14 19 15 25 16 21 17 23 18 20 19 22 21 24 23 33 25
REMARK SMILES IDX 30 27 5 29 14 30 6 31 12 32 7 33 10 34 15 35 13 37 8 39 9 40
REMARK SMILES IDX 11 42
REMARK H PARENT 20 20 22 22 24 24 33 26 30 28 15 36 13 38 9 41 11 43
REMARK Flexibility Score: inf
ROOT
ATOM      1  O   UNL     1      54.169   6.616  81.335  1.00  0.00    -0.454 OA
ENDROOT
BRANCH   1   2
ATOM      2  C   UNL     1      53.641   5.756  80.361  1.00  0.00     0.214 A 
ATOM      3  C   UNL     1      54.303   5.494  79.142  1.00  0.00     0.181 A 
ATOM      4  O   UNL     1      53.669   4.809  78.194  1.00  0.00    -0.452 OA
ATOM      5  C   UNL     1      52.381   5.187  80.588  1.00  0.00     0.239 A 
ATOM      6  C   UNL     1      52.450   4.301  78.345  1.00  0.00     0.146 A 
ATOM      7  O   UNL     1      51.802   5.391  81.692  1.00  0.00    -0.285 OA
ATOM      8  C   UNL     1      51.757   4.444  79.568  1.00  0.00     0.111 A 
ATOM      9  C   UNL     1      51.859   3.621  77.277  1.00  0.00     0.094 A 
ATOM     10  C   UNL     1      50.471   3.867  79.705  1.00  0.00     0.134 A 
ATOM     11  C   UNL     1      50.581   3.069  77.413  1.00  0.00     0.123 A 
ATOM     12  C   UNL     1      49.895   3.188  78.624  1.00  0.00     0.093 A 
BRANCH   3  13
ATOM     13  C   UNL     1      55.690   5.947  78.863  1.00  0.00     0.029 A 
ATOM     14  C   UNL     1      55.899   7.184  78.229  1.00  0.00     0.062 A 
ATOM     15  C   UNL     1      57.193   7.636  77.955  1.00  0.00     0.162 A 
ATOM     16  C   UNL     1      56.804   5.145  79.177  1.00  0.00     0.062 A 
ATOM     17  C   UNL     1      58.300   6.835  78.287  1.00  0.00     0.200 A 
ATOM     18  C   UNL     1      58.100   5.586  78.897  1.00  0.00     0.162 A 
BRANCH  15  19
ATOM     19  O   UNL     1      57.361   8.888  77.368  1.00  0.00    -0.504 OA
ATOM     20  H   UNL     1      56.646   9.316  76.800  1.00  0.00     0.293 HD
ENDBRANCH  15  19
BRANCH  17  21
ATOM     21  O   UNL     1      59.591   7.271  78.015  1.00  0.00    -0.502 OA
ATOM     22  H   UNL     1      60.131   7.747  78.732  1.00  0.00     0.293 HD
ENDBRANCH  17  21
BRANCH  18  23
ATOM     23  O   UNL     1      59.177   4.762  79.222  1.00  0.00    -0.504 OA
ATOM     24  H   UNL     1      60.046   4.776  78.697  1.00  0.00     0.293 HD
ENDBRANCH  18  23
ENDBRANCH   3  13
BRANCH  10  25
ATOM     25  O   UNL     1      49.763   3.968  80.903  1.00  0.00    -0.507 OA
ATOM     26  H   UNL     1      48.775   3.744  80.960  1.00  0.00     0.293 HD
ENDBRANCH  10  25
BRANCH  11  27
ATOM     27  O   UNL     1      49.976   2.404  76.348  1.00  0.00    -0.508 OA
ATOM     28  H   UNL     1      49.016   2.083  76.404  1.00  0.00     0.293 HD
ENDBRANCH  11  27
ENDBRANCH   1   2
BRANCH   1  29
ATOM     29  C   UNL     1      54.714   6.148  82.571  1.00  0.00     0.339 C 
ATOM     30  C   UNL     1      54.358   4.633  82.767  1.00  0.00     0.214 C 
ATOM     31  O   UNL     1      56.112   6.427  82.558  1.00  0.00    -0.332 OA
ATOM     32  C   UNL     1      55.504   3.741  82.251  1.00  0.00     0.180 C 
ATOM     33  C   UNL     1      56.815   5.587  83.455  1.00  0.00     0.179 C 
ATOM     34  C   UNL     1      56.864   4.142  82.887  1.00  0.00     0.177 C 
BRANCH  30  35
ATOM     35  O   UNL     1      54.128   4.351  84.125  1.00  0.00    -0.384 OA
ATOM     36  H   UNL     1      55.018   4.261  84.558  1.00  0.00     0.211 HD
ENDBRANCH  30  35
BRANCH  32  37
ATOM     37  O   UNL     1      55.243   2.389  82.535  1.00  0.00    -0.387 OA
ATOM     38  H   UNL     1      55.917   2.093  83.194  1.00  0.00     0.211 HD
ENDBRANCH  32  37
BRANCH  33  39
ATOM     39  C   UNL     1      58.210   6.162  83.724  1.00  0.00     0.191 C 
BRANCH  39  40
ATOM     40  O   UNL     1      58.733   6.704  82.542  1.00  0.00    -0.394 OA
ATOM     41  H   UNL     1      58.019   7.283  82.165  1.00  0.00     0.210 HD
ENDBRANCH  39  40
ENDBRANCH  33  39
BRANCH  34  42
ATOM     42  O   UNL     1      57.898   3.984  81.940  1.00  0.00    -0.387 OA
ATOM     43  H   UNL     1      58.393   4.843  81.892  1.00  0.00     0.211 HD
ENDBRANCH  34  42
ENDBRANCH   1  29
TORSDOF 13
ENDMDL
MODEL 7
REMARK VINA RESULT:    -7.072      2.776      5.863
REMARK INTER + INTRA:         -11.558
REMARK INTER:                 -10.060
REMARK INTRA:                  -1.498
REMARK UNBOUND:                -0.973
REMARK SMILES O=c1c(O[C@@H]2O[C@H](CO)[C@H](O)[C@@H](O)[C@H]2O)c(-c2cc(O)c(O)c(O)c2)oc2cc(O)cc(O)c12
REMARK SMILES IDX 4 1 3 2 16 3 26 4 2 5 27 6 1 7 34 8 28 9 32 10 29 11 31 12
REMARK SMILES IDX 17 13 18 14 19 15 25 16 21 17 23 18 20 19 22 21 24 23 33 25
REMARK SMILES IDX 30 27 5 29 14 30 6 31 12 32 7 33 10 34 15 35 13 37 8 39 9 40
REMARK SMILES IDX 11 42
REMARK H PARENT 20 20 22 22 24 24 33 26 30 28 15 36 13 38 9 41 11 43
REMARK Flexibility Score: inf
ROOT
ATOM      1  O   UNL     1      52.962   6.801  81.311  1.00  0.00    -0.454 OA
ENDROOT
BRANCH   1   2
ATOM      2  C   UNL     1      53.894   7.186  80.337  1.00  0.00     0.214 A 
ATOM      3  C   UNL     1      54.176   6.394  79.203  1.00  0.00     0.181 A 
ATOM      4  O   UNL     1      55.191   6.732  78.412  1.00  0.00    -0.452 OA
ATOM      5  C   UNL     1      54.613   8.372  80.535  1.00  0.00     0.239 A 
ATOM      6  C   UNL     1      55.937   7.817  78.595  1.00  0.00     0.146 A 
ATOM      7  O   UNL     1      54.338   9.101  81.530  1.00  0.00    -0.285 OA
ATOM      8  C   UNL     1      55.661   8.708  79.657  1.00  0.00     0.111 A 
ATOM      9  C   UNL     1      57.000   8.068  77.724  1.00  0.00     0.094 A 
ATOM     10  C   UNL     1      56.457   9.869  79.810  1.00  0.00     0.134 A 
ATOM     11  C   UNL     1      57.794   9.208  77.891  1.00  0.00     0.123 A 
ATOM     12  C   UNL     1      57.518  10.105  78.925  1.00  0.00     0.093 A 
BRANCH   3  13
ATOM     13  C   UNL     1      53.384   5.190  78.841  1.00  0.00     0.029 A 
ATOM     14  C   UNL     1      54.051   4.019  78.440  1.00  0.00     0.062 A 
ATOM     15  C   UNL     1      53.331   2.871  78.096  1.00  0.00     0.162 A 
ATOM     16  C   UNL     1      51.977   5.206  78.845  1.00  0.00     0.062 A 
ATOM     17  C   UNL     1      51.925   2.892  78.119  1.00  0.00     0.200 A 
ATOM     18  C   UNL     1      51.250   4.065  78.492  1.00  0.00     0.162 A 
BRANCH  15  19
ATOM     19  O   UNL     1      54.028   1.716  77.749  1.00  0.00    -0.504 OA
ATOM     20  H   UNL     1      54.153   1.430  76.790  1.00  0.00     0.293 HD
ENDBRANCH  15  19
BRANCH  17  21
ATOM     21  O   UNL     1      51.199   1.758  77.773  1.00  0.00    -0.502 OA
ATOM     22  H   UNL     1      50.620   1.759  76.938  1.00  0.00     0.293 HD
ENDBRANCH  17  21
BRANCH  18  23
ATOM     23  O   UNL     1      49.857   4.122  78.507  1.00  0.00    -0.504 OA
ATOM     24  H   UNL     1      49.349   4.984  78.335  1.00  0.00     0.293 HD
ENDBRANCH  18  23
ENDBRANCH   3  13
BRANCH  10  25
ATOM     25  O   UNL     1      56.205  10.784  80.832  1.00  0.00    -0.507 OA
ATOM     26  H   UNL     1      56.536  11.742  80.786  1.00  0.00     0.293 HD
ENDBRANCH  10  25
BRANCH  11  27
ATOM     27  O   UNL     1      58.867   9.458  77.037  1.00  0.00    -0.508 OA
ATOM     28  H   UNL     1      59.681   9.974  77.352  1.00  0.00     0.293 HD
ENDBRANCH  11  27
ENDBRANCH   1   2
BRANCH   1  29
ATOM     29  C   UNL     1      53.317   6.037  82.466  1.00  0.00     0.339 C 
ATOM     30  C   UNL     1      52.220   4.951  82.743  1.00  0.00     0.214 C 
ATOM     31  O   UNL     1      54.625   5.511  82.249  1.00  0.00    -0.332 OA
ATOM     32  C   UNL     1      52.613   3.612  82.087  1.00  0.00     0.180 C 
ATOM     33  C   UNL     1      54.863   4.371  83.055  1.00  0.00     0.179 C 
ATOM     34  C   UNL     1      54.040   3.170  82.515  1.00  0.00     0.177 C 
BRANCH  30  35
ATOM     35  O   UNL     1      52.053   4.759  84.125  1.00  0.00    -0.384 OA
ATOM     36  H   UNL     1      51.095   4.543  84.275  1.00  0.00     0.211 HD
ENDBRANCH  30  35
BRANCH  32  37
ATOM     37  O   UNL     1      51.694   2.607  82.434  1.00  0.00    -0.387 OA
ATOM     38  H   UNL     1      52.085   1.744  82.153  1.00  0.00     0.211 HD
ENDBRANCH  32  37
BRANCH  33  39
ATOM     39  C   UNL     1      56.367   4.077  83.110  1.00  0.00     0.191 C 
BRANCH  39  40
ATOM     40  O   UNL     1      56.586   2.867  83.784  1.00  0.00    -0.394 OA
ATOM     41  H   UNL     1      56.538   2.155  83.094  1.00  0.00     0.210 HD
ENDBRANCH  39  40
ENDBRANCH  33  39
BRANCH  34  42
ATOM     42  O   UNL     1      54.684   2.532  81.435  1.00  0.00    -0.387 OA
ATOM     43  H   UNL     1      54.360   2.959  80.599  1.00  0.00     0.211 HD
ENDBRANCH  34  42
ENDBRANCH   1  29
TORSDOF 13
ENDMDL
MODEL 8
REMARK VINA RESULT:    -7.037      2.098      6.365
REMARK INTER + INTRA:         -11.507
REMARK INTER:                  -9.756
REMARK INTRA:                  -1.751
REMARK UNBOUND:                -0.973
REMARK SMILES O=c1c(O[C@@H]2O[C@H](CO)[C@H](O)[C@@H](O)[C@H]2O)c(-c2cc(O)c(O)c(O)c2)oc2cc(O)cc(O)c12
REMARK SMILES IDX 4 1 3 2 16 3 26 4 2 5 27 6 1 7 34 8 28 9 32 10 29 11 31 12
REMARK SMILES IDX 17 13 18 14 19 15 25 16 21 17 23 18 20 19 22 21 24 23 33 25
REMARK SMILES IDX 30 27 5 29 14 30 6 31 12 32 7 33 10 34 15 35 13 37 8 39 9 40
REMARK SMILES IDX 11 42
REMARK H PARENT 20 20 22 22 24 24 33 26 30 28 15 36 13 38 9 41 11 43
REMARK Flexibility Score: inf
ROOT
ATOM      1  O   UNL     1      54.297   6.312  81.585  1.00  0.00    -0.454 OA
ENDROOT
BRANCH   1   2
ATOM      2  C   UNL     1      53.744   5.539  80.555  1.00  0.00     0.214 A 
ATOM      3  C   UNL     1      54.357   5.410  79.290  1.00  0.00     0.181 A 
ATOM      4  O   UNL     1      53.695   4.806  78.307  1.00  0.00    -0.452 OA
ATOM      5  C   UNL     1      52.504   4.924  80.776  1.00  0.00     0.239 A 
ATOM      6  C   UNL     1      52.493   4.259  78.456  1.00  0.00     0.146 A 
ATOM      7  O   UNL     1      51.969   5.007  81.918  1.00  0.00    -0.285 OA
ATOM      8  C   UNL     1      51.850   4.269  79.715  1.00  0.00     0.111 A 
ATOM      9  C   UNL     1      51.869   3.673  77.352  1.00  0.00     0.094 A 
ATOM     10  C   UNL     1      50.582   3.655  79.848  1.00  0.00     0.134 A 
ATOM     11  C   UNL     1      50.607   3.084  77.486  1.00  0.00     0.123 A 
ATOM     12  C   UNL     1      49.972   3.070  78.730  1.00  0.00     0.093 A 
BRANCH   3  13
ATOM     13  C   UNL     1      55.723   5.917  79.000  1.00  0.00     0.029 A 
ATOM     14  C   UNL     1      55.880   7.195  78.436  1.00  0.00     0.062 A 
ATOM     15  C   UNL     1      57.154   7.698  78.154  1.00  0.00     0.162 A 
ATOM     16  C   UNL     1      56.866   5.129  79.233  1.00  0.00     0.062 A 
ATOM     17  C   UNL     1      58.291   6.910  78.406  1.00  0.00     0.200 A 
ATOM     18  C   UNL     1      58.142   5.622  78.945  1.00  0.00     0.162 A 
BRANCH  15  19
ATOM     19  O   UNL     1      57.272   8.987  77.639  1.00  0.00    -0.504 OA
ATOM     20  H   UNL     1      58.166   9.411  77.449  1.00  0.00     0.293 HD
ENDBRANCH  15  19
BRANCH  17  21
ATOM     21  O   UNL     1      59.562   7.398  78.124  1.00  0.00    -0.502 OA
ATOM     22  H   UNL     1      60.090   7.023  77.342  1.00  0.00     0.293 HD
ENDBRANCH  17  21
BRANCH  18  23
ATOM     23  O   UNL     1      59.249   4.811  79.189  1.00  0.00    -0.504 OA
ATOM     24  H   UNL     1      60.151   5.192  79.457  1.00  0.00     0.293 HD
ENDBRANCH  18  23
ENDBRANCH   3  13
BRANCH  10  25
ATOM     25  O   UNL     1      49.923   3.624  81.077  1.00  0.00    -0.507 OA
ATOM     26  H   UNL     1      48.989   4.004  81.193  1.00  0.00     0.293 HD
ENDBRANCH  10  25
BRANCH  11  27
ATOM     27  O   UNL     1      49.970   2.511  76.387  1.00  0.00    -0.508 OA
ATOM     28  H   UNL     1      49.138   2.929  75.984  1.00  0.00     0.293 HD
ENDBRANCH  11  27
ENDBRANCH   1   2
BRANCH   1  29
ATOM     29  C   UNL     1      53.793   7.600  81.944  1.00  0.00     0.339 C 
ATOM     30  C   UNL     1      54.906   8.418  82.688  1.00  0.00     0.214 C 
ATOM     31  O   UNL     1      53.304   8.219  80.756  1.00  0.00    -0.332 OA
ATOM     32  C   UNL     1      55.673   9.309  81.692  1.00  0.00     0.180 C 
ATOM     33  C   UNL     1      53.259   9.628  80.887  1.00  0.00     0.179 C 
ATOM     34  C   UNL     1      54.703  10.199  80.866  1.00  0.00     0.177 C 
BRANCH  30  35
ATOM     35  O   UNL     1      54.340   9.224  83.691  1.00  0.00    -0.384 OA
ATOM     36  H   UNL     1      54.272   8.665  84.509  1.00  0.00     0.211 HD
ENDBRANCH  30  35
BRANCH  32  37
ATOM     37  O   UNL     1      56.589  10.132  82.371  1.00  0.00    -0.387 OA
ATOM     38  H   UNL     1      56.174  11.024  82.455  1.00  0.00     0.211 HD
ENDBRANCH  32  37
BRANCH  33  39
ATOM     39  C   UNL     1      52.373  10.226  79.789  1.00  0.00     0.191 C 
BRANCH  39  40
ATOM     40  O   UNL     1      52.551   9.511  78.596  1.00  0.00    -0.394 OA
ATOM     41  H   UNL     1      53.532   9.386  78.495  1.00  0.00     0.210 HD
ENDBRANCH  39  40
ENDBRANCH  33  39
BRANCH  34  42
ATOM     42  O   UNL     1      55.193  10.345  79.551  1.00  0.00    -0.387 OA
ATOM     43  H   UNL     1      54.613   9.803  78.955  1.00  0.00     0.211 HD
ENDBRANCH  34  42
ENDBRANCH   1  29
TORSDOF 13
ENDMDL
MODEL 9
REMARK VINA RESULT:    -6.885      2.075      5.503
REMARK INTER + INTRA:         -11.279
REMARK INTER:                  -9.947
REMARK INTRA:                  -1.332
REMARK UNBOUND:                -0.973
REMARK SMILES O=c1c(O[C@@H]2O[C@H](CO)[C@H](O)[C@@H](O)[C@H]2O)c(-c2cc(O)c(O)c(O)c2)oc2cc(O)cc(O)c12
REMARK SMILES IDX 4 1 3 2 16 3 26 4 2 5 27 6 1 7 34 8 28 9 32 10 29 11 31 12
REMARK SMILES IDX 17 13 18 14 19 15 25 16 21 17 23 18 20 19 22 21 24 23 33 25
REMARK SMILES IDX 30 27 5 29 14 30 6 31 12 32 7 33 10 34 15 35 13 37 8 39 9 40
REMARK SMILES IDX 11 42
REMARK H PARENT 20 20 22 22 24 24 33 26 30 28 15 36 13 38 9 41 11 43
REMARK Flexibility Score: inf
ROOT
ATOM      1  O   UNL     1      55.223   4.214  80.128  1.00  0.00    -0.454 OA
ENDROOT
BRANCH   1   2
ATOM      2  C   UNL     1      55.058   5.422  79.435  1.00  0.00     0.214 A 
ATOM      3  C   UNL     1      53.866   5.748  78.754  1.00  0.00     0.181 A 
ATOM      4  O   UNL     1      53.837   6.827  77.976  1.00  0.00    -0.452 OA
ATOM      5  C   UNL     1      56.143   6.306  79.370  1.00  0.00     0.239 A 
ATOM      6  C   UNL     1      54.862   7.662  77.839  1.00  0.00     0.146 A 
ATOM      7  O   UNL     1      57.199   6.034  80.008  1.00  0.00    -0.285 OA
ATOM      8  C   UNL     1      56.061   7.453  78.558  1.00  0.00     0.111 A 
ATOM      9  C   UNL     1      54.742   8.752  76.974  1.00  0.00     0.094 A 
ATOM     10  C   UNL     1      57.125   8.375  78.410  1.00  0.00     0.134 A 
ATOM     11  C   UNL     1      55.803   9.650  76.819  1.00  0.00     0.123 A 
ATOM     12  C   UNL     1      56.985   9.464  77.540  1.00  0.00     0.093 A 
BRANCH   3  13
ATOM     13  C   UNL     1      52.625   4.939  78.867  1.00  0.00     0.029 A 
ATOM     14  C   UNL     1      52.214   4.147  77.780  1.00  0.00     0.062 A 
ATOM     15  C   UNL     1      51.051   3.375  77.859  1.00  0.00     0.162 A 
ATOM     16  C   UNL     1      51.820   4.981  80.021  1.00  0.00     0.062 A 
ATOM     17  C   UNL     1      50.264   3.411  79.022  1.00  0.00     0.200 A 
ATOM     18  C   UNL     1      50.651   4.220  80.103  1.00  0.00     0.162 A 
BRANCH  15  19
ATOM     19  O   UNL     1      50.703   2.568  76.778  1.00  0.00    -0.504 OA
ATOM     20  H   UNL     1      49.969   2.818  76.134  1.00  0.00     0.293 HD
ENDBRANCH  15  19
BRANCH  17  21
ATOM     21  O   UNL     1      49.102   2.653  79.110  1.00  0.00    -0.502 OA
ATOM     22  H   UNL     1      49.101   1.780  79.630  1.00  0.00     0.293 HD
ENDBRANCH  17  21
BRANCH  18  23
ATOM     23  O   UNL     1      49.880   4.290  81.263  1.00  0.00    -0.504 OA
ATOM     24  H   UNL     1      49.423   3.474  81.659  1.00  0.00     0.293 HD
ENDBRANCH  18  23
ENDBRANCH   3  13
BRANCH  10  25
ATOM     25  O   UNL     1      58.317   8.216  79.117  1.00  0.00    -0.507 OA
ATOM     26  H   UNL     1      58.326   8.006  80.110  1.00  0.00     0.293 HD
ENDBRANCH  10  25
BRANCH  11  27
ATOM     27  O   UNL     1      55.698  10.732  75.946  1.00  0.00    -0.508 OA
ATOM     28  H   UNL     1      54.939  10.797  75.277  1.00  0.00     0.293 HD
ENDBRANCH  11  27
ENDBRANCH   1   2
BRANCH   1  29
ATOM     29  C   UNL     1      54.831   4.042  81.492  1.00  0.00     0.339 C 
ATOM     30  C   UNL     1      56.017   3.423  82.311  1.00  0.00     0.214 C 
ATOM     31  O   UNL     1      54.382   5.307  81.974  1.00  0.00    -0.332 OA
ATOM     32  C   UNL     1      56.844   4.536  82.984  1.00  0.00     0.180 C 
ATOM     33  C   UNL     1      54.455   5.378  83.386  1.00  0.00     0.179 C 
ATOM     34  C   UNL     1      55.941   5.480  83.826  1.00  0.00     0.177 C 
BRANCH  30  35
ATOM     35  O   UNL     1      55.532   2.545  83.296  1.00  0.00    -0.384 OA
ATOM     36  H   UNL     1      55.088   3.102  83.988  1.00  0.00     0.211 HD
ENDBRANCH  30  35
BRANCH  32  37
ATOM     37  O   UNL     1      57.832   3.981  83.815  1.00  0.00    -0.387 OA
ATOM     38  H   UNL     1      57.472   3.132  84.172  1.00  0.00     0.211 HD
ENDBRANCH  32  37
BRANCH  33  39
ATOM     39  C   UNL     1      53.608   6.550  83.894  1.00  0.00     0.191 C 
BRANCH  39  40
ATOM     40  O   UNL     1      53.631   7.591  82.954  1.00  0.00    -0.394 OA
ATOM     41  H   UNL     1      53.706   8.432  83.477  1.00  0.00     0.210 HD
ENDBRANCH  39  40
ENDBRANCH  33  39
BRANCH  34  42
ATOM     42  O   UNL     1      56.425   6.802  83.741  1.00  0.00    -0.387 OA
ATOM     43  H   UNL     1      56.010   7.321  84.478  1.00  0.00     0.211 HD
ENDBRANCH  34  42
ENDBRANCH   1  29
TORSDOF 13
ENDMDL
