MODEL 1
REMARK VINA RESULT:    -3.479      0.000      0.000
REMARK INTER + INTRA:          -3.784
REMARK INTER:                  -3.784
REMARK INTRA:                   0.000
REMARK UNBOUND:                 0.000
REMARK SMILES [NH3+]CC(=O)[O-]
REMARK SMILES IDX 2 1 1 2 3 6 4 7 5 8
REMARK H PARENT 1 3 1 4 1 5
REMARK Flexibility Score: inf
ROOT
ATOM      1  C   UNL     1     168.102 170.810 171.384  1.00  0.00     0.312 C 
ENDROOT
BRANCH   1   2
ATOM      2  N   UNL     1     167.253 170.274 170.323  1.00  0.00    -0.353 N 
ATOM      3  H   UNL     1     167.701 169.417 169.925  1.00  0.00     0.344 HD
ATOM      4  H   UNL     1     166.314 170.018 170.708  1.00  0.00     0.344 HD
ATOM      5  H   UNL     1     167.140 170.982 169.561  1.00  0.00     0.344 HD
ENDBRANCH   1   2
BRANCH   1   6
ATOM      6  C   UNL     1     169.547 170.563 171.082  1.00  0.00     0.096 C 
ATOM      7  O   UNL     1     170.335 171.531 170.925  1.00  0.00    -0.544 OA
ATOM      8  O   UNL     1     170.011 169.263 170.923  1.00  0.00    -0.544 OA
ENDBRANCH   1   6
TORSDOF 2
ENDMDL
MODEL 2
REMARK VINA RESULT:    -3.355      2.147      2.464
REMARK INTER + INTRA:          -3.650
REMARK INTER:                  -3.650
REMARK INTRA:                   0.000
REMARK UNBOUND:                 0.000
REMARK SMILES [NH3+]CC(=O)[O-]
REMARK SMILES IDX 2 1 1 2 3 6 4 7 5 8
REMARK H PARENT 1 3 1 4 1 5
REMARK Flexibility Score: inf
ROOT
ATOM      1  C   UNL     1     169.107 171.157 171.292  1.00  0.00     0.312 C 
ENDROOT
BRANCH   1   2
ATOM      2  N   UNL     1     170.348 171.930 171.301  1.00  0.00    -0.353 N 
ATOM      3  H   UNL     1     170.707 171.990 172.282  1.00  0.00     0.344 HD
ATOM      4  H   UNL     1     171.068 171.460 170.705  1.00  0.00     0.344 HD
ATOM      5  H   UNL     1     170.171 172.897 170.945  1.00  0.00     0.344 HD
ENDBRANCH   1   2
BRANCH   1   6
ATOM      6  C   UNL     1     169.126 170.139 170.195  1.00  0.00     0.096 C 
ATOM      7  O   UNL     1     169.435 168.945 170.444  1.00  0.00    -0.544 OA
ATOM      8  O   UNL     1     168.853 170.522 168.887  1.00  0.00    -0.544 OA
ENDBRANCH   1   6
TORSDOF 2
ENDMDL
MODEL 3
REMARK VINA RESULT:    -3.348      2.123      2.151
REMARK INTER + INTRA:          -3.641
REMARK INTER:                  -3.641
REMARK INTRA:                   0.000
REMARK UNBOUND:                 0.000
REMARK SMILES [NH3+]CC(=O)[O-]
REMARK SMILES IDX 2 1 1 2 3 6 4 7 5 8
REMARK H PARENT 1 3 1 4 1 5
REMARK Flexibility Score: inf
ROOT
ATOM      1  C   UNL     1     169.179 171.057 171.386  1.00  0.00     0.312 C 
ENDROOT
BRANCH   1   2
ATOM      2  N   UNL     1     170.354 171.924 171.318  1.00  0.00    -0.353 N 
ATOM      3  H   UNL     1     170.744 172.048 172.281  1.00  0.00     0.344 HD
ATOM      4  H   UNL     1     171.085 171.491 170.708  1.00  0.00     0.344 HD
ATOM      5  H   UNL     1     170.086 172.861 170.938  1.00  0.00     0.344 HD
ENDBRANCH   1   2
BRANCH   1   6
ATOM      6  C   UNL     1     169.157 170.105 170.231  1.00  0.00     0.096 C 
ATOM      7  O   UNL     1     168.832 170.509 169.084  1.00  0.00    -0.544 OA
ATOM      8  O   UNL     1     169.446 168.761 170.433  1.00  0.00    -0.544 OA
ENDBRANCH   1   6
TORSDOF 2
ENDMDL
MODEL 4
REMARK VINA RESULT:    -3.221      2.001      2.336
REMARK INTER + INTRA:          -3.504
REMARK INTER:                  -3.504
REMARK INTRA:                   0.000
REMARK UNBOUND:                 0.000
REMARK SMILES [NH3+]CC(=O)[O-]
REMARK SMILES IDX 2 1 1 2 3 6 4 7 5 8
REMARK H PARENT 1 3 1 4 1 5
REMARK Flexibility Score: inf
ROOT
ATOM      1  C   UNL     1     169.147 169.372 170.468  1.00  0.00     0.312 C 
ENDROOT
BRANCH   1   2
ATOM      2  N   UNL     1     170.289 168.634 171.004  1.00  0.00    -0.353 N 
ATOM      3  H   UNL     1     170.162 167.615 170.806  1.00  0.00     0.344 HD
ATOM      4  H   UNL     1     171.173 168.961 170.548  1.00  0.00     0.344 HD
ATOM      5  H   UNL     1     170.353 168.773 172.038  1.00  0.00     0.344 HD
ENDBRANCH   1   2
BRANCH   1   6
ATOM      6  C   UNL     1     169.134 170.776 170.986  1.00  0.00     0.096 C 
ATOM      7  O   UNL     1     168.059 171.292 171.389  1.00  0.00    -0.544 OA
ATOM      8  O   UNL     1     170.300 171.532 170.975  1.00  0.00    -0.544 OA
ENDBRANCH   1   6
TORSDOF 2
ENDMDL
MODEL 5
REMARK VINA RESULT:    -3.213      1.975      2.242
REMARK INTER + INTRA:          -3.494
REMARK INTER:                  -3.494
REMARK INTRA:                   0.000
REMARK UNBOUND:                 0.000
REMARK SMILES [NH3+]CC(=O)[O-]
REMARK SMILES IDX 2 1 1 2 3 6 4 7 5 8
REMARK H PARENT 1 3 1 4 1 5
REMARK Flexibility Score: inf
ROOT
ATOM      1  C   UNL     1     169.134 169.473 170.447  1.00  0.00     0.312 C 
ENDROOT
BRANCH   1   2
ATOM      2  N   UNL     1     170.235 168.702 171.020  1.00  0.00    -0.353 N 
ATOM      3  H   UNL     1     170.713 169.279 171.751  1.00  0.00     0.344 HD
ATOM      4  H   UNL     1     169.869 167.828 171.464  1.00  0.00     0.344 HD
ATOM      5  H   UNL     1     170.927 168.457 170.276  1.00  0.00     0.344 HD
ENDBRANCH   1   2
BRANCH   1   6
ATOM      6  C   UNL     1     169.174 170.890 170.926  1.00  0.00     0.096 C 
ATOM      7  O   UNL     1     170.270 171.507 170.990  1.00  0.00    -0.544 OA
ATOM      8  O   UNL     1     168.008 171.514 171.352  1.00  0.00    -0.544 OA
ENDBRANCH   1   6
TORSDOF 2
ENDMDL
MODEL 6
REMARK VINA RESULT:    -2.561      6.723      6.903
REMARK INTER + INTRA:          -2.785
REMARK INTER:                  -2.785
REMARK INTRA:                   0.000
REMARK UNBOUND:                 0.000
REMARK SMILES [NH3+]CC(=O)[O-]
REMARK SMILES IDX 2 1 1 2 3 6 4 7 5 8
REMARK H PARENT 1 3 1 4 1 5
REMARK Flexibility Score: inf
ROOT
ATOM      1  C   UNL     1     170.150 169.343 163.730  1.00  0.00     0.312 C 
ENDROOT
BRANCH   1   2
ATOM      2  N   UNL     1     170.695 168.087 164.242  1.00  0.00    -0.353 N 
ATOM      3  H   UNL     1     170.367 167.947 165.226  1.00  0.00     0.344 HD
ATOM      4  H   UNL     1     170.364 167.286 163.656  1.00  0.00     0.344 HD
ATOM      5  H   UNL     1     171.741 168.121 164.236  1.00  0.00     0.344 HD
ENDBRANCH   1   2
BRANCH   1   6
ATOM      6  C   UNL     1     170.516 170.484 164.627  1.00  0.00     0.096 C 
ATOM      7  O   UNL     1     169.619 171.119 165.240  1.00  0.00    -0.544 OA
ATOM      8  O   UNL     1     171.843 170.878 164.744  1.00  0.00    -0.544 OA
ENDBRANCH   1   6
TORSDOF 2
ENDMDL
MODEL 7
REMARK VINA RESULT:    -2.356      6.955      7.135
REMARK INTER + INTRA:          -2.563
REMARK INTER:                  -2.563
REMARK INTRA:                   0.000
REMARK UNBOUND:                 0.000
REMARK SMILES [NH3+]CC(=O)[O-]
REMARK SMILES IDX 2 1 1 2 3 6 4 7 5 8
REMARK H PARENT 1 3 1 4 1 5
REMARK Flexibility Score: inf
ROOT
ATOM      1  C   UNL     1     170.604 170.444 164.430  1.00  0.00     0.312 C 
ENDROOT
BRANCH   1   2
ATOM      2  N   UNL     1     169.914 170.873 165.645  1.00  0.00    -0.353 N 
ATOM      3  H   UNL     1     169.937 171.918 165.701  1.00  0.00     0.344 HD
ATOM      4  H   UNL     1     168.917 170.556 165.622  1.00  0.00     0.344 HD
ATOM      5  H   UNL     1     170.392 170.478 166.487  1.00  0.00     0.344 HD
ENDBRANCH   1   2
BRANCH   1   6
ATOM      6  C   UNL     1     169.935 169.243 163.838  1.00  0.00     0.096 C 
ATOM      7  O   UNL     1     168.802 169.350 163.300  1.00  0.00    -0.544 OA
ATOM      8  O   UNL     1     170.540 167.996 163.926  1.00  0.00    -0.544 OA
ENDBRANCH   1   6
TORSDOF 2
ENDMDL
MODEL 8
REMARK VINA RESULT:    -2.322     11.324     11.535
REMARK INTER + INTRA:          -2.526
REMARK INTER:                  -2.526
REMARK INTRA:                   0.000
REMARK UNBOUND:                 0.000
REMARK SMILES [NH3+]CC(=O)[O-]
REMARK SMILES IDX 2 1 1 2 3 6 4 7 5 8
REMARK H PARENT 1 3 1 4 1 5
REMARK Flexibility Score: inf
ROOT
ATOM      1  C   UNL     1     160.993 178.101 169.898  1.00  0.00     0.312 C 
ENDROOT
BRANCH   1   2
ATOM      2  N   UNL     1     162.424 178.367 169.765  1.00  0.00    -0.353 N 
ATOM      3  H   UNL     1     162.619 178.717 168.799  1.00  0.00     0.344 HD
ATOM      4  H   UNL     1     162.720 179.094 170.457  1.00  0.00     0.344 HD
ATOM      5  H   UNL     1     162.968 177.487 169.923  1.00  0.00     0.344 HD
ENDBRANCH   1   2
BRANCH   1   6
ATOM      6  C   UNL     1     160.380 177.820 168.562  1.00  0.00     0.096 C 
ATOM      7  O   UNL     1     160.470 178.666 167.634  1.00  0.00    -0.544 OA
ATOM      8  O   UNL     1     159.665 176.646 168.358  1.00  0.00    -0.544 OA
ENDBRANCH   1   6
TORSDOF 2
ENDMDL
MODEL 9
REMARK VINA RESULT:    -2.316      7.001      7.036
REMARK INTER + INTRA:          -2.519
REMARK INTER:                  -2.519
REMARK INTRA:                   0.000
REMARK UNBOUND:                 0.000
REMARK SMILES [NH3+]CC(=O)[O-]
REMARK SMILES IDX 2 1 1 2 3 6 4 7 5 8
REMARK H PARENT 1 3 1 4 1 5
REMARK Flexibility Score: inf
ROOT
ATOM      1  C   UNL     1     169.905 171.890 164.155  1.00  0.00     0.312 C 
ENDROOT
BRANCH   1   2
ATOM      2  N   UNL     1     170.550 173.188 164.341  1.00  0.00    -0.353 N 
ATOM      3  H   UNL     1     170.331 173.547 165.299  1.00  0.00     0.344 HD
ATOM      4  H   UNL     1     171.588 173.090 164.245  1.00  0.00     0.344 HD
ATOM      5  H   UNL     1     170.193 173.871 163.634  1.00  0.00     0.344 HD
ENDBRANCH   1   2
BRANCH   1   6
ATOM      6  C   UNL     1     170.885 170.778 164.360  1.00  0.00     0.096 C 
ATOM      7  O   UNL     1     172.049 171.027 164.768  1.00  0.00    -0.544 OA
ATOM      8  O   UNL     1     170.528 169.471 164.049  1.00  0.00    -0.544 OA
ENDBRANCH   1   6
TORSDOF 2
ENDMDL
