MODEL 1
REMARK VINA RESULT:    15.905      0.000      0.000
REMARK INTER + INTRA:          17.809
REMARK INTER:                  17.300
REMARK INTRA:                   0.509
REMARK UNBOUND:                 0.509
REMARK SMILES CC1(C)CC[C@@]2(C(=O)[O-])CC[C@@]3(C)C(=CC[C@H]4[C@]5(C)CC[C@@H](O)C(C)(C)[C@H]5CC[C@@]43C)[C@@H]2C1
REMARK SMILES IDX 6 1 5 2 10 3 32 4 4 5 11 6 14 7 33 8 2 9 12 10 15 11 1 12
REMARK SMILES IDX 3 13 13 14 30 15 16 16 17 17 29 18 31 19 18 20 28 21 27 22
REMARK SMILES IDX 20 23 19 24 24 25 21 26 22 27 25 28 26 29 7 30 8 31 9 32
REMARK SMILES IDX 23 33
REMARK H PARENT 23 34
REMARK Flexibility Score: inf
ROOT
ATOM      1  C   UNL     1      -8.012 -21.375 -24.069  1.00  0.00     0.017 C 
ATOM      2  C   UNL     1      -8.019 -21.489 -25.619  1.00  0.00     0.014 C 
ATOM      3  C   UNL     1      -8.817 -22.563 -23.432  1.00  0.00     0.014 C 
ATOM      4  C   UNL     1      -6.521 -21.422 -23.623  1.00  0.00     0.028 C 
ATOM      5  C   UNL     1      -7.211 -20.362 -26.293  1.00  0.00     0.007 C 
ATOM      6  C   UNL     1      -7.980 -23.591 -22.625  1.00  0.00     0.013 C 
ATOM      7  C   UNL     1      -6.437 -21.638 -22.115  1.00  0.00    -0.064 C 
ATOM      8  C   UNL     1      -5.687 -20.266 -24.233  1.00  0.00     0.015 C 
ATOM      9  C   UNL     1      -5.741 -20.249 -25.790  1.00  0.00    -0.035 C 
ATOM     10  C   UNL     1      -6.921 -23.001 -21.602  1.00  0.00    -0.006 C 
ATOM     11  C   UNL     1      -5.966 -20.680 -21.285  1.00  0.00    -0.027 C 
ATOM     12  C   UNL     1      -5.153 -18.908 -26.282  1.00  0.00     0.011 C 
ATOM     13  C   UNL     1      -4.876 -21.387 -26.388  1.00  0.00     0.011 C 
ATOM     14  C   UNL     1      -5.678 -23.951 -21.690  1.00  0.00     0.017 C 
ATOM     15  C   UNL     1      -7.498 -22.875 -20.096  1.00  0.00    -0.020 C 
ATOM     16  C   UNL     1      -6.067 -20.726 -19.786  1.00  0.00     0.032 C 
ATOM     17  C   UNL     1      -6.435 -22.114 -19.202  1.00  0.00     0.006 C 
ATOM     18  C   UNL     1      -7.781 -24.285 -19.472  1.00  0.00     0.008 C 
ATOM     19  C   UNL     1      -8.848 -22.100 -20.134  1.00  0.00     0.012 C 
ATOM     20  C   UNL     1      -6.660 -22.129 -17.620  1.00  0.00    -0.025 C 
ATOM     21  C   UNL     1      -8.055 -24.270 -17.961  1.00  0.00     0.005 C 
ATOM     22  C   UNL     1      -6.866 -23.635 -17.196  1.00  0.00     0.003 C 
ATOM     23  C   UNL     1      -5.353 -21.614 -16.928  1.00  0.00     0.010 C 
ATOM     24  C   UNL     1      -7.846 -21.204 -17.174  1.00  0.00     0.012 C 
ATOM     25  C   UNL     1      -6.814 -23.941 -15.643  1.00  0.00    -0.006 C 
ATOM     26  C   UNL     1      -5.308 -21.854 -15.410  1.00  0.00     0.033 C 
ATOM     27  C   UNL     1      -5.503 -23.330 -15.051  1.00  0.00     0.120 C 
ATOM     28  C   UNL     1      -8.062 -23.433 -14.878  1.00  0.00     0.014 C 
ATOM     29  C   UNL     1      -6.736 -25.478 -15.416  1.00  0.00     0.014 C 
ENDROOT
BRANCH   1  30
ATOM     30  C   UNL     1      -8.718 -20.080 -23.664  1.00  0.00     0.048 C 
ATOM     31  O   UNL     1      -9.124 -19.889 -22.488  1.00  0.00    -0.550 OA
ATOM     32  O   UNL     1      -8.976 -19.109 -24.623  1.00  0.00    -0.550 OA
ENDBRANCH   1  30
BRANCH  27  33
ATOM     33  O   UNL     1      -5.482 -23.449 -13.649  1.00  0.00    -0.393 OA
ATOM     34  H   UNL     1      -6.349 -23.847 -13.365  1.00  0.00     0.210 HD
ENDBRANCH  27  33
TORSDOF 2
ENDMDL
