MODEL 1
REMARK VINA RESULT:    -4.614      0.000      0.000
REMARK INTER + INTRA:          -5.703
REMARK INTER:                  -5.558
REMARK INTRA:                  -0.145
REMARK UNBOUND:                -0.145
REMARK SMILES [NH3+][C@H](Cc1cnc[nH]1)C(=O)[O-]
REMARK SMILES IDX 3 1 2 2 1 3 9 7 10 8 11 9 4 10 5 11 8 12 6 13 7 14
REMARK H PARENT 1 4 1 5 1 6 8 15
REMARK Flexibility Score: inf
ROOT
ATOM      1  C   UNL     1     -18.687  -8.410  43.729  1.00  0.00     0.127 C 
ENDROOT
BRANCH   1   2
ATOM      2  C   UNL     1     -17.616  -7.641  42.929  1.00  0.00     0.233 C 
BRANCH   2   3
ATOM      3  N   UNL     1     -16.635  -7.036  43.836  1.00  0.00    -0.350 N 
ATOM      4  H   UNL     1     -16.412  -7.685  44.627  1.00  0.00     0.345 HD
ATOM      5  H   UNL     1     -17.014  -6.142  44.224  1.00  0.00     0.345 HD
ATOM      6  H   UNL     1     -15.755  -6.817  43.313  1.00  0.00     0.345 HD
ENDBRANCH   2   3
BRANCH   2   7
ATOM      7  C   UNL     1     -16.921  -8.551  41.949  1.00  0.00     0.099 C 
ATOM      8  O   UNL     1     -16.847  -9.787  42.176  1.00  0.00    -0.544 OA
ATOM      9  O   UNL     1     -16.346  -8.032  40.795  1.00  0.00    -0.544 OA
ENDBRANCH   2   7
ENDBRANCH   1   2
BRANCH   1  10
ATOM     10  C   UNL     1     -20.067  -7.898  43.437  1.00  0.00     0.041 A 
ATOM     11  C   UNL     1     -21.158  -8.649  43.062  1.00  0.00     0.134 A 
ATOM     12  N   UNL     1     -20.412  -6.602  43.427  1.00  0.00    -0.348 N 
ATOM     13  N   UNL     1     -22.199  -7.825  42.827  1.00  0.00    -0.245 NA
ATOM     14  C   UNL     1     -21.707  -6.588  43.061  1.00  0.00     0.196 A 
ATOM     15  H   UNL     1     -19.808  -5.779  43.645  1.00  0.00     0.167 HD
ENDBRANCH   1  10
TORSDOF 4
ENDMDL
MODEL 2
REMARK VINA RESULT:    -4.606      1.482      1.912
REMARK INTER + INTRA:          -5.693
REMARK INTER:                  -5.538
REMARK INTRA:                  -0.155
REMARK UNBOUND:                -0.145
REMARK SMILES [NH3+][C@H](Cc1cnc[nH]1)C(=O)[O-]
REMARK SMILES IDX 3 1 2 2 1 3 9 7 10 8 11 9 4 10 5 11 8 12 6 13 7 14
REMARK H PARENT 1 4 1 5 1 6 8 15
REMARK Flexibility Score: inf
ROOT
ATOM      1  C   UNL     1     -18.669  -8.147  43.544  1.00  0.00     0.127 C 
ENDROOT
BRANCH   1   2
ATOM      2  C   UNL     1     -18.240  -9.159  42.462  1.00  0.00     0.233 C 
BRANCH   2   3
ATOM      3  N   UNL     1     -17.430  -8.497  41.434  1.00  0.00    -0.350 N 
ATOM      4  H   UNL     1     -16.680  -7.914  41.871  1.00  0.00     0.345 HD
ATOM      5  H   UNL     1     -18.039  -7.884  40.844  1.00  0.00     0.345 HD
ATOM      6  H   UNL     1     -16.990  -9.214  40.812  1.00  0.00     0.345 HD
ENDBRANCH   2   3
BRANCH   2   7
ATOM      7  C   UNL     1     -17.468 -10.301  43.071  1.00  0.00     0.099 C 
ATOM      8  O   UNL     1     -16.379 -10.674  42.559  1.00  0.00    -0.544 OA
ATOM      9  O   UNL     1     -17.956 -10.960  44.194  1.00  0.00    -0.544 OA
ENDBRANCH   2   7
ENDBRANCH   1   2
BRANCH   1  10
ATOM     10  C   UNL     1     -20.107  -7.750  43.387  1.00  0.00     0.041 A 
ATOM     11  C   UNL     1     -21.175  -8.595  43.181  1.00  0.00     0.134 A 
ATOM     12  N   UNL     1     -20.548  -6.484  43.349  1.00  0.00    -0.348 N 
ATOM     13  N   UNL     1     -22.294  -7.860  43.025  1.00  0.00    -0.245 NA
ATOM     14  C   UNL     1     -21.873  -6.581  43.135  1.00  0.00     0.196 A 
ATOM     15  H   UNL     1     -19.987  -5.609  43.451  1.00  0.00     0.167 HD
ENDBRANCH   1  10
TORSDOF 4
ENDMDL
MODEL 3
REMARK VINA RESULT:    -4.595      1.713      2.030
REMARK INTER + INTRA:          -5.681
REMARK INTER:                  -5.493
REMARK INTRA:                  -0.188
REMARK UNBOUND:                -0.145
REMARK SMILES [NH3+][C@H](Cc1cnc[nH]1)C(=O)[O-]
REMARK SMILES IDX 3 1 2 2 1 3 9 7 10 8 11 9 4 10 5 11 8 12 6 13 7 14
REMARK H PARENT 1 4 1 5 1 6 8 15
REMARK Flexibility Score: inf
ROOT
ATOM      1  C   UNL     1     -17.260  -7.921  42.787  1.00  0.00     0.127 C 
ENDROOT
BRANCH   1   2
ATOM      2  C   UNL     1     -16.737  -8.892  41.710  1.00  0.00     0.233 C 
BRANCH   2   3
ATOM      3  N   UNL     1     -16.174  -8.147  40.578  1.00  0.00    -0.350 N 
ATOM      4  H   UNL     1     -16.826  -7.388  40.273  1.00  0.00     0.345 HD
ATOM      5  H   UNL     1     -16.005  -8.795  39.775  1.00  0.00     0.345 HD
ATOM      6  H   UNL     1     -15.257  -7.723  40.854  1.00  0.00     0.345 HD
ENDBRANCH   2   3
BRANCH   2   7
ATOM      7  C   UNL     1     -15.700  -9.823  42.283  1.00  0.00     0.099 C 
ATOM      8  O   UNL     1     -16.032 -10.702  43.121  1.00  0.00    -0.544 OA
ATOM      9  O   UNL     1     -14.368  -9.709  41.903  1.00  0.00    -0.544 OA
ENDBRANCH   2   7
ENDBRANCH   1   2
BRANCH   1  10
ATOM     10  C   UNL     1     -18.722  -8.128  43.054  1.00  0.00     0.041 A 
ATOM     11  C   UNL     1     -19.428  -9.299  42.889  1.00  0.00     0.134 A 
ATOM     12  N   UNL     1     -19.574  -7.161  43.423  1.00  0.00    -0.348 N 
ATOM     13  N   UNL     1     -20.727  -9.072  43.168  1.00  0.00    -0.245 NA
ATOM     14  C   UNL     1     -20.777  -7.761  43.490  1.00  0.00     0.196 A 
ATOM     15  H   UNL     1     -19.357  -6.157  43.609  1.00  0.00     0.167 HD
ENDBRANCH   1  10
TORSDOF 4
ENDMDL
MODEL 4
REMARK VINA RESULT:    -4.593      2.502      4.713
REMARK INTER + INTRA:          -5.678
REMARK INTER:                  -5.360
REMARK INTRA:                  -0.318
REMARK UNBOUND:                -0.145
REMARK SMILES [NH3+][C@H](Cc1cnc[nH]1)C(=O)[O-]
REMARK SMILES IDX 3 1 2 2 1 3 9 7 10 8 11 9 4 10 5 11 8 12 6 13 7 14
REMARK H PARENT 1 4 1 5 1 6 8 15
REMARK Flexibility Score: inf
ROOT
ATOM      1  C   UNL     1     -18.522  -7.719  43.133  1.00  0.00     0.127 C 
ENDROOT
BRANCH   1   2
ATOM      2  C   UNL     1     -19.804  -7.890  43.974  1.00  0.00     0.233 C 
BRANCH   2   3
ATOM      3  N   UNL     1     -20.522  -6.615  44.079  1.00  0.00    -0.350 N 
ATOM      4  H   UNL     1     -19.953  -5.835  43.675  1.00  0.00     0.345 HD
ATOM      5  H   UNL     1     -20.726  -6.405  45.083  1.00  0.00     0.345 HD
ATOM      6  H   UNL     1     -21.433  -6.677  43.567  1.00  0.00     0.345 HD
ENDBRANCH   2   3
BRANCH   2   7
ATOM      7  C   UNL     1     -20.703  -8.941  43.375  1.00  0.00     0.099 C 
ATOM      8  O   UNL     1     -21.803  -8.614  42.858  1.00  0.00    -0.544 OA
ATOM      9  O   UNL     1     -20.330 -10.280  43.400  1.00  0.00    -0.544 OA
ENDBRANCH   2   7
ENDBRANCH   1   2
BRANCH   1  10
ATOM     10  C   UNL     1     -17.333  -8.334  43.808  1.00  0.00     0.041 A 
ATOM     11  C   UNL     1     -16.176  -7.688  44.183  1.00  0.00     0.134 A 
ATOM     12  N   UNL     1     -17.200  -9.642  44.076  1.00  0.00    -0.348 N 
ATOM     13  N   UNL     1     -15.316  -8.589  44.699  1.00  0.00    -0.245 NA
ATOM     14  C   UNL     1     -15.975  -9.766  44.619  1.00  0.00     0.196 A 
ATOM     15  H   UNL     1     -17.891 -10.404  43.894  1.00  0.00     0.167 HD
ENDBRANCH   1  10
TORSDOF 4
ENDMDL
MODEL 5
REMARK VINA RESULT:    -4.583      3.230      4.096
REMARK INTER + INTRA:          -5.666
REMARK INTER:                  -5.416
REMARK INTRA:                  -0.250
REMARK UNBOUND:                -0.145
REMARK SMILES [NH3+][C@H](Cc1cnc[nH]1)C(=O)[O-]
REMARK SMILES IDX 3 1 2 2 1 3 9 7 10 8 11 9 4 10 5 11 8 12 6 13 7 14
REMARK H PARENT 1 4 1 5 1 6 8 15
REMARK Flexibility Score: inf
ROOT
ATOM      1  C   UNL     1     -17.482  -9.711  43.660  1.00  0.00     0.127 C 
ENDROOT
BRANCH   1   2
ATOM      2  C   UNL     1     -17.631  -8.794  42.429  1.00  0.00     0.233 C 
BRANCH   2   3
ATOM      3  N   UNL     1     -18.051  -7.450  42.840  1.00  0.00    -0.350 N 
ATOM      4  H   UNL     1     -18.601  -7.489  43.730  1.00  0.00     0.345 HD
ATOM      5  H   UNL     1     -18.641  -7.018  42.092  1.00  0.00     0.345 HD
ATOM      6  H   UNL     1     -17.210  -6.843  42.982  1.00  0.00     0.345 HD
ENDBRANCH   2   3
BRANCH   2   7
ATOM      7  C   UNL     1     -16.339  -8.718  41.657  1.00  0.00     0.099 C 
ATOM      8  O   UNL     1     -16.162  -7.804  40.808  1.00  0.00    -0.544 OA
ATOM      9  O   UNL     1     -15.340  -9.662  41.865  1.00  0.00    -0.544 OA
ENDBRANCH   2   7
ENDBRANCH   1   2
BRANCH   1  10
ATOM     10  C   UNL     1     -17.886 -11.122  43.348  1.00  0.00     0.041 A 
ATOM     11  C   UNL     1     -19.166 -11.631  43.357  1.00  0.00     0.134 A 
ATOM     12  N   UNL     1     -17.029 -12.121  43.088  1.00  0.00    -0.348 N 
ATOM     13  N   UNL     1     -19.116 -12.951  43.089  1.00  0.00    -0.245 NA
ATOM     14  C   UNL     1     -17.800 -13.212  42.930  1.00  0.00     0.196 A 
ATOM     15  H   UNL     1     -15.987 -12.068  43.031  1.00  0.00     0.167 HD
ENDBRANCH   1  10
TORSDOF 4
ENDMDL
MODEL 6
REMARK VINA RESULT:    -4.559      4.586      5.327
REMARK INTER + INTRA:          -5.638
REMARK INTER:                  -5.506
REMARK INTRA:                  -0.132
REMARK UNBOUND:                -0.145
REMARK SMILES [NH3+][C@H](Cc1cnc[nH]1)C(=O)[O-]
REMARK SMILES IDX 3 1 2 2 1 3 9 7 10 8 11 9 4 10 5 11 8 12 6 13 7 14
REMARK H PARENT 1 4 1 5 1 6 8 15
REMARK Flexibility Score: inf
ROOT
ATOM      1  C   UNL     1     -17.498 -11.029  42.954  1.00  0.00     0.127 C 
ENDROOT
BRANCH   1   2
ATOM      2  C   UNL     1     -16.077 -10.733  43.474  1.00  0.00     0.233 C 
BRANCH   2   3
ATOM      3  N   UNL     1     -15.157 -10.510  42.353  1.00  0.00    -0.350 N 
ATOM      4  H   UNL     1     -14.943  -9.491  42.247  1.00  0.00     0.345 HD
ATOM      5  H   UNL     1     -15.587 -10.863  41.467  1.00  0.00     0.345 HD
ATOM      6  H   UNL     1     -14.266 -11.035  42.515  1.00  0.00     0.345 HD
ENDBRANCH   2   3
BRANCH   2   7
ATOM      7  C   UNL     1     -16.077  -9.535  44.389  1.00  0.00     0.099 C 
ATOM      8  O   UNL     1     -15.398  -9.548  45.449  1.00  0.00    -0.544 OA
ATOM      9  O   UNL     1     -16.837  -8.414  44.076  1.00  0.00    -0.544 OA
ENDBRANCH   2   7
ENDBRANCH   1   2
BRANCH   1  10
ATOM     10  C   UNL     1     -17.837 -12.486  43.074  1.00  0.00     0.041 A 
ATOM     11  C   UNL     1     -19.098 -13.028  43.190  1.00  0.00     0.134 A 
ATOM     12  N   UNL     1     -16.934 -13.474  43.163  1.00  0.00    -0.348 N 
ATOM     13  N   UNL     1     -18.990 -14.363  43.340  1.00  0.00    -0.245 NA
ATOM     14  C   UNL     1     -17.659 -14.597  43.318  1.00  0.00     0.196 A 
ATOM     15  H   UNL     1     -15.894 -13.392  43.132  1.00  0.00     0.167 HD
ENDBRANCH   1  10
TORSDOF 4
ENDMDL
MODEL 7
REMARK VINA RESULT:    -4.554      2.509      2.718
REMARK INTER + INTRA:          -5.631
REMARK INTER:                  -5.351
REMARK INTRA:                  -0.280
REMARK UNBOUND:                -0.145
REMARK SMILES [NH3+][C@H](Cc1cnc[nH]1)C(=O)[O-]
REMARK SMILES IDX 3 1 2 2 1 3 9 7 10 8 11 9 4 10 5 11 8 12 6 13 7 14
REMARK H PARENT 1 4 1 5 1 6 8 15
REMARK Flexibility Score: inf
ROOT
ATOM      1  C   UNL     1     -17.463  -9.476  42.811  1.00  0.00     0.127 C 
ENDROOT
BRANCH   1   2
ATOM      2  C   UNL     1     -16.736 -10.121  44.009  1.00  0.00     0.233 C 
BRANCH   2   3
ATOM      3  N   UNL     1     -16.012 -11.323  43.582  1.00  0.00    -0.350 N 
ATOM      4  H   UNL     1     -15.446 -11.714  44.370  1.00  0.00     0.345 HD
ATOM      5  H   UNL     1     -15.375 -11.089  42.786  1.00  0.00     0.345 HD
ATOM      6  H   UNL     1     -16.692 -12.048  43.253  1.00  0.00     0.345 HD
ENDBRANCH   2   3
BRANCH   2   7
ATOM      7  C   UNL     1     -15.783  -9.143  44.648  1.00  0.00     0.099 C 
ATOM      8  O   UNL     1     -14.897  -9.552  45.444  1.00  0.00    -0.544 OA
ATOM      9  O   UNL     1     -15.884  -7.784  44.375  1.00  0.00    -0.544 OA
ENDBRANCH   2   7
ENDBRANCH   1   2
BRANCH   1  10
ATOM     10  C   UNL     1     -18.801  -8.926  43.209  1.00  0.00     0.041 A 
ATOM     11  C   UNL     1     -20.024  -9.536  43.034  1.00  0.00     0.134 A 
ATOM     12  N   UNL     1     -19.000  -7.706  43.730  1.00  0.00    -0.348 N 
ATOM     13  N   UNL     1     -20.995  -8.703  43.458  1.00  0.00    -0.245 NA
ATOM     14  C   UNL     1     -20.334  -7.602  43.875  1.00  0.00     0.196 A 
ATOM     15  H   UNL     1     -18.280  -6.988  43.963  1.00  0.00     0.167 HD
ENDBRANCH   1  10
TORSDOF 4
ENDMDL
MODEL 8
REMARK VINA RESULT:    -4.551      4.623      5.399
REMARK INTER + INTRA:          -5.627
REMARK INTER:                  -5.471
REMARK INTRA:                  -0.156
REMARK UNBOUND:                -0.145
REMARK SMILES [NH3+][C@H](Cc1cnc[nH]1)C(=O)[O-]
REMARK SMILES IDX 3 1 2 2 1 3 9 7 10 8 11 9 4 10 5 11 8 12 6 13 7 14
REMARK H PARENT 1 4 1 5 1 6 8 15
REMARK Flexibility Score: inf
ROOT
ATOM      1  C   UNL     1     -17.290 -11.527  42.727  1.00  0.00     0.127 C 
ENDROOT
BRANCH   1   2
ATOM      2  C   UNL     1     -17.567 -10.504  43.847  1.00  0.00     0.233 C 
BRANCH   2   3
ATOM      3  N   UNL     1     -16.343 -10.236  44.610  1.00  0.00    -0.350 N 
ATOM      4  H   UNL     1     -15.841  -9.403  44.223  1.00  0.00     0.345 HD
ATOM      5  H   UNL     1     -15.709 -11.067  44.567  1.00  0.00     0.345 HD
ATOM      6  H   UNL     1     -16.582 -10.059  45.613  1.00  0.00     0.345 HD
ENDBRANCH   2   3
BRANCH   2   7
ATOM      7  C   UNL     1     -18.114  -9.220  43.279  1.00  0.00     0.099 C 
ATOM      8  O   UNL     1     -18.909  -9.248  42.302  1.00  0.00    -0.544 OA
ATOM      9  O   UNL     1     -17.736  -7.997  43.819  1.00  0.00    -0.544 OA
ENDBRANCH   2   7
ENDBRANCH   1   2
BRANCH   1  10
ATOM     10  C   UNL     1     -17.736 -12.906  43.116  1.00  0.00     0.041 A 
ATOM     11  C   UNL     1     -18.874 -13.232  43.820  1.00  0.00     0.134 A 
ATOM     12  N   UNL     1     -17.032 -14.026  42.893  1.00  0.00    -0.348 N 
ATOM     13  N   UNL     1     -18.894 -14.563  44.031  1.00  0.00    -0.245 NA
ATOM     14  C   UNL     1     -17.759 -15.012  43.451  1.00  0.00     0.196 A 
ATOM     15  H   UNL     1     -16.115 -14.116  42.403  1.00  0.00     0.167 HD
ENDBRANCH   1  10
TORSDOF 4
ENDMDL
MODEL 9
REMARK VINA RESULT:    -4.521     11.702     12.661
REMARK INTER + INTRA:          -5.592
REMARK INTER:                  -5.447
REMARK INTRA:                  -0.145
REMARK UNBOUND:                -0.145
REMARK SMILES [NH3+][C@H](Cc1cnc[nH]1)C(=O)[O-]
REMARK SMILES IDX 3 1 2 2 1 3 9 7 10 8 11 9 4 10 5 11 8 12 6 13 7 14
REMARK H PARENT 1 4 1 5 1 6 8 15
REMARK Flexibility Score: inf
ROOT
ATOM      1  C   UNL     1     -21.892 -16.199  34.060  1.00  0.00     0.127 C 
ENDROOT
BRANCH   1   2
ATOM      2  C   UNL     1     -22.816 -17.433  34.119  1.00  0.00     0.233 C 
BRANCH   2   3
ATOM      3  N   UNL     1     -24.060 -17.177  33.385  1.00  0.00    -0.350 N 
ATOM      4  H   UNL     1     -24.887 -17.249  34.021  1.00  0.00     0.345 HD
ATOM      5  H   UNL     1     -24.163 -17.872  32.610  1.00  0.00     0.345 HD
ATOM      6  H   UNL     1     -24.032 -16.219  32.962  1.00  0.00     0.345 HD
ENDBRANCH   2   3
BRANCH   2   7
ATOM      7  C   UNL     1     -22.124 -18.648  33.558  1.00  0.00     0.099 C 
ATOM      8  O   UNL     1     -22.789 -19.680  33.276  1.00  0.00    -0.544 OA
ATOM      9  O   UNL     1     -20.749 -18.645  33.360  1.00  0.00    -0.544 OA
ENDBRANCH   2   7
ENDBRANCH   1   2
BRANCH   1  10
ATOM     10  C   UNL     1     -22.333 -15.133  35.020  1.00  0.00     0.041 A 
ATOM     11  C   UNL     1     -22.178 -13.773  34.864  1.00  0.00     0.134 A 
ATOM     12  N   UNL     1     -22.882 -15.368  36.221  1.00  0.00    -0.348 N 
ATOM     13  N   UNL     1     -22.641 -13.149  35.965  1.00  0.00    -0.245 NA
ATOM     14  C   UNL     1     -23.062 -14.152  36.767  1.00  0.00     0.196 A 
ATOM     15  H   UNL     1     -23.110 -16.293  36.647  1.00  0.00     0.167 HD
ENDBRANCH   1  10
TORSDOF 4
ENDMDL
