MODEL 1
REMARK VINA RESULT:     0.583      0.000      0.000
REMARK INTER + INTRA:          -1.037
REMARK INTER:                   1.538
REMARK INTRA:                  -2.575
REMARK UNBOUND:                -2.575
REMARK SMILES CCCCCCCCCCCCCCCCCCCCCCCCCCCCCC(=O)[O-]
REMARK SMILES IDX 16 1 17 2 18 3 19 4 20 5 21 6 22 7 23 8 24 9 25 10 26 11
REMARK SMILES IDX 27 12 28 13 29 14 30 15 31 16 32 17 15 18 14 19 13 20 12 21
REMARK SMILES IDX 11 22 10 23 9 24 8 25 7 26 6 27 5 28 4 29 3 30 2 31 1 32
REMARK H PARENT
REMARK Flexibility Score: inf
ROOT
ATOM      1  C   UNL     1      13.983   4.528  15.762  1.00  0.00     0.000 C 
ENDROOT
BRANCH   1   2
ATOM      2  C   UNL     1      14.759   3.367  16.409  1.00  0.00     0.000 C 
BRANCH   2   3
ATOM      3  C   UNL     1      13.853   2.442  17.247  1.00  0.00     0.000 C 
BRANCH   3   4
ATOM      4  C   UNL     1      12.494   3.063  17.623  1.00  0.00     0.000 C 
BRANCH   4   5
ATOM      5  C   UNL     1      12.238   3.052  19.138  1.00  0.00     0.000 C 
BRANCH   5   6
ATOM      6  C   UNL     1      12.226   4.482  19.696  1.00  0.00     0.000 C 
BRANCH   6   7
ATOM      7  C   UNL     1      12.178   5.547  18.586  1.00  0.00     0.000 C 
BRANCH   7   8
ATOM      8  C   UNL     1      13.154   6.718  18.797  1.00  0.00     0.000 C 
BRANCH   8   9
ATOM      9  C   UNL     1      14.608   6.260  19.049  1.00  0.00     0.000 C 
BRANCH   9  10
ATOM     10  C   UNL     1      15.358   7.207  20.000  1.00  0.00     0.000 C 
BRANCH  10  11
ATOM     11  C   UNL     1      16.629   6.580  20.604  1.00  0.00     0.000 C 
BRANCH  11  12
ATOM     12  C   UNL     1      16.538   6.232  22.100  1.00  0.00     0.000 C 
BRANCH  12  13
ATOM     13  C   UNL     1      17.079   4.829  22.426  1.00  0.00     0.006 C 
BRANCH  13  14
ATOM     14  C   UNL     1      17.948   4.825  23.692  1.00  0.00     0.053 C 
BRANCH  14  15
ATOM     15  C   UNL     1      19.396   5.052  23.373  1.00  0.00     0.041 C 
ATOM     16  O   UNL     1      20.215   4.097  23.421  1.00  0.00    -0.550 OA
ATOM     17  O   UNL     1      19.834   6.313  22.990  1.00  0.00    -0.550 OA
ENDBRANCH  14  15
ENDBRANCH  13  14
ENDBRANCH  12  13
ENDBRANCH  11  12
ENDBRANCH  10  11
ENDBRANCH   9  10
ENDBRANCH   8   9
ENDBRANCH   7   8
ENDBRANCH   6   7
ENDBRANCH   5   6
ENDBRANCH   4   5
ENDBRANCH   3   4
ENDBRANCH   2   3
ENDBRANCH   1   2
BRANCH   1  18
ATOM     18  C   UNL     1      14.787   5.243  14.659  1.00  0.00     0.000 C 
BRANCH  18  19
ATOM     19  C   UNL     1      14.155   6.548  14.137  1.00  0.00     0.000 C 
BRANCH  19  20
ATOM     20  C   UNL     1      14.378   7.788  15.024  1.00  0.00     0.000 C 
BRANCH  20  21
ATOM     21  C   UNL     1      13.078   8.525  15.411  1.00  0.00     0.000 C 
BRANCH  21  22
ATOM     22  C   UNL     1      13.231  10.055  15.356  1.00  0.00     0.000 C 
BRANCH  22  23
ATOM     23  C   UNL     1      12.067  10.743  14.626  1.00  0.00     0.000 C 
BRANCH  23  24
ATOM     24  C   UNL     1      12.011  12.256  14.899  1.00  0.00    -0.000 C 
BRANCH  24  25
ATOM     25  C   UNL     1      13.106  12.711  15.887  1.00  0.00    -0.000 C 
BRANCH  25  26
ATOM     26  C   UNL     1      13.645  14.126  15.611  1.00  0.00    -0.000 C 
BRANCH  26  27
ATOM     27  C   UNL     1      12.821  14.944  14.601  1.00  0.00    -0.000 C 
BRANCH  27  28
ATOM     28  C   UNL     1      13.687  15.900  13.761  1.00  0.00    -0.000 C 
BRANCH  28  29
ATOM     29  C   UNL     1      13.273  15.922  12.278  1.00  0.00    -0.000 C 
BRANCH  29  30
ATOM     30  C   UNL     1      12.202  14.881  11.894  1.00  0.00    -0.000 C 
BRANCH  30  31
ATOM     31  C   UNL     1      12.707  13.427  11.814  1.00  0.00    -0.003 C 
ATOM     32  C   UNL     1      11.616  12.437  11.402  1.00  0.00     0.004 C 
ENDBRANCH  30  31
ENDBRANCH  29  30
ENDBRANCH  28  29
ENDBRANCH  27  28
ENDBRANCH  26  27
ENDBRANCH  25  26
ENDBRANCH  24  25
ENDBRANCH  23  24
ENDBRANCH  22  23
ENDBRANCH  21  22
ENDBRANCH  20  21
ENDBRANCH  19  20
ENDBRANCH  18  19
ENDBRANCH   1  18
TORSDOF 28
ENDMDL
MODEL 2
REMARK VINA RESULT:     0.876      3.753     10.701
REMARK INTER + INTRA:          -0.266
REMARK INTER:                   2.184
REMARK INTRA:                  -2.450
REMARK UNBOUND:                -2.575
REMARK SMILES CCCCCCCCCCCCCCCCCCCCCCCCCCCCCC(=O)[O-]
REMARK SMILES IDX 16 1 17 2 18 3 19 4 20 5 21 6 22 7 23 8 24 9 25 10 26 11
REMARK SMILES IDX 27 12 28 13 29 14 30 15 31 16 32 17 15 18 14 19 13 20 12 21
REMARK SMILES IDX 11 22 10 23 9 24 8 25 7 26 6 27 5 28 4 29 3 30 2 31 1 32
REMARK H PARENT
REMARK Flexibility Score: inf
ROOT
ATOM      1  C   UNL     1      14.863   5.189  14.557  1.00  0.00     0.000 C 
ENDROOT
BRANCH   1   2
ATOM      2  C   UNL     1      14.180   6.486  14.088  1.00  0.00     0.000 C 
BRANCH   2   3
ATOM      3  C   UNL     1      14.279   7.620  15.129  1.00  0.00     0.000 C 
BRANCH   3   4
ATOM      4  C   UNL     1      12.990   8.449  15.282  1.00  0.00     0.000 C 
BRANCH   4   5
ATOM      5  C   UNL     1      13.260   9.962  15.304  1.00  0.00     0.000 C 
BRANCH   5   6
ATOM      6  C   UNL     1      12.043  10.737  14.781  1.00  0.00     0.000 C 
BRANCH   6   7
ATOM      7  C   UNL     1      12.146  12.249  15.051  1.00  0.00     0.000 C 
BRANCH   7   8
ATOM      8  C   UNL     1      13.472  12.681  15.700  1.00  0.00     0.000 C 
BRANCH   8   9
ATOM      9  C   UNL     1      13.841  14.154  15.409  1.00  0.00     0.000 C 
BRANCH   9  10
ATOM     10  C   UNL     1      12.616  15.082  15.477  1.00  0.00     0.000 C 
BRANCH  10  11
ATOM     11  C   UNL     1      12.423  15.924  14.201  1.00  0.00     0.000 C 
BRANCH  11  12
ATOM     12  C   UNL     1      13.597  15.881  13.207  1.00  0.00     0.000 C 
BRANCH  12  13
ATOM     13  C   UNL     1      13.168  15.479  11.785  1.00  0.00     0.006 C 
BRANCH  13  14
ATOM     14  C   UNL     1      11.916  14.588  11.791  1.00  0.00     0.053 C 
BRANCH  14  15
ATOM     15  C   UNL     1      12.272  13.132  11.740  1.00  0.00     0.041 C 
ATOM     16  O   UNL     1      13.346  12.721  12.255  1.00  0.00    -0.550 OA
ATOM     17  O   UNL     1      11.401  12.223  11.153  1.00  0.00    -0.550 OA
ENDBRANCH  14  15
ENDBRANCH  13  14
ENDBRANCH  12  13
ENDBRANCH  11  12
ENDBRANCH  10  11
ENDBRANCH   9  10
ENDBRANCH   8   9
ENDBRANCH   7   8
ENDBRANCH   6   7
ENDBRANCH   5   6
ENDBRANCH   4   5
ENDBRANCH   3   4
ENDBRANCH   2   3
ENDBRANCH   1   2
BRANCH   1  18
ATOM     18  C   UNL     1      14.150   4.538  15.757  1.00  0.00     0.000 C 
BRANCH  18  19
ATOM     19  C   UNL     1      14.807   3.246  16.281  1.00  0.00     0.000 C 
BRANCH  19  20
ATOM     20  C   UNL     1      13.948   2.422  17.259  1.00  0.00     0.000 C 
BRANCH  20  21
ATOM     21  C   UNL     1      12.553   3.026  17.532  1.00  0.00     0.000 C 
BRANCH  21  22
ATOM     22  C   UNL     1      12.229   3.105  19.034  1.00  0.00     0.000 C 
BRANCH  22  23
ATOM     23  C   UNL     1      12.070   4.550  19.533  1.00  0.00     0.000 C 
BRANCH  23  24
ATOM     24  C   UNL     1      12.471   5.588  18.471  1.00  0.00    -0.000 C 
BRANCH  24  25
ATOM     25  C   UNL     1      13.286   6.753  19.073  1.00  0.00    -0.000 C 
BRANCH  25  26
ATOM     26  C   UNL     1      14.807   6.517  19.065  1.00  0.00    -0.000 C 
BRANCH  26  27
ATOM     27  C   UNL     1      15.582   7.268  20.161  1.00  0.00    -0.000 C 
BRANCH  27  28
ATOM     28  C   UNL     1      16.806   6.484  20.668  1.00  0.00    -0.000 C 
BRANCH  28  29
ATOM     29  C   UNL     1      16.702   6.129  22.163  1.00  0.00    -0.000 C 
BRANCH  29  30
ATOM     30  C   UNL     1      17.637   4.991  22.619  1.00  0.00    -0.000 C 
BRANCH  30  31
ATOM     31  C   UNL     1      18.947   5.453  23.285  1.00  0.00    -0.003 C 
ATOM     32  C   UNL     1      19.808   4.291  23.781  1.00  0.00     0.004 C 
ENDBRANCH  30  31
ENDBRANCH  29  30
ENDBRANCH  28  29
ENDBRANCH  27  28
ENDBRANCH  26  27
ENDBRANCH  25  26
ENDBRANCH  24  25
ENDBRANCH  23  24
ENDBRANCH  22  23
ENDBRANCH  21  22
ENDBRANCH  20  21
ENDBRANCH  19  20
ENDBRANCH  18  19
ENDBRANCH   1  18
TORSDOF 28
ENDMDL
MODEL 3
REMARK VINA RESULT:     0.889      6.179     11.501
REMARK INTER + INTRA:          -0.230
REMARK INTER:                   1.591
REMARK INTRA:                  -1.821
REMARK UNBOUND:                -2.575
REMARK SMILES CCCCCCCCCCCCCCCCCCCCCCCCCCCCCC(=O)[O-]
REMARK SMILES IDX 16 1 17 2 18 3 19 4 20 5 21 6 22 7 23 8 24 9 25 10 26 11
REMARK SMILES IDX 27 12 28 13 29 14 30 15 31 16 32 17 15 18 14 19 13 20 12 21
REMARK SMILES IDX 11 22 10 23 9 24 8 25 7 26 6 27 5 28 4 29 3 30 2 31 1 32
REMARK H PARENT
REMARK Flexibility Score: inf
ROOT
ATOM      1  C   UNL     1      13.774   2.946  17.221  1.00  0.00     0.000 C 
ENDROOT
BRANCH   1   2
ATOM      2  C   UNL     1      12.509   3.450  17.937  1.00  0.00     0.000 C 
BRANCH   2   3
ATOM      3  C   UNL     1      12.828   4.401  19.109  1.00  0.00     0.000 C 
BRANCH   3   4
ATOM      4  C   UNL     1      12.387   5.859  18.876  1.00  0.00     0.000 C 
BRANCH   4   5
ATOM      5  C   UNL     1      13.229   6.567  17.804  1.00  0.00     0.000 C 
BRANCH   5   6
ATOM      6  C   UNL     1      12.483   6.599  16.463  1.00  0.00     0.000 C 
BRANCH   6   7
ATOM      7  C   UNL     1      13.257   7.367  15.377  1.00  0.00     0.000 C 
BRANCH   7   8
ATOM      8  C   UNL     1      13.500   8.850  15.708  1.00  0.00     0.000 C 
BRANCH   8   9
ATOM      9  C   UNL     1      12.544   9.805  14.960  1.00  0.00     0.000 C 
BRANCH   9  10
ATOM     10  C   UNL     1      13.168  11.193  14.736  1.00  0.00     0.000 C 
BRANCH  10  11
ATOM     11  C   UNL     1      12.194  12.351  15.028  1.00  0.00     0.000 C 
BRANCH  11  12
ATOM     12  C   UNL     1      12.824  13.575  15.717  1.00  0.00     0.000 C 
BRANCH  12  13
ATOM     13  C   UNL     1      12.807  14.836  14.837  1.00  0.00     0.006 C 
BRANCH  13  14
ATOM     14  C   UNL     1      13.511  14.610  13.491  1.00  0.00     0.053 C 
BRANCH  14  15
ATOM     15  C   UNL     1      13.172  15.685  12.500  1.00  0.00     0.041 C 
ATOM     16  O   UNL     1      13.968  16.641  12.303  1.00  0.00    -0.550 OA
ATOM     17  O   UNL     1      11.992  15.612  11.770  1.00  0.00    -0.550 OA
ENDBRANCH  14  15
ENDBRANCH  13  14
ENDBRANCH  12  13
ENDBRANCH  11  12
ENDBRANCH  10  11
ENDBRANCH   9  10
ENDBRANCH   8   9
ENDBRANCH   7   8
ENDBRANCH   6   7
ENDBRANCH   5   6
ENDBRANCH   4   5
ENDBRANCH   3   4
ENDBRANCH   2   3
ENDBRANCH   1   2
BRANCH   1  18
ATOM     18  C   UNL     1      13.976   3.590  15.837  1.00  0.00     0.000 C 
BRANCH  18  19
ATOM     19  C   UNL     1      15.348   4.257  15.623  1.00  0.00     0.000 C 
BRANCH  19  20
ATOM     20  C   UNL     1      15.603   4.796  14.202  1.00  0.00     0.000 C 
BRANCH  20  21
ATOM     21  C   UNL     1      17.087   4.773  13.778  1.00  0.00     0.000 C 
BRANCH  21  22
ATOM     22  C   UNL     1      17.322   3.943  12.504  1.00  0.00     0.000 C 
BRANCH  22  23
ATOM     23  C   UNL     1      18.731   3.332  12.444  1.00  0.00     0.000 C 
BRANCH  23  24
ATOM     24  C   UNL     1      19.082   2.795  11.045  1.00  0.00    -0.000 C 
BRANCH  24  25
ATOM     25  C   UNL     1      20.595   2.537  10.883  1.00  0.00    -0.000 C 
BRANCH  25  26
ATOM     26  C   UNL     1      21.047   1.153  11.383  1.00  0.00    -0.000 C 
BRANCH  26  27
ATOM     27  C   UNL     1      22.571   0.959  11.457  1.00  0.00    -0.000 C 
BRANCH  27  28
ATOM     28  C   UNL     1      22.982  -0.161  12.430  1.00  0.00    -0.000 C 
BRANCH  28  29
ATOM     29  C   UNL     1      23.620   0.383  13.722  1.00  0.00    -0.000 C 
BRANCH  29  30
ATOM     30  C   UNL     1      22.683   0.391  14.947  1.00  0.00    -0.000 C 
BRANCH  30  31
ATOM     31  C   UNL     1      21.993   1.739  15.231  1.00  0.00    -0.003 C 
ATOM     32  C   UNL     1      22.588   2.474  16.433  1.00  0.00     0.004 C 
ENDBRANCH  30  31
ENDBRANCH  29  30
ENDBRANCH  28  29
ENDBRANCH  27  28
ENDBRANCH  26  27
ENDBRANCH  25  26
ENDBRANCH  24  25
ENDBRANCH  23  24
ENDBRANCH  22  23
ENDBRANCH  21  22
ENDBRANCH  20  21
ENDBRANCH  19  20
ENDBRANCH  18  19
ENDBRANCH   1  18
TORSDOF 28
ENDMDL
MODEL 4
REMARK VINA RESULT:     1.243      4.868      7.189
REMARK INTER + INTRA:           0.703
REMARK INTER:                   2.080
REMARK INTRA:                  -1.377
REMARK UNBOUND:                -2.575
REMARK SMILES CCCCCCCCCCCCCCCCCCCCCCCCCCCCCC(=O)[O-]
REMARK SMILES IDX 16 1 17 2 18 3 19 4 20 5 21 6 22 7 23 8 24 9 25 10 26 11
REMARK SMILES IDX 27 12 28 13 29 14 30 15 31 16 32 17 15 18 14 19 13 20 12 21
REMARK SMILES IDX 11 22 10 23 9 24 8 25 7 26 6 27 5 28 4 29 3 30 2 31 1 32
REMARK H PARENT
REMARK Flexibility Score: inf
ROOT
ATOM      1  C   UNL     1      12.868   3.139  17.371  1.00  0.00     0.000 C 
ENDROOT
BRANCH   1   2
ATOM      2  C   UNL     1      14.194   2.385  17.168  1.00  0.00     0.000 C 
BRANCH   2   3
ATOM      3  C   UNL     1      15.211   3.186  16.330  1.00  0.00     0.000 C 
BRANCH   3   4
ATOM      4  C   UNL     1      14.570   4.159  15.322  1.00  0.00     0.000 C 
BRANCH   4   5
ATOM      5  C   UNL     1      15.614   4.932  14.501  1.00  0.00     0.000 C 
BRANCH   5   6
ATOM      6  C   UNL     1      16.838   4.051  14.213  1.00  0.00     0.000 C 
BRANCH   6   7
ATOM      7  C   UNL     1      17.569   4.460  12.922  1.00  0.00     0.000 C 
BRANCH   7   8
ATOM      8  C   UNL     1      17.759   3.311  11.917  1.00  0.00     0.000 C 
BRANCH   8   9
ATOM      9  C   UNL     1      19.194   3.231  11.349  1.00  0.00     0.000 C 
BRANCH   9  10
ATOM     10  C   UNL     1      20.076   2.249  12.138  1.00  0.00     0.000 C 
BRANCH  10  11
ATOM     11  C   UNL     1      21.023   1.429  11.240  1.00  0.00     0.000 C 
BRANCH  11  12
ATOM     12  C   UNL     1      21.853   0.359  11.972  1.00  0.00     0.000 C 
BRANCH  12  13
ATOM     13  C   UNL     1      23.369   0.613  11.890  1.00  0.00     0.006 C 
BRANCH  13  14
ATOM     14  C   UNL     1      23.949   1.077  13.234  1.00  0.00     0.053 C 
BRANCH  14  15
ATOM     15  C   UNL     1      23.315   0.361  14.389  1.00  0.00     0.041 C 
ATOM     16  O   UNL     1      23.821  -0.705  14.831  1.00  0.00    -0.550 OA
ATOM     17  O   UNL     1      22.184   0.888  14.999  1.00  0.00    -0.550 OA
ENDBRANCH  14  15
ENDBRANCH  13  14
ENDBRANCH  12  13
ENDBRANCH  11  12
ENDBRANCH  10  11
ENDBRANCH   9  10
ENDBRANCH   8   9
ENDBRANCH   7   8
ENDBRANCH   6   7
ENDBRANCH   5   6
ENDBRANCH   4   5
ENDBRANCH   3   4
ENDBRANCH   2   3
ENDBRANCH   1   2
BRANCH   1  18
ATOM     18  C   UNL     1      12.372   3.096  18.828  1.00  0.00     0.000 C 
BRANCH  18  19
ATOM     19  C   UNL     1      12.145   4.474  19.479  1.00  0.00     0.000 C 
BRANCH  19  20
ATOM     20  C   UNL     1      13.164   5.562  19.087  1.00  0.00     0.000 C 
BRANCH  20  21
ATOM     21  C   UNL     1      12.557   6.728  18.277  1.00  0.00     0.000 C 
BRANCH  21  22
ATOM     22  C   UNL     1      12.149   6.306  16.854  1.00  0.00     0.000 C 
BRANCH  22  23
ATOM     23  C   UNL     1      12.985   6.998  15.767  1.00  0.00     0.000 C 
BRANCH  23  24
ATOM     24  C   UNL     1      13.395   8.428  16.159  1.00  0.00    -0.000 C 
BRANCH  24  25
ATOM     25  C   UNL     1      13.433   9.377  14.942  1.00  0.00    -0.000 C 
BRANCH  25  26
ATOM     26  C   UNL     1      12.209  10.305  14.839  1.00  0.00    -0.000 C 
BRANCH  26  27
ATOM     27  C   UNL     1      12.505  11.703  14.268  1.00  0.00    -0.000 C 
BRANCH  27  28
ATOM     28  C   UNL     1      12.107  12.836  15.232  1.00  0.00    -0.000 C 
BRANCH  28  29
ATOM     29  C   UNL     1      13.304  13.723  15.625  1.00  0.00    -0.000 C 
BRANCH  29  30
ATOM     30  C   UNL     1      13.613  14.862  14.633  1.00  0.00    -0.000 C 
BRANCH  30  31
ATOM     31  C   UNL     1      12.859  14.779  13.291  1.00  0.00    -0.003 C 
ATOM     32  C   UNL     1      13.307  15.842  12.287  1.00  0.00     0.004 C 
ENDBRANCH  30  31
ENDBRANCH  29  30
ENDBRANCH  28  29
ENDBRANCH  27  28
ENDBRANCH  26  27
ENDBRANCH  25  26
ENDBRANCH  24  25
ENDBRANCH  23  24
ENDBRANCH  22  23
ENDBRANCH  21  22
ENDBRANCH  20  21
ENDBRANCH  19  20
ENDBRANCH  18  19
ENDBRANCH   1  18
TORSDOF 28
ENDMDL
MODEL 5
REMARK VINA RESULT:     1.342      4.891      7.069
REMARK INTER + INTRA:           0.962
REMARK INTER:                   3.031
REMARK INTRA:                  -2.069
REMARK UNBOUND:                -2.575
REMARK SMILES CCCCCCCCCCCCCCCCCCCCCCCCCCCCCC(=O)[O-]
REMARK SMILES IDX 16 1 17 2 18 3 19 4 20 5 21 6 22 7 23 8 24 9 25 10 26 11
REMARK SMILES IDX 27 12 28 13 29 14 30 15 31 16 32 17 15 18 14 19 13 20 12 21
REMARK SMILES IDX 11 22 10 23 9 24 8 25 7 26 6 27 5 28 4 29 3 30 2 31 1 32
REMARK H PARENT
REMARK Flexibility Score: inf
ROOT
ATOM      1  C   UNL     1      11.949   4.252  18.584  1.00  0.00     0.000 C 
ENDROOT
BRANCH   1   2
ATOM      2  C   UNL     1      12.657   2.886  18.565  1.00  0.00     0.000 C 
BRANCH   2   3
ATOM      3  C   UNL     1      13.227   2.531  17.176  1.00  0.00     0.000 C 
BRANCH   3   4
ATOM      4  C   UNL     1      13.634   3.754  16.331  1.00  0.00     0.000 C 
BRANCH   4   5
ATOM      5  C   UNL     1      15.151   3.834  16.102  1.00  0.00     0.000 C 
BRANCH   5   6
ATOM      6  C   UNL     1      15.460   4.244  14.655  1.00  0.00     0.000 C 
BRANCH   6   7
ATOM      7  C   UNL     1      16.971   4.354  14.383  1.00  0.00     0.000 C 
BRANCH   7   8
ATOM      8  C   UNL     1      17.343   4.336  12.890  1.00  0.00     0.000 C 
BRANCH   8   9
ATOM      9  C   UNL     1      18.721   3.692  12.615  1.00  0.00     0.000 C 
BRANCH   9  10
ATOM     10  C   UNL     1      18.733   2.888  11.304  1.00  0.00     0.000 C 
BRANCH  10  11
ATOM     11  C   UNL     1      20.145   2.434  10.885  1.00  0.00     0.000 C 
BRANCH  11  12
ATOM     12  C   UNL     1      20.692   1.215  11.649  1.00  0.00     0.000 C 
BRANCH  12  13
ATOM     13  C   UNL     1      22.228   1.139  11.640  1.00  0.00     0.006 C 
BRANCH  13  14
ATOM     14  C   UNL     1      22.734  -0.311  11.604  1.00  0.00     0.053 C 
BRANCH  14  15
ATOM     15  C   UNL     1      23.454  -0.679  12.868  1.00  0.00     0.041 C 
ATOM     16  O   UNL     1      23.919  -1.839  13.020  1.00  0.00    -0.550 OA
ATOM     17  O   UNL     1      23.640   0.271  13.865  1.00  0.00    -0.550 OA
ENDBRANCH  14  15
ENDBRANCH  13  14
ENDBRANCH  12  13
ENDBRANCH  11  12
ENDBRANCH  10  11
ENDBRANCH   9  10
ENDBRANCH   8   9
ENDBRANCH   7   8
ENDBRANCH   6   7
ENDBRANCH   5   6
ENDBRANCH   4   5
ENDBRANCH   3   4
ENDBRANCH   2   3
ENDBRANCH   1   2
BRANCH   1  18
ATOM     18  C   UNL     1      12.664   5.284  19.477  1.00  0.00     0.000 C 
BRANCH  18  19
ATOM     19  C   UNL     1      13.398   6.405  18.717  1.00  0.00     0.000 C 
BRANCH  19  20
ATOM     20  C   UNL     1      12.487   7.389  17.957  1.00  0.00     0.000 C 
BRANCH  20  21
ATOM     21  C   UNL     1      12.302   7.047  16.463  1.00  0.00     0.000 C 
BRANCH  21  22
ATOM     22  C   UNL     1      13.586   7.270  15.644  1.00  0.00     0.000 C 
BRANCH  22  23
ATOM     23  C   UNL     1      13.567   8.590  14.858  1.00  0.00     0.000 C 
BRANCH  23  24
ATOM     24  C   UNL     1      12.814   9.708  15.600  1.00  0.00    -0.000 C 
BRANCH  24  25
ATOM     25  C   UNL     1      12.838  11.042  14.824  1.00  0.00    -0.000 C 
BRANCH  25  26
ATOM     26  C   UNL     1      11.465  11.462  14.268  1.00  0.00    -0.000 C 
BRANCH  26  27
ATOM     27  C   UNL     1      11.518  12.263  12.956  1.00  0.00    -0.000 C 
BRANCH  27  28
ATOM     28  C   UNL     1      12.911  12.855  12.676  1.00  0.00    -0.000 C 
BRANCH  28  29
ATOM     29  C   UNL     1      12.852  14.345  12.291  1.00  0.00    -0.000 C 
BRANCH  29  30
ATOM     30  C   UNL     1      13.333  15.313  13.392  1.00  0.00    -0.000 C 
BRANCH  30  31
ATOM     31  C   UNL     1      13.752  14.639  14.712  1.00  0.00    -0.003 C 
ATOM     32  C   UNL     1      12.620  14.576  15.738  1.00  0.00     0.004 C 
ENDBRANCH  30  31
ENDBRANCH  29  30
ENDBRANCH  28  29
ENDBRANCH  27  28
ENDBRANCH  26  27
ENDBRANCH  25  26
ENDBRANCH  24  25
ENDBRANCH  23  24
ENDBRANCH  22  23
ENDBRANCH  21  22
ENDBRANCH  20  21
ENDBRANCH  19  20
ENDBRANCH  18  19
ENDBRANCH   1  18
TORSDOF 28
ENDMDL
MODEL 6
REMARK VINA RESULT:     1.430      5.236      7.075
REMARK INTER + INTRA:           1.194
REMARK INTER:                   2.311
REMARK INTRA:                  -1.117
REMARK UNBOUND:                -2.575
REMARK SMILES CCCCCCCCCCCCCCCCCCCCCCCCCCCCCC(=O)[O-]
REMARK SMILES IDX 16 1 17 2 18 3 19 4 20 5 21 6 22 7 23 8 24 9 25 10 26 11
REMARK SMILES IDX 27 12 28 13 29 14 30 15 31 16 32 17 15 18 14 19 13 20 12 21
REMARK SMILES IDX 11 22 10 23 9 24 8 25 7 26 6 27 5 28 4 29 3 30 2 31 1 32
REMARK H PARENT
REMARK Flexibility Score: inf
ROOT
ATOM      1  C   UNL     1      13.578   4.039  16.257  1.00  0.00     0.000 C 
ENDROOT
BRANCH   1   2
ATOM      2  C   UNL     1      14.688   3.086  16.736  1.00  0.00     0.000 C 
BRANCH   2   3
ATOM      3  C   UNL     1      16.026   3.317  16.006  1.00  0.00     0.000 C 
BRANCH   3   4
ATOM      4  C   UNL     1      15.943   4.322  14.841  1.00  0.00     0.000 C 
BRANCH   4   5
ATOM      5  C   UNL     1      17.260   4.428  14.057  1.00  0.00     0.000 C 
BRANCH   5   6
ATOM      6  C   UNL     1      17.097   3.857  12.641  1.00  0.00     0.000 C 
BRANCH   6   7
ATOM      7  C   UNL     1      18.437   3.738  11.895  1.00  0.00     0.000 C 
BRANCH   7   8
ATOM      8  C   UNL     1      19.339   2.600  12.402  1.00  0.00     0.000 C 
BRANCH   8   9
ATOM      9  C   UNL     1      20.374   2.132  11.355  1.00  0.00     0.000 C 
BRANCH   9  10
ATOM     10  C   UNL     1      21.126   0.868  11.806  1.00  0.00     0.000 C 
BRANCH  10  11
ATOM     11  C   UNL     1      22.524   0.735  11.173  1.00  0.00     0.000 C 
BRANCH  11  12
ATOM     12  C   UNL     1      23.295  -0.541  11.557  1.00  0.00     0.000 C 
BRANCH  12  13
ATOM     13  C   UNL     1      23.809  -0.521  13.007  1.00  0.00     0.006 C 
BRANCH  13  14
ATOM     14  C   UNL     1      24.125   0.903  13.488  1.00  0.00     0.053 C 
BRANCH  14  15
ATOM     15  C   UNL     1      23.481   1.198  14.810  1.00  0.00     0.041 C 
ATOM     16  O   UNL     1      23.821   2.216  15.469  1.00  0.00    -0.550 OA
ATOM     17  O   UNL     1      22.482   0.366  15.299  1.00  0.00    -0.550 OA
ENDBRANCH  14  15
ENDBRANCH  13  14
ENDBRANCH  12  13
ENDBRANCH  11  12
ENDBRANCH  10  11
ENDBRANCH   9  10
ENDBRANCH   8   9
ENDBRANCH   7   8
ENDBRANCH   6   7
ENDBRANCH   5   6
ENDBRANCH   4   5
ENDBRANCH   3   4
ENDBRANCH   2   3
ENDBRANCH   1   2
BRANCH   1  18
ATOM     18  C   UNL     1      12.734   4.604  17.415  1.00  0.00     0.000 C 
BRANCH  18  19
ATOM     19  C   UNL     1      12.912   6.113  17.672  1.00  0.00     0.000 C 
BRANCH  19  20
ATOM     20  C   UNL     1      12.236   7.040  16.643  1.00  0.00     0.000 C 
BRANCH  20  21
ATOM     21  C   UNL     1      13.115   7.361  15.415  1.00  0.00     0.000 C 
BRANCH  21  22
ATOM     22  C   UNL     1      13.802   8.733  15.527  1.00  0.00     0.000 C 
BRANCH  22  23
ATOM     23  C   UNL     1      13.113   9.814  14.680  1.00  0.00     0.000 C 
BRANCH  23  24
ATOM     24  C   UNL     1      12.663  11.023  15.518  1.00  0.00    -0.000 C 
BRANCH  24  25
ATOM     25  C   UNL     1      12.936  12.363  14.802  1.00  0.00    -0.000 C 
BRANCH  25  26
ATOM     26  C   UNL     1      13.226  13.533  15.760  1.00  0.00    -0.000 C 
BRANCH  26  27
ATOM     27  C   UNL     1      12.781  14.913  15.246  1.00  0.00    -0.000 C 
BRANCH  27  28
ATOM     28  C   UNL     1      13.645  15.419  14.076  1.00  0.00    -0.000 C 
BRANCH  28  29
ATOM     29  C   UNL     1      12.799  15.948  12.903  1.00  0.00    -0.000 C 
BRANCH  29  30
ATOM     30  C   UNL     1      12.692  14.986  11.703  1.00  0.00    -0.000 C 
BRANCH  30  31
ATOM     31  C   UNL     1      12.701  13.488  12.066  1.00  0.00    -0.003 C 
ATOM     32  C   UNL     1      11.692  12.672  11.257  1.00  0.00     0.004 C 
ENDBRANCH  30  31
ENDBRANCH  29  30
ENDBRANCH  28  29
ENDBRANCH  27  28
ENDBRANCH  26  27
ENDBRANCH  25  26
ENDBRANCH  24  25
ENDBRANCH  23  24
ENDBRANCH  22  23
ENDBRANCH  21  22
ENDBRANCH  20  21
ENDBRANCH  19  20
ENDBRANCH  18  19
ENDBRANCH   1  18
TORSDOF 28
ENDMDL
MODEL 7
REMARK VINA RESULT:     1.592      7.129     12.745
REMARK INTER + INTRA:           1.622
REMARK INTER:                   3.255
REMARK INTRA:                  -1.633
REMARK UNBOUND:                -2.575
REMARK SMILES CCCCCCCCCCCCCCCCCCCCCCCCCCCCCC(=O)[O-]
REMARK SMILES IDX 16 1 17 2 18 3 19 4 20 5 21 6 22 7 23 8 24 9 25 10 26 11
REMARK SMILES IDX 27 12 28 13 29 14 30 15 31 16 32 17 15 18 14 19 13 20 12 21
REMARK SMILES IDX 11 22 10 23 9 24 8 25 7 26 6 27 5 28 4 29 3 30 2 31 1 32
REMARK H PARENT
REMARK Flexibility Score: inf
ROOT
ATOM      1  C   UNL     1      15.575   5.469  13.750  1.00  0.00     0.000 C 
ENDROOT
BRANCH   1   2
ATOM      2  C   UNL     1      14.292   4.953  14.426  1.00  0.00     0.000 C 
BRANCH   2   3
ATOM      3  C   UNL     1      14.576   4.187  15.734  1.00  0.00     0.000 C 
BRANCH   3   4
ATOM      4  C   UNL     1      13.408   4.198  16.738  1.00  0.00     0.000 C 
BRANCH   4   5
ATOM      5  C   UNL     1      13.572   5.272  17.824  1.00  0.00     0.000 C 
BRANCH   5   6
ATOM      6  C   UNL     1      12.391   6.253  17.800  1.00  0.00     0.000 C 
BRANCH   6   7
ATOM      7  C   UNL     1      12.319   7.055  16.489  1.00  0.00     0.000 C 
BRANCH   7   8
ATOM      8  C   UNL     1      13.544   7.950  16.232  1.00  0.00     0.000 C 
BRANCH   8   9
ATOM      9  C   UNL     1      13.431   8.778  14.933  1.00  0.00     0.000 C 
BRANCH   9  10
ATOM     10  C   UNL     1      12.491   9.986  15.094  1.00  0.00     0.000 C 
BRANCH  10  11
ATOM     11  C   UNL     1      13.209  11.339  14.926  1.00  0.00     0.000 C 
BRANCH  11  12
ATOM     12  C   UNL     1      12.386  12.570  15.346  1.00  0.00     0.000 C 
BRANCH  12  13
ATOM     13  C   UNL     1      13.032  13.900  14.919  1.00  0.00     0.006 C 
BRANCH  13  14
ATOM     14  C   UNL     1      13.083  14.052  13.391  1.00  0.00     0.053 C 
BRANCH  14  15
ATOM     15  C   UNL     1      13.331  15.474  12.984  1.00  0.00     0.041 C 
ATOM     16  O   UNL     1      13.861  16.284  13.790  1.00  0.00    -0.550 OA
ATOM     17  O   UNL     1      13.007  15.898  11.701  1.00  0.00    -0.550 OA
ENDBRANCH  14  15
ENDBRANCH  13  14
ENDBRANCH  12  13
ENDBRANCH  11  12
ENDBRANCH  10  11
ENDBRANCH   9  10
ENDBRANCH   8   9
ENDBRANCH   7   8
ENDBRANCH   6   7
ENDBRANCH   5   6
ENDBRANCH   4   5
ENDBRANCH   3   4
ENDBRANCH   2   3
ENDBRANCH   1   2
BRANCH   1  18
ATOM     18  C   UNL     1      16.446   4.336  13.177  1.00  0.00     0.000 C 
BRANCH  18  19
ATOM     19  C   UNL     1      17.683   3.975  14.022  1.00  0.00     0.000 C 
BRANCH  19  20
ATOM     20  C   UNL     1      18.858   3.358  13.239  1.00  0.00     0.000 C 
BRANCH  20  21
ATOM     21  C   UNL     1      18.880   3.736  11.742  1.00  0.00     0.000 C 
BRANCH  21  22
ATOM     22  C   UNL     1      19.733   2.768  10.903  1.00  0.00     0.000 C 
BRANCH  22  23
ATOM     23  C   UNL     1      20.898   2.159  11.700  1.00  0.00     0.000 C 
BRANCH  23  24
ATOM     24  C   UNL     1      21.359   0.807  11.130  1.00  0.00    -0.000 C 
BRANCH  24  25
ATOM     25  C   UNL     1      22.661   0.309  11.793  1.00  0.00    -0.000 C 
BRANCH  25  26
ATOM     26  C   UNL     1      23.076  -1.109  11.360  1.00  0.00    -0.000 C 
BRANCH  26  27
ATOM     27  C   UNL     1      23.987  -1.847  12.356  1.00  0.00    -0.000 C 
BRANCH  27  28
ATOM     28  C   UNL     1      23.717  -1.446  13.818  1.00  0.00    -0.000 C 
BRANCH  28  29
ATOM     29  C   UNL     1      24.109  -2.552  14.815  1.00  0.00    -0.000 C 
BRANCH  29  30
ATOM     30  C   UNL     1      23.917  -2.178  16.299  1.00  0.00    -0.000 C 
BRANCH  30  31
ATOM     31  C   UNL     1      22.996  -3.124  17.094  1.00  0.00    -0.003 C 
ATOM     32  C   UNL     1      21.610  -2.531  17.354  1.00  0.00     0.004 C 
ENDBRANCH  30  31
ENDBRANCH  29  30
ENDBRANCH  28  29
ENDBRANCH  27  28
ENDBRANCH  26  27
ENDBRANCH  25  26
ENDBRANCH  24  25
ENDBRANCH  23  24
ENDBRANCH  22  23
ENDBRANCH  21  22
ENDBRANCH  20  21
ENDBRANCH  19  20
ENDBRANCH  18  19
ENDBRANCH   1  18
TORSDOF 28
ENDMDL
MODEL 8
REMARK VINA RESULT:     1.686      0.868      2.447
REMARK INTER + INTRA:           1.870
REMARK INTER:                   3.606
REMARK INTRA:                  -1.735
REMARK UNBOUND:                -2.575
REMARK SMILES CCCCCCCCCCCCCCCCCCCCCCCCCCCCCC(=O)[O-]
REMARK SMILES IDX 16 1 17 2 18 3 19 4 20 5 21 6 22 7 23 8 24 9 25 10 26 11
REMARK SMILES IDX 27 12 28 13 29 14 30 15 31 16 32 17 15 18 14 19 13 20 12 21
REMARK SMILES IDX 11 22 10 23 9 24 8 25 7 26 6 27 5 28 4 29 3 30 2 31 1 32
REMARK H PARENT
REMARK Flexibility Score: inf
ROOT
ATOM      1  C   UNL     1      14.647   5.211  14.406  1.00  0.00     0.000 C 
ENDROOT
BRANCH   1   2
ATOM      2  C   UNL     1      14.057   4.657  15.716  1.00  0.00     0.000 C 
BRANCH   2   3
ATOM      3  C   UNL     1      14.922   3.536  16.329  1.00  0.00     0.000 C 
BRANCH   3   4
ATOM      4  C   UNL     1      14.114   2.439  17.048  1.00  0.00     0.000 C 
BRANCH   4   5
ATOM      5  C   UNL     1      12.713   2.913  17.465  1.00  0.00     0.000 C 
BRANCH   5   6
ATOM      6  C   UNL     1      12.470   2.641  18.956  1.00  0.00     0.000 C 
BRANCH   6   7
ATOM      7  C   UNL     1      11.536   3.680  19.601  1.00  0.00     0.000 C 
BRANCH   7   8
ATOM      8  C   UNL     1      12.217   5.022  19.922  1.00  0.00     0.000 C 
BRANCH   8   9
ATOM      9  C   UNL     1      12.405   5.922  18.680  1.00  0.00     0.000 C 
BRANCH   9  10
ATOM     10  C   UNL     1      13.580   6.901  18.845  1.00  0.00     0.000 C 
BRANCH  10  11
ATOM     11  C   UNL     1      14.791   6.278  19.566  1.00  0.00     0.000 C 
BRANCH  11  12
ATOM     12  C   UNL     1      15.825   7.288  20.096  1.00  0.00     0.000 C 
BRANCH  12  13
ATOM     13  C   UNL     1      16.947   6.627  20.916  1.00  0.00     0.006 C 
BRANCH  13  14
ATOM     14  C   UNL     1      16.435   6.079  22.256  1.00  0.00     0.053 C 
BRANCH  14  15
ATOM     15  C   UNL     1      17.469   5.237  22.942  1.00  0.00     0.041 C 
ATOM     16  O   UNL     1      17.137   4.169  23.521  1.00  0.00    -0.550 OA
ATOM     17  O   UNL     1      18.806   5.616  22.914  1.00  0.00    -0.550 OA
ENDBRANCH  14  15
ENDBRANCH  13  14
ENDBRANCH  12  13
ENDBRANCH  11  12
ENDBRANCH  10  11
ENDBRANCH   9  10
ENDBRANCH   8   9
ENDBRANCH   7   8
ENDBRANCH   6   7
ENDBRANCH   5   6
ENDBRANCH   4   5
ENDBRANCH   3   4
ENDBRANCH   2   3
ENDBRANCH   1   2
BRANCH   1  18
ATOM     18  C   UNL     1      14.397   6.720  14.229  1.00  0.00     0.000 C 
BRANCH  18  19
ATOM     19  C   UNL     1      13.557   7.376  15.343  1.00  0.00     0.000 C 
BRANCH  19  20
ATOM     20  C   UNL     1      13.745   8.897  15.498  1.00  0.00     0.000 C 
BRANCH  20  21
ATOM     21  C   UNL     1      12.510   9.727  15.083  1.00  0.00     0.000 C 
BRANCH  21  22
ATOM     22  C   UNL     1      12.887  10.975  14.265  1.00  0.00     0.000 C 
BRANCH  22  23
ATOM     23  C   UNL     1      11.719  11.962  14.114  1.00  0.00     0.000 C 
BRANCH  23  24
ATOM     24  C   UNL     1      11.144  11.981  12.687  1.00  0.00    -0.000 C 
BRANCH  24  25
ATOM     25  C   UNL     1      12.074  12.709  11.694  1.00  0.00    -0.000 C 
BRANCH  25  26
ATOM     26  C   UNL     1      12.937  13.808  12.342  1.00  0.00    -0.000 C 
BRANCH  26  27
ATOM     27  C   UNL     1      12.645  15.234  11.845  1.00  0.00    -0.000 C 
BRANCH  27  28
ATOM     28  C   UNL     1      13.588  16.284  12.462  1.00  0.00    -0.000 C 
BRANCH  28  29
ATOM     29  C   UNL     1      13.802  16.069  13.972  1.00  0.00    -0.000 C 
BRANCH  29  30
ATOM     30  C   UNL     1      12.648  15.340  14.688  1.00  0.00    -0.000 C 
BRANCH  30  31
ATOM     31  C   UNL     1      13.027  14.677  16.026  1.00  0.00    -0.003 C 
ATOM     32  C   UNL     1      14.117  13.615  15.878  1.00  0.00     0.004 C 
ENDBRANCH  30  31
ENDBRANCH  29  30
ENDBRANCH  28  29
ENDBRANCH  27  28
ENDBRANCH  26  27
ENDBRANCH  25  26
ENDBRANCH  24  25
ENDBRANCH  23  24
ENDBRANCH  22  23
ENDBRANCH  21  22
ENDBRANCH  20  21
ENDBRANCH  19  20
ENDBRANCH  18  19
ENDBRANCH   1  18
TORSDOF 28
ENDMDL
MODEL 9
REMARK VINA RESULT:     1.807      6.396     12.132
REMARK INTER + INTRA:           2.190
REMARK INTER:                   3.539
REMARK INTRA:                  -1.349
REMARK UNBOUND:                -2.575
REMARK SMILES CCCCCCCCCCCCCCCCCCCCCCCCCCCCCC(=O)[O-]
REMARK SMILES IDX 16 1 17 2 18 3 19 4 20 5 21 6 22 7 23 8 24 9 25 10 26 11
REMARK SMILES IDX 27 12 28 13 29 14 30 15 31 16 32 17 15 18 14 19 13 20 12 21
REMARK SMILES IDX 11 22 10 23 9 24 8 25 7 26 6 27 5 28 4 29 3 30 2 31 1 32
REMARK H PARENT
REMARK Flexibility Score: inf
ROOT
ATOM      1  C   UNL     1      13.298   4.034  16.230  1.00  0.00     0.000 C 
ENDROOT
BRANCH   1   2
ATOM      2  C   UNL     1      12.873   4.933  17.406  1.00  0.00     0.000 C 
BRANCH   2   3
ATOM      3  C   UNL     1      13.490   6.344  17.328  1.00  0.00     0.000 C 
BRANCH   3   4
ATOM      4  C   UNL     1      12.568   7.401  16.690  1.00  0.00     0.000 C 
BRANCH   4   5
ATOM      5  C   UNL     1      12.930   7.693  15.225  1.00  0.00     0.000 C 
BRANCH   5   6
ATOM      6  C   UNL     1      14.062   8.727  15.142  1.00  0.00     0.000 C 
BRANCH   6   7
ATOM      7  C   UNL     1      13.591  10.147  15.506  1.00  0.00     0.000 C 
BRANCH   7   8
ATOM      8  C   UNL     1      12.302  10.584  14.789  1.00  0.00     0.000 C 
BRANCH   8   9
ATOM      9  C   UNL     1      11.951  12.070  15.021  1.00  0.00     0.000 C 
BRANCH   9  10
ATOM     10  C   UNL     1      13.192  12.913  15.362  1.00  0.00     0.000 C 
BRANCH  10  11
ATOM     11  C   UNL     1      12.869  14.402  15.594  1.00  0.00     0.000 C 
BRANCH  11  12
ATOM     12  C   UNL     1      12.905  15.282  14.332  1.00  0.00     0.000 C 
BRANCH  12  13
ATOM     13  C   UNL     1      13.471  14.549  13.103  1.00  0.00     0.006 C 
BRANCH  13  14
ATOM     14  C   UNL     1      12.438  14.438  11.972  1.00  0.00     0.053 C 
BRANCH  14  15
ATOM     15  C   UNL     1      12.112  13.008  11.656  1.00  0.00     0.041 C 
ATOM     16  O   UNL     1      10.993  12.527  11.974  1.00  0.00    -0.550 OA
ATOM     17  O   UNL     1      13.034  12.217  10.981  1.00  0.00    -0.550 OA
ENDBRANCH  14  15
ENDBRANCH  13  14
ENDBRANCH  12  13
ENDBRANCH  11  12
ENDBRANCH  10  11
ENDBRANCH   9  10
ENDBRANCH   8   9
ENDBRANCH   7   8
ENDBRANCH   6   7
ENDBRANCH   5   6
ENDBRANCH   4   5
ENDBRANCH   3   4
ENDBRANCH   2   3
ENDBRANCH   1   2
BRANCH   1  18
ATOM     18  C   UNL     1      14.820   3.806  16.171  1.00  0.00     0.000 C 
BRANCH  18  19
ATOM     19  C   UNL     1      15.508   4.335  14.898  1.00  0.00     0.000 C 
BRANCH  19  20
ATOM     20  C   UNL     1      17.014   4.024  14.787  1.00  0.00     0.000 C 
BRANCH  20  21
ATOM     21  C   UNL     1      17.654   4.486  13.460  1.00  0.00     0.000 C 
BRANCH  21  22
ATOM     22  C   UNL     1      17.833   3.330  12.460  1.00  0.00     0.000 C 
BRANCH  22  23
ATOM     23  C   UNL     1      18.933   3.608  11.422  1.00  0.00     0.000 C 
BRANCH  23  24
ATOM     24  C   UNL     1      19.586   2.319  10.896  1.00  0.00    -0.000 C 
BRANCH  24  25
ATOM     25  C   UNL     1      21.027   2.140  11.419  1.00  0.00    -0.000 C 
BRANCH  25  26
ATOM     26  C   UNL     1      21.494   0.674  11.467  1.00  0.00    -0.000 C 
BRANCH  26  27
ATOM     27  C   UNL     1      22.969   0.479  11.859  1.00  0.00    -0.000 C 
BRANCH  27  28
ATOM     28  C   UNL     1      23.403  -0.998  11.827  1.00  0.00    -0.000 C 
BRANCH  28  29
ATOM     29  C   UNL     1      24.029  -1.458  13.157  1.00  0.00    -0.000 C 
BRANCH  29  30
ATOM     30  C   UNL     1      24.123  -0.360  14.236  1.00  0.00    -0.000 C 
BRANCH  30  31
ATOM     31  C   UNL     1      22.775   0.066  14.850  1.00  0.00    -0.003 C 
ATOM     32  C   UNL     1      22.725   1.551  15.210  1.00  0.00     0.004 C 
ENDBRANCH  30  31
ENDBRANCH  29  30
ENDBRANCH  28  29
ENDBRANCH  27  28
ENDBRANCH  26  27
ENDBRANCH  25  26
ENDBRANCH  24  25
ENDBRANCH  23  24
ENDBRANCH  22  23
ENDBRANCH  21  22
ENDBRANCH  20  21
ENDBRANCH  19  20
ENDBRANCH  18  19
ENDBRANCH   1  18
TORSDOF 28
ENDMDL
