MODEL 1
REMARK VINA RESULT:    -3.560      0.000      0.000
REMARK INTER + INTRA:          -4.747
REMARK INTER:                  -4.601
REMARK INTRA:                  -0.146
REMARK UNBOUND:                -0.146
REMARK SMILES CCCCCCC(=O)[O-]
REMARK SMILES IDX 5 1 6 2 7 3 8 4 9 5 4 6 3 7 2 8 1 9
REMARK H PARENT
REMARK Flexibility Score: inf
ROOT
ATOM      1  C   UNL     1      -4.653  -1.384  -6.575  1.00  0.00     0.006 C 
ENDROOT
BRANCH   1   2
ATOM      2  C   UNL     1      -4.207  -0.310  -5.570  1.00  0.00     0.053 C 
BRANCH   2   3
ATOM      3  C   UNL     1      -4.955   0.974  -5.752  1.00  0.00     0.041 C 
ATOM      4  O   UNL     1      -6.021   0.998  -6.420  1.00  0.00    -0.550 OA
ATOM      5  O   UNL     1      -4.489   2.140  -5.157  1.00  0.00    -0.550 OA
ENDBRANCH   2   3
ENDBRANCH   1   2
BRANCH   1   6
ATOM      6  C   UNL     1      -4.238  -2.819  -6.199  1.00  0.00     0.000 C 
BRANCH   6   7
ATOM      7  C   UNL     1      -5.144  -3.436  -5.120  1.00  0.00    -0.000 C 
BRANCH   7   8
ATOM      8  C   UNL     1      -4.344  -4.012  -3.940  1.00  0.00    -0.003 C 
ATOM      9  C   UNL     1      -5.219  -4.323  -2.726  1.00  0.00     0.004 C 
ENDBRANCH   7   8
ENDBRANCH   6   7
ENDBRANCH   1   6
TORSDOF 5
ENDMDL
MODEL 2
REMARK VINA RESULT:    -3.461     13.574     14.449
REMARK INTER + INTRA:          -4.619
REMARK INTER:                  -4.339
REMARK INTRA:                  -0.280
REMARK UNBOUND:                -0.146
REMARK SMILES CCCCCCC(=O)[O-]
REMARK SMILES IDX 5 1 6 2 7 3 8 4 9 5 4 6 3 7 2 8 1 9
REMARK H PARENT
REMARK Flexibility Score: inf
ROOT
ATOM      1  C   UNL     1     -16.796  -5.294  -2.667  1.00  0.00     0.006 C 
ENDROOT
BRANCH   1   2
ATOM      2  C   UNL     1     -17.805  -6.454  -2.696  1.00  0.00     0.053 C 
BRANCH   2   3
ATOM      3  C   UNL     1     -17.796  -7.174  -4.009  1.00  0.00     0.041 C 
ATOM      4  O   UNL     1     -18.394  -6.687  -5.003  1.00  0.00    -0.550 OA
ATOM      5  O   UNL     1     -17.098  -8.369  -4.142  1.00  0.00    -0.550 OA
ENDBRANCH   2   3
ENDBRANCH   1   2
BRANCH   1   6
ATOM      6  C   UNL     1     -17.405  -3.931  -2.292  1.00  0.00     0.000 C 
BRANCH   6   7
ATOM      7  C   UNL     1     -18.398  -4.026  -1.121  1.00  0.00    -0.000 C 
BRANCH   7   8
ATOM      8  C   UNL     1     -17.698  -3.981   0.247  1.00  0.00    -0.003 C 
ATOM      9  C   UNL     1     -17.808  -5.299   1.013  1.00  0.00     0.004 C 
ENDBRANCH   7   8
ENDBRANCH   6   7
ENDBRANCH   1   6
TORSDOF 5
ENDMDL
MODEL 3
REMARK VINA RESULT:    -3.458      3.028      4.567
REMARK INTER + INTRA:          -4.615
REMARK INTER:                  -4.266
REMARK INTRA:                  -0.349
REMARK UNBOUND:                -0.146
REMARK SMILES CCCCCCC(=O)[O-]
REMARK SMILES IDX 5 1 6 2 7 3 8 4 9 5 4 6 3 7 2 8 1 9
REMARK H PARENT
REMARK Flexibility Score: inf
ROOT
ATOM      1  C   UNL     1      -4.332  -3.524  -5.767  1.00  0.00     0.006 C 
ENDROOT
BRANCH   1   2
ATOM      2  C   UNL     1      -5.445  -3.431  -4.711  1.00  0.00     0.053 C 
BRANCH   2   3
ATOM      3  C   UNL     1      -4.921  -3.643  -3.324  1.00  0.00     0.041 C 
ATOM      4  O   UNL     1      -4.033  -2.883  -2.858  1.00  0.00    -0.550 OA
ATOM      5  O   UNL     1      -5.437  -4.663  -2.534  1.00  0.00    -0.550 OA
ENDBRANCH   2   3
ENDBRANCH   1   2
BRANCH   1   6
ATOM      6  C   UNL     1      -3.993  -2.188  -6.453  1.00  0.00     0.000 C 
BRANCH   6   7
ATOM      7  C   UNL     1      -5.178  -1.206  -6.460  1.00  0.00    -0.000 C 
BRANCH   7   8
ATOM      8  C   UNL     1      -4.763   0.219  -6.061  1.00  0.00    -0.003 C 
ATOM      9  C   UNL     1      -3.802   0.246  -4.873  1.00  0.00     0.004 C 
ENDBRANCH   7   8
ENDBRANCH   6   7
ENDBRANCH   1   6
TORSDOF 5
ENDMDL
MODEL 4
REMARK VINA RESULT:    -3.443     15.183     15.588
REMARK INTER + INTRA:          -4.595
REMARK INTER:                  -4.350
REMARK INTRA:                  -0.245
REMARK UNBOUND:                -0.146
REMARK SMILES CCCCCCC(=O)[O-]
REMARK SMILES IDX 5 1 6 2 7 3 8 4 9 5 4 6 3 7 2 8 1 9
REMARK H PARENT
REMARK Flexibility Score: inf
ROOT
ATOM      1  C   UNL     1     -12.323   5.673 -16.788  1.00  0.00     0.006 C 
ENDROOT
BRANCH   1   2
ATOM      2  C   UNL     1     -12.301   6.390 -15.429  1.00  0.00     0.053 C 
BRANCH   2   3
ATOM      3  C   UNL     1     -13.508   7.255 -15.230  1.00  0.00     0.041 C 
ATOM      4  O   UNL     1     -13.385   8.504 -15.144  1.00  0.00    -0.550 OA
ATOM      5  O   UNL     1     -14.772   6.681 -15.173  1.00  0.00    -0.550 OA
ENDBRANCH   2   3
ENDBRANCH   1   2
BRANCH   1   6
ATOM      6  C   UNL     1     -12.694   4.180 -16.713  1.00  0.00     0.000 C 
BRANCH   6   7
ATOM      7  C   UNL     1     -14.050   3.871 -17.370  1.00  0.00    -0.000 C 
BRANCH   7   8
ATOM      8  C   UNL     1     -15.067   3.290 -16.375  1.00  0.00    -0.003 C 
ATOM      9  C   UNL     1     -14.946   1.774 -16.220  1.00  0.00     0.004 C 
ENDBRANCH   7   8
ENDBRANCH   6   7
ENDBRANCH   1   6
TORSDOF 5
ENDMDL
MODEL 5
REMARK VINA RESULT:    -3.409     10.438     12.052
REMARK INTER + INTRA:          -4.551
REMARK INTER:                  -4.346
REMARK INTRA:                  -0.205
REMARK UNBOUND:                -0.146
REMARK SMILES CCCCCCC(=O)[O-]
REMARK SMILES IDX 5 1 6 2 7 3 8 4 9 5 4 6 3 7 2 8 1 9
REMARK H PARENT
REMARK Flexibility Score: inf
ROOT
ATOM      1  C   UNL     1      -3.387   5.441 -15.646  1.00  0.00     0.006 C 
ENDROOT
BRANCH   1   2
ATOM      2  C   UNL     1      -4.787   4.920 -16.008  1.00  0.00     0.053 C 
BRANCH   2   3
ATOM      3  C   UNL     1      -5.159   5.244 -17.422  1.00  0.00     0.041 C 
ATOM      4  O   UNL     1      -4.580   6.180 -18.031  1.00  0.00    -0.550 OA
ATOM      5  O   UNL     1      -6.123   4.488 -18.078  1.00  0.00    -0.550 OA
ENDBRANCH   2   3
ENDBRANCH   1   2
BRANCH   1   6
ATOM      6  C   UNL     1      -2.902   5.040 -14.241  1.00  0.00     0.000 C 
BRANCH   6   7
ATOM      7  C   UNL     1      -4.059   4.670 -13.297  1.00  0.00    -0.000 C 
BRANCH   7   8
ATOM      8  C   UNL     1      -3.818   3.339 -12.565  1.00  0.00    -0.003 C 
ATOM      9  C   UNL     1      -2.335   2.992 -12.439  1.00  0.00     0.004 C 
ENDBRANCH   7   8
ENDBRANCH   6   7
ENDBRANCH   1   6
TORSDOF 5
ENDMDL
MODEL 6
REMARK VINA RESULT:    -3.400      8.144     10.108
REMARK INTER + INTRA:          -4.540
REMARK INTER:                  -4.127
REMARK INTRA:                  -0.413
REMARK UNBOUND:                -0.146
REMARK SMILES CCCCCCC(=O)[O-]
REMARK SMILES IDX 5 1 6 2 7 3 8 4 9 5 4 6 3 7 2 8 1 9
REMARK H PARENT
REMARK Flexibility Score: inf
ROOT
ATOM      1  C   UNL     1      -3.871   3.383 -12.651  1.00  0.00     0.006 C 
ENDROOT
BRANCH   1   2
ATOM      2  C   UNL     1      -2.390   3.003 -12.492  1.00  0.00     0.053 C 
BRANCH   2   3
ATOM      3  C   UNL     1      -1.941   3.079 -11.066  1.00  0.00     0.041 C 
ATOM      4  O   UNL     1      -2.547   3.821 -10.249  1.00  0.00    -0.550 OA
ATOM      5  O   UNL     1      -0.872   2.305 -10.631  1.00  0.00    -0.550 OA
ENDBRANCH   2   3
ENDBRANCH   1   2
BRANCH   1   6
ATOM      6  C   UNL     1      -4.137   4.487 -13.692  1.00  0.00     0.000 C 
BRANCH   6   7
ATOM      7  C   UNL     1      -3.090   5.613 -13.644  1.00  0.00    -0.000 C 
BRANCH   7   8
ATOM      8  C   UNL     1      -3.390   6.648 -12.548  1.00  0.00    -0.003 C 
ATOM      9  C   UNL     1      -2.145   7.060 -11.763  1.00  0.00     0.004 C 
ENDBRANCH   7   8
ENDBRANCH   6   7
ENDBRANCH   1   6
TORSDOF 5
ENDMDL
MODEL 7
REMARK VINA RESULT:    -3.385      9.511     11.537
REMARK INTER + INTRA:          -4.521
REMARK INTER:                  -4.259
REMARK INTRA:                  -0.262
REMARK UNBOUND:                -0.146
REMARK SMILES CCCCCCC(=O)[O-]
REMARK SMILES IDX 5 1 6 2 7 3 8 4 9 5 4 6 3 7 2 8 1 9
REMARK H PARENT
REMARK Flexibility Score: inf
ROOT
ATOM      1  C   UNL     1      -4.093   5.081 -13.928  1.00  0.00     0.006 C 
ENDROOT
BRANCH   1   2
ATOM      2  C   UNL     1      -4.060   3.721 -13.211  1.00  0.00     0.053 C 
BRANCH   2   3
ATOM      3  C   UNL     1      -3.071   3.703 -12.088  1.00  0.00     0.041 C 
ATOM      4  O   UNL     1      -3.145   4.553 -11.163  1.00  0.00    -0.550 OA
ATOM      5  O   UNL     1      -2.084   2.725 -12.046  1.00  0.00    -0.550 OA
ENDBRANCH   2   3
ENDBRANCH   1   2
BRANCH   1   6
ATOM      6  C   UNL     1      -3.010   5.257 -15.009  1.00  0.00     0.000 C 
BRANCH   6   7
ATOM      7  C   UNL     1      -3.600   5.552 -16.398  1.00  0.00    -0.000 C 
BRANCH   7   8
ATOM      8  C   UNL     1      -5.068   5.111 -16.520  1.00  0.00    -0.003 C 
ATOM      9  C   UNL     1      -5.244   3.870 -17.395  1.00  0.00     0.004 C 
ENDBRANCH   7   8
ENDBRANCH   6   7
ENDBRANCH   1   6
TORSDOF 5
ENDMDL
MODEL 8
REMARK VINA RESULT:    -3.349      1.708      2.781
REMARK INTER + INTRA:          -4.474
REMARK INTER:                  -4.366
REMARK INTRA:                  -0.108
REMARK UNBOUND:                -0.146
REMARK SMILES CCCCCCC(=O)[O-]
REMARK SMILES IDX 5 1 6 2 7 3 8 4 9 5 4 6 3 7 2 8 1 9
REMARK H PARENT
REMARK Flexibility Score: inf
ROOT
ATOM      1  C   UNL     1      -5.260  -3.380  -4.848  1.00  0.00     0.006 C 
ENDROOT
BRANCH   1   2
ATOM      2  C   UNL     1      -4.373  -3.024  -6.052  1.00  0.00     0.053 C 
BRANCH   2   3
ATOM      3  C   UNL     1      -4.409  -1.559  -6.362  1.00  0.00     0.041 C 
ATOM      4  O   UNL     1      -5.511  -0.964  -6.481  1.00  0.00    -0.550 OA
ATOM      5  O   UNL     1      -3.224  -0.846  -6.488  1.00  0.00    -0.550 OA
ENDBRANCH   2   3
ENDBRANCH   1   2
BRANCH   1   6
ATOM      6  C   UNL     1      -4.523  -4.113  -3.711  1.00  0.00     0.000 C 
BRANCH   6   7
ATOM      7  C   UNL     1      -5.464  -4.535  -2.569  1.00  0.00    -0.000 C 
BRANCH   7   8
ATOM      8  C   UNL     1      -5.484  -3.516  -1.418  1.00  0.00    -0.003 C 
ATOM      9  C   UNL     1      -6.817  -3.492  -0.670  1.00  0.00     0.004 C 
ENDBRANCH   7   8
ENDBRANCH   6   7
ENDBRANCH   1   6
TORSDOF 5
ENDMDL
MODEL 9
REMARK VINA RESULT:    -3.328      4.024      5.853
REMARK INTER + INTRA:          -4.448
REMARK INTER:                  -4.171
REMARK INTRA:                  -0.276
REMARK UNBOUND:                -0.146
REMARK SMILES CCCCCCC(=O)[O-]
REMARK SMILES IDX 5 1 6 2 7 3 8 4 9 5 4 6 3 7 2 8 1 9
REMARK H PARENT
REMARK Flexibility Score: inf
ROOT
ATOM      1  C   UNL     1      -5.318  -3.059  -0.476  1.00  0.00     0.006 C 
ENDROOT
BRANCH   1   2
ATOM      2  C   UNL     1      -5.558  -3.980  -1.683  1.00  0.00     0.053 C 
BRANCH   2   3
ATOM      3  C   UNL     1      -4.777  -3.546  -2.885  1.00  0.00     0.041 C 
ATOM      4  O   UNL     1      -3.692  -2.924  -2.745  1.00  0.00    -0.550 OA
ATOM      5  O   UNL     1      -5.232  -3.858  -4.160  1.00  0.00    -0.550 OA
ENDBRANCH   2   3
ENDBRANCH   1   2
BRANCH   1   6
ATOM      6  C   UNL     1      -6.595  -2.676   0.296  1.00  0.00     0.000 C 
BRANCH   6   7
ATOM      7  C   UNL     1      -7.868  -3.269  -0.332  1.00  0.00    -0.000 C 
BRANCH   7   8
ATOM      8  C   UNL     1      -8.579  -4.258   0.605  1.00  0.00    -0.003 C 
ATOM      9  C   UNL     1      -8.215  -5.715   0.318  1.00  0.00     0.004 C 
ENDBRANCH   7   8
ENDBRANCH   6   7
ENDBRANCH   1   6
TORSDOF 5
ENDMDL
