MODEL 1
REMARK VINA RESULT:    -4.036      0.000      0.000
REMARK INTER + INTRA:          -4.414
REMARK INTER:                  -4.272
REMARK INTRA:                  -0.142
REMARK UNBOUND:                -0.142
REMARK SMILES CC1=CCC(C(C)C)=CC1
REMARK SMILES IDX 1 1 2 2 3 3 4 4 5 5 9 6 10 7 6 8 7 9 8 10
REMARK H PARENT
REMARK Flexibility Score: inf
ROOT
ATOM      1  C   UNL     1     137.851 132.221 131.270  1.00  0.00     0.039 C 
ATOM      2  C   UNL     1     136.820 133.309 131.158  1.00  0.00    -0.073 C 
ATOM      3  C   UNL     1     136.823 134.130 130.090  1.00  0.00    -0.023 C 
ATOM      4  C   UNL     1     135.822 135.252 129.982  1.00  0.00     0.058 C 
ATOM      5  C   UNL     1     134.497 134.875 130.627  1.00  0.00    -0.068 C 
ATOM      6  C   UNL     1     134.503 134.050 131.696  1.00  0.00    -0.023 C 
ATOM      7  C   UNL     1     135.798 133.514 132.256  1.00  0.00     0.057 C 
ENDROOT
BRANCH   5   8
ATOM      8  C   UNL     1     133.181 135.393 130.068  1.00  0.00     0.009 C 
ATOM      9  C   UNL     1     132.283 135.946 131.181  1.00  0.00     0.012 C 
ATOM     10  C   UNL     1     133.429 136.447 128.984  1.00  0.00     0.012 C 
ENDBRANCH   5   8
TORSDOF 1
ENDMDL
MODEL 2
REMARK VINA RESULT:    -4.020      2.891      4.056
REMARK INTER + INTRA:          -4.397
REMARK INTER:                  -4.219
REMARK INTRA:                  -0.178
REMARK UNBOUND:                -0.142
REMARK SMILES CC1=CCC(C(C)C)=CC1
REMARK SMILES IDX 1 1 2 2 3 3 4 4 5 5 9 6 10 7 6 8 7 9 8 10
REMARK H PARENT
REMARK Flexibility Score: inf
ROOT
ATOM      1  C   UNL     1     134.180 134.376 128.225  1.00  0.00     0.039 C 
ATOM      2  C   UNL     1     133.667 135.345 129.253  1.00  0.00    -0.073 C 
ATOM      3  C   UNL     1     132.868 134.910 130.245  1.00  0.00    -0.023 C 
ATOM      4  C   UNL     1     132.311 135.876 131.261  1.00  0.00     0.058 C 
ATOM      5  C   UNL     1     133.283 137.013 131.534  1.00  0.00    -0.068 C 
ATOM      6  C   UNL     1     134.084 137.441 130.533  1.00  0.00    -0.023 C 
ATOM      7  C   UNL     1     134.014 136.816 129.161  1.00  0.00     0.057 C 
ENDROOT
BRANCH   5   8
ATOM      8  C   UNL     1     133.379 137.645 132.913  1.00  0.00     0.009 C 
ATOM      9  C   UNL     1     133.627 136.587 133.994  1.00  0.00     0.012 C 
ATOM     10  C   UNL     1     134.465 138.726 132.940  1.00  0.00     0.012 C 
ENDBRANCH   5   8
TORSDOF 1
ENDMDL
MODEL 3
REMARK VINA RESULT:    -3.996      5.612      7.018
REMARK INTER + INTRA:          -4.372
REMARK INTER:                  -4.194
REMARK INTRA:                  -0.178
REMARK UNBOUND:                -0.142
REMARK SMILES CC1=CCC(C(C)C)=CC1
REMARK SMILES IDX 1 1 2 2 3 3 4 4 5 5 9 6 10 7 6 8 7 9 8 10
REMARK H PARENT
REMARK Flexibility Score: inf
ROOT
ATOM      1  C   UNL     1     134.358 139.461 128.272  1.00  0.00     0.039 C 
ATOM      2  C   UNL     1     135.340 140.010 129.269  1.00  0.00    -0.073 C 
ATOM      3  C   UNL     1     134.906 140.777 130.287  1.00  0.00    -0.023 C 
ATOM      4  C   UNL     1     135.882 141.369 131.272  1.00  0.00     0.058 C 
ATOM      5  C   UNL     1     137.074 140.449 131.490  1.00  0.00    -0.068 C 
ATOM      6  C   UNL     1     137.501 139.681 130.464  1.00  0.00    -0.023 C 
ATOM      7  C   UNL     1     136.821 139.735 129.118  1.00  0.00     0.057 C 
ENDROOT
BRANCH   5   8
ATOM      8  C   UNL     1     137.762 140.370 132.843  1.00  0.00     0.009 C 
ATOM      9  C   UNL     1     136.747 140.158 133.972  1.00  0.00     0.012 C 
ATOM     10  C   UNL     1     138.828 139.269 132.845  1.00  0.00     0.012 C 
ENDBRANCH   5   8
TORSDOF 1
ENDMDL
MODEL 4
REMARK VINA RESULT:    -3.968      2.342      3.978
REMARK INTER + INTRA:          -4.342
REMARK INTER:                  -4.202
REMARK INTRA:                  -0.140
REMARK UNBOUND:                -0.142
REMARK SMILES CC1=CCC(C(C)C)=CC1
REMARK SMILES IDX 1 1 2 2 3 3 4 4 5 5 9 6 10 7 6 8 7 9 8 10
REMARK H PARENT
REMARK Flexibility Score: inf
ROOT
ATOM      1  C   UNL     1     133.742 134.570 128.624  1.00  0.00     0.039 C 
ATOM      2  C   UNL     1     133.683 134.800 130.108  1.00  0.00    -0.073 C 
ATOM      3  C   UNL     1     134.680 134.358 130.897  1.00  0.00    -0.023 C 
ATOM      4  C   UNL     1     134.617 134.545 132.392  1.00  0.00     0.058 C 
ATOM      5  C   UNL     1     133.894 135.831 132.759  1.00  0.00    -0.068 C 
ATOM      6  C   UNL     1     132.896 136.269 131.961  1.00  0.00    -0.023 C 
ATOM      7  C   UNL     1     132.490 135.496 130.730  1.00  0.00     0.057 C 
ENDROOT
BRANCH   5   8
ATOM      8  C   UNL     1     134.299 136.632 133.985  1.00  0.00     0.009 C 
ATOM      9  C   UNL     1     133.965 138.119 133.814  1.00  0.00     0.012 C 
ATOM     10  C   UNL     1     133.643 136.062 135.247  1.00  0.00     0.012 C 
ENDBRANCH   5   8
TORSDOF 1
ENDMDL
MODEL 5
REMARK VINA RESULT:    -3.959      5.355      7.246
REMARK INTER + INTRA:          -4.332
REMARK INTER:                  -4.190
REMARK INTRA:                  -0.142
REMARK UNBOUND:                -0.142
REMARK SMILES CC1=CCC(C(C)C)=CC1
REMARK SMILES IDX 1 1 2 2 3 3 4 4 5 5 9 6 10 7 6 8 7 9 8 10
REMARK H PARENT
REMARK Flexibility Score: inf
ROOT
ATOM      1  C   UNL     1     135.873 141.499 131.262  1.00  0.00     0.039 C 
ATOM      2  C   UNL     1     136.905 140.412 131.151  1.00  0.00    -0.073 C 
ATOM      3  C   UNL     1     136.918 139.606 130.072  1.00  0.00    -0.023 C 
ATOM      4  C   UNL     1     137.921 138.484 129.965  1.00  0.00     0.058 C 
ATOM      5  C   UNL     1     139.236 138.853 130.633  1.00  0.00    -0.068 C 
ATOM      6  C   UNL     1     139.214 139.665 131.713  1.00  0.00    -0.023 C 
ATOM      7  C   UNL     1     137.911 140.193 132.261  1.00  0.00     0.057 C 
ENDROOT
BRANCH   5   8
ATOM      8  C   UNL     1     140.560 138.343 130.087  1.00  0.00     0.009 C 
ATOM      9  C   UNL     1     141.442 137.775 131.206  1.00  0.00     0.012 C 
ATOM     10  C   UNL     1     140.328 137.303 128.986  1.00  0.00     0.012 C 
ENDBRANCH   5   8
TORSDOF 1
ENDMDL
MODEL 6
REMARK VINA RESULT:    -3.925      2.216      3.975
REMARK INTER + INTRA:          -4.297
REMARK INTER:                  -4.120
REMARK INTRA:                  -0.177
REMARK UNBOUND:                -0.142
REMARK SMILES CC1=CCC(C(C)C)=CC1
REMARK SMILES IDX 1 1 2 2 3 3 4 4 5 5 9 6 10 7 6 8 7 9 8 10
REMARK H PARENT
REMARK Flexibility Score: inf
ROOT
ATOM      1  C   UNL     1     139.622 134.670 127.949  1.00  0.00     0.039 C 
ATOM      2  C   UNL     1     138.708 133.972 128.916  1.00  0.00    -0.073 C 
ATOM      3  C   UNL     1     139.224 133.219 129.905  1.00  0.00    -0.023 C 
ATOM      4  C   UNL     1     138.321 132.480 130.860  1.00  0.00     0.058 C 
ATOM      5  C   UNL     1     137.031 133.247 131.106  1.00  0.00    -0.068 C 
ATOM      6  C   UNL     1     136.520 134.003 130.110  1.00  0.00    -0.023 C 
ATOM      7  C   UNL     1     137.205 134.082 128.767  1.00  0.00     0.057 C 
ENDROOT
BRANCH   5   8
ATOM      8  C   UNL     1     136.336 133.192 132.457  1.00  0.00     0.009 C 
ATOM      9  C   UNL     1     137.281 133.617 133.587  1.00  0.00     0.012 C 
ATOM     10  C   UNL     1     135.066 134.050 132.449  1.00  0.00     0.012 C 
ENDBRANCH   5   8
TORSDOF 1
ENDMDL
MODEL 7
REMARK VINA RESULT:    -3.925      4.399      5.500
REMARK INTER + INTRA:          -4.297
REMARK INTER:                  -4.118
REMARK INTRA:                  -0.179
REMARK UNBOUND:                -0.142
REMARK SMILES CC1=CCC(C(C)C)=CC1
REMARK SMILES IDX 1 1 2 2 3 3 4 4 5 5 9 6 10 7 6 8 7 9 8 10
REMARK H PARENT
REMARK Flexibility Score: inf
ROOT
ATOM      1  C   UNL     1     137.869 140.702 132.380  1.00  0.00     0.039 C 
ATOM      2  C   UNL     1     136.473 140.154 132.489  1.00  0.00    -0.073 C 
ATOM      3  C   UNL     1     135.773 139.873 131.374  1.00  0.00    -0.023 C 
ATOM      4  C   UNL     1     134.357 139.362 131.465  1.00  0.00     0.058 C 
ATOM      5  C   UNL     1     134.159 138.501 132.703  1.00  0.00    -0.068 C 
ATOM      6  C   UNL     1     134.868 138.787 133.817  1.00  0.00    -0.023 C 
ATOM      7  C   UNL     1     135.834 139.946 133.846  1.00  0.00     0.057 C 
ENDROOT
BRANCH   5   8
ATOM      8  C   UNL     1     133.202 137.320 132.689  1.00  0.00     0.009 C 
ATOM      9  C   UNL     1     133.180 136.638 131.316  1.00  0.00     0.012 C 
ATOM     10  C   UNL     1     133.556 136.321 133.795  1.00  0.00     0.012 C 
ENDBRANCH   5   8
TORSDOF 1
ENDMDL
MODEL 8
REMARK VINA RESULT:    -3.912      5.743      6.150
REMARK INTER + INTRA:          -4.283
REMARK INTER:                  -4.104
REMARK INTRA:                  -0.179
REMARK UNBOUND:                -0.142
REMARK SMILES CC1=CCC(C(C)C)=CC1
REMARK SMILES IDX 1 1 2 2 3 3 4 4 5 5 9 6 10 7 6 8 7 9 8 10
REMARK H PARENT
REMARK Flexibility Score: inf
ROOT
ATOM      1  C   UNL     1     140.723 135.955 132.375  1.00  0.00     0.039 C 
ATOM      2  C   UNL     1     140.144 137.332 132.545  1.00  0.00    -0.073 C 
ATOM      3  C   UNL     1     139.785 138.048 131.463  1.00  0.00    -0.023 C 
ATOM      4  C   UNL     1     139.241 139.446 131.613  1.00  0.00     0.058 C 
ATOM      5  C   UNL     1     138.442 139.592 132.900  1.00  0.00    -0.068 C 
ATOM      6  C   UNL     1     138.807 138.868 133.980  1.00  0.00    -0.023 C 
ATOM      7  C   UNL     1     139.992 137.935 133.925  1.00  0.00     0.057 C 
ENDROOT
BRANCH   5   8
ATOM      8  C   UNL     1     137.237 140.516 132.970  1.00  0.00     0.009 C 
ATOM      9  C   UNL     1     136.599 140.704 131.588  1.00  0.00     0.012 C 
ATOM     10  C   UNL     1     136.212 139.994 133.983  1.00  0.00     0.012 C 
ENDBRANCH   5   8
TORSDOF 1
ENDMDL
MODEL 9
REMARK VINA RESULT:    -3.910      5.366      7.010
REMARK INTER + INTRA:          -4.281
REMARK INTER:                  -4.136
REMARK INTRA:                  -0.145
REMARK UNBOUND:                -0.142
REMARK SMILES CC1=CCC(C(C)C)=CC1
REMARK SMILES IDX 1 1 2 2 3 3 4 4 5 5 9 6 10 7 6 8 7 9 8 10
REMARK H PARENT
REMARK Flexibility Score: inf
ROOT
ATOM      1  C   UNL     1     140.355 139.254 129.370  1.00  0.00     0.039 C 
ATOM      2  C   UNL     1     140.303 138.690 130.762  1.00  0.00    -0.073 C 
ATOM      3  C   UNL     1     139.310 139.051 131.597  1.00  0.00    -0.023 C 
ATOM      4  C   UNL     1     139.266 138.526 133.010  1.00  0.00     0.058 C 
ATOM      5  C   UNL     1     139.832 137.117 133.094  1.00  0.00    -0.068 C 
ATOM      6  C   UNL     1     140.826 136.762 132.251  1.00  0.00    -0.023 C 
ATOM      7  C   UNL     1     141.380 137.743 131.246  1.00  0.00     0.057 C 
ENDROOT
BRANCH   5   8
ATOM      8  C   UNL     1     139.277 136.111 134.088  1.00  0.00     0.009 C 
ATOM      9  C   UNL     1     138.840 134.819 133.387  1.00  0.00     0.012 C 
ATOM     10  C   UNL     1     140.298 135.820 135.193  1.00  0.00     0.012 C 
ENDBRANCH   5   8
TORSDOF 1
ENDMDL
