MODEL 1
REMARK VINA RESULT:    -4.734      0.000      0.000
REMARK INTER + INTRA:          -5.577
REMARK INTER:                  -5.425
REMARK INTRA:                  -0.152
REMARK UNBOUND:                -0.152
REMARK SMILES CC=Cc1ccc(O)c(OC)c1
REMARK SMILES IDX 4 1 12 2 9 3 7 4 6 5 5 6 3 7 1 8 2 9 10 10 11 11 8 12
REMARK H PARENT 8 13
REMARK Flexibility Score: inf
ROOT
ATOM      1  C   UNL     1     119.788 117.800 118.455  1.00  0.00    -0.022 A 
ATOM      2  C   UNL     1     118.610 117.284 119.023  1.00  0.00     0.058 A 
ATOM      3  C   UNL     1     118.577 116.872 120.370  1.00  0.00     0.161 A 
ATOM      4  C   UNL     1     119.739 116.971 121.146  1.00  0.00     0.157 A 
ATOM      5  C   UNL     1     120.919 117.471 120.584  1.00  0.00     0.051 A 
ATOM      6  C   UNL     1     120.948 117.879 119.249  1.00  0.00     0.012 A 
ENDROOT
BRANCH   1   7
ATOM      7  C   UNL     1     119.767 118.210 117.030  1.00  0.00     0.003 C 
ATOM      8  C   UNL     1     118.718 118.947 114.925  1.00  0.00     0.035 C 
ATOM      9  C   UNL     1     118.658 118.559 116.368  1.00  0.00    -0.030 C 
ENDBRANCH   1   7
BRANCH   3  10
ATOM     10  O   UNL     1     117.415 116.361 120.969  1.00  0.00    -0.493 OA
ATOM     11  C   UNL     1     116.131 116.340 120.352  1.00  0.00     0.278 C 
ENDBRANCH   3  10
BRANCH   4  12
ATOM     12  O   UNL     1     119.713 116.566 122.480  1.00  0.00    -0.504 OA
ATOM     13  H   UNL     1     120.275 115.790 122.810  1.00  0.00     0.293 HD
ENDBRANCH   4  12
TORSDOF 3
ENDMDL
MODEL 2
REMARK VINA RESULT:    -4.726      3.292      4.188
REMARK INTER + INTRA:          -5.568
REMARK INTER:                  -5.416
REMARK INTRA:                  -0.152
REMARK UNBOUND:                -0.152
REMARK SMILES CC=Cc1ccc(O)c(OC)c1
REMARK SMILES IDX 4 1 12 2 9 3 7 4 6 5 5 6 3 7 1 8 2 9 10 10 11 11 8 12
REMARK H PARENT 8 13
REMARK Flexibility Score: inf
ROOT
ATOM      1  C   UNL     1     117.827 119.822 118.456  1.00  0.00    -0.022 A 
ATOM      2  C   UNL     1     119.005 120.345 119.016  1.00  0.00     0.058 A 
ATOM      3  C   UNL     1     119.042 120.762 120.362  1.00  0.00     0.161 A 
ATOM      4  C   UNL     1     117.884 120.660 121.144  1.00  0.00     0.157 A 
ATOM      5  C   UNL     1     116.704 120.152 120.589  1.00  0.00     0.051 A 
ATOM      6  C   UNL     1     116.671 119.740 119.256  1.00  0.00     0.012 A 
ENDROOT
BRANCH   1   7
ATOM      7  C   UNL     1     117.843 119.407 117.032  1.00  0.00     0.003 C 
ATOM      8  C   UNL     1     118.880 118.635 114.934  1.00  0.00     0.035 C 
ATOM      9  C   UNL     1     118.945 119.026 116.376  1.00  0.00    -0.030 C 
ENDBRANCH   1   7
BRANCH   3  10
ATOM     10  O   UNL     1     120.205 121.280 120.954  1.00  0.00    -0.493 OA
ATOM     11  C   UNL     1     121.500 121.237 120.362  1.00  0.00     0.278 C 
ENDBRANCH   3  10
BRANCH   4  12
ATOM     12  O   UNL     1     117.915 121.069 122.477  1.00  0.00    -0.504 OA
ATOM     13  H   UNL     1     117.349 121.841 122.808  1.00  0.00     0.293 HD
ENDBRANCH   4  12
TORSDOF 3
ENDMDL
MODEL 3
REMARK VINA RESULT:    -4.722      2.361      2.946
REMARK INTER + INTRA:          -5.563
REMARK INTER:                  -5.412
REMARK INTRA:                  -0.152
REMARK UNBOUND:                -0.152
REMARK SMILES CC=Cc1ccc(O)c(OC)c1
REMARK SMILES IDX 4 1 12 2 9 3 7 4 6 5 5 6 3 7 1 8 2 9 10 10 11 11 8 12
REMARK H PARENT 8 13
REMARK Flexibility Score: inf
ROOT
ATOM      1  C   UNL     1     119.803 119.784 118.429  1.00  0.00    -0.022 A 
ATOM      2  C   UNL     1     120.332 118.610 118.992  1.00  0.00     0.058 A 
ATOM      3  C   UNL     1     120.738 118.575 120.341  1.00  0.00     0.161 A 
ATOM      4  C   UNL     1     120.620 119.731 121.123  1.00  0.00     0.157 A 
ATOM      5  C   UNL     1     120.107 120.908 120.566  1.00  0.00     0.051 A 
ATOM      6  C   UNL     1     119.705 120.939 119.229  1.00  0.00     0.012 A 
ENDROOT
BRANCH   1   7
ATOM      7  C   UNL     1     119.400 119.767 117.001  1.00  0.00     0.003 C 
ATOM      8  C   UNL     1     118.628 118.730 114.903  1.00  0.00     0.035 C 
ATOM      9  C   UNL     1     119.005 118.668 116.349  1.00  0.00    -0.030 C 
ENDBRANCH   1   7
BRANCH   3  10
ATOM     10  O   UNL     1     121.260 117.415 120.936  1.00  0.00    -0.493 OA
ATOM     11  C   UNL     1     121.221 116.119 120.347  1.00  0.00     0.278 C 
ENDBRANCH   3  10
BRANCH   4  12
ATOM     12  O   UNL     1     121.018 119.702 122.459  1.00  0.00    -0.504 OA
ATOM     13  H   UNL     1     120.653 120.362 123.136  1.00  0.00     0.293 HD
ENDBRANCH   4  12
TORSDOF 3
ENDMDL
MODEL 4
REMARK VINA RESULT:    -4.714      2.349      2.989
REMARK INTER + INTRA:          -5.554
REMARK INTER:                  -5.402
REMARK INTRA:                  -0.153
REMARK UNBOUND:                -0.152
REMARK SMILES CC=Cc1ccc(O)c(OC)c1
REMARK SMILES IDX 4 1 12 2 9 3 7 4 6 5 5 6 3 7 1 8 2 9 10 10 11 11 8 12
REMARK H PARENT 8 13
REMARK Flexibility Score: inf
ROOT
ATOM      1  C   UNL     1     117.780 117.786 118.484  1.00  0.00    -0.022 A 
ATOM      2  C   UNL     1     117.305 118.976 119.063  1.00  0.00     0.058 A 
ATOM      3  C   UNL     1     116.858 119.002 120.398  1.00  0.00     0.161 A 
ATOM      4  C   UNL     1     116.879 117.821 121.152  1.00  0.00     0.157 A 
ATOM      5  C   UNL     1     117.337 116.630 120.579  1.00  0.00     0.051 A 
ATOM      6  C   UNL     1     117.780 116.608 119.255  1.00  0.00     0.012 A 
ENDROOT
BRANCH   1   7
ATOM      7  C   UNL     1     118.230 117.815 117.071  1.00  0.00     0.003 C 
ATOM      8  C   UNL     1     118.949 118.883 114.969  1.00  0.00     0.035 C 
ATOM      9  C   UNL     1     118.514 118.937 116.399  1.00  0.00    -0.030 C 
ENDBRANCH   1   7
BRANCH   3  10
ATOM     10  O   UNL     1     116.387 120.176 121.008  1.00  0.00    -0.493 OA
ATOM     11  C   UNL     1     116.386 121.461 120.393  1.00  0.00     0.278 C 
ENDBRANCH   3  10
BRANCH   4  12
ATOM     12  O   UNL     1     116.439 117.841 122.475  1.00  0.00    -0.504 OA
ATOM     13  H   UNL     1     116.770 118.537 123.134  1.00  0.00     0.293 HD
ENDBRANCH   4  12
TORSDOF 3
ENDMDL
MODEL 5
REMARK VINA RESULT:    -4.571      1.038      2.537
REMARK INTER + INTRA:          -5.390
REMARK INTER:                  -5.232
REMARK INTRA:                  -0.158
REMARK UNBOUND:                -0.152
REMARK SMILES CC=Cc1ccc(O)c(OC)c1
REMARK SMILES IDX 4 1 12 2 9 3 7 4 6 5 5 6 3 7 1 8 2 9 10 10 11 11 8 12
REMARK H PARENT 8 13
REMARK Flexibility Score: inf
ROOT
ATOM      1  C   UNL     1     118.977 117.688 118.408  1.00  0.00    -0.022 A 
ATOM      2  C   UNL     1     119.839 117.906 119.497  1.00  0.00     0.058 A 
ATOM      3  C   UNL     1     119.526 117.408 120.777  1.00  0.00     0.161 A 
ATOM      4  C   UNL     1     118.334 116.696 120.964  1.00  0.00     0.157 A 
ATOM      5  C   UNL     1     117.464 116.487 119.888  1.00  0.00     0.051 A 
ATOM      6  C   UNL     1     117.777 116.981 118.620  1.00  0.00     0.012 A 
ENDROOT
BRANCH   1   7
ATOM      7  C   UNL     1     119.352 118.243 117.084  1.00  0.00     0.003 C 
ATOM      8  C   UNL     1     118.929 119.098 114.812  1.00  0.00     0.035 C 
ATOM      9  C   UNL     1     118.470 118.556 116.128  1.00  0.00    -0.030 C 
ENDBRANCH   1   7
BRANCH   3  10
ATOM     10  O   UNL     1     120.370 117.600 121.883  1.00  0.00    -0.493 OA
ATOM     11  C   UNL     1     121.431 116.723 122.249  1.00  0.00     0.278 C 
ENDBRANCH   3  10
BRANCH   4  12
ATOM     12  O   UNL     1     118.020 116.200 122.229  1.00  0.00    -0.504 OA
ATOM     13  H   UNL     1     118.540 116.479 123.052  1.00  0.00     0.293 HD
ENDBRANCH   4  12
TORSDOF 3
ENDMDL
MODEL 6
REMARK VINA RESULT:    -4.568      3.295      3.376
REMARK INTER + INTRA:          -5.387
REMARK INTER:                  -5.213
REMARK INTRA:                  -0.174
REMARK UNBOUND:                -0.152
REMARK SMILES CC=Cc1ccc(O)c(OC)c1
REMARK SMILES IDX 4 1 12 2 9 3 7 4 6 5 5 6 3 7 1 8 2 9 10 10 11 11 8 12
REMARK H PARENT 8 13
REMARK Flexibility Score: inf
ROOT
ATOM      1  C   UNL     1     118.617 119.955 118.475  1.00  0.00    -0.022 A 
ATOM      2  C   UNL     1     117.677 119.892 119.518  1.00  0.00     0.058 A 
ATOM      3  C   UNL     1     117.988 120.382 120.802  1.00  0.00     0.161 A 
ATOM      4  C   UNL     1     119.256 120.928 121.040  1.00  0.00     0.157 A 
ATOM      5  C   UNL     1     120.202 120.982 120.010  1.00  0.00     0.051 A 
ATOM      6  C   UNL     1     119.890 120.497 118.739  1.00  0.00     0.012 A 
ENDROOT
BRANCH   1   7
ATOM      7  C   UNL     1     118.239 119.417 117.146  1.00  0.00     0.003 C 
ATOM      8  C   UNL     1     118.654 118.616 114.852  1.00  0.00     0.035 C 
ATOM      9  C   UNL     1     119.116 119.144 116.173  1.00  0.00    -0.030 C 
ENDBRANCH   1   7
BRANCH   3  10
ATOM     10  O   UNL     1     117.068 120.342 121.862  1.00  0.00    -0.493 OA
ATOM     11  C   UNL     1     116.057 121.320 122.090  1.00  0.00     0.278 C 
ENDBRANCH   3  10
BRANCH   4  12
ATOM     12  O   UNL     1     119.569 121.416 122.308  1.00  0.00    -0.504 OA
ATOM     13  H   UNL     1     119.076 122.206 122.709  1.00  0.00     0.293 HD
ENDBRANCH   4  12
TORSDOF 3
ENDMDL
MODEL 7
REMARK VINA RESULT:    -4.500      2.122      2.973
REMARK INTER + INTRA:          -5.309
REMARK INTER:                  -5.127
REMARK INTRA:                  -0.183
REMARK UNBOUND:                -0.152
REMARK SMILES CC=Cc1ccc(O)c(OC)c1
REMARK SMILES IDX 4 1 12 2 9 3 7 4 6 5 5 6 3 7 1 8 2 9 10 10 11 11 8 12
REMARK H PARENT 8 13
REMARK Flexibility Score: inf
ROOT
ATOM      1  C   UNL     1     117.756 118.578 118.497  1.00  0.00    -0.022 A 
ATOM      2  C   UNL     1     118.054 117.722 119.571  1.00  0.00     0.058 A 
ATOM      3  C   UNL     1     117.550 117.979 120.861  1.00  0.00     0.161 A 
ATOM      4  C   UNL     1     116.751 119.110 121.073  1.00  0.00     0.157 A 
ATOM      5  C   UNL     1     116.461 119.975 120.012  1.00  0.00     0.051 A 
ATOM      6  C   UNL     1     116.962 119.717 118.734  1.00  0.00     0.012 A 
ENDROOT
BRANCH   1   7
ATOM      7  C   UNL     1     118.321 118.264 117.161  1.00  0.00     0.003 C 
ATOM      8  C   UNL     1     118.974 118.748 114.835  1.00  0.00     0.035 C 
ATOM      9  C   UNL     1     118.404 119.147 116.159  1.00  0.00    -0.030 C 
ENDBRANCH   1   7
BRANCH   3  10
ATOM     10  O   UNL     1     117.821 117.138 121.953  1.00  0.00    -0.493 OA
ATOM     11  C   UNL     1     119.098 117.004 122.571  1.00  0.00     0.278 C 
ENDBRANCH   3  10
BRANCH   4  12
ATOM     12  O   UNL     1     116.248 119.369 122.348  1.00  0.00    -0.504 OA
ATOM     13  H   UNL     1     116.678 118.975 123.177  1.00  0.00     0.293 HD
ENDBRANCH   4  12
TORSDOF 3
ENDMDL
MODEL 8
REMARK VINA RESULT:    -4.482      2.411      2.580
REMARK INTER + INTRA:          -5.289
REMARK INTER:                  -5.110
REMARK INTRA:                  -0.179
REMARK UNBOUND:                -0.152
REMARK SMILES CC=Cc1ccc(O)c(OC)c1
REMARK SMILES IDX 4 1 12 2 9 3 7 4 6 5 5 6 3 7 1 8 2 9 10 10 11 11 8 12
REMARK H PARENT 8 13
REMARK Flexibility Score: inf
ROOT
ATOM      1  C   UNL     1     119.905 119.043 118.384  1.00  0.00    -0.022 A 
ATOM      2  C   UNL     1     119.598 119.849 119.494  1.00  0.00     0.058 A 
ATOM      3  C   UNL     1     120.086 119.529 120.776  1.00  0.00     0.161 A 
ATOM      4  C   UNL     1     120.879 118.387 120.944  1.00  0.00     0.157 A 
ATOM      5  C   UNL     1     121.178 117.572 119.846  1.00  0.00     0.051 A 
ATOM      6  C   UNL     1     120.693 117.892 118.576  1.00  0.00     0.012 A 
ENDROOT
BRANCH   1   7
ATOM      7  C   UNL     1     119.356 119.421 117.059  1.00  0.00     0.003 C 
ATOM      8  C   UNL     1     118.511 119.004 114.781  1.00  0.00     0.035 C 
ATOM      9  C   UNL     1     119.048 118.541 116.098  1.00  0.00    -0.030 C 
ENDBRANCH   1   7
BRANCH   3  10
ATOM     10  O   UNL     1     119.805 120.319 121.903  1.00  0.00    -0.493 OA
ATOM     11  C   UNL     1     118.509 120.483 122.471  1.00  0.00     0.278 C 
ENDBRANCH   3  10
BRANCH   4  12
ATOM     12  O   UNL     1     121.367 118.067 122.210  1.00  0.00    -0.504 OA
ATOM     13  H   UNL     1     122.068 118.638 122.668  1.00  0.00     0.293 HD
ENDBRANCH   4  12
TORSDOF 3
ENDMDL
MODEL 9
REMARK VINA RESULT:    -4.273      2.584      5.012
REMARK INTER + INTRA:          -5.049
REMARK INTER:                  -4.888
REMARK INTRA:                  -0.161
REMARK UNBOUND:                -0.152
REMARK SMILES CC=Cc1ccc(O)c(OC)c1
REMARK SMILES IDX 4 1 12 2 9 3 7 4 6 5 5 6 3 7 1 8 2 9 10 10 11 11 8 12
REMARK H PARENT 8 13
REMARK Flexibility Score: inf
ROOT
ATOM      1  C   UNL     1     117.215 117.654 119.663  1.00  0.00    -0.022 A 
ATOM      2  C   UNL     1     118.496 117.210 119.292  1.00  0.00     0.058 A 
ATOM      3  C   UNL     1     119.344 118.020 118.512  1.00  0.00     0.161 A 
ATOM      4  C   UNL     1     118.897 119.281 118.095  1.00  0.00     0.157 A 
ATOM      5  C   UNL     1     117.617 119.724 118.449  1.00  0.00     0.051 A 
ATOM      6  C   UNL     1     116.779 118.919 119.222  1.00  0.00     0.012 A 
ENDROOT
BRANCH   1   7
ATOM      7  C   UNL     1     116.360 116.755 120.477  1.00  0.00     0.003 C 
ATOM      8  C   UNL     1     115.701 115.521 122.506  1.00  0.00     0.035 C 
ATOM      9  C   UNL     1     116.604 116.448 121.756  1.00  0.00    -0.030 C 
ENDBRANCH   1   7
BRANCH   3  10
ATOM     10  O   UNL     1     120.633 117.610 118.134  1.00  0.00    -0.493 OA
ATOM     11  C   UNL     1     121.654 117.214 119.046  1.00  0.00     0.278 C 
ENDBRANCH   3  10
BRANCH   4  12
ATOM     12  O   UNL     1     119.733 120.088 117.325  1.00  0.00    -0.504 OA
ATOM     13  H   UNL     1     120.448 119.692 116.726  1.00  0.00     0.293 HD
ENDBRANCH   4  12
TORSDOF 3
ENDMDL
