MODEL 1
REMARK VINA RESULT:    -4.954      0.000      0.000
REMARK INTER + INTRA:          -8.035
REMARK INTER:                  -7.561
REMARK INTRA:                  -0.474
REMARK UNBOUND:                -0.474
REMARK SMILES O=C([O-])CCCCCCCCC(=O)[O-]
REMARK SMILES IDX 7 1 6 2 5 3 4 4 2 5 1 6 3 7 8 8 9 9 10 10 11 11 12 12 13 13
REMARK SMILES IDX 14 14
REMARK H PARENT
REMARK Flexibility Score: inf
ROOT
ATOM      1  C   UNL     1      -1.738  10.453  -8.184  1.00  0.00     0.000 C 
ENDROOT
BRANCH   1   2
ATOM      2  C   UNL     1      -0.984  11.735  -8.583  1.00  0.00     0.000 C 
BRANCH   2   3
ATOM      3  C   UNL     1       0.534  11.629  -8.370  1.00  0.00     0.006 C 
BRANCH   3   4
ATOM      4  C   UNL     1       0.996  10.170  -8.440  1.00  0.00     0.053 C 
BRANCH   4   5
ATOM      5  C   UNL     1       2.476  10.099  -8.647  1.00  0.00     0.041 C 
ATOM      6  O   UNL     1       2.947   9.526  -9.664  1.00  0.00    -0.550 OA
ATOM      7  O   UNL     1       3.338  10.624  -7.691  1.00  0.00    -0.550 OA
ENDBRANCH   4   5
ENDBRANCH   3   4
ENDBRANCH   2   3
ENDBRANCH   1   2
BRANCH   1   8
ATOM      8  C   UNL     1      -3.193  10.369  -8.683  1.00  0.00     0.000 C 
BRANCH   8   9
ATOM      9  C   UNL     1      -3.425  11.150  -9.988  1.00  0.00     0.000 C 
BRANCH   9  10
ATOM     10  C   UNL     1      -4.349  10.404 -10.964  1.00  0.00     0.006 C 
BRANCH  10  11
ATOM     11  C   UNL     1      -3.953   8.933 -11.146  1.00  0.00     0.053 C 
BRANCH  11  12
ATOM     12  C   UNL     1      -5.168   8.059 -11.113  1.00  0.00     0.041 C 
ATOM     13  O   UNL     1      -6.247   8.493 -10.633  1.00  0.00    -0.550 OA
ATOM     14  O   UNL     1      -5.094   6.749 -11.568  1.00  0.00    -0.550 OA
ENDBRANCH  11  12
ENDBRANCH  10  11
ENDBRANCH   9  10
ENDBRANCH   8   9
ENDBRANCH   1   8
TORSDOF 9
ENDMDL
MODEL 2
REMARK VINA RESULT:    -4.877      0.278      6.898
REMARK INTER + INTRA:          -7.917
REMARK INTER:                  -7.503
REMARK INTRA:                  -0.413
REMARK UNBOUND:                -0.474
REMARK SMILES O=C([O-])CCCCCCCCC(=O)[O-]
REMARK SMILES IDX 7 1 6 2 5 3 4 4 2 5 1 6 3 7 8 8 9 9 10 10 11 11 12 12 13 13
REMARK SMILES IDX 14 14
REMARK H PARENT
REMARK Flexibility Score: inf
ROOT
ATOM      1  C   UNL     1      -2.802  10.265  -8.836  1.00  0.00     0.000 C 
ENDROOT
BRANCH   1   2
ATOM      2  C   UNL     1      -3.198  10.973 -10.145  1.00  0.00     0.000 C 
BRANCH   2   3
ATOM      3  C   UNL     1      -4.269  10.211 -10.939  1.00  0.00     0.006 C 
BRANCH   3   4
ATOM      4  C   UNL     1      -3.930   8.719 -11.024  1.00  0.00     0.053 C 
BRANCH   4   5
ATOM      5  C   UNL     1      -5.181   7.901 -11.086  1.00  0.00     0.041 C 
ATOM      6  O   UNL     1      -6.259   8.355 -10.621  1.00  0.00    -0.550 OA
ATOM      7  O   UNL     1      -5.146   6.616 -11.614  1.00  0.00    -0.550 OA
ENDBRANCH   4   5
ENDBRANCH   3   4
ENDBRANCH   2   3
ENDBRANCH   1   2
BRANCH   1   8
ATOM      8  C   UNL     1      -1.821  11.047  -7.942  1.00  0.00     0.000 C 
BRANCH   8   9
ATOM      9  C   UNL     1      -0.780  11.843  -8.747  1.00  0.00     0.000 C 
BRANCH   9  10
ATOM     10  C   UNL     1       0.653  11.623  -8.236  1.00  0.00     0.006 C 
BRANCH  10  11
ATOM     11  C   UNL     1       1.082  10.151  -8.292  1.00  0.00     0.053 C 
BRANCH  11  12
ATOM     12  C   UNL     1       2.548  10.046  -8.576  1.00  0.00     0.041 C 
ATOM     13  O   UNL     1       3.387  10.477  -7.743  1.00  0.00    -0.550 OA
ATOM     14  O   UNL     1       2.986   9.516  -9.783  1.00  0.00    -0.550 OA
ENDBRANCH  11  12
ENDBRANCH  10  11
ENDBRANCH   9  10
ENDBRANCH   8   9
ENDBRANCH   1   8
TORSDOF 9
ENDMDL
MODEL 3
REMARK VINA RESULT:    -4.797      1.657      2.370
REMARK INTER + INTRA:          -7.795
REMARK INTER:                  -7.283
REMARK INTRA:                  -0.512
REMARK UNBOUND:                -0.474
REMARK SMILES O=C([O-])CCCCCCCCC(=O)[O-]
REMARK SMILES IDX 7 1 6 2 5 3 4 4 2 5 1 6 3 7 8 8 9 9 10 10 11 11 12 12 13 13
REMARK SMILES IDX 14 14
REMARK H PARENT
REMARK Flexibility Score: inf
ROOT
ATOM      1  C   UNL     1      -1.516  12.057  -8.340  1.00  0.00     0.000 C 
ENDROOT
BRANCH   1   2
ATOM      2  C   UNL     1       0.024  12.102  -8.322  1.00  0.00     0.000 C 
BRANCH   2   3
ATOM      3  C   UNL     1       0.653  10.870  -7.655  1.00  0.00     0.006 C 
BRANCH   3   4
ATOM      4  C   UNL     1       1.273   9.938  -8.701  1.00  0.00     0.053 C 
BRANCH   4   5
ATOM      5  C   UNL     1       2.766  10.027  -8.661  1.00  0.00     0.041 C 
ATOM      6  O   UNL     1       3.342  10.575  -7.684  1.00  0.00    -0.550 OA
ATOM      7  O   UNL     1       3.520   9.549  -9.725  1.00  0.00    -0.550 OA
ENDBRANCH   4   5
ENDBRANCH   3   4
ENDBRANCH   2   3
ENDBRANCH   1   2
BRANCH   1   8
ATOM      8  C   UNL     1      -2.131  11.218  -9.476  1.00  0.00     0.000 C 
BRANCH   8   9
ATOM      9  C   UNL     1      -2.997  10.056  -8.961  1.00  0.00     0.000 C 
BRANCH   9  10
ATOM     10  C   UNL     1      -3.997   9.554 -10.015  1.00  0.00     0.006 C 
BRANCH  10  11
ATOM     11  C   UNL     1      -4.445  10.661 -10.979  1.00  0.00     0.053 C 
BRANCH  11  12
ATOM     12  C   UNL     1      -5.715  11.290 -10.496  1.00  0.00     0.041 C 
ATOM     13  O   UNL     1      -6.828  10.814 -10.841  1.00  0.00    -0.550 OA
ATOM     14  O   UNL     1      -5.669  12.430  -9.705  1.00  0.00    -0.550 OA
ENDBRANCH  11  12
ENDBRANCH  10  11
ENDBRANCH   9  10
ENDBRANCH   8   9
ENDBRANCH   1   8
TORSDOF 9
ENDMDL
MODEL 4
REMARK VINA RESULT:    -4.688      1.536      2.002
REMARK INTER + INTRA:          -7.628
REMARK INTER:                  -7.149
REMARK INTRA:                  -0.479
REMARK UNBOUND:                -0.474
REMARK SMILES O=C([O-])CCCCCCCCC(=O)[O-]
REMARK SMILES IDX 7 1 6 2 5 3 4 4 2 5 1 6 3 7 8 8 9 9 10 10 11 11 12 12 13 13
REMARK SMILES IDX 14 14
REMARK H PARENT
REMARK Flexibility Score: inf
ROOT
ATOM      1  C   UNL     1      -2.628  12.219  -9.254  1.00  0.00     0.000 C 
ENDROOT
BRANCH   1   2
ATOM      2  C   UNL     1      -1.845  10.927  -8.950  1.00  0.00     0.000 C 
BRANCH   2   3
ATOM      3  C   UNL     1      -0.469  11.192  -8.322  1.00  0.00     0.006 C 
BRANCH   3   4
ATOM      4  C   UNL     1       0.331   9.893  -8.187  1.00  0.00     0.053 C 
BRANCH   4   5
ATOM      5  C   UNL     1       1.792  10.156  -8.370  1.00  0.00     0.041 C 
ATOM      6  O   UNL     1       2.389  10.966  -7.613  1.00  0.00    -0.550 OA
ATOM      7  O   UNL     1       2.485   9.545  -9.408  1.00  0.00    -0.550 OA
ENDBRANCH   4   5
ENDBRANCH   3   4
ENDBRANCH   2   3
ENDBRANCH   1   2
BRANCH   1   8
ATOM      8  C   UNL     1      -3.929  12.399  -8.450  1.00  0.00     0.000 C 
BRANCH   8   9
ATOM      9  C   UNL     1      -5.096  12.915  -9.308  1.00  0.00     0.000 C 
BRANCH   9  10
ATOM     10  C   UNL     1      -6.039  11.787  -9.758  1.00  0.00     0.006 C 
BRANCH  10  11
ATOM     11  C   UNL     1      -5.595  11.135 -11.075  1.00  0.00     0.053 C 
BRANCH  11  12
ATOM     12  C   UNL     1      -5.190   9.713 -10.841  1.00  0.00     0.041 C 
ATOM     13  O   UNL     1      -5.932   8.944 -10.176  1.00  0.00    -0.550 OA
ATOM     14  O   UNL     1      -3.970   9.251 -11.316  1.00  0.00    -0.550 OA
ENDBRANCH  11  12
ENDBRANCH  10  11
ENDBRANCH   9  10
ENDBRANCH   8   9
ENDBRANCH   1   8
TORSDOF 9
ENDMDL
MODEL 5
REMARK VINA RESULT:    -4.640      1.413      6.498
REMARK INTER + INTRA:          -7.556
REMARK INTER:                  -6.820
REMARK INTRA:                  -0.736
REMARK UNBOUND:                -0.474
REMARK SMILES O=C([O-])CCCCCCCCC(=O)[O-]
REMARK SMILES IDX 7 1 6 2 5 3 4 4 2 5 1 6 3 7 8 8 9 9 10 10 11 11 12 12 13 13
REMARK SMILES IDX 14 14
REMARK H PARENT
REMARK Flexibility Score: inf
ROOT
ATOM      1  C   UNL     1      -2.606  12.631  -6.898  1.00  0.00     0.000 C 
ENDROOT
BRANCH   1   2
ATOM      2  C   UNL     1      -3.207  11.532  -7.795  1.00  0.00     0.000 C 
BRANCH   2   3
ATOM      3  C   UNL     1      -3.268  11.933  -9.276  1.00  0.00     0.006 C 
BRANCH   3   4
ATOM      4  C   UNL     1      -2.975  10.732 -10.181  1.00  0.00     0.053 C 
BRANCH   4   5
ATOM      5  C   UNL     1      -4.225  10.273 -10.863  1.00  0.00     0.041 C 
ATOM      6  O   UNL     1      -5.197  11.062 -11.001  1.00  0.00    -0.550 OA
ATOM      7  O   UNL     1      -4.336   8.960 -11.303  1.00  0.00    -0.550 OA
ENDBRANCH   4   5
ENDBRANCH   3   4
ENDBRANCH   2   3
ENDBRANCH   1   2
BRANCH   1   8
ATOM      8  C   UNL     1      -1.196  13.103  -7.299  1.00  0.00     0.000 C 
BRANCH   8   9
ATOM      9  C   UNL     1      -0.126  12.012  -7.120  1.00  0.00     0.000 C 
BRANCH   9  10
ATOM     10  C   UNL     1       0.518  11.595  -8.452  1.00  0.00     0.006 C 
BRANCH  10  11
ATOM     11  C   UNL     1       0.953  10.124  -8.463  1.00  0.00     0.053 C 
BRANCH  11  12
ATOM     12  C   UNL     1       2.427  10.018  -8.703  1.00  0.00     0.041 C 
ATOM     13  O   UNL     1       2.861   9.429  -9.727  1.00  0.00    -0.550 OA
ATOM     14  O   UNL     1       3.321  10.527  -7.771  1.00  0.00    -0.550 OA
ENDBRANCH  11  12
ENDBRANCH  10  11
ENDBRANCH   9  10
ENDBRANCH   8   9
ENDBRANCH   1   8
TORSDOF 9
ENDMDL
MODEL 6
REMARK VINA RESULT:    -4.633      2.081      2.499
REMARK INTER + INTRA:          -7.545
REMARK INTER:                  -6.983
REMARK INTRA:                  -0.563
REMARK UNBOUND:                -0.474
REMARK SMILES O=C([O-])CCCCCCCCC(=O)[O-]
REMARK SMILES IDX 7 1 6 2 5 3 4 4 2 5 1 6 3 7 8 8 9 9 10 10 11 11 12 12 13 13
REMARK SMILES IDX 14 14
REMARK H PARENT
REMARK Flexibility Score: inf
ROOT
ATOM      1  C   UNL     1      -1.366  10.381  -8.319  1.00  0.00     0.000 C 
ENDROOT
BRANCH   1   2
ATOM      2  C   UNL     1       0.132  10.022  -8.342  1.00  0.00     0.000 C 
BRANCH   2   3
ATOM      3  C   UNL     1       1.045  11.257  -8.336  1.00  0.00     0.006 C 
BRANCH   3   4
ATOM      4  C   UNL     1       1.915  11.288  -7.075  1.00  0.00     0.053 C 
BRANCH   4   5
ATOM      5  C   UNL     1       1.287  12.151  -6.027  1.00  0.00     0.041 C 
ATOM      6  O   UNL     1       1.477  11.906  -4.807  1.00  0.00    -0.550 OA
ATOM      7  O   UNL     1       0.452  13.198  -6.397  1.00  0.00    -0.550 OA
ENDBRANCH   4   5
ENDBRANCH   3   4
ENDBRANCH   2   3
ENDBRANCH   1   2
BRANCH   1   8
ATOM      8  C   UNL     1      -1.711  11.782  -8.855  1.00  0.00     0.000 C 
BRANCH   8   9
ATOM      9  C   UNL     1      -3.092  11.842  -9.529  1.00  0.00     0.000 C 
BRANCH   9  10
ATOM     10  C   UNL     1      -3.284  10.736 -10.579  1.00  0.00     0.006 C 
BRANCH  10  11
ATOM     11  C   UNL     1      -4.761  10.487 -10.912  1.00  0.00     0.053 C 
BRANCH  11  12
ATOM     12  C   UNL     1      -5.236   9.223 -10.267  1.00  0.00     0.041 C 
ATOM     13  O   UNL     1      -5.234   9.112  -9.013  1.00  0.00    -0.550 OA
ATOM     14  O   UNL     1      -5.634   8.149 -11.051  1.00  0.00    -0.550 OA
ENDBRANCH  11  12
ENDBRANCH  10  11
ENDBRANCH   9  10
ENDBRANCH   8   9
ENDBRANCH   1   8
TORSDOF 9
ENDMDL
MODEL 7
REMARK VINA RESULT:    -4.611      2.485      7.086
REMARK INTER + INTRA:          -7.511
REMARK INTER:                  -6.936
REMARK INTRA:                  -0.575
REMARK UNBOUND:                -0.474
REMARK SMILES O=C([O-])CCCCCCCCC(=O)[O-]
REMARK SMILES IDX 7 1 6 2 5 3 4 4 2 5 1 6 3 7 8 8 9 9 10 10 11 11 12 12 13 13
REMARK SMILES IDX 14 14
REMARK H PARENT
REMARK Flexibility Score: inf
ROOT
ATOM      1  C   UNL     1      -1.159  10.351  -8.319  1.00  0.00     0.000 C 
ENDROOT
BRANCH   1   2
ATOM      2  C   UNL     1      -1.650  11.648  -8.988  1.00  0.00     0.000 C 
BRANCH   2   3
ATOM      3  C   UNL     1      -3.014  11.490  -9.676  1.00  0.00     0.006 C 
BRANCH   3   4
ATOM      4  C   UNL     1      -3.277  10.025 -10.038  1.00  0.00     0.053 C 
BRANCH   4   5
ATOM      5  C   UNL     1      -4.496   9.909 -10.898  1.00  0.00     0.041 C 
ATOM      6  O   UNL     1      -5.025  10.941 -11.389  1.00  0.00    -0.550 OA
ATOM      7  O   UNL     1      -5.078   8.667 -11.116  1.00  0.00    -0.550 OA
ENDBRANCH   4   5
ENDBRANCH   3   4
ENDBRANCH   2   3
ENDBRANCH   1   2
BRANCH   1   8
ATOM      8  C   UNL     1       0.366  10.135  -8.351  1.00  0.00     0.000 C 
BRANCH   8   9
ATOM      9  C   UNL     1       1.159  11.442  -8.179  1.00  0.00     0.000 C 
BRANCH   9  10
ATOM     10  C   UNL     1       1.797  11.565  -6.786  1.00  0.00     0.006 C 
BRANCH  10  11
ATOM     11  C   UNL     1       0.785  11.975  -5.707  1.00  0.00     0.053 C 
BRANCH  11  12
ATOM     12  C   UNL     1       0.473  13.435  -5.813  1.00  0.00     0.041 C 
ATOM     13  O   UNL     1       1.253  14.288  -5.313  1.00  0.00    -0.550 OA
ATOM     14  O   UNL     1      -0.703  13.852  -6.422  1.00  0.00    -0.550 OA
ENDBRANCH  11  12
ENDBRANCH  10  11
ENDBRANCH   9  10
ENDBRANCH   8   9
ENDBRANCH   1   8
TORSDOF 9
ENDMDL
MODEL 8
REMARK VINA RESULT:    -4.453      1.553      2.476
REMARK INTER + INTRA:          -7.271
REMARK INTER:                  -6.843
REMARK INTRA:                  -0.428
REMARK UNBOUND:                -0.474
REMARK SMILES O=C([O-])CCCCCCCCC(=O)[O-]
REMARK SMILES IDX 7 1 6 2 5 3 4 4 2 5 1 6 3 7 8 8 9 9 10 10 11 11 12 12 13 13
REMARK SMILES IDX 14 14
REMARK H PARENT
REMARK Flexibility Score: inf
ROOT
ATOM      1  C   UNL     1      -3.605  10.190 -10.326  1.00  0.00     0.000 C 
ENDROOT
BRANCH   1   2
ATOM      2  C   UNL     1      -2.642  11.244  -9.748  1.00  0.00     0.000 C 
BRANCH   2   3
ATOM      3  C   UNL     1      -1.576  10.640  -8.822  1.00  0.00     0.006 C 
BRANCH   3   4
ATOM      4  C   UNL     1      -0.512  11.681  -8.460  1.00  0.00     0.053 C 
BRANCH   4   5
ATOM      5  C   UNL     1       0.680  11.018  -7.845  1.00  0.00     0.041 C 
ATOM      6  O   UNL     1       0.812   9.767  -7.906  1.00  0.00    -0.550 OA
ATOM      7  O   UNL     1       1.622  11.777  -7.162  1.00  0.00    -0.550 OA
ENDBRANCH   4   5
ENDBRANCH   3   4
ENDBRANCH   2   3
ENDBRANCH   1   2
BRANCH   1   8
ATOM      8  C   UNL     1      -4.841  10.759 -11.047  1.00  0.00     0.000 C 
BRANCH   8   9
ATOM      9  C   UNL     1      -6.148  10.055 -10.643  1.00  0.00     0.000 C 
BRANCH   9  10
ATOM     10  C   UNL     1      -5.903   8.823  -9.756  1.00  0.00     0.006 C 
BRANCH  10  11
ATOM     11  C   UNL     1      -6.744   7.612 -10.181  1.00  0.00     0.053 C 
BRANCH  11  12
ATOM     12  C   UNL     1      -5.883   6.593 -10.862  1.00  0.00     0.041 C 
ATOM     13  O   UNL     1      -4.666   6.833 -11.075  1.00  0.00    -0.550 OA
ATOM     14  O   UNL     1      -6.438   5.400 -11.305  1.00  0.00    -0.550 OA
ENDBRANCH  11  12
ENDBRANCH  10  11
ENDBRANCH   9  10
ENDBRANCH   8   9
ENDBRANCH   1   8
TORSDOF 9
ENDMDL
MODEL 9
REMARK VINA RESULT:    -4.401      1.298      6.668
REMARK INTER + INTRA:          -7.190
REMARK INTER:                  -6.744
REMARK INTRA:                  -0.446
REMARK UNBOUND:                -0.474
REMARK SMILES O=C([O-])CCCCCCCCC(=O)[O-]
REMARK SMILES IDX 7 1 6 2 5 3 4 4 2 5 1 6 3 7 8 8 9 9 10 10 11 11 12 12 13 13
REMARK SMILES IDX 14 14
REMARK H PARENT
REMARK Flexibility Score: inf
ROOT
ATOM      1  C   UNL     1      -4.014  11.488  -8.586  1.00  0.00     0.000 C 
ENDROOT
BRANCH   1   2
ATOM      2  C   UNL     1      -5.101  11.929  -9.583  1.00  0.00     0.000 C 
BRANCH   2   3
ATOM      3  C   UNL     1      -5.113  11.090 -10.869  1.00  0.00     0.006 C 
BRANCH   3   4
ATOM      4  C   UNL     1      -5.917   9.801 -10.675  1.00  0.00     0.053 C 
BRANCH   4   5
ATOM      5  C   UNL     1      -5.022   8.606 -10.777  1.00  0.00     0.041 C 
ATOM      6  O   UNL     1      -3.815   8.744 -11.108  1.00  0.00    -0.550 OA
ATOM      7  O   UNL     1      -5.534   7.333 -10.556  1.00  0.00    -0.550 OA
ENDBRANCH   4   5
ENDBRANCH   3   4
ENDBRANCH   2   3
ENDBRANCH   1   2
BRANCH   1   8
ATOM      8  C   UNL     1      -2.620  12.097  -8.828  1.00  0.00     0.000 C 
BRANCH   8   9
ATOM      9  C   UNL     1      -1.539  11.034  -9.087  1.00  0.00     0.000 C 
BRANCH   9  10
ATOM     10  C   UNL     1      -0.246  11.305  -8.300  1.00  0.00     0.006 C 
BRANCH  10  11
ATOM     11  C   UNL     1       0.502  10.017  -7.930  1.00  0.00     0.053 C 
BRANCH  11  12
ATOM     12  C   UNL     1       1.935  10.107  -8.352  1.00  0.00     0.041 C 
ATOM     13  O   UNL     1       2.324   9.531  -9.402  1.00  0.00    -0.550 OA
ATOM     14  O   UNL     1       2.851  10.787  -7.561  1.00  0.00    -0.550 OA
ENDBRANCH  11  12
ENDBRANCH  10  11
ENDBRANCH   9  10
ENDBRANCH   8   9
ENDBRANCH   1   8
TORSDOF 9
ENDMDL
