MODEL 1
REMARK VINA RESULT:    -5.605      0.000      0.000
REMARK INTER + INTRA:          -5.605
REMARK INTER:                  -5.605
REMARK INTRA:                   0.000
REMARK UNBOUND:                 0.000
REMARK SMILES CC1=CC[C@@]2(C)CCCC(C)(C)[C@@]23C[C@@H]13
REMARK SMILES IDX 1 1 2 2 3 3 4 4 5 5 7 6 8 7 9 8 10 9 13 10 15 11 14 12 11 13
REMARK SMILES IDX 12 14 6 15
REMARK H PARENT
REMARK Flexibility Score: inf
ROOT
ATOM      1  C   UNL     1      -1.407  -0.407  12.267  1.00  0.00     0.039 C 
ATOM      2  C   UNL     1      -1.144   0.919  12.925  1.00  0.00    -0.074 C 
ATOM      3  C   UNL     1      -1.022   0.974  14.268  1.00  0.00    -0.027 C 
ATOM      4  C   UNL     1      -0.749   2.269  14.992  1.00  0.00     0.034 C 
ATOM      5  C   UNL     1      -1.439   3.467  14.278  1.00  0.00    -0.022 C 
ATOM      6  C   UNL     1      -0.982   4.784  14.951  1.00  0.00     0.008 C 
ATOM      7  C   UNL     1      -1.489   6.045  14.228  1.00  0.00     0.001 C 
ATOM      8  C   UNL     1      -1.079   6.078  12.748  1.00  0.00     0.007 C 
ATOM      9  C   UNL     1      -1.490   4.821  11.928  1.00  0.00    -0.029 C 
ATOM     10  C   UNL     1      -1.050   3.533  12.746  1.00  0.00    -0.012 C 
ATOM     11  C   UNL     1      -1.022   2.161  12.054  1.00  0.00     0.022 C 
ATOM     12  C   UNL     1       0.294   2.900  12.290  1.00  0.00     0.017 C 
ATOM     13  C   UNL     1      -3.017   4.814  11.663  1.00  0.00     0.012 C 
ATOM     14  C   UNL     1      -0.814   4.967  10.532  1.00  0.00     0.012 C 
ATOM     15  C   UNL     1      -2.974   3.267  14.471  1.00  0.00     0.012 C 
ENDROOT
TORSDOF 0
ENDMDL
MODEL 2
REMARK VINA RESULT:    -5.413      1.214      1.717
REMARK INTER + INTRA:          -5.413
REMARK INTER:                  -5.413
REMARK INTRA:                   0.000
REMARK UNBOUND:                 0.000
REMARK SMILES CC1=CC[C@@]2(C)CCCC(C)(C)[C@@]23C[C@@H]13
REMARK SMILES IDX 1 1 2 2 3 3 4 4 5 5 7 6 8 7 9 8 10 9 13 10 15 11 14 12 11 13
REMARK SMILES IDX 12 14 6 15
REMARK H PARENT
REMARK Flexibility Score: inf
ROOT
ATOM      1  C   UNL     1      -1.054   0.549  11.481  1.00  0.00     0.039 C 
ATOM      2  C   UNL     1      -0.893   1.968  11.951  1.00  0.00    -0.074 C 
ATOM      3  C   UNL     1      -0.028   2.235  12.952  1.00  0.00    -0.027 C 
ATOM      4  C   UNL     1       0.190   3.636  13.467  1.00  0.00     0.034 C 
ATOM      5  C   UNL     1      -1.124   4.466  13.405  1.00  0.00    -0.022 C 
ATOM      6  C   UNL     1      -0.806   5.937  13.770  1.00  0.00     0.008 C 
ATOM      7  C   UNL     1      -2.010   6.881  13.596  1.00  0.00     0.001 C 
ATOM      8  C   UNL     1      -2.589   6.839  12.173  1.00  0.00     0.007 C 
ATOM      9  C   UNL     1      -2.978   5.419  11.668  1.00  0.00    -0.029 C 
ATOM     10  C   UNL     1      -1.760   4.442  11.956  1.00  0.00    -0.012 C 
ATOM     11  C   UNL     1      -1.710   3.062  11.282  1.00  0.00     0.022 C 
ATOM     12  C   UNL     1      -0.829   4.186  10.738  1.00  0.00     0.017 C 
ATOM     13  C   UNL     1      -4.266   4.920  12.372  1.00  0.00     0.012 C 
ATOM     14  C   UNL     1      -3.346   5.574  10.163  1.00  0.00     0.012 C 
ATOM     15  C   UNL     1      -2.086   3.843  14.463  1.00  0.00     0.012 C 
ENDROOT
TORSDOF 0
ENDMDL
MODEL 3
REMARK VINA RESULT:    -5.242      1.388      1.875
REMARK INTER + INTRA:          -5.242
REMARK INTER:                  -5.242
REMARK INTRA:                   0.000
REMARK UNBOUND:                 0.000
REMARK SMILES CC1=CC[C@@]2(C)CCCC(C)(C)[C@@]23C[C@@H]13
REMARK SMILES IDX 1 1 2 2 3 3 4 4 5 5 7 6 8 7 9 8 10 9 13 10 15 11 14 12 11 13
REMARK SMILES IDX 12 14 6 15
REMARK H PARENT
REMARK Flexibility Score: inf
ROOT
ATOM      1  C   UNL     1      -2.715   1.039  14.552  1.00  0.00     0.039 C 
ATOM      2  C   UNL     1      -1.624   2.036  14.276  1.00  0.00    -0.074 C 
ATOM      3  C   UNL     1      -0.572   2.109  15.117  1.00  0.00    -0.027 C 
ATOM      4  C   UNL     1       0.562   3.079  14.896  1.00  0.00     0.034 C 
ATOM      5  C   UNL     1       0.049   4.405  14.262  1.00  0.00    -0.022 C 
ATOM      6  C   UNL     1       1.266   5.287  13.890  1.00  0.00     0.008 C 
ATOM      7  C   UNL     1       0.880   6.562  13.118  1.00  0.00     0.001 C 
ATOM      8  C   UNL     1       0.083   6.256  11.840  1.00  0.00     0.007 C 
ATOM      9  C   UNL     1      -1.190   5.387  12.057  1.00  0.00    -0.029 C 
ATOM     10  C   UNL     1      -0.787   4.135  12.945  1.00  0.00    -0.012 C 
ATOM     11  C   UNL     1      -1.741   2.935  13.053  1.00  0.00     0.022 C 
ATOM     12  C   UNL     1      -0.516   2.830  12.146  1.00  0.00     0.017 C 
ATOM     13  C   UNL     1      -2.309   6.213  12.741  1.00  0.00     0.012 C 
ATOM     14  C   UNL     1      -1.726   5.033  10.638  1.00  0.00     0.012 C 
ATOM     15  C   UNL     1      -0.815   5.108  15.354  1.00  0.00     0.012 C 
ENDROOT
TORSDOF 0
ENDMDL
MODEL 4
REMARK VINA RESULT:    -5.163      1.145      4.672
REMARK INTER + INTRA:          -5.163
REMARK INTER:                  -5.163
REMARK INTRA:                   0.000
REMARK UNBOUND:                 0.000
REMARK SMILES CC1=CC[C@@]2(C)CCCC(C)(C)[C@@]23C[C@@H]13
REMARK SMILES IDX 1 1 2 2 3 3 4 4 5 5 7 6 8 7 9 8 10 9 13 10 15 11 14 12 11 13
REMARK SMILES IDX 12 14 6 15
REMARK H PARENT
REMARK Flexibility Score: inf
ROOT
ATOM      1  C   UNL     1      -1.065   8.086  13.396  1.00  0.00     0.039 C 
ATOM      2  C   UNL     1      -0.865   6.745  12.745  1.00  0.00    -0.074 C 
ATOM      3  C   UNL     1      -0.905   6.656  11.399  1.00  0.00    -0.027 C 
ATOM      4  C   UNL     1      -0.704   5.345  10.680  1.00  0.00     0.034 C 
ATOM      5  C   UNL     1      -1.286   4.159  11.502  1.00  0.00    -0.022 C 
ATOM      6  C   UNL     1      -0.895   2.830  10.812  1.00  0.00     0.008 C 
ATOM      7  C   UNL     1      -1.293   1.583  11.623  1.00  0.00     0.001 C 
ATOM      8  C   UNL     1      -0.707   1.594  13.043  1.00  0.00     0.007 C 
ATOM      9  C   UNL     1      -1.033   2.867  13.875  1.00  0.00    -0.029 C 
ATOM     10  C   UNL     1      -0.714   4.138  12.978  1.00  0.00    -0.012 C 
ATOM     11  C   UNL     1      -0.622   5.528  13.626  1.00  0.00     0.022 C 
ATOM     12  C   UNL     1       0.667   4.798  13.251  1.00  0.00     0.017 C 
ATOM     13  C   UNL     1      -2.517   2.866  14.323  1.00  0.00     0.012 C 
ATOM     14  C   UNL     1      -0.192   2.766  15.182  1.00  0.00     0.012 C 
ATOM     15  C   UNL     1      -2.836   4.337  11.492  1.00  0.00     0.012 C 
ENDROOT
TORSDOF 0
ENDMDL
MODEL 5
REMARK VINA RESULT:    -5.093      1.231      4.133
REMARK INTER + INTRA:          -5.093
REMARK INTER:                  -5.093
REMARK INTRA:                   0.000
REMARK UNBOUND:                 0.000
REMARK SMILES CC1=CC[C@@]2(C)CCCC(C)(C)[C@@]23C[C@@H]13
REMARK SMILES IDX 1 1 2 2 3 3 4 4 5 5 7 6 8 7 9 8 10 9 13 10 15 11 14 12 11 13
REMARK SMILES IDX 12 14 6 15
REMARK H PARENT
REMARK Flexibility Score: inf
ROOT
ATOM      1  C   UNL     1      -0.220   6.237   9.482  1.00  0.00     0.039 C 
ATOM      2  C   UNL     1      -1.068   5.581  10.536  1.00  0.00    -0.074 C 
ATOM      3  C   UNL     1      -1.952   6.329  11.229  1.00  0.00    -0.027 C 
ATOM      4  C   UNL     1      -2.840   5.734  12.293  1.00  0.00     0.034 C 
ATOM      5  C   UNL     1      -2.116   4.583  13.049  1.00  0.00    -0.022 C 
ATOM      6  C   UNL     1      -3.126   3.892  13.997  1.00  0.00     0.008 C 
ATOM      7  C   UNL     1      -2.554   2.640  14.687  1.00  0.00     0.001 C 
ATOM      8  C   UNL     1      -2.030   1.602  13.682  1.00  0.00     0.007 C 
ATOM      9  C   UNL     1      -0.985   2.147  12.667  1.00  0.00    -0.029 C 
ATOM     10  C   UNL     1      -1.552   3.494  12.048  1.00  0.00    -0.012 C 
ATOM     11  C   UNL     1      -0.906   4.089  10.787  1.00  0.00     0.022 C 
ATOM     12  C   UNL     1      -2.230   3.338  10.658  1.00  0.00     0.017 C 
ATOM     13  C   UNL     1       0.380   2.389  13.361  1.00  0.00     0.012 C 
ATOM     14  C   UNL     1      -0.742   1.008  11.633  1.00  0.00     0.012 C 
ATOM     15  C   UNL     1      -0.972   5.251  13.872  1.00  0.00     0.012 C 
ENDROOT
TORSDOF 0
ENDMDL
MODEL 6
REMARK VINA RESULT:    -5.014      1.447      2.391
REMARK INTER + INTRA:          -5.014
REMARK INTER:                  -5.014
REMARK INTRA:                   0.000
REMARK UNBOUND:                 0.000
REMARK SMILES CC1=CC[C@@]2(C)CCCC(C)(C)[C@@]23C[C@@H]13
REMARK SMILES IDX 1 1 2 2 3 3 4 4 5 5 7 6 8 7 9 8 10 9 13 10 15 11 14 12 11 13
REMARK SMILES IDX 12 14 6 15
REMARK H PARENT
REMARK Flexibility Score: inf
ROOT
ATOM      1  C   UNL     1      -1.384   1.405  14.844  1.00  0.00     0.039 C 
ATOM      2  C   UNL     1      -0.901   2.597  14.064  1.00  0.00    -0.074 C 
ATOM      3  C   UNL     1       0.235   3.217  14.448  1.00  0.00    -0.027 C 
ATOM      4  C   UNL     1       0.781   4.412  13.707  1.00  0.00     0.034 C 
ATOM      5  C   UNL     1      -0.369   5.293  13.138  1.00  0.00    -0.022 C 
ATOM      6  C   UNL     1       0.241   6.396  12.240  1.00  0.00     0.008 C 
ATOM      7  C   UNL     1      -0.818   7.237  11.504  1.00  0.00     0.001 C 
ATOM      8  C   UNL     1      -1.766   6.376  10.655  1.00  0.00     0.007 C 
ATOM      9  C   UNL     1      -2.475   5.227  11.429  1.00  0.00    -0.029 C 
ATOM     10  C   UNL     1      -1.375   4.442  12.262  1.00  0.00    -0.012 C 
ATOM     11  C   UNL     1      -1.708   3.067  12.864  1.00  0.00     0.022 C 
ATOM     12  C   UNL     1      -0.861   3.136  11.594  1.00  0.00     0.017 C 
ATOM     13  C   UNL     1      -3.577   5.792  12.362  1.00  0.00     0.012 C 
ATOM     14  C   UNL     1      -3.217   4.370  10.361  1.00  0.00     0.012 C 
ATOM     15  C   UNL     1      -1.081   5.932  14.370  1.00  0.00     0.012 C 
ENDROOT
TORSDOF 0
ENDMDL
MODEL 7
REMARK VINA RESULT:    -4.981      1.456      3.454
REMARK INTER + INTRA:          -4.981
REMARK INTER:                  -4.981
REMARK INTRA:                   0.000
REMARK UNBOUND:                 0.000
REMARK SMILES CC1=CC[C@@]2(C)CCCC(C)(C)[C@@]23C[C@@H]13
REMARK SMILES IDX 1 1 2 2 3 3 4 4 5 5 7 6 8 7 9 8 10 9 13 10 15 11 14 12 11 13
REMARK SMILES IDX 12 14 6 15
REMARK H PARENT
REMARK Flexibility Score: inf
ROOT
ATOM      1  C   UNL     1      -0.998   1.052  11.275  1.00  0.00     0.039 C 
ATOM      2  C   UNL     1      -1.509   2.457  11.440  1.00  0.00    -0.074 C 
ATOM      3  C   UNL     1      -2.282   2.992  10.472  1.00  0.00    -0.027 C 
ATOM      4  C   UNL     1      -2.837   4.391  10.576  1.00  0.00     0.034 C 
ATOM      5  C   UNL     1      -1.844   5.335  11.315  1.00  0.00    -0.022 C 
ATOM      6  C   UNL     1      -2.532   6.700  11.554  1.00  0.00     0.008 C 
ATOM      7  C   UNL     1      -1.691   7.664  12.411  1.00  0.00     0.001 C 
ATOM      8  C   UNL     1      -1.308   7.059  13.770  1.00  0.00     0.007 C 
ATOM      9  C   UNL     1      -0.585   5.684  13.692  1.00  0.00    -0.029 C 
ATOM     10  C   UNL     1      -1.415   4.744  12.719  1.00  0.00    -0.012 C 
ATOM     11  C   UNL     1      -1.140   3.232  12.696  1.00  0.00     0.022 C 
ATOM     12  C   UNL     1      -2.374   3.751  13.433  1.00  0.00     0.017 C 
ATOM     13  C   UNL     1       0.870   5.856  13.186  1.00  0.00     0.012 C 
ATOM     14  C   UNL     1      -0.470   5.164  15.156  1.00  0.00     0.012 C 
ATOM     15  C   UNL     1      -0.617   5.507  10.367  1.00  0.00     0.012 C 
ENDROOT
TORSDOF 0
ENDMDL
MODEL 8
REMARK VINA RESULT:    -4.921      1.274      4.131
REMARK INTER + INTRA:          -4.921
REMARK INTER:                  -4.921
REMARK INTRA:                   0.000
REMARK UNBOUND:                 0.000
REMARK SMILES CC1=CC[C@@]2(C)CCCC(C)(C)[C@@]23C[C@@H]13
REMARK SMILES IDX 1 1 2 2 3 3 4 4 5 5 7 6 8 7 9 8 10 9 13 10 15 11 14 12 11 13
REMARK SMILES IDX 12 14 6 15
REMARK H PARENT
REMARK Flexibility Score: inf
ROOT
ATOM      1  C   UNL     1      -3.852   4.776  10.032  1.00  0.00     0.039 C 
ATOM      2  C   UNL     1      -2.747   4.726  11.051  1.00  0.00    -0.074 C 
ATOM      3  C   UNL     1      -1.581   5.351  10.787  1.00  0.00    -0.027 C 
ATOM      4  C   UNL     1      -0.434   5.349  11.768  1.00  0.00     0.034 C 
ATOM      5  C   UNL     1      -0.375   4.010  12.558  1.00  0.00    -0.022 C 
ATOM      6  C   UNL     1       0.697   4.129  13.668  1.00  0.00     0.008 C 
ATOM      7  C   UNL     1       0.737   2.911  14.609  1.00  0.00     0.001 C 
ATOM      8  C   UNL     1      -0.624   2.630  15.264  1.00  0.00     0.007 C 
ATOM      9  C   UNL     1      -1.807   2.465  14.268  1.00  0.00    -0.029 C 
ATOM     10  C   UNL     1      -1.762   3.677  13.243  1.00  0.00    -0.012 C 
ATOM     11  C   UNL     1      -2.979   3.971  12.351  1.00  0.00     0.022 C 
ATOM     12  C   UNL     1      -2.728   4.848  13.577  1.00  0.00     0.017 C 
ATOM     13  C   UNL     1      -1.714   1.108  13.524  1.00  0.00     0.012 C 
ATOM     14  C   UNL     1      -3.102   2.391  15.131  1.00  0.00     0.012 C 
ATOM     15  C   UNL     1       0.033   2.911  11.529  1.00  0.00     0.012 C 
ENDROOT
TORSDOF 0
ENDMDL
MODEL 9
REMARK VINA RESULT:    -4.649      1.836      4.527
REMARK INTER + INTRA:          -4.649
REMARK INTER:                  -4.649
REMARK INTRA:                   0.000
REMARK UNBOUND:                 0.000
REMARK SMILES CC1=CC[C@@]2(C)CCCC(C)(C)[C@@]23C[C@@H]13
REMARK SMILES IDX 1 1 2 2 3 3 4 4 5 5 7 6 8 7 9 8 10 9 13 10 15 11 14 12 11 13
REMARK SMILES IDX 12 14 6 15
REMARK H PARENT
REMARK Flexibility Score: inf
ROOT
ATOM      1  C   UNL     1       1.633   7.984  10.610  1.00  0.00     0.039 C 
ATOM      2  C   UNL     1       0.836   7.342  11.711  1.00  0.00    -0.074 C 
ATOM      3  C   UNL     1       0.941   7.825  12.967  1.00  0.00    -0.027 C 
ATOM      4  C   UNL     1       0.163   7.236  14.117  1.00  0.00     0.034 C 
ATOM      5  C   UNL     1      -0.014   5.700  13.945  1.00  0.00    -0.022 C 
ATOM      6  C   UNL     1      -0.966   5.177  15.049  1.00  0.00     0.008 C 
ATOM      7  C   UNL     1      -1.330   3.690  14.884  1.00  0.00     0.001 C 
ATOM      8  C   UNL     1      -1.949   3.385  13.512  1.00  0.00     0.007 C 
ATOM      9  C   UNL     1      -1.093   3.838  12.294  1.00  0.00    -0.029 C 
ATOM     10  C   UNL     1      -0.642   5.340  12.538  1.00  0.00    -0.012 C 
ATOM     11  C   UNL     1      -0.069   6.166  11.376  1.00  0.00     0.022 C 
ATOM     12  C   UNL     1      -1.512   6.407  11.817  1.00  0.00     0.017 C 
ATOM     13  C   UNL     1       0.137   2.913  12.114  1.00  0.00     0.012 C 
ATOM     14  C   UNL     1      -1.979   3.622  11.030  1.00  0.00     0.012 C 
ATOM     15  C   UNL     1       1.405   5.073  14.116  1.00  0.00     0.012 C 
ENDROOT
TORSDOF 0
ENDMDL
