MODEL 1
REMARK VINA RESULT:    -4.165      0.000      0.000
REMARK INTER + INTRA:          -7.565
REMARK INTER:                  -6.356
REMARK INTRA:                  -1.209
REMARK UNBOUND:                -1.209
REMARK SMILES OC[C@H]1O[C@@H](O[C@@]2(CO)O[C@H](CO)[C@@H](O)[C@H]2O)[C@H](O)[C@@H](O)[C@H]1O
REMARK SMILES IDX 6 1 5 2 3 3 22 4 4 5 20 6 18 7 2 8 1 9 23 11 21 13 19 15
REMARK SMILES IDX 7 17 16 18 10 19 14 20 11 21 8 22 9 23 17 25 15 27 12 29
REMARK SMILES IDX 13 30
REMARK H PARENT 1 10 23 12 21 14 19 16 9 24 17 26 15 28 13 31
REMARK Flexibility Score: inf
ROOT
ATOM      1  O   UNL     1       5.931  10.115  12.382  1.00  0.00    -0.313 OA
ENDROOT
BRANCH   1   2
ATOM      2  C   UNL     1       6.793   9.311  11.581  1.00  0.00     0.285 C 
ATOM      3  C   UNL     1       8.125  11.086  10.682  1.00  0.00     0.178 C 
ATOM      4  C   UNL     1       7.538  10.905   9.256  1.00  0.00     0.177 C 
ATOM      5  O   UNL     1       8.080   9.901  11.467  1.00  0.00    -0.341 OA
ATOM      6  C   UNL     1       6.171  10.197   9.235  1.00  0.00     0.179 C 
ATOM      7  C   UNL     1       6.147   8.996  10.207  1.00  0.00     0.202 C 
BRANCH   3   8
ATOM      8  C   UNL     1       7.690  12.343  11.477  1.00  0.00     0.191 C 
BRANCH   8   9
ATOM      9  O   UNL     1       6.322  12.614  11.333  1.00  0.00    -0.394 OA
ATOM     10  H   UNL     1       6.202  13.133  10.494  1.00  0.00     0.210 HD
ENDBRANCH   8   9
ENDBRANCH   3   8
BRANCH   4  11
ATOM     11  O   UNL     1       7.463  12.136   8.579  1.00  0.00    -0.387 OA
ATOM     12  H   UNL     1       7.552  12.848   9.262  1.00  0.00     0.211 HD
ENDBRANCH   4  11
BRANCH   6  13
ATOM     13  O   UNL     1       5.107  11.098   9.437  1.00  0.00    -0.387 OA
ATOM     14  H   UNL     1       4.746  10.991  10.349  1.00  0.00     0.211 HD
ENDBRANCH   6  13
BRANCH   7  15
ATOM     15  O   UNL     1       6.768   7.878   9.613  1.00  0.00    -0.385 OA
ATOM     16  H   UNL     1       6.762   7.139  10.274  1.00  0.00     0.211 HD
ENDBRANCH   7  15
ENDBRANCH   1   2
BRANCH   1  17
ATOM     17  C   UNL     1       5.556   9.497  13.616  1.00  0.00     0.224 C 
ATOM     18  C   UNL     1       6.391  10.104  14.775  1.00  0.00     0.208 C 
ATOM     19  O   UNL     1       5.808   8.100  13.574  1.00  0.00    -0.337 OA
ATOM     20  C   UNL     1       6.761   8.890  15.594  1.00  0.00     0.180 C 
ATOM     21  C   UNL     1       6.790   7.797  14.535  1.00  0.00     0.179 C 
BRANCH  17  22
ATOM     22  C   UNL     1       4.044   9.740  13.886  1.00  0.00     0.225 C 
BRANCH  22  23
ATOM     23  O   UNL     1       3.829  10.983  14.507  1.00  0.00    -0.391 OA
ATOM     24  H   UNL     1       3.518  10.788  15.430  1.00  0.00     0.210 HD
ENDBRANCH  22  23
ENDBRANCH  17  22
BRANCH  18  25
ATOM     25  O   UNL     1       7.549  10.725  14.281  1.00  0.00    -0.385 OA
ATOM     26  H   UNL     1       7.926  10.126  13.583  1.00  0.00     0.211 HD
ENDBRANCH  18  25
BRANCH  20  27
ATOM     27  O   UNL     1       8.010   9.017  16.221  1.00  0.00    -0.387 OA
ATOM     28  H   UNL     1       8.554   9.613  15.642  1.00  0.00     0.211 HD
ENDBRANCH  20  27
BRANCH  21  29
ATOM     29  C   UNL     1       6.518   6.410  15.131  1.00  0.00     0.191 C 
BRANCH  29  30
ATOM     30  O   UNL     1       5.867   6.528  16.369  1.00  0.00    -0.394 OA
ATOM     31  H   UNL     1       6.114   5.727  16.899  1.00  0.00     0.210 HD
ENDBRANCH  29  30
ENDBRANCH  21  29
ENDBRANCH   1  17
TORSDOF 13
ENDMDL
MODEL 2
REMARK VINA RESULT:    -4.123      1.140      2.316
REMARK INTER + INTRA:          -7.501
REMARK INTER:                  -6.163
REMARK INTRA:                  -1.339
REMARK UNBOUND:                -1.209
REMARK SMILES OC[C@H]1O[C@@H](O[C@@]2(CO)O[C@H](CO)[C@@H](O)[C@H]2O)[C@H](O)[C@@H](O)[C@H]1O
REMARK SMILES IDX 6 1 5 2 3 3 22 4 4 5 20 6 18 7 2 8 1 9 23 11 21 13 19 15
REMARK SMILES IDX 7 17 16 18 10 19 14 20 11 21 8 22 9 23 17 25 15 27 12 29
REMARK SMILES IDX 13 30
REMARK H PARENT 1 10 23 12 21 14 19 16 9 24 17 26 15 28 13 31
REMARK Flexibility Score: inf
ROOT
ATOM      1  O   UNL     1       6.295   9.999  12.438  1.00  0.00    -0.313 OA
ENDROOT
BRANCH   1   2
ATOM      2  C   UNL     1       5.341  10.534  11.523  1.00  0.00     0.285 C 
ATOM      3  C   UNL     1       6.324   9.678   9.514  1.00  0.00     0.178 C 
ATOM      4  C   UNL     1       6.756  11.090   9.035  1.00  0.00     0.177 C 
ATOM      5  O   UNL     1       5.199   9.696  10.386  1.00  0.00    -0.341 OA
ATOM      6  C   UNL     1       6.867  12.122  10.172  1.00  0.00     0.179 C 
ATOM      7  C   UNL     1       5.682  12.001  11.156  1.00  0.00     0.202 C 
BRANCH   3   8
ATOM      8  C   UNL     1       7.439   8.719  10.002  1.00  0.00     0.191 C 
BRANCH   8   9
ATOM      9  O   UNL     1       6.920   7.571  10.618  1.00  0.00    -0.394 OA
ATOM     10  H   UNL     1       5.955   7.514  10.388  1.00  0.00     0.210 HD
ENDBRANCH   8   9
ENDBRANCH   3   8
BRANCH   4  11
ATOM     11  O   UNL     1       7.958  11.031   8.306  1.00  0.00    -0.387 OA
ATOM     12  H   UNL     1       7.749  10.603   7.437  1.00  0.00     0.211 HD
ENDBRANCH   4  11
BRANCH   6  13
ATOM     13  O   UNL     1       8.125  12.075  10.806  1.00  0.00    -0.387 OA
ATOM     14  H   UNL     1       8.722  12.757  10.414  1.00  0.00     0.211 HD
ENDBRANCH   6  13
BRANCH   7  15
ATOM     15  O   UNL     1       4.548  12.656  10.633  1.00  0.00    -0.385 OA
ATOM     16  H   UNL     1       4.850  13.250   9.898  1.00  0.00     0.211 HD
ENDBRANCH   7  15
ENDBRANCH   1   2
BRANCH   1  17
ATOM     17  C   UNL     1       5.704   9.388  13.587  1.00  0.00     0.224 C 
ATOM     18  C   UNL     1       6.386   9.932  14.871  1.00  0.00     0.208 C 
ATOM     19  O   UNL     1       5.882   7.979  13.555  1.00  0.00    -0.337 OA
ATOM     20  C   UNL     1       6.560   8.689  15.712  1.00  0.00     0.180 C 
ATOM     21  C   UNL     1       6.689   7.609  14.646  1.00  0.00     0.179 C 
BRANCH  17  22
ATOM     22  C   UNL     1       4.184   9.715  13.632  1.00  0.00     0.225 C 
BRANCH  22  23
ATOM     23  O   UNL     1       3.867  10.525  14.736  1.00  0.00    -0.391 OA
ATOM     24  H   UNL     1       4.171  11.443  14.508  1.00  0.00     0.210 HD
ENDBRANCH  22  23
ENDBRANCH  17  22
BRANCH  18  25
ATOM     25  O   UNL     1       7.638  10.492  14.571  1.00  0.00    -0.385 OA
ATOM     26  H   UNL     1       7.580  11.462  14.777  1.00  0.00     0.211 HD
ENDBRANCH  18  25
BRANCH  20  27
ATOM     27  O   UNL     1       7.705   8.737  16.523  1.00  0.00    -0.387 OA
ATOM     28  H   UNL     1       7.937   9.697  16.623  1.00  0.00     0.211 HD
ENDBRANCH  20  27
BRANCH  21  29
ATOM     29  C   UNL     1       6.254   6.232  15.167  1.00  0.00     0.191 C 
BRANCH  29  30
ATOM     30  O   UNL     1       7.204   5.727  16.067  1.00  0.00    -0.394 OA
ATOM     31  H   UNL     1       8.041   5.594  15.553  1.00  0.00     0.210 HD
ENDBRANCH  29  30
ENDBRANCH  21  29
ENDBRANCH   1  17
TORSDOF 13
ENDMDL
MODEL 3
REMARK VINA RESULT:    -3.249      2.324      4.354
REMARK INTER + INTRA:          -6.169
REMARK INTER:                  -4.946
REMARK INTRA:                  -1.223
REMARK UNBOUND:                -1.209
REMARK SMILES OC[C@H]1O[C@@H](O[C@@]2(CO)O[C@H](CO)[C@@H](O)[C@H]2O)[C@H](O)[C@@H](O)[C@H]1O
REMARK SMILES IDX 6 1 5 2 3 3 22 4 4 5 20 6 18 7 2 8 1 9 23 11 21 13 19 15
REMARK SMILES IDX 7 17 16 18 10 19 14 20 11 21 8 22 9 23 17 25 15 27 12 29
REMARK SMILES IDX 13 30
REMARK H PARENT 1 10 23 12 21 14 19 16 9 24 17 26 15 28 13 31
REMARK Flexibility Score: inf
ROOT
ATOM      1  O   UNL     1       5.791   8.468  14.555  1.00  0.00    -0.313 OA
ENDROOT
BRANCH   1   2
ATOM      2  C   UNL     1       5.560   9.730  15.178  1.00  0.00     0.285 C 
ATOM      3  C   UNL     1       4.024  10.598  13.560  1.00  0.00     0.178 C 
ATOM      4  C   UNL     1       5.041  11.655  13.051  1.00  0.00     0.177 C 
ATOM      5  O   UNL     1       4.247  10.200  14.907  1.00  0.00    -0.341 OA
ATOM      6  C   UNL     1       6.507  11.301  13.359  1.00  0.00     0.179 C 
ATOM      7  C   UNL     1       6.661  10.751  14.795  1.00  0.00     0.202 C 
BRANCH   3   8
ATOM      8  C   UNL     1       3.718   9.399  12.628  1.00  0.00     0.191 C 
BRANCH   8   9
ATOM      9  O   UNL     1       4.835   9.014  11.873  1.00  0.00    -0.394 OA
ATOM     10  H   UNL     1       5.485   8.586  12.491  1.00  0.00     0.210 HD
ENDBRANCH   8   9
ENDBRANCH   3   8
BRANCH   4  11
ATOM     11  O   UNL     1       4.874  11.899  11.676  1.00  0.00    -0.387 OA
ATOM     12  H   UNL     1       4.113  11.340  11.374  1.00  0.00     0.211 HD
ENDBRANCH   4  11
BRANCH   6  13
ATOM     13  O   UNL     1       7.064  10.458  12.377  1.00  0.00    -0.387 OA
ATOM     14  H   UNL     1       7.991  10.737  12.184  1.00  0.00     0.211 HD
ENDBRANCH   6  13
BRANCH   7  15
ATOM     15  O   UNL     1       6.692  11.815  15.721  1.00  0.00    -0.385 OA
ATOM     16  H   UNL     1       6.098  12.533  15.381  1.00  0.00     0.211 HD
ENDBRANCH   7  15
ENDBRANCH   1   2
BRANCH   1  17
ATOM     17  C   UNL     1       6.912   7.761  15.093  1.00  0.00     0.224 C 
ATOM     18  C   UNL     1       6.546   6.263  15.264  1.00  0.00     0.208 C 
ATOM     19  O   UNL     1       7.267   8.278  16.367  1.00  0.00    -0.337 OA
ATOM     20  C   UNL     1       7.133   5.926  16.613  1.00  0.00     0.180 C 
ATOM     21  C   UNL     1       7.066   7.269  17.326  1.00  0.00     0.179 C 
BRANCH  17  22
ATOM     22  C   UNL     1       8.125   7.890  14.128  1.00  0.00     0.225 C 
BRANCH  22  23
ATOM     23  O   UNL     1       7.714   7.872  12.784  1.00  0.00    -0.391 OA
ATOM     24  H   UNL     1       8.235   8.579  12.320  1.00  0.00     0.210 HD
ENDBRANCH  22  23
ENDBRANCH  17  22
BRANCH  18  25
ATOM     25  O   UNL     1       5.153   6.090  15.285  1.00  0.00    -0.385 OA
ATOM     26  H   UNL     1       4.746   6.998  15.266  1.00  0.00     0.211 HD
ENDBRANCH  18  25
BRANCH  20  27
ATOM     27  O   UNL     1       6.391   4.952  17.302  1.00  0.00    -0.387 OA
ATOM     28  H   UNL     1       5.458   5.289  17.342  1.00  0.00     0.211 HD
ENDBRANCH  20  27
BRANCH  21  29
ATOM     29  C   UNL     1       8.125   7.389  18.430  1.00  0.00     0.191 C 
BRANCH  29  30
ATOM     30  O   UNL     1       7.684   6.756  19.603  1.00  0.00    -0.394 OA
ATOM     31  H   UNL     1       6.729   6.528  19.461  1.00  0.00     0.210 HD
ENDBRANCH  29  30
ENDBRANCH  21  29
ENDBRANCH   1  17
TORSDOF 13
ENDMDL
MODEL 4
REMARK VINA RESULT:    -3.151      1.612      5.660
REMARK INTER + INTRA:          -6.019
REMARK INTER:                  -5.380
REMARK INTRA:                  -0.639
REMARK UNBOUND:                -1.209
REMARK SMILES OC[C@H]1O[C@@H](O[C@@]2(CO)O[C@H](CO)[C@@H](O)[C@H]2O)[C@H](O)[C@@H](O)[C@H]1O
REMARK SMILES IDX 6 1 5 2 3 3 22 4 4 5 20 6 18 7 2 8 1 9 23 11 21 13 19 15
REMARK SMILES IDX 7 17 16 18 10 19 14 20 11 21 8 22 9 23 17 25 15 27 12 29
REMARK SMILES IDX 13 30
REMARK H PARENT 1 10 23 12 21 14 19 16 9 24 17 26 15 28 13 31
REMARK Flexibility Score: inf
ROOT
ATOM      1  O   UNL     1       6.583  10.935  12.973  1.00  0.00    -0.313 OA
ENDROOT
BRANCH   1   2
ATOM      2  C   UNL     1       7.578  10.316  13.786  1.00  0.00     0.285 C 
ATOM      3  C   UNL     1       7.168   8.056  13.110  1.00  0.00     0.178 C 
ATOM      4  C   UNL     1       6.582   7.669  14.495  1.00  0.00     0.177 C 
ATOM      5  O   UNL     1       8.085   9.143  13.167  1.00  0.00    -0.341 OA
ATOM      6  C   UNL     1       6.070   8.872  15.308  1.00  0.00     0.179 C 
ATOM      7  C   UNL     1       7.050  10.065  15.221  1.00  0.00     0.202 C 
BRANCH   3   8
ATOM      8  C   UNL     1       6.176   8.176  11.926  1.00  0.00     0.191 C 
BRANCH   8   9
ATOM      9  O   UNL     1       5.013   8.875  12.276  1.00  0.00    -0.394 OA
ATOM     10  H   UNL     1       4.367   8.783  11.528  1.00  0.00     0.210 HD
ENDBRANCH   8   9
ENDBRANCH   3   8
BRANCH   4  11
ATOM     11  O   UNL     1       5.572   6.699  14.364  1.00  0.00    -0.387 OA
ATOM     12  H   UNL     1       4.706   7.181  14.369  1.00  0.00     0.211 HD
ENDBRANCH   4  11
BRANCH   6  13
ATOM     13  O   UNL     1       4.746   9.213  14.969  1.00  0.00    -0.387 OA
ATOM     14  H   UNL     1       4.616   9.121  13.995  1.00  0.00     0.211 HD
ENDBRANCH   6  13
BRANCH   7  15
ATOM     15  O   UNL     1       8.123   9.878  16.117  1.00  0.00    -0.385 OA
ATOM     16  H   UNL     1       7.999   9.000  16.562  1.00  0.00     0.211 HD
ENDBRANCH   7  15
ENDBRANCH   1   2
BRANCH   1  17
ATOM     17  C   UNL     1       7.123  11.759  11.937  1.00  0.00     0.224 C 
ATOM     18  C   UNL     1       5.972  12.518  11.225  1.00  0.00     0.208 C 
ATOM     19  O   UNL     1       7.797  10.969  10.968  1.00  0.00    -0.337 OA
ATOM     20  C   UNL     1       6.347  12.407   9.767  1.00  0.00     0.180 C 
ATOM     21  C   UNL     1       7.116  11.094   9.743  1.00  0.00     0.179 C 
BRANCH  17  22
ATOM     22  C   UNL     1       8.119  12.786  12.548  1.00  0.00     0.225 C 
BRANCH  22  23
ATOM     23  O   UNL     1       7.793  13.082  13.883  1.00  0.00    -0.391 OA
ATOM     24  H   UNL     1       8.534  13.640  14.237  1.00  0.00     0.210 HD
ENDBRANCH  22  23
ENDBRANCH  17  22
BRANCH  18  25
ATOM     25  O   UNL     1       4.740  11.886  11.458  1.00  0.00    -0.385 OA
ATOM     26  H   UNL     1       4.190  12.009  10.640  1.00  0.00     0.211 HD
ENDBRANCH  18  25
BRANCH  20  27
ATOM     27  O   UNL     1       5.228  12.350   8.920  1.00  0.00    -0.387 OA
ATOM     28  H   UNL     1       4.970  13.291   8.735  1.00  0.00     0.211 HD
ENDBRANCH  20  27
BRANCH  21  29
ATOM     29  C   UNL     1       8.122  11.036   8.585  1.00  0.00     0.191 C 
BRANCH  29  30
ATOM     30  O   UNL     1       8.056   9.792   7.940  1.00  0.00    -0.394 OA
ATOM     31  H   UNL     1       7.189   9.765   7.461  1.00  0.00     0.210 HD
ENDBRANCH  29  30
ENDBRANCH  21  29
ENDBRANCH   1  17
TORSDOF 13
ENDMDL
MODEL 5
REMARK VINA RESULT:    -2.931     20.790     24.178
REMARK INTER + INTRA:          -5.682
REMARK INTER:                  -4.860
REMARK INTRA:                  -0.822
REMARK UNBOUND:                -1.209
REMARK SMILES OC[C@H]1O[C@@H](O[C@@]2(CO)O[C@H](CO)[C@@H](O)[C@H]2O)[C@H](O)[C@@H](O)[C@H]1O
REMARK SMILES IDX 6 1 5 2 3 3 22 4 4 5 20 6 18 7 2 8 1 9 23 11 21 13 19 15
REMARK SMILES IDX 7 17 16 18 10 19 14 20 11 21 8 22 9 23 17 25 15 27 12 29
REMARK SMILES IDX 13 30
REMARK H PARENT 1 10 23 12 21 14 19 16 9 24 17 26 15 28 13 31
REMARK Flexibility Score: inf
ROOT
ATOM      1  O   UNL     1      -9.664  -1.414  25.892  1.00  0.00    -0.313 OA
ENDROOT
BRANCH   1   2
ATOM      2  C   UNL     1     -10.194  -0.132  26.222  1.00  0.00     0.285 C 
ATOM      3  C   UNL     1      -8.545   1.185  25.090  1.00  0.00     0.178 C 
ATOM      4  C   UNL     1      -7.937   1.704  26.422  1.00  0.00     0.177 C 
ATOM      5  O   UNL     1      -9.914   0.814  25.199  1.00  0.00    -0.341 OA
ATOM      6  C   UNL     1      -8.243   0.804  27.633  1.00  0.00     0.179 C 
ATOM      7  C   UNL     1      -9.713   0.328  27.622  1.00  0.00     0.202 C 
BRANCH   3   8
ATOM      8  C   UNL     1      -7.713   0.160  24.280  1.00  0.00     0.191 C 
BRANCH   8   9
ATOM      9  O   UNL     1      -7.895   0.302  22.898  1.00  0.00    -0.394 OA
ATOM     10  H   UNL     1      -8.754  -0.135  22.658  1.00  0.00     0.210 HD
ENDBRANCH   8   9
ENDBRANCH   3   8
BRANCH   4  11
ATOM     11  O   UNL     1      -6.551   1.910  26.300  1.00  0.00    -0.387 OA
ATOM     12  H   UNL     1      -6.171   1.871  27.215  1.00  0.00     0.211 HD
ENDBRANCH   4  11
BRANCH   6  13
ATOM     13  O   UNL     1      -7.317  -0.251  27.753  1.00  0.00    -0.387 OA
ATOM     14  H   UNL     1      -6.464   0.002  27.325  1.00  0.00     0.211 HD
ENDBRANCH   6  13
BRANCH   7  15
ATOM     15  O   UNL     1     -10.555   1.342  28.125  1.00  0.00    -0.385 OA
ATOM     16  H   UNL     1     -11.477   0.979  28.166  1.00  0.00     0.211 HD
ENDBRANCH   7  15
ENDBRANCH   1   2
BRANCH   1  17
ATOM     17  C   UNL     1     -10.666  -2.419  25.718  1.00  0.00     0.224 C 
ATOM     18  C   UNL     1     -10.778  -3.268  27.012  1.00  0.00     0.208 C 
ATOM     19  O   UNL     1     -10.325  -3.287  24.647  1.00  0.00    -0.337 OA
ATOM     20  C   UNL     1     -10.892  -4.677  26.480  1.00  0.00     0.180 C 
ATOM     21  C   UNL     1     -10.123  -4.577  25.170  1.00  0.00     0.179 C 
BRANCH  17  22
ATOM     22  C   UNL     1     -12.037  -1.746  25.420  1.00  0.00     0.225 C 
BRANCH  22  23
ATOM     23  O   UNL     1     -12.125  -1.336  24.078  1.00  0.00    -0.391 OA
ATOM     24  H   UNL     1     -11.705  -2.054  23.535  1.00  0.00     0.210 HD
ENDBRANCH  22  23
ENDBRANCH  17  22
BRANCH  18  25
ATOM     25  O   UNL     1      -9.620  -3.138  27.794  1.00  0.00    -0.385 OA
ATOM     26  H   UNL     1      -9.778  -3.643  28.636  1.00  0.00     0.211 HD
ENDBRANCH  18  25
BRANCH  20  27
ATOM     27  O   UNL     1     -10.312  -5.629  27.334  1.00  0.00    -0.387 OA
ATOM     28  H   UNL     1      -9.544  -6.017  26.839  1.00  0.00     0.211 HD
ENDBRANCH  20  27
BRANCH  21  29
ATOM     29  C   UNL     1     -10.587  -5.626  24.150  1.00  0.00     0.191 C 
BRANCH  29  30
ATOM     30  O   UNL     1     -11.309  -6.646  24.789  1.00  0.00    -0.394 OA
ATOM     31  H   UNL     1     -10.699  -7.425  24.860  1.00  0.00     0.210 HD
ENDBRANCH  29  30
ENDBRANCH  21  29
ENDBRANCH   1  17
TORSDOF 13
ENDMDL
MODEL 6
REMARK VINA RESULT:    -2.638     21.251     24.600
REMARK INTER + INTRA:          -5.236
REMARK INTER:                  -4.825
REMARK INTRA:                  -0.410
REMARK UNBOUND:                -1.209
REMARK SMILES OC[C@H]1O[C@@H](O[C@@]2(CO)O[C@H](CO)[C@@H](O)[C@H]2O)[C@H](O)[C@@H](O)[C@H]1O
REMARK SMILES IDX 6 1 5 2 3 3 22 4 4 5 20 6 18 7 2 8 1 9 23 11 21 13 19 15
REMARK SMILES IDX 7 17 16 18 10 19 14 20 11 21 8 22 9 23 17 25 15 27 12 29
REMARK SMILES IDX 13 30
REMARK H PARENT 1 10 23 12 21 14 19 16 9 24 17 26 15 28 13 31
REMARK Flexibility Score: inf
ROOT
ATOM      1  O   UNL     1      -9.840  -1.616  26.463  1.00  0.00    -0.313 OA
ENDROOT
BRANCH   1   2
ATOM      2  C   UNL     1     -11.102  -1.639  25.799  1.00  0.00     0.285 C 
ATOM      3  C   UNL     1     -12.041  -3.495  26.985  1.00  0.00     0.178 C 
ATOM      4  C   UNL     1     -11.988  -4.416  25.735  1.00  0.00     0.177 C 
ATOM      5  O   UNL     1     -12.124  -2.111  26.665  1.00  0.00    -0.341 OA
ATOM      6  C   UNL     1     -10.968  -3.961  24.675  1.00  0.00     0.179 C 
ATOM      7  C   UNL     1     -11.019  -2.431  24.469  1.00  0.00     0.202 C 
BRANCH   3   8
ATOM      8  C   UNL     1     -11.033  -3.783  28.125  1.00  0.00     0.191 C 
BRANCH   8   9
ATOM      9  O   UNL     1      -9.863  -4.398  27.656  1.00  0.00    -0.394 OA
ATOM     10  H   UNL     1     -10.120  -5.021  26.927  1.00  0.00     0.210 HD
ENDBRANCH   8   9
ENDBRANCH   3   8
BRANCH   4  11
ATOM     11  O   UNL     1     -11.751  -5.754  26.102  1.00  0.00    -0.387 OA
ATOM     12  H   UNL     1     -11.499  -6.240  25.276  1.00  0.00     0.211 HD
ENDBRANCH   4  11
BRANCH   6  13
ATOM     13  O   UNL     1      -9.673  -4.444  24.947  1.00  0.00    -0.387 OA
ATOM     14  H   UNL     1      -9.413  -4.204  25.868  1.00  0.00     0.211 HD
ENDBRANCH   6  13
BRANCH   7  15
ATOM     15  O   UNL     1     -12.095  -2.090  23.624  1.00  0.00    -0.385 OA
ATOM     16  H   UNL     1     -12.787  -1.643  24.176  1.00  0.00     0.211 HD
ENDBRANCH   7  15
ENDBRANCH   1   2
BRANCH   1  17
ATOM     17  C   UNL     1      -9.494  -0.333  26.989  1.00  0.00     0.224 C 
ATOM     18  C   UNL     1      -9.284   0.667  25.821  1.00  0.00     0.208 C 
ATOM     19  O   UNL     1      -8.286  -0.403  27.733  1.00  0.00    -0.337 OA
ATOM     20  C   UNL     1      -8.049   1.425  26.245  1.00  0.00     0.180 C 
ATOM     21  C   UNL     1      -7.319   0.384  27.083  1.00  0.00     0.179 C 
BRANCH  17  22
ATOM     22  C   UNL     1     -10.637   0.182  27.910  1.00  0.00     0.225 C 
BRANCH  22  23
ATOM     23  O   UNL     1     -10.627   1.584  28.004  1.00  0.00    -0.391 OA
ATOM     24  H   UNL     1     -10.380   1.803  28.941  1.00  0.00     0.210 HD
ENDBRANCH  22  23
ENDBRANCH  17  22
BRANCH  18  25
ATOM     25  O   UNL     1      -9.045  -0.016  24.619  1.00  0.00    -0.385 OA
ATOM     26  H   UNL     1      -8.399  -0.745  24.821  1.00  0.00     0.211 HD
ENDBRANCH  18  25
BRANCH  20  27
ATOM     27  O   UNL     1      -7.263   1.836  25.156  1.00  0.00    -0.387 OA
ATOM     28  H   UNL     1      -6.679   2.565  25.493  1.00  0.00     0.211 HD
ENDBRANCH  20  27
BRANCH  21  29
ATOM     29  C   UNL     1      -6.395   1.030  28.125  1.00  0.00     0.191 C 
BRANCH  29  30
ATOM     30  O   UNL     1      -5.771   2.166  27.588  1.00  0.00    -0.394 OA
ATOM     31  H   UNL     1      -4.800   1.967  27.549  1.00  0.00     0.210 HD
ENDBRANCH  29  30
ENDBRANCH  21  29
ENDBRANCH   1  17
TORSDOF 13
ENDMDL
MODEL 7
REMARK VINA RESULT:    -2.600     21.778     24.507
REMARK INTER + INTRA:          -5.178
REMARK INTER:                  -3.739
REMARK INTRA:                  -1.439
REMARK UNBOUND:                -1.209
REMARK SMILES OC[C@H]1O[C@@H](O[C@@]2(CO)O[C@H](CO)[C@@H](O)[C@H]2O)[C@H](O)[C@@H](O)[C@H]1O
REMARK SMILES IDX 6 1 5 2 3 3 22 4 4 5 20 6 18 7 2 8 1 9 23 11 21 13 19 15
REMARK SMILES IDX 7 17 16 18 10 19 14 20 11 21 8 22 9 23 17 25 15 27 12 29
REMARK SMILES IDX 13 30
REMARK H PARENT 1 10 23 12 21 14 19 16 9 24 17 26 15 28 13 31
REMARK Flexibility Score: inf
ROOT
ATOM      1  O   UNL     1     -10.627  -1.043  26.044  1.00  0.00    -0.313 OA
ENDROOT
BRANCH   1   2
ATOM      2  C   UNL     1      -9.620  -0.500  25.193  1.00  0.00     0.285 C 
ATOM      3  C   UNL     1      -7.933  -0.195  26.866  1.00  0.00     0.178 C 
ATOM      4  C   UNL     1      -8.045   1.353  26.801  1.00  0.00     0.177 C 
ATOM      5  O   UNL     1      -8.321  -0.840  25.659  1.00  0.00    -0.341 OA
ATOM      6  C   UNL     1      -9.384   1.853  26.232  1.00  0.00     0.179 C 
ATOM      7  C   UNL     1      -9.814   1.026  25.000  1.00  0.00     0.202 C 
BRANCH   3   8
ATOM      8  C   UNL     1      -8.499  -0.898  28.125  1.00  0.00     0.191 C 
BRANCH   8   9
ATOM      9  O   UNL     1      -8.781  -2.251  27.895  1.00  0.00    -0.394 OA
ATOM     10  H   UNL     1      -9.709  -2.313  27.545  1.00  0.00     0.210 HD
ENDBRANCH   8   9
ENDBRANCH   3   8
BRANCH   4  11
ATOM     11  O   UNL     1      -7.800   1.931  28.061  1.00  0.00    -0.387 OA
ATOM     12  H   UNL     1      -8.416   1.495  28.703  1.00  0.00     0.211 HD
ENDBRANCH   4  11
BRANCH   6  13
ATOM     13  O   UNL     1     -10.381   1.936  27.224  1.00  0.00    -0.387 OA
ATOM     14  H   UNL     1     -10.102   2.568  27.928  1.00  0.00     0.211 HD
ENDBRANCH   6  13
BRANCH   7  15
ATOM     15  O   UNL     1      -9.126   1.470  23.852  1.00  0.00    -0.385 OA
ATOM     16  H   UNL     1      -8.315   1.956  24.152  1.00  0.00     0.211 HD
ENDBRANCH   7  15
ENDBRANCH   1   2
BRANCH   1  17
ATOM     17  C   UNL     1     -11.240  -2.224  25.522  1.00  0.00     0.224 C 
ATOM     18  C   UNL     1     -12.124  -2.877  26.618  1.00  0.00     0.208 C 
ATOM     19  O   UNL     1     -10.256  -3.169  25.127  1.00  0.00    -0.337 OA
ATOM     20  C   UNL     1     -11.812  -4.347  26.470  1.00  0.00     0.180 C 
ATOM     21  C   UNL     1     -10.386  -4.310  25.939  1.00  0.00     0.179 C 
BRANCH  17  22
ATOM     22  C   UNL     1     -12.125  -1.858  24.296  1.00  0.00     0.225 C 
BRANCH  22  23
ATOM     23  O   UNL     1     -11.892  -2.730  23.219  1.00  0.00    -0.391 OA
ATOM     24  H   UNL     1     -12.399  -3.561  23.414  1.00  0.00     0.210 HD
ENDBRANCH  22  23
ENDBRANCH  17  22
BRANCH  18  25
ATOM     25  O   UNL     1     -11.747  -2.428  27.894  1.00  0.00    -0.385 OA
ATOM     26  H   UNL     1     -12.094  -1.502  27.991  1.00  0.00     0.211 HD
ENDBRANCH  18  25
BRANCH  20  27
ATOM     27  O   UNL     1     -11.879  -5.042  27.688  1.00  0.00    -0.387 OA
ATOM     28  H   UNL     1     -12.824  -4.986  27.990  1.00  0.00     0.211 HD
ENDBRANCH  20  27
BRANCH  21  29
ATOM     29  C   UNL     1     -10.042  -5.565  25.125  1.00  0.00     0.191 C 
BRANCH  29  30
ATOM     30  O   UNL     1      -9.969  -5.256  23.758  1.00  0.00    -0.394 OA
ATOM     31  H   UNL     1      -9.008  -5.130  23.546  1.00  0.00     0.210 HD
ENDBRANCH  29  30
ENDBRANCH  21  29
ENDBRANCH   1  17
TORSDOF 13
ENDMDL
MODEL 8
REMARK VINA RESULT:    -1.525     24.068     25.548
REMARK INTER + INTRA:          -3.537
REMARK INTER:                  -2.606
REMARK INTRA:                  -0.931
REMARK UNBOUND:                -1.209
REMARK SMILES OC[C@H]1O[C@@H](O[C@@]2(CO)O[C@H](CO)[C@@H](O)[C@H]2O)[C@H](O)[C@@H](O)[C@H]1O
REMARK SMILES IDX 6 1 5 2 3 3 22 4 4 5 20 6 18 7 2 8 1 9 23 11 21 13 19 15
REMARK SMILES IDX 7 17 16 18 10 19 14 20 11 21 8 22 9 23 17 25 15 27 12 29
REMARK SMILES IDX 13 30
REMARK H PARENT 1 10 23 12 21 14 19 16 9 24 17 26 15 28 13 31
REMARK Flexibility Score: inf
ROOT
ATOM      1  O   UNL     1      -9.913  -4.833  24.751  1.00  0.00    -0.313 OA
ENDROOT
BRANCH   1   2
ATOM      2  C   UNL     1     -10.970  -4.668  25.693  1.00  0.00     0.285 C 
ATOM      3  C   UNL     1     -11.999  -2.762  24.672  1.00  0.00     0.178 C 
ATOM      4  C   UNL     1     -11.564  -1.816  25.825  1.00  0.00     0.177 C 
ATOM      5  O   UNL     1     -12.125  -4.121  25.073  1.00  0.00    -0.341 OA
ATOM      6  C   UNL     1     -10.363  -2.339  26.633  1.00  0.00     0.179 C 
ATOM      7  C   UNL     1     -10.498  -3.851  26.923  1.00  0.00     0.202 C 
BRANCH   3   8
ATOM      8  C   UNL     1     -11.275  -2.608  23.312  1.00  0.00     0.191 C 
BRANCH   8   9
ATOM      9  O   UNL     1     -11.791  -3.470  22.335  1.00  0.00    -0.394 OA
ATOM     10  H   UNL     1     -12.044  -2.920  21.547  1.00  0.00     0.210 HD
ENDBRANCH   8   9
ENDBRANCH   3   8
BRANCH   4  11
ATOM     11  O   UNL     1     -11.305  -0.519  25.344  1.00  0.00    -0.387 OA
ATOM     12  H   UNL     1     -10.550  -0.592  24.707  1.00  0.00     0.211 HD
ENDBRANCH   4  11
BRANCH   6  13
ATOM     13  O   UNL     1      -9.134  -1.994  26.037  1.00  0.00    -0.387 OA
ATOM     14  H   UNL     1      -8.517  -2.763  26.073  1.00  0.00     0.211 HD
ENDBRANCH   6  13
BRANCH   7  15
ATOM     15  O   UNL     1     -11.364  -4.060  28.017  1.00  0.00    -0.385 OA
ATOM     16  H   UNL     1     -10.807  -4.262  28.812  1.00  0.00     0.211 HD
ENDBRANCH   7  15
ENDBRANCH   1   2
BRANCH   1  17
ATOM     17  C   UNL     1      -9.952  -6.086  24.063  1.00  0.00     0.224 C 
ATOM     18  C   UNL     1      -8.505  -6.610  23.858  1.00  0.00     0.208 C 
ATOM     19  O   UNL     1     -10.553  -5.939  22.785  1.00  0.00    -0.337 OA
ATOM     20  C   UNL     1      -8.532  -7.125  22.439  1.00  0.00     0.180 C 
ATOM     21  C   UNL     1      -9.588  -6.231  21.804  1.00  0.00     0.179 C 
BRANCH  17  22
ATOM     22  C   UNL     1     -10.762  -7.118  24.898  1.00  0.00     0.225 C 
BRANCH  22  23
ATOM     23  O   UNL     1     -12.118  -7.123  24.529  1.00  0.00    -0.391 OA
ATOM     24  H   UNL     1     -12.307  -6.231  24.135  1.00  0.00     0.210 HD
ENDBRANCH  22  23
ENDBRANCH  17  22
BRANCH  18  25
ATOM     25  O   UNL     1      -7.576  -5.565  23.977  1.00  0.00    -0.385 OA
ATOM     26  H   UNL     1      -8.093  -4.733  24.149  1.00  0.00     0.211 HD
ENDBRANCH  18  25
BRANCH  20  27
ATOM     27  O   UNL     1      -7.296  -6.986  21.787  1.00  0.00    -0.387 OA
ATOM     28  H   UNL     1      -7.405  -7.400  20.891  1.00  0.00     0.211 HD
ENDBRANCH  20  27
BRANCH  21  29
ATOM     29  C   UNL     1     -10.263  -6.903  20.600  1.00  0.00     0.191 C 
BRANCH  29  30
ATOM     30  O   UNL     1     -11.249  -6.063  20.060  1.00  0.00    -0.394 OA
ATOM     31  H   UNL     1     -10.941  -5.132  20.205  1.00  0.00     0.210 HD
ENDBRANCH  29  30
ENDBRANCH  21  29
ENDBRANCH   1  17
TORSDOF 13
ENDMDL
