MODEL 1
REMARK VINA RESULT:    -5.330      0.000      0.000
REMARK INTER + INTRA:          -8.081
REMARK INTER:                  -7.822
REMARK INTRA:                  -0.259
REMARK UNBOUND:                -0.259
REMARK SMILES O=C([O-])CCCCCCCC(=O)[O-]
REMARK SMILES IDX 7 1 6 2 5 3 4 4 2 5 1 6 3 7 8 8 9 9 10 10 11 11 12 12 13 13
REMARK H PARENT
REMARK Flexibility Score: inf
ROOT
ATOM      1  C   UNL     1     -12.390   0.527  -9.646  1.00  0.00     0.000 C 
ENDROOT
BRANCH   1   2
ATOM      2  C   UNL     1     -13.880   0.883  -9.689  1.00  0.00     0.000 C 
BRANCH   2   3
ATOM      3  C   UNL     1     -14.113   2.336  -9.252  1.00  0.00     0.006 C 
BRANCH   3   4
ATOM      4  C   UNL     1     -12.862   3.206  -9.436  1.00  0.00     0.053 C 
BRANCH   4   5
ATOM      5  C   UNL     1     -12.372   3.759  -8.133  1.00  0.00     0.041 C 
ATOM      6  O   UNL     1     -11.139   3.776  -7.877  1.00  0.00    -0.550 OA
ATOM      7  O   UNL     1     -13.278   4.224  -7.188  1.00  0.00    -0.550 OA
ENDBRANCH   4   5
ENDBRANCH   3   4
ENDBRANCH   2   3
ENDBRANCH   1   2
BRANCH   1   8
ATOM      8  C   UNL     1     -12.123  -0.813 -10.346  1.00  0.00     0.000 C 
BRANCH   8   9
ATOM      9  C   UNL     1     -10.704  -1.351 -10.086  1.00  0.00     0.006 C 
BRANCH   9  10
ATOM     10  C   UNL     1     -10.537  -2.064  -8.734  1.00  0.00     0.053 C 
BRANCH  10  11
ATOM     11  C   UNL     1     -10.046  -3.470  -8.896  1.00  0.00     0.041 C 
ATOM     12  O   UNL     1     -10.827  -4.370  -9.303  1.00  0.00    -0.550 OA
ATOM     13  O   UNL     1      -8.718  -3.779  -8.632  1.00  0.00    -0.550 OA
ENDBRANCH  10  11
ENDBRANCH   9  10
ENDBRANCH   8   9
ENDBRANCH   1   8
TORSDOF 8
ENDMDL
MODEL 2
REMARK VINA RESULT:    -5.266      1.543      5.870
REMARK INTER + INTRA:          -7.988
REMARK INTER:                  -7.505
REMARK INTRA:                  -0.482
REMARK UNBOUND:                -0.259
REMARK SMILES O=C([O-])CCCCCCCC(=O)[O-]
REMARK SMILES IDX 7 1 6 2 5 3 4 4 2 5 1 6 3 7 8 8 9 9 10 10 11 11 12 12 13 13
REMARK H PARENT
REMARK Flexibility Score: inf
ROOT
ATOM      1  C   UNL     1     -15.093   0.156  -9.680  1.00  0.00     0.000 C 
ENDROOT
BRANCH   1   2
ATOM      2  C   UNL     1     -14.501  -0.662 -10.833  1.00  0.00     0.000 C 
BRANCH   2   3
ATOM      3  C   UNL     1     -13.258  -1.440 -10.375  1.00  0.00     0.006 C 
BRANCH   3   4
ATOM      4  C   UNL     1     -11.987  -0.581 -10.421  1.00  0.00     0.053 C 
BRANCH   4   5
ATOM      5  C   UNL     1     -10.804  -1.308  -9.858  1.00  0.00     0.041 C 
ATOM      6  O   UNL     1     -10.627  -1.360  -8.613  1.00  0.00    -0.550 OA
ATOM      7  O   UNL     1      -9.881  -1.901 -10.710  1.00  0.00    -0.550 OA
ENDBRANCH   4   5
ENDBRANCH   3   4
ENDBRANCH   2   3
ENDBRANCH   1   2
BRANCH   1   8
ATOM      8  C   UNL     1     -15.054   1.659  -9.995  1.00  0.00     0.000 C 
BRANCH   8   9
ATOM      9  C   UNL     1     -14.327   2.478  -8.913  1.00  0.00     0.006 C 
BRANCH   9  10
ATOM     10  C   UNL     1     -12.881   2.855  -9.271  1.00  0.00     0.053 C 
BRANCH  10  11
ATOM     11  C   UNL     1     -12.231   3.676  -8.199  1.00  0.00     0.041 C 
ATOM     12  O   UNL     1     -10.986   3.863  -8.212  1.00  0.00    -0.550 OA
ATOM     13  O   UNL     1     -13.004   4.263  -7.206  1.00  0.00    -0.550 OA
ENDBRANCH  10  11
ENDBRANCH   9  10
ENDBRANCH   8   9
ENDBRANCH   1   8
TORSDOF 8
ENDMDL
MODEL 3
REMARK VINA RESULT:    -5.168      1.199      6.436
REMARK INTER + INTRA:          -7.844
REMARK INTER:                  -7.465
REMARK INTRA:                  -0.379
REMARK UNBOUND:                -0.259
REMARK SMILES O=C([O-])CCCCCCCC(=O)[O-]
REMARK SMILES IDX 7 1 6 2 5 3 4 4 2 5 1 6 3 7 8 8 9 9 10 10 11 11 12 12 13 13
REMARK H PARENT
REMARK Flexibility Score: inf
ROOT
ATOM      1  C   UNL     1     -13.546  -0.601 -10.473  1.00  0.00     0.000 C 
ENDROOT
BRANCH   1   2
ATOM      2  C   UNL     1     -12.240   0.019  -9.963  1.00  0.00     0.000 C 
BRANCH   2   3
ATOM      3  C   UNL     1     -11.050  -0.919 -10.213  1.00  0.00     0.006 C 
BRANCH   3   4
ATOM      4  C   UNL     1     -10.774  -1.840  -9.016  1.00  0.00     0.053 C 
BRANCH   4   5
ATOM      5  C   UNL     1     -10.703  -3.278  -9.427  1.00  0.00     0.041 C 
ATOM      6  O   UNL     1     -10.008  -3.619 -10.420  1.00  0.00    -0.550 OA
ATOM      7  O   UNL     1     -11.428  -4.238  -8.732  1.00  0.00    -0.550 OA
ENDBRANCH   4   5
ENDBRANCH   3   4
ENDBRANCH   2   3
ENDBRANCH   1   2
BRANCH   1   8
ATOM      8  C   UNL     1     -14.764   0.173  -9.948  1.00  0.00     0.000 C 
BRANCH   8   9
ATOM      9  C   UNL     1     -14.612   1.698 -10.093  1.00  0.00     0.006 C 
BRANCH   9  10
ATOM     10  C   UNL     1     -14.846   2.483  -8.793  1.00  0.00     0.053 C 
BRANCH  10  11
ATOM     11  C   UNL     1     -13.729   3.439  -8.503  1.00  0.00     0.041 C 
ATOM     12  O   UNL     1     -13.782   4.188  -7.493  1.00  0.00    -0.550 OA
ATOM     13  O   UNL     1     -12.613   3.476  -9.329  1.00  0.00    -0.550 OA
ENDBRANCH  10  11
ENDBRANCH   9  10
ENDBRANCH   8   9
ENDBRANCH   1   8
TORSDOF 8
ENDMDL
MODEL 4
REMARK VINA RESULT:    -5.006      1.334      1.791
REMARK INTER + INTRA:          -7.606
REMARK INTER:                  -7.191
REMARK INTRA:                  -0.415
REMARK UNBOUND:                -0.259
REMARK SMILES O=C([O-])CCCCCCCC(=O)[O-]
REMARK SMILES IDX 7 1 6 2 5 3 4 4 2 5 1 6 3 7 8 8 9 9 10 10 11 11 12 12 13 13
REMARK H PARENT
REMARK Flexibility Score: inf
ROOT
ATOM      1  C   UNL     1     -11.391  -0.577 -10.378  1.00  0.00     0.000 C 
ENDROOT
BRANCH   1   2
ATOM      2  C   UNL     1     -12.923  -0.618 -10.351  1.00  0.00     0.000 C 
BRANCH   2   3
ATOM      3  C   UNL     1     -13.500   0.694  -9.800  1.00  0.00     0.006 C 
BRANCH   3   4
ATOM      4  C   UNL     1     -12.405   1.648  -9.305  1.00  0.00     0.053 C 
BRANCH   4   5
ATOM      5  C   UNL     1     -12.948   3.011  -9.003  1.00  0.00     0.041 C 
ATOM      6  O   UNL     1     -12.181   4.009  -8.987  1.00  0.00    -0.550 OA
ATOM      7  O   UNL     1     -14.296   3.173  -8.708  1.00  0.00    -0.550 OA
ENDBRANCH   4   5
ENDBRANCH   3   4
ENDBRANCH   2   3
ENDBRANCH   1   2
BRANCH   1   8
ATOM      8  C   UNL     1     -10.794  -1.771  -9.619  1.00  0.00     0.000 C 
BRANCH   8   9
ATOM      9  C   UNL     1     -11.763  -2.964  -9.527  1.00  0.00     0.006 C 
BRANCH   9  10
ATOM     10  C   UNL     1     -11.083  -4.309  -9.223  1.00  0.00     0.053 C 
BRANCH  10  11
ATOM     11  C   UNL     1     -10.216  -4.239  -8.004  1.00  0.00     0.041 C 
ATOM     12  O   UNL     1     -10.736  -4.138  -6.862  1.00  0.00    -0.550 OA
ATOM     13  O   UNL     1      -8.835  -4.322  -8.126  1.00  0.00    -0.550 OA
ENDBRANCH  10  11
ENDBRANCH   9  10
ENDBRANCH   8   9
ENDBRANCH   1   8
TORSDOF 8
ENDMDL
MODEL 5
REMARK VINA RESULT:    -4.906      1.255      7.057
REMARK INTER + INTRA:          -7.458
REMARK INTER:                  -7.313
REMARK INTRA:                  -0.145
REMARK UNBOUND:                -0.259
REMARK SMILES O=C([O-])CCCCCCCC(=O)[O-]
REMARK SMILES IDX 7 1 6 2 5 3 4 4 2 5 1 6 3 7 8 8 9 9 10 10 11 11 12 12 13 13
REMARK H PARENT
REMARK Flexibility Score: inf
ROOT
ATOM      1  C   UNL     1     -11.154  -0.929 -10.357  1.00  0.00     0.000 C 
ENDROOT
BRANCH   1   2
ATOM      2  C   UNL     1     -10.717  -1.788  -9.165  1.00  0.00     0.000 C 
BRANCH   2   3
ATOM      3  C   UNL     1     -10.041  -3.083  -9.637  1.00  0.00     0.006 C 
BRANCH   3   4
ATOM      4  C   UNL     1      -9.581  -3.960  -8.464  1.00  0.00     0.053 C 
BRANCH   4   5
ATOM      5  C   UNL     1     -10.571  -5.042  -8.157  1.00  0.00     0.041 C 
ATOM      6  O   UNL     1     -11.775  -4.914  -8.500  1.00  0.00    -0.550 OA
ATOM      7  O   UNL     1     -10.170  -6.176  -7.462  1.00  0.00    -0.550 OA
ENDBRANCH   4   5
ENDBRANCH   3   4
ENDBRANCH   2   3
ENDBRANCH   1   2
BRANCH   1   8
ATOM      8  C   UNL     1     -12.410  -0.114 -10.018  1.00  0.00     0.000 C 
BRANCH   8   9
ATOM      9  C   UNL     1     -12.094   1.174  -9.236  1.00  0.00     0.006 C 
BRANCH   9  10
ATOM     10  C   UNL     1     -13.135   2.291  -9.409  1.00  0.00     0.053 C 
BRANCH  10  11
ATOM     11  C   UNL     1     -12.762   3.531  -8.655  1.00  0.00     0.041 C 
ATOM     12  O   UNL     1     -13.611   4.442  -8.476  1.00  0.00    -0.550 OA
ATOM     13  O   UNL     1     -11.487   3.663  -8.121  1.00  0.00    -0.550 OA
ENDBRANCH  10  11
ENDBRANCH   9  10
ENDBRANCH   8   9
ENDBRANCH   1   8
TORSDOF 8
ENDMDL
MODEL 6
REMARK VINA RESULT:    -4.698      2.555      7.131
REMARK INTER + INTRA:          -7.154
REMARK INTER:                  -6.924
REMARK INTRA:                  -0.231
REMARK UNBOUND:                -0.259
REMARK SMILES O=C([O-])CCCCCCCC(=O)[O-]
REMARK SMILES IDX 7 1 6 2 5 3 4 4 2 5 1 6 3 7 8 8 9 9 10 10 11 11 12 12 13 13
REMARK H PARENT
REMARK Flexibility Score: inf
ROOT
ATOM      1  C   UNL     1     -11.323  -2.676  -9.581  1.00  0.00     0.000 C 
ENDROOT
BRANCH   1   2
ATOM      2  C   UNL     1     -10.020  -3.475  -9.707  1.00  0.00     0.000 C 
BRANCH   2   3
ATOM      3  C   UNL     1     -10.090  -4.775  -8.892  1.00  0.00     0.006 C 
BRANCH   3   4
ATOM      4  C   UNL     1     -10.360  -4.514  -7.404  1.00  0.00     0.053 C 
BRANCH   4   5
ATOM      5  C   UNL     1     -10.816  -5.753  -6.696  1.00  0.00     0.041 C 
ATOM      6  O   UNL     1     -10.485  -6.888  -7.130  1.00  0.00    -0.550 OA
ATOM      7  O   UNL     1     -11.633  -5.655  -5.577  1.00  0.00    -0.550 OA
ENDBRANCH   4   5
ENDBRANCH   3   4
ENDBRANCH   2   3
ENDBRANCH   1   2
BRANCH   1   8
ATOM      8  C   UNL     1     -11.057  -1.168  -9.695  1.00  0.00     0.000 C 
BRANCH   8   9
ATOM      9  C   UNL     1     -12.210  -0.407 -10.374  1.00  0.00     0.006 C 
BRANCH   9  10
ATOM     10  C   UNL     1     -12.675   0.846  -9.615  1.00  0.00     0.053 C 
BRANCH  10  11
ATOM     11  C   UNL     1     -14.160   1.030  -9.687  1.00  0.00     0.041 C 
ATOM     12  O   UNL     1     -14.896   0.086 -10.078  1.00  0.00    -0.550 OA
ATOM     13  O   UNL     1     -14.733   2.230  -9.289  1.00  0.00    -0.550 OA
ENDBRANCH  10  11
ENDBRANCH   9  10
ENDBRANCH   8   9
ENDBRANCH   1   8
TORSDOF 8
ENDMDL
MODEL 7
REMARK VINA RESULT:    -4.602      2.250      3.367
REMARK INTER + INTRA:          -7.012
REMARK INTER:                  -6.822
REMARK INTRA:                  -0.190
REMARK UNBOUND:                -0.259
REMARK SMILES O=C([O-])CCCCCCCC(=O)[O-]
REMARK SMILES IDX 7 1 6 2 5 3 4 4 2 5 1 6 3 7 8 8 9 9 10 10 11 11 12 12 13 13
REMARK H PARENT
REMARK Flexibility Score: inf
ROOT
ATOM      1  C   UNL     1     -10.623  -1.980  -8.895  1.00  0.00     0.000 C 
ENDROOT
BRANCH   1   2
ATOM      2  C   UNL     1     -11.339  -1.239 -10.030  1.00  0.00     0.000 C 
BRANCH   2   3
ATOM      3  C   UNL     1     -11.838   0.136  -9.562  1.00  0.00     0.006 C 
BRANCH   3   4
ATOM      4  C   UNL     1     -13.300   0.387  -9.954  1.00  0.00     0.053 C 
BRANCH   4   5
ATOM      5  C   UNL     1     -13.768   1.741  -9.517  1.00  0.00     0.041 C 
ATOM      6  O   UNL     1     -12.933   2.651  -9.275  1.00  0.00    -0.550 OA
ATOM      7  O   UNL     1     -15.125   1.988  -9.347  1.00  0.00    -0.550 OA
ENDBRANCH   4   5
ENDBRANCH   3   4
ENDBRANCH   2   3
ENDBRANCH   1   2
BRANCH   1   8
ATOM      8  C   UNL     1     -10.556  -3.488  -9.177  1.00  0.00     0.000 C 
BRANCH   8   9
ATOM      9  C   UNL     1      -9.756  -4.260  -8.113  1.00  0.00     0.006 C 
BRANCH   9  10
ATOM     10  C   UNL     1     -10.622  -4.962  -7.055  1.00  0.00     0.053 C 
BRANCH  10  11
ATOM     11  C   UNL     1     -10.677  -6.444  -7.264  1.00  0.00     0.041 C 
ATOM     12  O   UNL     1     -10.376  -7.227  -6.325  1.00  0.00    -0.550 OA
ATOM     13  O   UNL     1     -11.093  -6.960  -8.484  1.00  0.00    -0.550 OA
ENDBRANCH  10  11
ENDBRANCH   9  10
ENDBRANCH   8   9
ENDBRANCH   1   8
TORSDOF 8
ENDMDL
MODEL 8
REMARK VINA RESULT:    -4.509      3.193      7.416
REMARK INTER + INTRA:          -6.876
REMARK INTER:                  -6.547
REMARK INTRA:                  -0.328
REMARK UNBOUND:                -0.259
REMARK SMILES O=C([O-])CCCCCCCC(=O)[O-]
REMARK SMILES IDX 7 1 6 2 5 3 4 4 2 5 1 6 3 7 8 8 9 9 10 10 11 11 12 12 13 13
REMARK H PARENT
REMARK Flexibility Score: inf
ROOT
ATOM      1  C   UNL     1      -9.656  -4.124  -8.953  1.00  0.00     0.000 C 
ENDROOT
BRANCH   1   2
ATOM      2  C   UNL     1      -9.932  -5.201  -7.897  1.00  0.00     0.000 C 
BRANCH   2   3
ATOM      3  C   UNL     1     -10.991  -4.728  -6.891  1.00  0.00     0.006 C 
BRANCH   3   4
ATOM      4  C   UNL     1     -11.088  -5.654  -5.671  1.00  0.00     0.053 C 
BRANCH   4   5
ATOM      5  C   UNL     1     -12.005  -6.811  -5.923  1.00  0.00     0.041 C 
ATOM      6  O   UNL     1     -11.671  -7.972  -5.567  1.00  0.00    -0.550 OA
ATOM      7  O   UNL     1     -13.213  -6.613  -6.580  1.00  0.00    -0.550 OA
ENDBRANCH   4   5
ENDBRANCH   3   4
ENDBRANCH   2   3
ENDBRANCH   1   2
BRANCH   1   8
ATOM      8  C   UNL     1     -10.919  -3.300  -9.243  1.00  0.00     0.000 C 
BRANCH   8   9
ATOM      9  C   UNL     1     -10.701  -1.787  -9.061  1.00  0.00     0.006 C 
BRANCH   9  10
ATOM     10  C   UNL     1     -11.049  -0.945 -10.298  1.00  0.00     0.053 C 
BRANCH  10  11
ATOM     11  C   UNL     1     -12.337  -0.199 -10.127  1.00  0.00     0.041 C 
ATOM     12  O   UNL     1     -13.406  -0.665 -10.602  1.00  0.00    -0.550 OA
ATOM     13  O   UNL     1     -12.363   0.992  -9.414  1.00  0.00    -0.550 OA
ENDBRANCH  10  11
ENDBRANCH   9  10
ENDBRANCH   8   9
ENDBRANCH   1   8
TORSDOF 8
ENDMDL
MODEL 9
REMARK VINA RESULT:    -4.238     14.964     17.103
REMARK INTER + INTRA:          -6.478
REMARK INTER:                  -6.033
REMARK INTRA:                  -0.445
REMARK UNBOUND:                -0.259
REMARK SMILES O=C([O-])CCCCCCCC(=O)[O-]
REMARK SMILES IDX 7 1 6 2 5 3 4 4 2 5 1 6 3 7 8 8 9 9 10 10 11 11 12 12 13 13
REMARK H PARENT
REMARK Flexibility Score: inf
ROOT
ATOM      1  C   UNL     1      -9.058   6.898   6.823  1.00  0.00     0.000 C 
ENDROOT
BRANCH   1   2
ATOM      2  C   UNL     1      -9.091   7.653   5.489  1.00  0.00     0.000 C 
BRANCH   2   3
ATOM      3  C   UNL     1      -8.747   9.136   5.686  1.00  0.00     0.006 C 
BRANCH   3   4
ATOM      4  C   UNL     1      -7.274   9.438   5.376  1.00  0.00     0.053 C 
BRANCH   4   5
ATOM      5  C   UNL     1      -6.526   9.874   6.598  1.00  0.00     0.041 C 
ATOM      6  O   UNL     1      -5.268   9.920   6.586  1.00  0.00    -0.550 OA
ATOM      7  O   UNL     1      -7.217  10.197   7.759  1.00  0.00    -0.550 OA
ENDBRANCH   4   5
ENDBRANCH   3   4
ENDBRANCH   2   3
ENDBRANCH   1   2
BRANCH   1   8
ATOM      8  C   UNL     1      -9.509   5.441   6.642  1.00  0.00     0.000 C 
BRANCH   8   9
ATOM      9  C   UNL     1     -10.121   5.172   5.256  1.00  0.00     0.006 C 
BRANCH   9  10
ATOM     10  C   UNL     1     -11.468   4.432   5.291  1.00  0.00     0.053 C 
BRANCH  10  11
ATOM     11  C   UNL     1     -12.615   5.334   4.955  1.00  0.00     0.041 C 
ATOM     12  O   UNL     1     -12.839   6.359   5.650  1.00  0.00    -0.550 OA
ATOM     13  O   UNL     1     -13.415   5.062   3.853  1.00  0.00    -0.550 OA
ENDBRANCH  10  11
ENDBRANCH   9  10
ENDBRANCH   8   9
ENDBRANCH   1   8
TORSDOF 8
ENDMDL
