MODEL 1
REMARK VINA RESULT:    -4.064      0.000      0.000
REMARK INTER + INTRA:          -4.736
REMARK INTER:                  -4.658
REMARK INTRA:                  -0.078
REMARK UNBOUND:                -0.078
REMARK SMILES C=Cc1ccc(O)c(OC)c1
REMARK SMILES IDX 8 1 6 2 5 3 4 4 3 5 11 6 9 7 10 8 7 9 2 11 1 12
REMARK H PARENT 7 10
REMARK Flexibility Score: inf
ROOT
ATOM      1  C   UNL     1       8.379 -32.939  17.237  1.00  0.00     0.161 A 
ATOM      2  C   UNL     1       7.876 -34.251  17.299  1.00  0.00     0.157 A 
ATOM      3  C   UNL     1       7.850 -35.045  16.150  1.00  0.00     0.051 A 
ATOM      4  C   UNL     1       8.326 -34.548  14.936  1.00  0.00     0.012 A 
ATOM      5  C   UNL     1       8.847 -33.249  14.851  1.00  0.00    -0.022 A 
ATOM      6  C   UNL     1       8.859 -32.442  16.008  1.00  0.00     0.058 A 
ENDROOT
BRANCH   1   7
ATOM      7  O   UNL     1       8.382 -32.162  18.406  1.00  0.00    -0.493 OA
ATOM      8  C   UNL     1       9.495 -31.405  18.872  1.00  0.00     0.278 C 
ENDBRANCH   1   7
BRANCH   2   9
ATOM      9  O   UNL     1       7.394 -34.782  18.495  1.00  0.00    -0.504 OA
ATOM     10  H   UNL     1       7.078 -34.196  19.259  1.00  0.00     0.293 HD
ENDBRANCH   2   9
BRANCH   5  11
ATOM     11  C   UNL     1       9.335 -32.768  13.535  1.00  0.00     0.000 C 
ATOM     12  C   UNL     1      10.599 -32.420  13.285  1.00  0.00     0.009 C 
ENDBRANCH   5  11
TORSDOF 3
ENDMDL
MODEL 2
REMARK VINA RESULT:    -3.997     14.997     16.972
REMARK INTER + INTRA:          -4.659
REMARK INTER:                  -4.601
REMARK INTRA:                  -0.058
REMARK UNBOUND:                -0.078
REMARK SMILES C=Cc1ccc(O)c(OC)c1
REMARK SMILES IDX 8 1 6 2 5 3 4 4 3 5 11 6 9 7 10 8 7 9 2 11 1 12
REMARK H PARENT 7 10
REMARK Flexibility Score: inf
ROOT
ATOM      1  C   UNL     1      16.748 -37.265  29.690  1.00  0.00     0.161 A 
ATOM      2  C   UNL     1      17.002 -35.883  29.752  1.00  0.00     0.157 A 
ATOM      3  C   UNL     1      16.375 -35.100  30.724  1.00  0.00     0.051 A 
ATOM      4  C   UNL     1      15.498 -35.680  31.642  1.00  0.00     0.012 A 
ATOM      5  C   UNL     1      15.240 -37.058  31.610  1.00  0.00    -0.022 A 
ATOM      6  C   UNL     1      15.861 -37.846  30.619  1.00  0.00     0.058 A 
ENDROOT
BRANCH   1   7
ATOM      7  O   UNL     1      17.386 -38.024  28.695  1.00  0.00    -0.493 OA
ATOM      8  C   UNL     1      16.942 -38.125  27.345  1.00  0.00     0.278 C 
ENDBRANCH   1   7
BRANCH   2   9
ATOM      9  O   UNL     1      17.875 -35.269  28.853  1.00  0.00    -0.504 OA
ATOM     10  H   UNL     1      18.845 -35.546  28.767  1.00  0.00     0.293 HD
ENDBRANCH   2   9
BRANCH   5  11
ATOM     11  C   UNL     1      14.295 -37.623  32.605  1.00  0.00     0.000 C 
ATOM     12  C   UNL     1      13.162 -37.030  32.985  1.00  0.00     0.009 C 
ENDBRANCH   5  11
TORSDOF 3
ENDMDL
MODEL 3
REMARK VINA RESULT:    -3.980      1.886      4.075
REMARK INTER + INTRA:          -4.640
REMARK INTER:                  -4.552
REMARK INTRA:                  -0.087
REMARK UNBOUND:                -0.078
REMARK SMILES C=Cc1ccc(O)c(OC)c1
REMARK SMILES IDX 8 1 6 2 5 3 4 4 3 5 11 6 9 7 10 8 7 9 2 11 1 12
REMARK H PARENT 7 10
REMARK Flexibility Score: inf
ROOT
ATOM      1  C   UNL     1       8.458 -33.006  15.220  1.00  0.00     0.161 A 
ATOM      2  C   UNL     1       8.717 -32.441  16.482  1.00  0.00     0.157 A 
ATOM      3  C   UNL     1       8.059 -32.926  17.614  1.00  0.00     0.051 A 
ATOM      4  C   UNL     1       7.145 -33.976  17.506  1.00  0.00     0.012 A 
ATOM      5  C   UNL     1       6.881 -34.566  16.263  1.00  0.00    -0.022 A 
ATOM      6  C   UNL     1       7.533 -34.066  15.117  1.00  0.00     0.058 A 
ENDROOT
BRANCH   1   7
ATOM      7  O   UNL     1       9.127 -32.490  14.099  1.00  0.00    -0.493 OA
ATOM      8  C   UNL     1      10.364 -32.985  13.596  1.00  0.00     0.278 C 
ENDBRANCH   1   7
BRANCH   2   9
ATOM      9  O   UNL     1       9.626 -31.393  16.629  1.00  0.00    -0.504 OA
ATOM     10  H   UNL     1      10.377 -31.420  17.309  1.00  0.00     0.293 HD
ENDBRANCH   2   9
BRANCH   5  11
ATOM     11  C   UNL     1       5.896 -35.675  16.202  1.00  0.00     0.000 C 
ATOM     12  C   UNL     1       6.221 -36.969  16.220  1.00  0.00     0.009 C 
ENDBRANCH   5  11
TORSDOF 3
ENDMDL
MODEL 4
REMARK VINA RESULT:    -3.781      1.044      2.769
REMARK INTER + INTRA:          -4.412
REMARK INTER:                  -4.323
REMARK INTRA:                  -0.089
REMARK UNBOUND:                -0.078
REMARK SMILES C=Cc1ccc(O)c(OC)c1
REMARK SMILES IDX 8 1 6 2 5 3 4 4 3 5 11 6 9 7 10 8 7 9 2 11 1 12
REMARK H PARENT 7 10
REMARK Flexibility Score: inf
ROOT
ATOM      1  C   UNL     1       7.550 -34.281  16.883  1.00  0.00     0.161 A 
ATOM      2  C   UNL     1       7.927 -33.361  17.877  1.00  0.00     0.157 A 
ATOM      3  C   UNL     1       8.767 -32.292  17.558  1.00  0.00     0.051 A 
ATOM      4  C   UNL     1       9.234 -32.123  16.253  1.00  0.00     0.012 A 
ATOM      5  C   UNL     1       8.860 -33.018  15.241  1.00  0.00    -0.022 A 
ATOM      6  C   UNL     1       8.024 -34.107  15.566  1.00  0.00     0.058 A 
ENDROOT
BRANCH   1   7
ATOM      7  O   UNL     1       6.713 -35.351  17.237  1.00  0.00    -0.493 OA
ATOM      8  C   UNL     1       6.419 -36.461  16.394  1.00  0.00     0.278 C 
ENDBRANCH   1   7
BRANCH   2   9
ATOM      9  O   UNL     1       7.478 -33.495  19.191  1.00  0.00    -0.504 OA
ATOM     10  H   UNL     1       6.921 -34.285  19.494  1.00  0.00     0.293 HD
ENDBRANCH   2   9
BRANCH   5  11
ATOM     11  C   UNL     1       9.389 -32.798  13.872  1.00  0.00     0.000 C 
ATOM     12  C   UNL     1      10.666 -32.531  13.595  1.00  0.00     0.009 C 
ENDBRANCH   5  11
TORSDOF 3
ENDMDL
MODEL 5
REMARK VINA RESULT:    -3.678      1.508      3.463
REMARK INTER + INTRA:          -4.294
REMARK INTER:                  -4.424
REMARK INTRA:                   0.130
REMARK UNBOUND:                -0.078
REMARK SMILES C=Cc1ccc(O)c(OC)c1
REMARK SMILES IDX 8 1 6 2 5 3 4 4 3 5 11 6 9 7 10 8 7 9 2 11 1 12
REMARK H PARENT 7 10
REMARK Flexibility Score: inf
ROOT
ATOM      1  C   UNL     1       7.978 -33.143  17.346  1.00  0.00     0.161 A 
ATOM      2  C   UNL     1       8.584 -32.944  16.093  1.00  0.00     0.157 A 
ATOM      3  C   UNL     1       8.500 -33.932  15.110  1.00  0.00     0.051 A 
ATOM      4  C   UNL     1       7.812 -35.121  15.359  1.00  0.00     0.012 A 
ATOM      5  C   UNL     1       7.186 -35.338  16.595  1.00  0.00    -0.022 A 
ATOM      6  C   UNL     1       7.284 -34.346  17.593  1.00  0.00     0.058 A 
ENDROOT
BRANCH   1   7
ATOM      7  O   UNL     1       8.088 -32.135  18.317  1.00  0.00    -0.493 OA
ATOM      8  C   UNL     1       9.316 -31.690  18.886  1.00  0.00     0.278 C 
ENDBRANCH   1   7
BRANCH   2   9
ATOM      9  O   UNL     1       9.278 -31.767  15.807  1.00  0.00    -0.504 OA
ATOM     10  H   UNL     1       9.135 -30.914  16.334  1.00  0.00     0.293 HD
ENDBRANCH   2   9
BRANCH   5  11
ATOM     11  C   UNL     1       6.473 -36.621  16.811  1.00  0.00     0.000 C 
ATOM     12  C   UNL     1       6.127 -37.461  15.833  1.00  0.00     0.009 C 
ENDBRANCH   5  11
TORSDOF 3
ENDMDL
MODEL 6
REMARK VINA RESULT:    -3.672      2.510      4.036
REMARK INTER + INTRA:          -4.287
REMARK INTER:                  -4.212
REMARK INTRA:                  -0.075
REMARK UNBOUND:                -0.078
REMARK SMILES C=Cc1ccc(O)c(OC)c1
REMARK SMILES IDX 8 1 6 2 5 3 4 4 3 5 11 6 9 7 10 8 7 9 2 11 1 12
REMARK H PARENT 7 10
REMARK Flexibility Score: inf
ROOT
ATOM      1  C   UNL     1       8.502 -32.881  14.433  1.00  0.00     0.161 A 
ATOM      2  C   UNL     1       7.344 -33.638  14.185  1.00  0.00     0.157 A 
ATOM      3  C   UNL     1       6.504 -33.998  15.241  1.00  0.00     0.051 A 
ATOM      4  C   UNL     1       6.801 -33.604  16.547  1.00  0.00     0.012 A 
ATOM      5  C   UNL     1       7.942 -32.836  16.819  1.00  0.00    -0.022 A 
ATOM      6  C   UNL     1       8.799 -32.486  15.754  1.00  0.00     0.058 A 
ENDROOT
BRANCH   1   7
ATOM      7  O   UNL     1       9.333 -32.544  13.352  1.00  0.00    -0.493 OA
ATOM      8  C   UNL     1      10.750 -32.688  13.344  1.00  0.00     0.278 C 
ENDBRANCH   1   7
BRANCH   2   9
ATOM      9  O   UNL     1       7.012 -34.047  12.893  1.00  0.00    -0.504 OA
ATOM     10  H   UNL     1       6.061 -34.021  12.545  1.00  0.00     0.293 HD
ENDBRANCH   2   9
BRANCH   5  11
ATOM     11  C   UNL     1       8.216 -32.449  18.225  1.00  0.00     0.000 C 
ATOM     12  C   UNL     1       9.259 -31.713  18.611  1.00  0.00     0.009 C 
ENDBRANCH   5  11
TORSDOF 3
ENDMDL
MODEL 7
REMARK VINA RESULT:    -3.523      1.924      3.181
REMARK INTER + INTRA:          -4.116
REMARK INTER:                  -4.026
REMARK INTRA:                  -0.091
REMARK UNBOUND:                -0.078
REMARK SMILES C=Cc1ccc(O)c(OC)c1
REMARK SMILES IDX 8 1 6 2 5 3 4 4 3 5 11 6 9 7 10 8 7 9 2 11 1 12
REMARK H PARENT 7 10
REMARK Flexibility Score: inf
ROOT
ATOM      1  C   UNL     1       7.482 -32.927  16.025  1.00  0.00     0.161 A 
ATOM      2  C   UNL     1       8.709 -32.447  15.533  1.00  0.00     0.157 A 
ATOM      3  C   UNL     1       9.136 -32.802  14.252  1.00  0.00     0.051 A 
ATOM      4  C   UNL     1       8.350 -33.630  13.448  1.00  0.00     0.012 A 
ATOM      5  C   UNL     1       7.116 -34.110  13.909  1.00  0.00    -0.022 A 
ATOM      6  C   UNL     1       6.692 -33.763  15.209  1.00  0.00     0.058 A 
ENDROOT
BRANCH   1   7
ATOM      7  O   UNL     1       7.085 -32.561  17.321  1.00  0.00    -0.493 OA
ATOM      8  C   UNL     1       7.374 -33.308  18.498  1.00  0.00     0.278 C 
ENDBRANCH   1   7
BRANCH   2   9
ATOM      9  O   UNL     1       9.520 -31.615  16.306  1.00  0.00    -0.504 OA
ATOM     10  H   UNL     1       9.944 -30.774  15.933  1.00  0.00     0.293 HD
ENDBRANCH   2   9
BRANCH   5  11
ATOM     11  C   UNL     1       6.323 -34.992  13.018  1.00  0.00     0.000 C 
ATOM     12  C   UNL     1       6.508 -36.308  12.907  1.00  0.00     0.009 C 
ENDBRANCH   5  11
TORSDOF 3
ENDMDL
MODEL 8
REMARK VINA RESULT:    -3.401      2.049      4.141
REMARK INTER + INTRA:          -3.976
REMARK INTER:                  -3.861
REMARK INTRA:                  -0.115
REMARK UNBOUND:                -0.078
REMARK SMILES C=Cc1ccc(O)c(OC)c1
REMARK SMILES IDX 8 1 6 2 5 3 4 4 3 5 11 6 9 7 10 8 7 9 2 11 1 12
REMARK H PARENT 7 10
REMARK Flexibility Score: inf
ROOT
ATOM      1  C   UNL     1       6.853 -34.547  16.035  1.00  0.00     0.161 A 
ATOM      2  C   UNL     1       7.483 -34.158  14.840  1.00  0.00     0.157 A 
ATOM      3  C   UNL     1       8.439 -33.140  14.853  1.00  0.00     0.051 A 
ATOM      4  C   UNL     1       8.780 -32.504  16.048  1.00  0.00     0.012 A 
ATOM      5  C   UNL     1       8.176 -32.884  17.255  1.00  0.00    -0.022 A 
ATOM      6  C   UNL     1       7.200 -33.901  17.240  1.00  0.00     0.058 A 
ENDROOT
BRANCH   1   7
ATOM      7  O   UNL     1       5.888 -35.567  15.989  1.00  0.00    -0.493 OA
ATOM      8  C   UNL     1       6.154 -36.944  16.235  1.00  0.00     0.278 C 
ENDBRANCH   1   7
BRANCH   2   9
ATOM      9  O   UNL     1       7.170 -34.773  13.627  1.00  0.00    -0.504 OA
ATOM     10  H   UNL     1       7.667 -35.590  13.291  1.00  0.00     0.293 HD
ENDBRANCH   2   9
BRANCH   5  11
ATOM     11  C   UNL     1       8.569 -32.172  18.496  1.00  0.00     0.000 C 
ATOM     12  C   UNL     1       9.652 -31.400  18.608  1.00  0.00     0.009 C 
ENDBRANCH   5  11
TORSDOF 3
ENDMDL
MODEL 9
REMARK VINA RESULT:    -3.390      2.771      4.760
REMARK INTER + INTRA:          -3.964
REMARK INTER:                  -3.878
REMARK INTRA:                  -0.086
REMARK UNBOUND:                -0.078
REMARK SMILES C=Cc1ccc(O)c(OC)c1
REMARK SMILES IDX 8 1 6 2 5 3 4 4 3 5 11 6 9 7 10 8 7 9 2 11 1 12
REMARK H PARENT 7 10
REMARK Flexibility Score: inf
ROOT
ATOM      1  C   UNL     1       9.580 -34.321  14.219  1.00  0.00     0.161 A 
ATOM      2  C   UNL     1       9.643 -32.960  14.564  1.00  0.00     0.157 A 
ATOM      3  C   UNL     1       8.912 -32.480  15.654  1.00  0.00     0.051 A 
ATOM      4  C   UNL     1       8.120 -33.346  16.410  1.00  0.00     0.012 A 
ATOM      5  C   UNL     1       8.053 -34.711  16.096  1.00  0.00    -0.022 A 
ATOM      6  C   UNL     1       8.779 -35.192  14.986  1.00  0.00     0.058 A 
ENDROOT
BRANCH   1   7
ATOM      7  O   UNL     1      10.318 -34.771  13.112  1.00  0.00    -0.493 OA
ATOM      8  C   UNL     1      11.397 -35.698  13.181  1.00  0.00     0.278 C 
ENDBRANCH   1   7
BRANCH   2   9
ATOM      9  O   UNL     1      10.425 -32.065  13.833  1.00  0.00    -0.504 OA
ATOM     10  H   UNL     1      11.430 -32.007  13.949  1.00  0.00     0.293 HD
ENDBRANCH   2   9
BRANCH   5  11
ATOM     11  C   UNL     1       7.191 -35.587  16.928  1.00  0.00     0.000 C 
ATOM     12  C   UNL     1       6.439 -36.576  16.444  1.00  0.00     0.009 C 
ENDBRANCH   5  11
TORSDOF 3
ENDMDL
