MODEL 1
REMARK VINA RESULT:    -4.266      0.000      0.000
REMARK INTER + INTRA:          -6.270
REMARK INTER:                  -5.762
REMARK INTRA:                  -0.508
REMARK UNBOUND:                -0.508
REMARK SMILES [NH3+]CCCC[C@@H]([NH3+])C(=O)[O-]
REMARK SMILES IDX 4 1 3 2 2 3 1 4 5 8 6 9 7 10 8 14 9 15 10 16
REMARK H PARENT 1 5 1 6 1 7 7 11 7 12 7 13
REMARK Flexibility Score: inf
ROOT
ATOM      1  C   UNL     1      10.857  36.795  65.070  1.00  0.00     0.012 C 
ENDROOT
BRANCH   1   2
ATOM      2  C   UNL     1      11.639  38.052  64.655  1.00  0.00     0.061 C 
BRANCH   2   3
ATOM      3  C   UNL     1      13.161  37.832  64.648  1.00  0.00     0.258 C 
BRANCH   3   4
ATOM      4  N   UNL     1      13.791  38.506  65.783  1.00  0.00    -0.358 N 
ATOM      5  H   UNL     1      13.318  38.205  66.665  1.00  0.00     0.344 HD
ATOM      6  H   UNL     1      14.803  38.248  65.836  1.00  0.00     0.344 HD
ATOM      7  H   UNL     1      13.695  39.543  65.684  1.00  0.00     0.344 HD
ENDBRANCH   3   4
ENDBRANCH   2   3
ENDBRANCH   1   2
BRANCH   1   8
ATOM      8  C   UNL     1      10.056  37.000  66.369  1.00  0.00     0.072 C 
BRANCH   8   9
ATOM      9  C   UNL     1      10.203  38.429  66.938  1.00  0.00     0.227 C 
BRANCH   9  10
ATOM     10  N   UNL     1       8.897  39.073  67.144  1.00  0.00    -0.350 N 
ATOM     11  H   UNL     1       8.920  39.672  67.999  1.00  0.00     0.345 HD
ATOM     12  H   UNL     1       8.160  38.344  67.293  1.00  0.00     0.345 HD
ATOM     13  H   UNL     1       8.635  39.657  66.317  1.00  0.00     0.345 HD
ENDBRANCH   9  10
BRANCH   9  14
ATOM     14  C   UNL     1      10.967  38.382  68.236  1.00  0.00     0.099 C 
ATOM     15  O   UNL     1      10.403  38.000  69.295  1.00  0.00    -0.544 OA
ATOM     16  O   UNL     1      12.309  38.739  68.264  1.00  0.00    -0.544 OA
ENDBRANCH   9  14
ENDBRANCH   8   9
ENDBRANCH   1   8
TORSDOF 7
ENDMDL
MODEL 2
REMARK VINA RESULT:    -4.231      3.599      4.428
REMARK INTER + INTRA:          -6.223
REMARK INTER:                  -6.101
REMARK INTRA:                  -0.122
REMARK UNBOUND:                -0.508
REMARK SMILES [NH3+]CCCC[C@@H]([NH3+])C(=O)[O-]
REMARK SMILES IDX 4 1 3 2 2 3 1 4 5 8 6 9 7 10 8 14 9 15 10 16
REMARK H PARENT 1 5 1 6 1 7 7 11 7 12 7 13
REMARK Flexibility Score: inf
ROOT
ATOM      1  C   UNL     1      11.957  38.102  69.928  1.00  0.00     0.012 C 
ENDROOT
BRANCH   1   2
ATOM      2  C   UNL     1      11.975  38.499  68.443  1.00  0.00     0.061 C 
BRANCH   2   3
ATOM      3  C   UNL     1      13.399  38.650  67.882  1.00  0.00     0.258 C 
BRANCH   3   4
ATOM      4  N   UNL     1      14.397  38.347  68.907  1.00  0.00    -0.358 N 
ATOM      5  H   UNL     1      14.652  39.229  69.409  1.00  0.00     0.344 HD
ATOM      6  H   UNL     1      14.008  37.665  69.598  1.00  0.00     0.344 HD
ATOM      7  H   UNL     1      15.258  37.950  68.465  1.00  0.00     0.344 HD
ENDBRANCH   3   4
ENDBRANCH   2   3
ENDBRANCH   1   2
BRANCH   1   8
ATOM      8  C   UNL     1      10.566  38.269  70.566  1.00  0.00     0.072 C 
BRANCH   8   9
ATOM      9  C   UNL     1      10.448  39.561  71.405  1.00  0.00     0.227 C 
BRANCH   9  10
ATOM     10  N   UNL     1       9.801  40.645  70.651  1.00  0.00    -0.350 N 
ATOM     11  H   UNL     1       8.898  40.313  70.244  1.00  0.00     0.345 HD
ATOM     12  H   UNL     1      10.413  40.940  69.854  1.00  0.00     0.345 HD
ATOM     13  H   UNL     1       9.622  41.472  71.266  1.00  0.00     0.345 HD
ENDBRANCH   9  10
BRANCH   9  14
ATOM     14  C   UNL     1       9.678  39.277  72.668  1.00  0.00     0.099 C 
ATOM     15  O   UNL     1       9.381  40.211  73.459  1.00  0.00    -0.544 OA
ATOM     16  O   UNL     1       9.269  37.980  72.954  1.00  0.00    -0.544 OA
ENDBRANCH   9  14
ENDBRANCH   8   9
ENDBRANCH   1   8
TORSDOF 7
ENDMDL
MODEL 3
REMARK VINA RESULT:    -4.154      3.315      4.398
REMARK INTER + INTRA:          -6.119
REMARK INTER:                  -5.984
REMARK INTRA:                  -0.135
REMARK UNBOUND:                -0.508
REMARK SMILES [NH3+]CCCC[C@@H]([NH3+])C(=O)[O-]
REMARK SMILES IDX 4 1 3 2 2 3 1 4 5 8 6 9 7 10 8 14 9 15 10 16
REMARK H PARENT 1 5 1 6 1 7 7 11 7 12 7 13
REMARK Flexibility Score: inf
ROOT
ATOM      1  C   UNL     1      10.896  38.700  68.708  1.00  0.00     0.012 C 
ENDROOT
BRANCH   1   2
ATOM      2  C   UNL     1      10.137  37.873  67.658  1.00  0.00     0.061 C 
BRANCH   2   3
ATOM      3  C   UNL     1       9.360  38.747  66.659  1.00  0.00     0.258 C 
BRANCH   3   4
ATOM      4  N   UNL     1       8.728  39.878  67.337  1.00  0.00    -0.358 N 
ATOM      5  H   UNL     1       8.336  39.555  68.251  1.00  0.00     0.344 HD
ATOM      6  H   UNL     1       9.434  40.629  67.518  1.00  0.00     0.344 HD
ATOM      7  H   UNL     1       7.949  40.259  66.752  1.00  0.00     0.344 HD
ENDBRANCH   3   4
ENDBRANCH   2   3
ENDBRANCH   1   2
BRANCH   1   8
ATOM      8  C   UNL     1      10.496  38.336  70.149  1.00  0.00     0.072 C 
BRANCH   8   9
ATOM      9  C   UNL     1      10.459  39.565  71.085  1.00  0.00     0.227 C 
BRANCH   9  10
ATOM     10  N   UNL     1       9.737  40.693  70.477  1.00  0.00    -0.350 N 
ATOM     11  H   UNL     1       9.378  40.426  69.534  1.00  0.00     0.345 HD
ATOM     12  H   UNL     1      10.388  41.503  70.346  1.00  0.00     0.345 HD
ATOM     13  H   UNL     1       8.938  40.993  71.081  1.00  0.00     0.345 HD
ENDBRANCH   9  10
BRANCH   9  14
ATOM     14  C   UNL     1       9.818  39.185  72.394  1.00  0.00     0.099 C 
ATOM     15  O   UNL     1       9.566  37.980  72.656  1.00  0.00    -0.544 OA
ATOM     16  O   UNL     1       9.522  40.167  73.331  1.00  0.00    -0.544 OA
ENDBRANCH   9  14
ENDBRANCH   8   9
ENDBRANCH   1   8
TORSDOF 7
ENDMDL
MODEL 4
REMARK VINA RESULT:    -4.149      3.545      5.810
REMARK INTER + INTRA:          -6.112
REMARK INTER:                  -5.957
REMARK INTRA:                  -0.155
REMARK UNBOUND:                -0.508
REMARK SMILES [NH3+]CCCC[C@@H]([NH3+])C(=O)[O-]
REMARK SMILES IDX 4 1 3 2 2 3 1 4 5 8 6 9 7 10 8 14 9 15 10 16
REMARK H PARENT 1 5 1 6 1 7 7 11 7 12 7 13
REMARK Flexibility Score: inf
ROOT
ATOM      1  C   UNL     1      10.131  37.749  71.453  1.00  0.00     0.012 C 
ENDROOT
BRANCH   1   2
ATOM      2  C   UNL     1       9.572  38.231  72.801  1.00  0.00     0.061 C 
BRANCH   2   3
ATOM      3  C   UNL     1       9.669  39.755  72.977  1.00  0.00     0.258 C 
BRANCH   3   4
ATOM      4  N   UNL     1       8.555  40.259  73.780  1.00  0.00    -0.358 N 
ATOM      5  H   UNL     1       8.383  41.261  73.536  1.00  0.00     0.344 HD
ATOM      6  H   UNL     1       7.689  39.708  73.578  1.00  0.00     0.344 HD
ATOM      7  H   UNL     1       8.786  40.194  74.798  1.00  0.00     0.344 HD
ENDBRANCH   3   4
ENDBRANCH   2   3
ENDBRANCH   1   2
BRANCH   1   8
ATOM      8  C   UNL     1      10.785  38.885  70.646  1.00  0.00     0.072 C 
BRANCH   8   9
ATOM      9  C   UNL     1      10.125  39.088  69.264  1.00  0.00     0.227 C 
BRANCH   9  10
ATOM     10  N   UNL     1       9.751  40.493  69.038  1.00  0.00    -0.350 N 
ATOM     11  H   UNL     1      10.324  40.900  68.267  1.00  0.00     0.345 HD
ATOM     12  H   UNL     1       9.943  41.055  69.900  1.00  0.00     0.345 HD
ATOM     13  H   UNL     1       8.736  40.574  68.798  1.00  0.00     0.345 HD
ENDBRANCH   9  10
BRANCH   9  14
ATOM     14  C   UNL     1      11.062  38.622  68.181  1.00  0.00     0.099 C 
ATOM     15  O   UNL     1      12.305  38.787  68.298  1.00  0.00    -0.544 OA
ATOM     16  O   UNL     1      10.558  37.986  67.053  1.00  0.00    -0.544 OA
ENDBRANCH   9  14
ENDBRANCH   8   9
ENDBRANCH   1   8
TORSDOF 7
ENDMDL
MODEL 5
REMARK VINA RESULT:    -4.148      4.029      5.292
REMARK INTER + INTRA:          -6.111
REMARK INTER:                  -5.624
REMARK INTRA:                  -0.488
REMARK UNBOUND:                -0.508
REMARK SMILES [NH3+]CCCC[C@@H]([NH3+])C(=O)[O-]
REMARK SMILES IDX 4 1 3 2 2 3 1 4 5 8 6 9 7 10 8 14 9 15 10 16
REMARK H PARENT 1 5 1 6 1 7 7 11 7 12 7 13
REMARK Flexibility Score: inf
ROOT
ATOM      1  C   UNL     1      11.915  37.859  70.066  1.00  0.00     0.012 C 
ENDROOT
BRANCH   1   2
ATOM      2  C   UNL     1      11.501  38.765  68.895  1.00  0.00     0.061 C 
BRANCH   2   3
ATOM      3  C   UNL     1      10.094  39.358  69.068  1.00  0.00     0.258 C 
BRANCH   3   4
ATOM      4  N   UNL     1      10.165  40.739  69.545  1.00  0.00    -0.358 N 
ATOM      5  H   UNL     1      10.263  40.737  70.586  1.00  0.00     0.344 HD
ATOM      6  H   UNL     1      10.993  41.222  69.127  1.00  0.00     0.344 HD
ATOM      7  H   UNL     1       9.290  41.254  69.290  1.00  0.00     0.344 HD
ENDBRANCH   3   4
ENDBRANCH   2   3
ENDBRANCH   1   2
BRANCH   1   8
ATOM      8  C   UNL     1      10.733  37.509  70.987  1.00  0.00     0.072 C 
BRANCH   8   9
ATOM      9  C   UNL     1      10.938  38.009  72.435  1.00  0.00     0.227 C 
BRANCH   9  10
ATOM     10  N   UNL     1      12.301  38.521  72.648  1.00  0.00    -0.350 N 
ATOM     11  H   UNL     1      12.523  38.543  73.667  1.00  0.00     0.345 HD
ATOM     12  H   UNL     1      12.372  39.503  72.291  1.00  0.00     0.345 HD
ATOM     13  H   UNL     1      13.004  37.927  72.151  1.00  0.00     0.345 HD
ENDBRANCH   9  10
BRANCH   9  14
ATOM     14  C   UNL     1       9.928  39.081  72.749  1.00  0.00     0.099 C 
ATOM     15  O   UNL     1      10.245  40.298  72.679  1.00  0.00    -0.544 OA
ATOM     16  O   UNL     1       8.629  38.730  73.098  1.00  0.00    -0.544 OA
ENDBRANCH   9  14
ENDBRANCH   8   9
ENDBRANCH   1   8
TORSDOF 7
ENDMDL
MODEL 6
REMARK VINA RESULT:    -4.085      3.838      6.112
REMARK INTER + INTRA:          -6.026
REMARK INTER:                  -5.840
REMARK INTRA:                  -0.186
REMARK UNBOUND:                -0.508
REMARK SMILES [NH3+]CCCC[C@@H]([NH3+])C(=O)[O-]
REMARK SMILES IDX 4 1 3 2 2 3 1 4 5 8 6 9 7 10 8 14 9 15 10 16
REMARK H PARENT 1 5 1 6 1 7 7 11 7 12 7 13
REMARK Flexibility Score: inf
ROOT
ATOM      1  C   UNL     1      10.225  37.481  72.199  1.00  0.00     0.012 C 
ENDROOT
BRANCH   1   2
ATOM      2  C   UNL     1       9.487  38.814  71.996  1.00  0.00     0.061 C 
BRANCH   2   3
ATOM      3  C   UNL     1       9.832  39.856  73.073  1.00  0.00     0.258 C 
BRANCH   3   4
ATOM      4  N   UNL     1       8.638  40.246  73.822  1.00  0.00    -0.358 N 
ATOM      5  H   UNL     1       8.923  40.831  74.641  1.00  0.00     0.344 HD
ATOM      6  H   UNL     1       7.998  40.806  73.212  1.00  0.00     0.344 HD
ATOM      7  H   UNL     1       8.138  39.396  74.172  1.00  0.00     0.344 HD
ENDBRANCH   3   4
ENDBRANCH   2   3
ENDBRANCH   1   2
BRANCH   1   8
ATOM      8  C   UNL     1      10.912  36.985  70.913  1.00  0.00     0.072 C 
BRANCH   8   9
ATOM      9  C   UNL     1      12.000  37.959  70.407  1.00  0.00     0.227 C 
BRANCH   9  10
ATOM     10  N   UNL     1      13.345  37.370  70.498  1.00  0.00    -0.350 N 
ATOM     11  H   UNL     1      13.980  38.005  71.031  1.00  0.00     0.345 HD
ATOM     12  H   UNL     1      13.749  37.256  69.539  1.00  0.00     0.345 HD
ATOM     13  H   UNL     1      13.312  36.437  70.968  1.00  0.00     0.345 HD
ENDBRANCH   9  10
BRANCH   9  14
ATOM     14  C   UNL     1      11.703  38.355  68.984  1.00  0.00     0.099 C 
ATOM     15  O   UNL     1      12.642  38.581  68.176  1.00  0.00    -0.544 OA
ATOM     16  O   UNL     1      10.386  38.451  68.551  1.00  0.00    -0.544 OA
ENDBRANCH   9  14
ENDBRANCH   8   9
ENDBRANCH   1   8
TORSDOF 7
ENDMDL
MODEL 7
REMARK VINA RESULT:    -4.066      2.306      3.998
REMARK INTER + INTRA:          -6.000
REMARK INTER:                  -5.870
REMARK INTRA:                  -0.130
REMARK UNBOUND:                -0.508
REMARK SMILES [NH3+]CCCC[C@@H]([NH3+])C(=O)[O-]
REMARK SMILES IDX 4 1 3 2 2 3 1 4 5 8 6 9 7 10 8 14 9 15 10 16
REMARK H PARENT 1 5 1 6 1 7 7 11 7 12 7 13
REMARK Flexibility Score: inf
ROOT
ATOM      1  C   UNL     1       9.405  38.511  66.529  1.00  0.00     0.012 C 
ENDROOT
BRANCH   1   2
ATOM      2  C   UNL     1       9.079  39.344  67.780  1.00  0.00     0.061 C 
BRANCH   2   3
ATOM      3  C   UNL     1      10.273  39.470  68.740  1.00  0.00     0.258 C 
BRANCH   3   4
ATOM      4  N   UNL     1      10.146  40.663  69.576  1.00  0.00    -0.358 N 
ATOM      5  H   UNL     1      10.943  41.308  69.377  1.00  0.00     0.344 HD
ATOM      6  H   UNL     1       9.248  41.157  69.363  1.00  0.00     0.344 HD
ATOM      7  H   UNL     1      10.171  40.398  70.588  1.00  0.00     0.344 HD
ENDBRANCH   3   4
ENDBRANCH   2   3
ENDBRANCH   1   2
BRANCH   1   8
ATOM      8  C   UNL     1      10.836  37.945  66.553  1.00  0.00     0.072 C 
BRANCH   8   9
ATOM      9  C   UNL     1      11.428  37.766  65.138  1.00  0.00     0.227 C 
BRANCH   9  10
ATOM     10  N   UNL     1      10.844  38.714  64.177  1.00  0.00    -0.350 N 
ATOM     11  H   UNL     1       9.809  38.762  64.302  1.00  0.00     0.345 HD
ATOM     12  H   UNL     1      11.026  38.388  63.199  1.00  0.00     0.345 HD
ATOM     13  H   UNL     1      11.254  39.668  64.299  1.00  0.00     0.345 HD
ENDBRANCH   9  10
BRANCH   9  14
ATOM     14  C   UNL     1      12.924  37.937  65.189  1.00  0.00     0.099 C 
ATOM     15  O   UNL     1      13.638  37.615  64.203  1.00  0.00    -0.544 OA
ATOM     16  O   UNL     1      13.522  38.473  66.323  1.00  0.00    -0.544 OA
ENDBRANCH   9  14
ENDBRANCH   8   9
ENDBRANCH   1   8
TORSDOF 7
ENDMDL
MODEL 8
REMARK VINA RESULT:    -4.025      2.723      4.466
REMARK INTER + INTRA:          -5.945
REMARK INTER:                  -5.818
REMARK INTRA:                  -0.127
REMARK UNBOUND:                -0.508
REMARK SMILES [NH3+]CCCC[C@@H]([NH3+])C(=O)[O-]
REMARK SMILES IDX 4 1 3 2 2 3 1 4 5 8 6 9 7 10 8 14 9 15 10 16
REMARK H PARENT 1 5 1 6 1 7 7 11 7 12 7 13
REMARK Flexibility Score: inf
ROOT
ATOM      1  C   UNL     1      10.850  39.144  68.723  1.00  0.00     0.012 C 
ENDROOT
BRANCH   1   2
ATOM      2  C   UNL     1      10.543  38.712  70.166  1.00  0.00     0.061 C 
BRANCH   2   3
ATOM      3  C   UNL     1      10.051  39.873  71.046  1.00  0.00     0.258 C 
BRANCH   3   4
ATOM      4  N   UNL     1       9.729  41.044  70.231  1.00  0.00    -0.358 N 
ATOM      5  H   UNL     1       8.916  41.545  70.657  1.00  0.00     0.344 HD
ATOM      6  H   UNL     1      10.548  41.694  70.197  1.00  0.00     0.344 HD
ATOM      7  H   UNL     1       9.473  40.748  69.260  1.00  0.00     0.344 HD
ENDBRANCH   3   4
ENDBRANCH   2   3
ENDBRANCH   1   2
BRANCH   1   8
ATOM      8  C   UNL     1      11.040  37.946  67.776  1.00  0.00     0.072 C 
BRANCH   8   9
ATOM      9  C   UNL     1       9.890  37.810  66.753  1.00  0.00     0.227 C 
BRANCH   9  10
ATOM     10  N   UNL     1       9.029  39.002  66.736  1.00  0.00    -0.350 N 
ATOM     11  H   UNL     1       9.530  39.815  67.157  1.00  0.00     0.345 HD
ATOM     12  H   UNL     1       8.172  38.831  67.312  1.00  0.00     0.345 HD
ATOM     13  H   UNL     1       8.740  39.240  65.759  1.00  0.00     0.345 HD
ENDBRANCH   9  10
BRANCH   9  14
ATOM     14  C   UNL     1      10.459  37.564  65.380  1.00  0.00     0.099 C 
ATOM     15  O   UNL     1      10.619  36.389  64.956  1.00  0.00    -0.544 OA
ATOM     16  O   UNL     1      10.792  38.638  64.564  1.00  0.00    -0.544 OA
ENDBRANCH   9  14
ENDBRANCH   8   9
ENDBRANCH   1   8
TORSDOF 7
ENDMDL
MODEL 9
REMARK VINA RESULT:    -3.994     10.595     11.656
REMARK INTER + INTRA:          -5.902
REMARK INTER:                  -5.732
REMARK INTRA:                  -0.170
REMARK UNBOUND:                -0.508
REMARK SMILES [NH3+]CCCC[C@@H]([NH3+])C(=O)[O-]
REMARK SMILES IDX 4 1 3 2 2 3 1 4 5 8 6 9 7 10 8 14 9 15 10 16
REMARK H PARENT 1 5 1 6 1 7 7 11 7 12 7 13
REMARK Flexibility Score: inf
ROOT
ATOM      1  C   UNL     1       6.066  29.035  69.433  1.00  0.00     0.012 C 
ENDROOT
BRANCH   1   2
ATOM      2  C   UNL     1       5.709  29.088  67.939  1.00  0.00     0.061 C 
BRANCH   2   3
ATOM      3  C   UNL     1       6.948  29.161  67.031  1.00  0.00     0.258 C 
BRANCH   3   4
ATOM      4  N   UNL     1       6.993  28.020  66.118  1.00  0.00    -0.358 N 
ATOM      5  H   UNL     1       7.960  27.927  65.733  1.00  0.00     0.344 HD
ATOM      6  H   UNL     1       6.745  27.141  66.628  1.00  0.00     0.344 HD
ATOM      7  H   UNL     1       6.327  28.167  65.324  1.00  0.00     0.344 HD
ENDBRANCH   3   4
ENDBRANCH   2   3
ENDBRANCH   1   2
BRANCH   1   8
ATOM      8  C   UNL     1       4.923  29.541  70.331  1.00  0.00     0.072 C 
BRANCH   8   9
ATOM      9  C   UNL     1       3.541  29.009  69.891  1.00  0.00     0.227 C 
BRANCH   9  10
ATOM     10  N   UNL     1       3.020  28.000  70.826  1.00  0.00    -0.350 N 
ATOM     11  H   UNL     1       3.782  27.665  71.457  1.00  0.00     0.345 HD
ATOM     12  H   UNL     1       2.667  27.171  70.295  1.00  0.00     0.345 HD
ATOM     13  H   UNL     1       2.240  28.393  71.402  1.00  0.00     0.345 HD
ENDBRANCH   9  10
BRANCH   9  14
ATOM     14  C   UNL     1       2.571  30.156  69.774  1.00  0.00     0.099 C 
ATOM     15  O   UNL     1       2.926  31.241  69.243  1.00  0.00    -0.544 OA
ATOM     16  O   UNL     1       1.268  30.011  70.234  1.00  0.00    -0.544 OA
ENDBRANCH   9  14
ENDBRANCH   8   9
ENDBRANCH   1   8
TORSDOF 7
ENDMDL
