MODEL 1
REMARK VINA RESULT:    -5.228      0.000      0.000
REMARK INTER + INTRA:          -9.319
REMARK INTER:                  -7.674
REMARK INTRA:                  -1.645
REMARK UNBOUND:                -1.645
REMARK SMILES O=c1c(O[C@H]2O[C@@H](CO)[C@@H](O)[C@@H](O)[C@H]2O)c(-c2ccc(O)c(O)c2)oc2cc(O)cc(O)c12
REMARK SMILES IDX 4 1 3 2 16 3 25 4 2 5 26 6 1 7 33 8 27 9 31 10 28 11 30 12
REMARK SMILES IDX 17 13 18 14 19 15 20 16 24 17 22 18 21 19 23 21 32 23 29 25
REMARK SMILES IDX 5 27 14 28 6 29 12 30 7 31 10 32 15 33 13 35 8 37 9 38 11 40
REMARK H PARENT 21 20 23 22 32 24 29 26 15 34 13 36 9 39 11 41
REMARK Flexibility Score: inf
ROOT
ATOM      1  O   UNL     1       4.234 -11.617  16.779  1.00  0.00    -0.454 OA
ENDROOT
BRANCH   1   2
ATOM      2  C   UNL     1       4.870 -11.167  15.606  1.00  0.00     0.214 A 
ATOM      3  C   UNL     1       5.099 -12.086  14.566  1.00  0.00     0.180 A 
ATOM      4  O   UNL     1       5.762 -11.710  13.480  1.00  0.00    -0.452 OA
ATOM      5  C   UNL     1       5.310  -9.838  15.439  1.00  0.00     0.239 A 
ATOM      6  C   UNL     1       6.198 -10.474  13.282  1.00  0.00     0.146 A 
ATOM      7  O   UNL     1       5.140  -9.012  16.370  1.00  0.00    -0.285 OA
ATOM      8  C   UNL     1       5.955  -9.455  14.237  1.00  0.00     0.111 A 
ATOM      9  C   UNL     1       6.909 -10.197  12.111  1.00  0.00     0.094 A 
ATOM     10  C   UNL     1       6.404  -8.130  13.946  1.00  0.00     0.134 A 
ATOM     11  C   UNL     1       7.397  -8.913  11.867  1.00  0.00     0.123 A 
ATOM     12  C   UNL     1       7.146  -7.892  12.782  1.00  0.00     0.093 A 
BRANCH   3  13
ATOM     13  C   UNL     1       4.671 -13.498  14.665  1.00  0.00     0.025 A 
ATOM     14  C   UNL     1       5.639 -14.511  14.728  1.00  0.00     0.016 A 
ATOM     15  C   UNL     1       5.253 -15.851  14.824  1.00  0.00     0.051 A 
ATOM     16  C   UNL     1       3.898 -16.197  14.842  1.00  0.00     0.157 A 
ATOM     17  C   UNL     1       3.312 -13.848  14.657  1.00  0.00     0.062 A 
ATOM     18  C   UNL     1       2.921 -15.192  14.753  1.00  0.00     0.158 A 
BRANCH  16  19
ATOM     19  O   UNL     1       3.544 -17.542  14.943  1.00  0.00    -0.504 OA
ATOM     20  H   UNL     1       3.106 -18.041  14.178  1.00  0.00     0.293 HD
ENDBRANCH  16  19
BRANCH  18  21
ATOM     21  O   UNL     1       1.569 -15.529  14.758  1.00  0.00    -0.504 OA
ATOM     22  H   UNL     1       1.251 -16.450  15.038  1.00  0.00     0.293 HD
ENDBRANCH  18  21
ENDBRANCH   3  13
BRANCH  10  23
ATOM     23  O   UNL     1       6.127  -7.016  14.745  1.00  0.00    -0.507 OA
ATOM     24  H   UNL     1       6.057  -6.069  14.408  1.00  0.00     0.293 HD
ENDBRANCH  10  23
BRANCH  11  25
ATOM     25  O   UNL     1       8.124  -8.637  10.711  1.00  0.00    -0.508 OA
ATOM     26  H   UNL     1       7.851  -9.014   9.811  1.00  0.00     0.293 HD
ENDBRANCH  11  25
ENDBRANCH   1   2
BRANCH   1  27
ATOM     27  C   UNL     1       4.846 -11.712  18.068  1.00  0.00     0.339 C 
ATOM     28  C   UNL     1       4.456 -13.023  18.763  1.00  0.00     0.214 C 
ATOM     29  O   UNL     1       4.573 -10.575  18.873  1.00  0.00    -0.332 OA
ATOM     30  C   UNL     1       2.969 -13.028  19.137  1.00  0.00     0.180 C 
ATOM     31  C   UNL     1       3.221 -10.457  19.298  1.00  0.00     0.179 C 
ATOM     32  C   UNL     1       2.629 -11.753  19.928  1.00  0.00     0.177 C 
BRANCH  28  33
ATOM     33  O   UNL     1       4.753 -14.109  17.920  1.00  0.00    -0.384 OA
ATOM     34  H   UNL     1       5.332 -13.758  17.195  1.00  0.00     0.211 HD
ENDBRANCH  28  33
BRANCH  30  35
ATOM     35  O   UNL     1       2.179 -13.146  17.982  1.00  0.00    -0.387 OA
ATOM     36  H   UNL     1       2.390 -14.025  17.572  1.00  0.00     0.211 HD
ENDBRANCH  30  35
BRANCH  31  37
ATOM     37  C   UNL     1       2.336  -9.726  18.262  1.00  0.00     0.191 C 
BRANCH  37  38
ATOM     38  O   UNL     1       1.692 -10.615  17.398  1.00  0.00    -0.394 OA
ATOM     39  H   UNL     1       1.164 -11.227  17.974  1.00  0.00     0.210 HD
ENDBRANCH  37  38
ENDBRANCH  31  37
BRANCH  32  40
ATOM     40  O   UNL     1       1.239 -11.647  20.099  1.00  0.00    -0.387 OA
ATOM     41  H   UNL     1       0.934 -12.503  20.499  1.00  0.00     0.211 HD
ENDBRANCH  32  40
ENDBRANCH   1  27
TORSDOF 12
ENDMDL
MODEL 2
REMARK VINA RESULT:    -5.198      2.082      6.017
REMARK INTER + INTRA:          -9.274
REMARK INTER:                  -7.276
REMARK INTRA:                  -1.998
REMARK UNBOUND:                -1.645
REMARK SMILES O=c1c(O[C@H]2O[C@@H](CO)[C@@H](O)[C@@H](O)[C@H]2O)c(-c2ccc(O)c(O)c2)oc2cc(O)cc(O)c12
REMARK SMILES IDX 4 1 3 2 16 3 25 4 2 5 26 6 1 7 33 8 27 9 31 10 28 11 30 12
REMARK SMILES IDX 17 13 18 14 19 15 20 16 24 17 22 18 21 19 23 21 32 23 29 25
REMARK SMILES IDX 5 27 14 28 6 29 12 30 7 31 10 32 15 33 13 35 8 37 9 38 11 40
REMARK H PARENT 21 20 23 22 32 24 29 26 15 34 13 36 9 39 11 41
REMARK Flexibility Score: inf
ROOT
ATOM      1  O   UNL     1       4.388 -13.597  16.502  1.00  0.00    -0.454 OA
ENDROOT
BRANCH   1   2
ATOM      2  C   UNL     1       5.062 -14.609  15.793  1.00  0.00     0.214 A 
ATOM      3  C   UNL     1       6.087 -14.243  14.902  1.00  0.00     0.180 A 
ATOM      4  O   UNL     1       6.689 -15.167  14.164  1.00  0.00    -0.452 OA
ATOM      5  C   UNL     1       4.736 -15.975  15.918  1.00  0.00     0.239 A 
ATOM      6  C   UNL     1       6.412 -16.461  14.246  1.00  0.00     0.146 A 
ATOM      7  O   UNL     1       3.802 -16.316  16.687  1.00  0.00    -0.285 OA
ATOM      8  C   UNL     1       5.446 -16.942  15.164  1.00  0.00     0.111 A 
ATOM      9  C   UNL     1       7.091 -17.342  13.400  1.00  0.00     0.094 A 
ATOM     10  C   UNL     1       5.226 -18.352  15.243  1.00  0.00     0.134 A 
ATOM     11  C   UNL     1       6.823 -18.710  13.443  1.00  0.00     0.123 A 
ATOM     12  C   UNL     1       5.894 -19.205  14.357  1.00  0.00     0.093 A 
BRANCH   3  13
ATOM     13  C   UNL     1       6.487 -12.832  14.711  1.00  0.00     0.025 A 
ATOM     14  C   UNL     1       7.533 -12.300  15.479  1.00  0.00     0.016 A 
ATOM     15  C   UNL     1       7.927 -10.970  15.311  1.00  0.00     0.051 A 
ATOM     16  C   UNL     1       7.271 -10.149  14.387  1.00  0.00     0.157 A 
ATOM     17  C   UNL     1       5.813 -12.001  13.803  1.00  0.00     0.062 A 
ATOM     18  C   UNL     1       6.206 -10.666  13.631  1.00  0.00     0.158 A 
BRANCH  16  19
ATOM     19  O   UNL     1       7.689  -8.828  14.238  1.00  0.00    -0.504 OA
ATOM     20  H   UNL     1       8.313  -8.543  13.492  1.00  0.00     0.293 HD
ENDBRANCH  16  19
BRANCH  18  21
ATOM     21  O   UNL     1       5.538  -9.852  12.717  1.00  0.00    -0.504 OA
ATOM     22  H   UNL     1       5.310  -8.888  12.931  1.00  0.00     0.293 HD
ENDBRANCH  18  21
ENDBRANCH   3  13
BRANCH  10  23
ATOM     23  O   UNL     1       4.391 -18.962  16.185  1.00  0.00    -0.507 OA
ATOM     24  H   UNL     1       4.356 -19.953  16.365  1.00  0.00     0.293 HD
ENDBRANCH  10  23
BRANCH  11  25
ATOM     25  O   UNL     1       7.481 -19.591  12.587  1.00  0.00    -0.508 OA
ATOM     26  H   UNL     1       6.976 -20.145  11.906  1.00  0.00     0.293 HD
ENDBRANCH  11  25
ENDBRANCH   1   2
BRANCH   1  27
ATOM     27  C   UNL     1       4.845 -12.990  17.714  1.00  0.00     0.339 C 
ATOM     28  C   UNL     1       3.979 -13.426  18.904  1.00  0.00     0.214 C 
ATOM     29  O   UNL     1       4.935 -11.578  17.603  1.00  0.00    -0.332 OA
ATOM     30  C   UNL     1       2.564 -12.848  18.797  1.00  0.00     0.180 C 
ATOM     31  C   UNL     1       3.684 -10.909  17.500  1.00  0.00     0.179 C 
ATOM     32  C   UNL     1       2.639 -11.328  18.577  1.00  0.00     0.177 C 
BRANCH  28  33
ATOM     33  O   UNL     1       3.933 -14.830  18.963  1.00  0.00    -0.384 OA
ATOM     34  H   UNL     1       3.485 -15.067  19.816  1.00  0.00     0.211 HD
ENDBRANCH  28  33
BRANCH  30  35
ATOM     35  O   UNL     1       1.857 -13.486  17.764  1.00  0.00    -0.387 OA
ATOM     36  H   UNL     1       1.375 -14.253  18.169  1.00  0.00     0.211 HD
ENDBRANCH  30  35
BRANCH  31  37
ATOM     37  C   UNL     1       3.177 -10.822  16.043  1.00  0.00     0.191 C 
BRANCH  37  38
ATOM     38  O   UNL     1       2.182 -11.766  15.773  1.00  0.00    -0.394 OA
ATOM     39  H   UNL     1       1.683 -11.893  16.621  1.00  0.00     0.210 HD
ENDBRANCH  37  38
ENDBRANCH  31  37
BRANCH  32  40
ATOM     40  O   UNL     1       1.364 -10.820  18.275  1.00  0.00    -0.387 OA
ATOM     41  H   UNL     1       1.498  -9.899  17.929  1.00  0.00     0.211 HD
ENDBRANCH  32  40
ENDBRANCH   1  27
TORSDOF 12
ENDMDL
MODEL 3
REMARK VINA RESULT:    -5.163      1.017      2.089
REMARK INTER + INTRA:          -9.223
REMARK INTER:                  -7.250
REMARK INTRA:                  -1.973
REMARK UNBOUND:                -1.645
REMARK SMILES O=c1c(O[C@H]2O[C@@H](CO)[C@@H](O)[C@@H](O)[C@H]2O)c(-c2ccc(O)c(O)c2)oc2cc(O)cc(O)c12
REMARK SMILES IDX 4 1 3 2 16 3 25 4 2 5 26 6 1 7 33 8 27 9 31 10 28 11 30 12
REMARK SMILES IDX 17 13 18 14 19 15 20 16 24 17 22 18 21 19 23 21 32 23 29 25
REMARK SMILES IDX 5 27 14 28 6 29 12 30 7 31 10 32 15 33 13 35 8 37 9 38 11 40
REMARK H PARENT 21 20 23 22 32 24 29 26 15 34 13 36 9 39 11 41
REMARK Flexibility Score: inf
ROOT
ATOM      1  O   UNL     1       4.796 -11.555  16.681  1.00  0.00    -0.454 OA
ENDROOT
BRANCH   1   2
ATOM      2  C   UNL     1       5.319 -11.117  15.451  1.00  0.00     0.214 A 
ATOM      3  C   UNL     1       5.405 -12.033  14.387  1.00  0.00     0.180 A 
ATOM      4  O   UNL     1       5.962 -11.670  13.239  1.00  0.00    -0.452 OA
ATOM      5  C   UNL     1       5.787  -9.802  15.245  1.00  0.00     0.239 A 
ATOM      6  C   UNL     1       6.418 -10.448  13.003  1.00  0.00     0.146 A 
ATOM      7  O   UNL     1       5.746  -8.980  16.195  1.00  0.00    -0.285 OA
ATOM      8  C   UNL     1       6.314  -9.430  13.984  1.00  0.00     0.111 A 
ATOM      9  C   UNL     1       7.010 -10.185  11.765  1.00  0.00     0.094 A 
ATOM     10  C   UNL     1       6.777  -8.119  13.654  1.00  0.00     0.134 A 
ATOM     11  C   UNL     1       7.515  -8.916  11.478  1.00  0.00     0.123 A 
ATOM     12  C   UNL     1       7.399  -7.896  12.420  1.00  0.00     0.093 A 
BRANCH   3  13
ATOM     13  C   UNL     1       4.939 -13.430  14.522  1.00  0.00     0.025 A 
ATOM     14  C   UNL     1       5.873 -14.449  14.762  1.00  0.00     0.016 A 
ATOM     15  C   UNL     1       5.451 -15.775  14.895  1.00  0.00     0.051 A 
ATOM     16  C   UNL     1       4.097 -16.103  14.775  1.00  0.00     0.157 A 
ATOM     17  C   UNL     1       3.583 -13.762  14.376  1.00  0.00     0.062 A 
ATOM     18  C   UNL     1       3.157 -15.092  14.510  1.00  0.00     0.158 A 
BRANCH  16  19
ATOM     19  O   UNL     1       3.705 -17.433  14.918  1.00  0.00    -0.504 OA
ATOM     20  H   UNL     1       4.041 -18.161  14.298  1.00  0.00     0.293 HD
ENDBRANCH  16  19
BRANCH  18  21
ATOM     21  O   UNL     1       1.807 -15.411  14.376  1.00  0.00    -0.504 OA
ATOM     22  H   UNL     1       1.078 -14.761  14.647  1.00  0.00     0.293 HD
ENDBRANCH  18  21
ENDBRANCH   3  13
BRANCH  10  23
ATOM     23  O   UNL     1       6.625  -7.004  14.485  1.00  0.00    -0.507 OA
ATOM     24  H   UNL     1       5.760  -6.725  14.921  1.00  0.00     0.293 HD
ENDBRANCH  10  23
BRANCH  11  25
ATOM     25  O   UNL     1       8.125  -8.654  10.253  1.00  0.00    -0.508 OA
ATOM     26  H   UNL     1       7.922  -7.810   9.730  1.00  0.00     0.293 HD
ENDBRANCH  11  25
ENDBRANCH   1   2
BRANCH   1  27
ATOM     27  C   UNL     1       3.419 -11.504  17.061  1.00  0.00     0.339 C 
ATOM     28  C   UNL     1       3.220 -10.582  18.273  1.00  0.00     0.214 C 
ATOM     29  O   UNL     1       2.874 -12.797  17.274  1.00  0.00    -0.332 OA
ATOM     30  C   UNL     1       3.854 -11.184  19.532  1.00  0.00     0.180 C 
ATOM     31  C   UNL     1       3.376 -13.472  18.421  1.00  0.00     0.179 C 
ATOM     32  C   UNL     1       3.352 -12.625  19.728  1.00  0.00     0.177 C 
BRANCH  28  33
ATOM     33  O   UNL     1       3.774  -9.320  18.000  1.00  0.00    -0.384 OA
ATOM     34  H   UNL     1       3.831  -8.838  18.866  1.00  0.00     0.211 HD
ENDBRANCH  28  33
BRANCH  30  35
ATOM     35  O   UNL     1       5.254 -11.132  19.442  1.00  0.00    -0.387 OA
ATOM     36  H   UNL     1       5.578 -12.067  19.375  1.00  0.00     0.211 HD
ENDBRANCH  30  35
BRANCH  31  37
ATOM     37  C   UNL     1       4.677 -14.252  18.127  1.00  0.00     0.191 C 
BRANCH  37  38
ATOM     38  O   UNL     1       5.816 -13.548  18.527  1.00  0.00    -0.394 OA
ATOM     39  H   UNL     1       6.444 -14.223  18.895  1.00  0.00     0.210 HD
ENDBRANCH  37  38
ENDBRANCH  31  37
BRANCH  32  40
ATOM     40  O   UNL     1       4.077 -13.252  20.756  1.00  0.00    -0.387 OA
ATOM     41  H   UNL     1       5.036 -13.056  20.591  1.00  0.00     0.211 HD
ENDBRANCH  32  40
ENDBRANCH   1  27
TORSDOF 12
ENDMDL
MODEL 4
REMARK VINA RESULT:    -5.030      2.046      6.723
REMARK INTER + INTRA:          -9.027
REMARK INTER:                  -7.541
REMARK INTRA:                  -1.486
REMARK UNBOUND:                -1.645
REMARK SMILES O=c1c(O[C@H]2O[C@@H](CO)[C@@H](O)[C@@H](O)[C@H]2O)c(-c2ccc(O)c(O)c2)oc2cc(O)cc(O)c12
REMARK SMILES IDX 4 1 3 2 16 3 25 4 2 5 26 6 1 7 33 8 27 9 31 10 28 11 30 12
REMARK SMILES IDX 17 13 18 14 19 15 20 16 24 17 22 18 21 19 23 21 32 23 29 25
REMARK SMILES IDX 5 27 14 28 6 29 12 30 7 31 10 32 15 33 13 35 8 37 9 38 11 40
REMARK H PARENT 21 20 23 22 32 24 29 26 15 34 13 36 9 39 11 41
REMARK Flexibility Score: inf
ROOT
ATOM      1  O   UNL     1       5.557 -10.496  15.110  1.00  0.00    -0.454 OA
ENDROOT
BRANCH   1   2
ATOM      2  C   UNL     1       5.093 -11.824  15.146  1.00  0.00     0.214 A 
ATOM      3  C   UNL     1       3.784 -12.071  15.600  1.00  0.00     0.180 A 
ATOM      4  O   UNL     1       3.345 -13.318  15.716  1.00  0.00    -0.452 OA
ATOM      5  C   UNL     1       5.894 -12.923  14.771  1.00  0.00     0.239 A 
ATOM      6  C   UNL     1       4.064 -14.380  15.380  1.00  0.00     0.146 A 
ATOM      7  O   UNL     1       7.074 -12.721  14.392  1.00  0.00    -0.285 OA
ATOM      8  C   UNL     1       5.368 -14.236  14.844  1.00  0.00     0.111 A 
ATOM      9  C   UNL     1       3.508 -15.648  15.570  1.00  0.00     0.094 A 
ATOM     10  C   UNL     1       6.075 -15.415  14.452  1.00  0.00     0.134 A 
ATOM     11  C   UNL     1       4.233 -16.794  15.241  1.00  0.00     0.123 A 
ATOM     12  C   UNL     1       5.507 -16.672  14.690  1.00  0.00     0.093 A 
BRANCH   3  13
ATOM     13  C   UNL     1       2.883 -10.975  16.015  1.00  0.00     0.025 A 
ATOM     14  C   UNL     1       2.567 -10.816  17.372  1.00  0.00     0.016 A 
ATOM     15  C   UNL     1       1.719  -9.784  17.783  1.00  0.00     0.051 A 
ATOM     16  C   UNL     1       1.163  -8.909  16.845  1.00  0.00     0.157 A 
ATOM     17  C   UNL     1       2.305 -10.112  15.071  1.00  0.00     0.062 A 
ATOM     18  C   UNL     1       1.453  -9.075  15.481  1.00  0.00     0.158 A 
BRANCH  16  19
ATOM     19  O   UNL     1       0.324  -7.886  17.285  1.00  0.00    -0.504 OA
ATOM     20  H   UNL     1      -0.126  -7.914  18.193  1.00  0.00     0.293 HD
ENDBRANCH  16  19
BRANCH  18  21
ATOM     21  O   UNL     1       0.894  -8.216  14.537  1.00  0.00    -0.504 OA
ATOM     22  H   UNL     1       1.098  -7.223  14.535  1.00  0.00     0.293 HD
ENDBRANCH  18  21
ENDBRANCH   3  13
BRANCH  10  23
ATOM     23  O   UNL     1       7.314 -15.404  13.805  1.00  0.00    -0.507 OA
ATOM     24  H   UNL     1       7.663 -14.643  13.242  1.00  0.00     0.293 HD
ENDBRANCH  10  23
BRANCH  11  25
ATOM     25  O   UNL     1       3.692 -18.061  15.448  1.00  0.00    -0.508 OA
ATOM     26  H   UNL     1       4.238 -18.901  15.299  1.00  0.00     0.293 HD
ENDBRANCH  11  25
ENDBRANCH   1   2
BRANCH   1  27
ATOM     27  C   UNL     1       6.716 -10.005  15.788  1.00  0.00     0.339 C 
ATOM     28  C   UNL     1       6.416  -8.673  16.490  1.00  0.00     0.214 C 
ATOM     29  O   UNL     1       7.841  -9.916  14.926  1.00  0.00    -0.332 OA
ATOM     30  C   UNL     1       6.171  -7.556  15.470  1.00  0.00     0.180 C 
ATOM     31  C   UNL     1       7.748  -8.908  13.927  1.00  0.00     0.179 C 
ATOM     32  C   UNL     1       7.333  -7.506  14.465  1.00  0.00     0.177 C 
BRANCH  28  33
ATOM     33  O   UNL     1       5.298  -8.826  17.329  1.00  0.00    -0.384 OA
ATOM     34  H   UNL     1       4.565  -8.287  16.931  1.00  0.00     0.211 HD
ENDBRANCH  28  33
BRANCH  30  35
ATOM     35  O   UNL     1       4.938  -7.749  14.826  1.00  0.00    -0.387 OA
ATOM     36  H   UNL     1       4.996  -7.301  13.942  1.00  0.00     0.211 HD
ENDBRANCH  30  35
BRANCH  31  37
ATOM     37  C   UNL     1       7.024  -9.402  12.654  1.00  0.00     0.191 C 
BRANCH  37  38
ATOM     38  O   UNL     1       7.268 -10.754  12.399  1.00  0.00    -0.394 OA
ATOM     39  H   UNL     1       8.251 -10.875  12.464  1.00  0.00     0.210 HD
ENDBRANCH  37  38
ENDBRANCH  31  37
BRANCH  32  40
ATOM     40  O   UNL     1       7.025  -6.628  13.412  1.00  0.00    -0.387 OA
ATOM     41  H   UNL     1       7.732  -6.745  12.725  1.00  0.00     0.211 HD
ENDBRANCH  32  40
ENDBRANCH   1  27
TORSDOF 12
ENDMDL
MODEL 5
REMARK VINA RESULT:    -4.987      2.086      6.564
REMARK INTER + INTRA:          -8.964
REMARK INTER:                  -6.958
REMARK INTRA:                  -2.006
REMARK UNBOUND:                -1.645
REMARK SMILES O=c1c(O[C@H]2O[C@@H](CO)[C@@H](O)[C@@H](O)[C@H]2O)c(-c2ccc(O)c(O)c2)oc2cc(O)cc(O)c12
REMARK SMILES IDX 4 1 3 2 16 3 25 4 2 5 26 6 1 7 33 8 27 9 31 10 28 11 30 12
REMARK SMILES IDX 17 13 18 14 19 15 20 16 24 17 22 18 21 19 23 21 32 23 29 25
REMARK SMILES IDX 5 27 14 28 6 29 12 30 7 31 10 32 15 33 13 35 8 37 9 38 11 40
REMARK H PARENT 21 20 23 22 32 24 29 26 15 34 13 36 9 39 11 41
REMARK Flexibility Score: inf
ROOT
ATOM      1  O   UNL     1       5.531 -10.671  15.143  1.00  0.00    -0.454 OA
ENDROOT
BRANCH   1   2
ATOM      2  C   UNL     1       5.076 -12.003  15.143  1.00  0.00     0.214 A 
ATOM      3  C   UNL     1       3.759 -12.268  15.560  1.00  0.00     0.180 A 
ATOM      4  O   UNL     1       3.326 -13.519  15.642  1.00  0.00    -0.452 OA
ATOM      5  C   UNL     1       5.894 -13.088  14.767  1.00  0.00     0.239 A 
ATOM      6  C   UNL     1       4.060 -14.570  15.303  1.00  0.00     0.146 A 
ATOM      7  O   UNL     1       7.082 -12.871  14.421  1.00  0.00    -0.285 OA
ATOM      8  C   UNL     1       5.376 -14.407  14.802  1.00  0.00     0.111 A 
ATOM      9  C   UNL     1       3.509 -15.845  15.456  1.00  0.00     0.094 A 
ATOM     10  C   UNL     1       6.101 -15.572  14.405  1.00  0.00     0.134 A 
ATOM     11  C   UNL     1       4.251 -16.979  15.123  1.00  0.00     0.123 A 
ATOM     12  C   UNL     1       5.537 -16.838  14.605  1.00  0.00     0.093 A 
BRANCH   3  13
ATOM     13  C   UNL     1       2.839 -11.186  15.973  1.00  0.00     0.025 A 
ATOM     14  C   UNL     1       2.825 -10.764  17.311  1.00  0.00     0.016 A 
ATOM     15  C   UNL     1       1.964  -9.741  17.720  1.00  0.00     0.051 A 
ATOM     16  C   UNL     1       1.097  -9.138  16.803  1.00  0.00     0.157 A 
ATOM     17  C   UNL     1       1.951 -10.598  15.060  1.00  0.00     0.062 A 
ATOM     18  C   UNL     1       1.086  -9.571  15.467  1.00  0.00     0.158 A 
BRANCH  16  19
ATOM     19  O   UNL     1       0.254  -8.117  17.239  1.00  0.00    -0.504 OA
ATOM     20  H   UNL     1      -0.451  -7.709  16.636  1.00  0.00     0.293 HD
ENDBRANCH  16  19
BRANCH  18  21
ATOM     21  O   UNL     1       0.217  -8.984  14.549  1.00  0.00    -0.504 OA
ATOM     22  H   UNL     1       0.402  -8.070  14.150  1.00  0.00     0.293 HD
ENDBRANCH  18  21
ENDBRANCH   3  13
BRANCH  10  23
ATOM     23  O   UNL     1       7.356 -15.541  13.789  1.00  0.00    -0.507 OA
ATOM     24  H   UNL     1       7.896 -16.355  13.541  1.00  0.00     0.293 HD
ENDBRANCH  10  23
BRANCH  11  25
ATOM     25  O   UNL     1       3.714 -18.254  15.293  1.00  0.00    -0.508 OA
ATOM     26  H   UNL     1       2.748 -18.390  15.568  1.00  0.00     0.293 HD
ENDBRANCH  11  25
ENDBRANCH   1   2
BRANCH   1  27
ATOM     27  C   UNL     1       5.296  -9.715  14.106  1.00  0.00     0.339 C 
ATOM     28  C   UNL     1       6.586  -9.429  13.324  1.00  0.00     0.214 C 
ATOM     29  O   UNL     1       4.691  -8.529  14.598  1.00  0.00    -0.332 OA
ATOM     30  C   UNL     1       7.602  -8.681  14.194  1.00  0.00     0.180 C 
ATOM     31  C   UNL     1       5.532  -7.731  15.422  1.00  0.00     0.179 C 
ATOM     32  C   UNL     1       6.938  -7.442  14.819  1.00  0.00     0.177 C 
BRANCH  28  33
ATOM     33  O   UNL     1       7.133 -10.638  12.861  1.00  0.00    -0.384 OA
ATOM     34  H   UNL     1       6.615 -10.898  12.055  1.00  0.00     0.211 HD
ENDBRANCH  28  33
BRANCH  30  35
ATOM     35  O   UNL     1       8.124  -9.538  15.176  1.00  0.00    -0.387 OA
ATOM     36  H   UNL     1       8.728  -8.996  15.747  1.00  0.00     0.211 HD
ENDBRANCH  30  35
BRANCH  31  37
ATOM     37  C   UNL     1       5.492  -8.166  16.905  1.00  0.00     0.191 C 
BRANCH  37  38
ATOM     38  O   UNL     1       6.560  -9.004  17.238  1.00  0.00    -0.394 OA
ATOM     39  H   UNL     1       6.261  -9.928  17.033  1.00  0.00     0.210 HD
ENDBRANCH  37  38
ENDBRANCH  31  37
BRANCH  32  40
ATOM     40  O   UNL     1       7.794  -6.865  15.773  1.00  0.00    -0.387 OA
ATOM     41  H   UNL     1       8.393  -7.588  16.094  1.00  0.00     0.211 HD
ENDBRANCH  32  40
ENDBRANCH   1  27
TORSDOF 12
ENDMDL
MODEL 6
REMARK VINA RESULT:    -4.986      1.808      5.989
REMARK INTER + INTRA:          -8.963
REMARK INTER:                  -7.185
REMARK INTRA:                  -1.778
REMARK UNBOUND:                -1.645
REMARK SMILES O=c1c(O[C@H]2O[C@@H](CO)[C@@H](O)[C@@H](O)[C@H]2O)c(-c2ccc(O)c(O)c2)oc2cc(O)cc(O)c12
REMARK SMILES IDX 4 1 3 2 16 3 25 4 2 5 26 6 1 7 33 8 27 9 31 10 28 11 30 12
REMARK SMILES IDX 17 13 18 14 19 15 20 16 24 17 22 18 21 19 23 21 32 23 29 25
REMARK SMILES IDX 5 27 14 28 6 29 12 30 7 31 10 32 15 33 13 35 8 37 9 38 11 40
REMARK H PARENT 21 20 23 22 32 24 29 26 15 34 13 36 9 39 11 41
REMARK Flexibility Score: inf
ROOT
ATOM      1  O   UNL     1       4.063 -11.531  15.843  1.00  0.00    -0.454 OA
ENDROOT
BRANCH   1   2
ATOM      2  C   UNL     1       4.763 -12.695  15.475  1.00  0.00     0.214 A 
ATOM      3  C   UNL     1       5.965 -12.563  14.756  1.00  0.00     0.180 A 
ATOM      4  O   UNL     1       6.608 -13.642  14.331  1.00  0.00    -0.452 OA
ATOM      5  C   UNL     1       4.298 -13.992  15.775  1.00  0.00     0.239 A 
ATOM      6  C   UNL     1       6.206 -14.880  14.586  1.00  0.00     0.146 A 
ATOM      7  O   UNL     1       3.211 -14.128  16.391  1.00  0.00    -0.285 OA
ATOM      8  C   UNL     1       5.047 -15.122  15.364  1.00  0.00     0.111 A 
ATOM      9  C   UNL     1       6.949 -15.942  14.064  1.00  0.00     0.094 A 
ATOM     10  C   UNL     1       4.691 -16.477  15.649  1.00  0.00     0.134 A 
ATOM     11  C   UNL     1       6.556 -17.260  14.298  1.00  0.00     0.123 A 
ATOM     12  C   UNL     1       5.433 -17.520  15.082  1.00  0.00     0.093 A 
BRANCH   3  13
ATOM     13  C   UNL     1       6.518 -11.239  14.399  1.00  0.00     0.025 A 
ATOM     14  C   UNL     1       7.214 -10.497  15.366  1.00  0.00     0.016 A 
ATOM     15  C   UNL     1       7.746  -9.245  15.047  1.00  0.00     0.051 A 
ATOM     16  C   UNL     1       7.576  -8.710  13.765  1.00  0.00     0.157 A 
ATOM     17  C   UNL     1       6.327 -10.690  13.122  1.00  0.00     0.062 A 
ATOM     18  C   UNL     1       6.860  -9.434  12.798  1.00  0.00     0.158 A 
BRANCH  16  19
ATOM     19  O   UNL     1       8.123  -7.460  13.475  1.00  0.00    -0.504 OA
ATOM     20  H   UNL     1       9.123  -7.314  13.410  1.00  0.00     0.293 HD
ENDBRANCH  16  19
BRANCH  18  21
ATOM     21  O   UNL     1       6.676  -8.903  11.522  1.00  0.00    -0.504 OA
ATOM     22  H   UNL     1       7.441  -8.486  11.004  1.00  0.00     0.293 HD
ENDBRANCH  18  21
ENDBRANCH   3  13
BRANCH  10  23
ATOM     23  O   UNL     1       3.644 -16.848  16.498  1.00  0.00    -0.507 OA
ATOM     24  H   UNL     1       3.289 -17.787  16.597  1.00  0.00     0.293 HD
ENDBRANCH  10  23
BRANCH  11  25
ATOM     25  O   UNL     1       7.281 -18.323  13.763  1.00  0.00    -0.508 OA
ATOM     26  H   UNL     1       7.681 -19.043  14.354  1.00  0.00     0.293 HD
ENDBRANCH  11  25
ENDBRANCH   1   2
BRANCH   1  27
ATOM     27  C   UNL     1       4.118 -10.901  17.125  1.00  0.00     0.339 C 
ATOM     28  C   UNL     1       2.739 -10.910  17.799  1.00  0.00     0.214 C 
ATOM     29  O   UNL     1       4.674  -9.596  17.055  1.00  0.00    -0.332 OA
ATOM     30  C   UNL     1       1.758  -9.994  17.059  1.00  0.00     0.180 C 
ATOM     31  C   UNL     1       3.859  -8.637  16.393  1.00  0.00     0.179 C 
ATOM     32  C   UNL     1       2.381  -8.599  16.885  1.00  0.00     0.177 C 
BRANCH  28  33
ATOM     33  O   UNL     1       2.245 -12.226  17.842  1.00  0.00    -0.384 OA
ATOM     34  H   UNL     1       2.984 -12.799  18.176  1.00  0.00     0.211 HD
ENDBRANCH  28  33
BRANCH  30  35
ATOM     35  O   UNL     1       1.404 -10.560  15.824  1.00  0.00    -0.387 OA
ATOM     36  H   UNL     1       2.043 -11.299  15.647  1.00  0.00     0.211 HD
ENDBRANCH  30  35
BRANCH  31  37
ATOM     37  C   UNL     1       4.078  -8.629  14.863  1.00  0.00     0.191 C 
BRANCH  37  38
ATOM     38  O   UNL     1       3.044  -9.274  14.179  1.00  0.00    -0.394 OA
ATOM     39  H   UNL     1       3.476  -9.959  13.605  1.00  0.00     0.210 HD
ENDBRANCH  37  38
ENDBRANCH  31  37
BRANCH  32  40
ATOM     40  O   UNL     1       1.581  -7.815  16.036  1.00  0.00    -0.387 OA
ATOM     41  H   UNL     1       2.114  -7.010  15.805  1.00  0.00     0.211 HD
ENDBRANCH  32  40
ENDBRANCH   1  27
TORSDOF 12
ENDMDL
MODEL 7
REMARK VINA RESULT:    -4.726      1.953      5.873
REMARK INTER + INTRA:          -8.582
REMARK INTER:                  -6.629
REMARK INTRA:                  -1.952
REMARK UNBOUND:                -1.645
REMARK SMILES O=c1c(O[C@H]2O[C@@H](CO)[C@@H](O)[C@@H](O)[C@H]2O)c(-c2ccc(O)c(O)c2)oc2cc(O)cc(O)c12
REMARK SMILES IDX 4 1 3 2 16 3 25 4 2 5 26 6 1 7 33 8 27 9 31 10 28 11 30 12
REMARK SMILES IDX 17 13 18 14 19 15 20 16 24 17 22 18 21 19 23 21 32 23 29 25
REMARK SMILES IDX 5 27 14 28 6 29 12 30 7 31 10 32 15 33 13 35 8 37 9 38 11 40
REMARK H PARENT 21 20 23 22 32 24 29 26 15 34 13 36 9 39 11 41
REMARK Flexibility Score: inf
ROOT
ATOM      1  O   UNL     1       3.933 -12.616  18.024  1.00  0.00    -0.454 OA
ENDROOT
BRANCH   1   2
ATOM      2  C   UNL     1       4.195 -13.709  17.177  1.00  0.00     0.214 A 
ATOM      3  C   UNL     1       4.628 -13.456  15.862  1.00  0.00     0.180 A 
ATOM      4  O   UNL     1       4.811 -14.463  15.017  1.00  0.00    -0.452 OA
ATOM      5  C   UNL     1       4.018 -15.048  17.581  1.00  0.00     0.239 A 
ATOM      6  C   UNL     1       4.653 -15.735  15.352  1.00  0.00     0.146 A 
ATOM      7  O   UNL     1       3.604 -15.290  18.742  1.00  0.00    -0.285 OA
ATOM      8  C   UNL     1       4.289 -16.101  16.672  1.00  0.00     0.111 A 
ATOM      9  C   UNL     1       4.848 -16.712  14.371  1.00  0.00     0.094 A 
ATOM     10  C   UNL     1       4.183 -17.490  16.988  1.00  0.00     0.134 A 
ATOM     11  C   UNL     1       4.680 -18.063  14.676  1.00  0.00     0.123 A 
ATOM     12  C   UNL     1       4.347 -18.443  15.975  1.00  0.00     0.093 A 
BRANCH   3  13
ATOM     13  C   UNL     1       4.834 -12.081  15.360  1.00  0.00     0.025 A 
ATOM     14  C   UNL     1       6.140 -11.597  15.187  1.00  0.00     0.016 A 
ATOM     15  C   UNL     1       6.354 -10.300  14.712  1.00  0.00     0.051 A 
ATOM     16  C   UNL     1       5.271  -9.466  14.419  1.00  0.00     0.157 A 
ATOM     17  C   UNL     1       3.748 -11.234  15.090  1.00  0.00     0.062 A 
ATOM     18  C   UNL     1       3.960  -9.933  14.612  1.00  0.00     0.158 A 
BRANCH  16  19
ATOM     19  O   UNL     1       5.516  -8.179  13.941  1.00  0.00    -0.504 OA
ATOM     20  H   UNL     1       5.183  -7.354  14.425  1.00  0.00     0.293 HD
ENDBRANCH  16  19
BRANCH  18  21
ATOM     21  O   UNL     1       2.874  -9.104  14.334  1.00  0.00    -0.504 OA
ATOM     22  H   UNL     1       2.227  -9.309  13.581  1.00  0.00     0.293 HD
ENDBRANCH  18  21
ENDBRANCH   3  13
BRANCH  10  23
ATOM     23  O   UNL     1       3.948 -17.985  18.275  1.00  0.00    -0.507 OA
ATOM     24  H   UNL     1       3.328 -17.562  18.949  1.00  0.00     0.293 HD
ENDBRANCH  10  23
BRANCH  11  25
ATOM     25  O   UNL     1       4.853 -19.039  13.697  1.00  0.00    -0.508 OA
ATOM     26  H   UNL     1       5.506 -19.805  13.821  1.00  0.00     0.293 HD
ENDBRANCH  11  25
ENDBRANCH   1   2
BRANCH   1  27
ATOM     27  C   UNL     1       4.922 -11.836  18.700  1.00  0.00     0.339 C 
ATOM     28  C   UNL     1       4.918 -12.132  20.206  1.00  0.00     0.214 C 
ATOM     29  O   UNL     1       4.789 -10.450  18.425  1.00  0.00    -0.332 OA
ATOM     30  C   UNL     1       3.632 -11.619  20.865  1.00  0.00     0.180 C 
ATOM     31  C   UNL     1       3.632  -9.840  18.985  1.00  0.00     0.179 C 
ATOM     32  C   UNL     1       3.415 -10.141  20.498  1.00  0.00     0.177 C 
BRANCH  28  33
ATOM     33  O   UNL     1       5.056 -13.516  20.414  1.00  0.00    -0.384 OA
ATOM     34  H   UNL     1       5.149 -13.651  21.393  1.00  0.00     0.211 HD
ENDBRANCH  28  33
BRANCH  30  35
ATOM     35  O   UNL     1       2.540 -12.413  20.480  1.00  0.00    -0.387 OA
ATOM     36  H   UNL     1       2.379 -13.064  21.212  1.00  0.00     0.211 HD
ENDBRANCH  30  35
BRANCH  31  37
ATOM     37  C   UNL     1       2.393  -9.969  18.070  1.00  0.00     0.191 C 
BRANCH  37  38
ATOM     38  O   UNL     1       1.522 -10.974  18.500  1.00  0.00    -0.394 OA
ATOM     39  H   UNL     1       2.021 -11.503  19.175  1.00  0.00     0.210 HD
ENDBRANCH  37  38
ENDBRANCH  31  37
BRANCH  32  40
ATOM     40  O   UNL     1       2.145  -9.719  20.924  1.00  0.00    -0.387 OA
ATOM     41  H   UNL     1       1.533  -9.825  20.149  1.00  0.00     0.211 HD
ENDBRANCH  32  40
ENDBRANCH   1  27
TORSDOF 12
ENDMDL
MODEL 8
REMARK VINA RESULT:    -4.710      3.533      7.377
REMARK INTER + INTRA:          -8.557
REMARK INTER:                  -6.543
REMARK INTRA:                  -2.014
REMARK UNBOUND:                -1.645
REMARK SMILES O=c1c(O[C@H]2O[C@@H](CO)[C@@H](O)[C@@H](O)[C@H]2O)c(-c2ccc(O)c(O)c2)oc2cc(O)cc(O)c12
REMARK SMILES IDX 4 1 3 2 16 3 25 4 2 5 26 6 1 7 33 8 27 9 31 10 28 11 30 12
REMARK SMILES IDX 17 13 18 14 19 15 20 16 24 17 22 18 21 19 23 21 32 23 29 25
REMARK SMILES IDX 5 27 14 28 6 29 12 30 7 31 10 32 15 33 13 35 8 37 9 38 11 40
REMARK H PARENT 21 20 23 22 32 24 29 26 15 34 13 36 9 39 11 41
REMARK Flexibility Score: inf
ROOT
ATOM      1  O   UNL     1       5.850 -16.745  15.436  1.00  0.00    -0.454 OA
ENDROOT
BRANCH   1   2
ATOM      2  C   UNL     1       5.144 -15.716  16.089  1.00  0.00     0.214 A 
ATOM      3  C   UNL     1       4.614 -15.966  17.368  1.00  0.00     0.180 A 
ATOM      4  O   UNL     1       3.881 -15.043  17.976  1.00  0.00    -0.452 OA
ATOM      5  C   UNL     1       4.924 -14.452  15.505  1.00  0.00     0.239 A 
ATOM      6  C   UNL     1       3.644 -13.843  17.463  1.00  0.00     0.146 A 
ATOM      7  O   UNL     1       5.366 -14.223  14.351  1.00  0.00    -0.285 OA
ATOM      8  C   UNL     1       4.194 -13.466  16.212  1.00  0.00     0.111 A 
ATOM      9  C   UNL     1       2.835 -12.959  18.182  1.00  0.00     0.094 A 
ATOM     10  C   UNL     1       3.947 -12.142  15.734  1.00  0.00     0.134 A 
ATOM     11  C   UNL     1       2.550 -11.691  17.674  1.00  0.00     0.123 A 
ATOM     12  C   UNL     1       3.102 -11.292  16.458  1.00  0.00     0.093 A 
BRANCH   3  13
ATOM     13  C   UNL     1       4.798 -17.267  18.047  1.00  0.00     0.025 A 
ATOM     14  C   UNL     1       3.940 -18.334  17.742  1.00  0.00     0.016 A 
ATOM     15  C   UNL     1       4.100 -19.571  18.372  1.00  0.00     0.051 A 
ATOM     16  C   UNL     1       5.106 -19.754  19.327  1.00  0.00     0.157 A 
ATOM     17  C   UNL     1       5.791 -17.443  19.023  1.00  0.00     0.062 A 
ATOM     18  C   UNL     1       5.955 -18.684  19.657  1.00  0.00     0.158 A 
BRANCH  16  19
ATOM     19  O   UNL     1       5.245 -21.000  19.935  1.00  0.00    -0.504 OA
ATOM     20  H   UNL     1       6.133 -21.323  20.301  1.00  0.00     0.293 HD
ENDBRANCH  16  19
BRANCH  18  21
ATOM     21  O   UNL     1       6.952 -18.853  20.616  1.00  0.00    -0.504 OA
ATOM     22  H   UNL     1       6.757 -18.772  21.607  1.00  0.00     0.293 HD
ENDBRANCH  18  21
ENDBRANCH   3  13
BRANCH  10  23
ATOM     23  O   UNL     1       4.525 -11.607  14.578  1.00  0.00    -0.507 OA
ATOM     24  H   UNL     1       4.350 -10.680  14.224  1.00  0.00     0.293 HD
ENDBRANCH  10  23
BRANCH  11  25
ATOM     25  O   UNL     1       1.727 -10.813  18.376  1.00  0.00    -0.508 OA
ATOM     26  H   UNL     1       0.730 -10.765  18.199  1.00  0.00     0.293 HD
ENDBRANCH  11  25
ENDBRANCH   1   2
BRANCH   1  27
ATOM     27  C   UNL     1       7.202 -17.122  15.707  1.00  0.00     0.339 C 
ATOM     28  C   UNL     1       8.125 -16.722  14.547  1.00  0.00     0.214 C 
ATOM     29  O   UNL     1       7.317 -18.498  16.035  1.00  0.00    -0.332 OA
ATOM     30  C   UNL     1       7.827 -17.555  13.295  1.00  0.00     0.180 C 
ATOM     31  C   UNL     1       7.070 -19.390  14.955  1.00  0.00     0.179 C 
ATOM     32  C   UNL     1       7.849 -19.052  13.649  1.00  0.00     0.177 C 
BRANCH  28  33
ATOM     33  O   UNL     1       7.969 -15.352  14.273  1.00  0.00    -0.384 OA
ATOM     34  H   UNL     1       7.053 -15.235  13.908  1.00  0.00     0.211 HD
ENDBRANCH  28  33
BRANCH  30  35
ATOM     35  O   UNL     1       6.595 -17.173  12.740  1.00  0.00    -0.387 OA
ATOM     36  H   UNL     1       5.934 -17.873  12.985  1.00  0.00     0.211 HD
ENDBRANCH  30  35
BRANCH  31  37
ATOM     37  C   UNL     1       5.569 -19.727  14.797  1.00  0.00     0.191 C 
BRANCH  37  38
ATOM     38  O   UNL     1       4.977 -19.016  13.749  1.00  0.00    -0.394 OA
ATOM     39  H   UNL     1       5.696 -18.460  13.350  1.00  0.00     0.210 HD
ENDBRANCH  37  38
ENDBRANCH  31  37
BRANCH  32  40
ATOM     40  O   UNL     1       7.381 -19.812  12.565  1.00  0.00    -0.387 OA
ATOM     41  H   UNL     1       8.074 -19.758  11.857  1.00  0.00     0.211 HD
ENDBRANCH  32  40
ENDBRANCH   1  27
TORSDOF 12
ENDMDL
MODEL 9
REMARK VINA RESULT:    -4.585      2.931      5.671
REMARK INTER + INTRA:          -8.374
REMARK INTER:                  -6.493
REMARK INTRA:                  -1.881
REMARK UNBOUND:                -1.645
REMARK SMILES O=c1c(O[C@H]2O[C@@H](CO)[C@@H](O)[C@@H](O)[C@H]2O)c(-c2ccc(O)c(O)c2)oc2cc(O)cc(O)c12
REMARK SMILES IDX 4 1 3 2 16 3 25 4 2 5 26 6 1 7 33 8 27 9 31 10 28 11 30 12
REMARK SMILES IDX 17 13 18 14 19 15 20 16 24 17 22 18 21 19 23 21 32 23 29 25
REMARK SMILES IDX 5 27 14 28 6 29 12 30 7 31 10 32 15 33 13 35 8 37 9 38 11 40
REMARK H PARENT 21 20 23 22 32 24 29 26 15 34 13 36 9 39 11 41
REMARK Flexibility Score: inf
ROOT
ATOM      1  O   UNL     1       3.265 -10.277  17.422  1.00  0.00    -0.454 OA
ENDROOT
BRANCH   1   2
ATOM      2  C   UNL     1       2.328  -9.730  16.524  1.00  0.00     0.214 A 
ATOM      3  C   UNL     1       2.731  -9.467  15.203  1.00  0.00     0.180 A 
ATOM      4  O   UNL     1       1.893  -8.884  14.355  1.00  0.00    -0.452 OA
ATOM      5  C   UNL     1       1.007  -9.411  16.901  1.00  0.00     0.239 A 
ATOM      6  C   UNL     1       0.646  -8.563  14.667  1.00  0.00     0.146 A 
ATOM      7  O   UNL     1       0.641  -9.612  18.086  1.00  0.00    -0.285 OA
ATOM      8  C   UNL     1       0.119  -8.851  15.951  1.00  0.00     0.111 A 
ATOM      9  C   UNL     1      -0.139  -7.926  13.701  1.00  0.00     0.094 A 
ATOM     10  C   UNL     1      -1.249  -8.528  16.212  1.00  0.00     0.134 A 
ATOM     11  C   UNL     1      -1.454  -7.560  13.989  1.00  0.00     0.123 A 
ATOM     12  C   UNL     1      -1.998  -7.857  15.238  1.00  0.00     0.093 A 
BRANCH   3  13
ATOM     13  C   UNL     1       4.099  -9.770  14.730  1.00  0.00     0.025 A 
ATOM     14  C   UNL     1       5.019  -8.725  14.560  1.00  0.00     0.016 A 
ATOM     15  C   UNL     1       6.317  -8.993  14.116  1.00  0.00     0.051 A 
ATOM     16  C   UNL     1       6.708 -10.303  13.821  1.00  0.00     0.157 A 
ATOM     17  C   UNL     1       4.484 -11.081  14.410  1.00  0.00     0.062 A 
ATOM     18  C   UNL     1       5.787 -11.353  13.965  1.00  0.00     0.158 A 
BRANCH  16  19
ATOM     19  O   UNL     1       8.011 -10.539  13.386  1.00  0.00    -0.504 OA
ATOM     20  H   UNL     1       8.781 -10.660  14.034  1.00  0.00     0.293 HD
ENDBRANCH  16  19
BRANCH  18  21
ATOM     21  O   UNL     1       6.164 -12.660  13.661  1.00  0.00    -0.504 OA
ATOM     22  H   UNL     1       6.892 -13.138  14.181  1.00  0.00     0.293 HD
ENDBRANCH  18  21
ENDBRANCH   3  13
BRANCH  10  23
ATOM     23  O   UNL     1      -1.920  -8.865  17.391  1.00  0.00    -0.507 OA
ATOM     24  H   UNL     1      -2.473  -9.698  17.520  1.00  0.00     0.293 HD
ENDBRANCH  10  23
BRANCH  11  25
ATOM     25  O   UNL     1      -2.235  -6.907  13.038  1.00  0.00    -0.508 OA
ATOM     26  H   UNL     1      -1.945  -6.843  12.069  1.00  0.00     0.293 HD
ENDBRANCH  11  25
ENDBRANCH   1   2
BRANCH   1  27
ATOM     27  C   UNL     1       3.459 -11.671  17.669  1.00  0.00     0.339 C 
ATOM     28  C   UNL     1       3.128 -12.019  19.127  1.00  0.00     0.214 C 
ATOM     29  O   UNL     1       4.758 -12.105  17.294  1.00  0.00    -0.332 OA
ATOM     30  C   UNL     1       4.152 -11.401  20.087  1.00  0.00     0.180 C 
ATOM     31  C   UNL     1       5.810 -11.605  18.110  1.00  0.00     0.179 C 
ATOM     32  C   UNL     1       5.575 -11.778  19.641  1.00  0.00     0.177 C 
BRANCH  28  33
ATOM     33  O   UNL     1       1.833 -11.570  19.436  1.00  0.00    -0.384 OA
ATOM     34  H   UNL     1       1.480 -11.129  18.619  1.00  0.00     0.211 HD
ENDBRANCH  28  33
BRANCH  30  35
ATOM     35  O   UNL     1       3.980 -10.009  20.147  1.00  0.00    -0.387 OA
ATOM     36  H   UNL     1       3.003  -9.833  20.125  1.00  0.00     0.211 HD
ENDBRANCH  30  35
BRANCH  31  37
ATOM     37  C   UNL     1       6.319 -10.224  17.641  1.00  0.00     0.191 C 
BRANCH  37  38
ATOM     38  O   UNL     1       5.774  -9.178  18.390  1.00  0.00    -0.394 OA
ATOM     39  H   UNL     1       6.202  -9.226  19.284  1.00  0.00     0.210 HD
ENDBRANCH  37  38
ENDBRANCH  31  37
BRANCH  32  40
ATOM     40  O   UNL     1       6.522 -11.055  20.386  1.00  0.00    -0.387 OA
ATOM     41  H   UNL     1       6.462 -11.385  21.321  1.00  0.00     0.211 HD
ENDBRANCH  32  40
ENDBRANCH   1  27
TORSDOF 12
ENDMDL
