MODEL 1
REMARK VINA RESULT:    -3.449      0.000      0.000
REMARK INTER + INTRA:          -4.485
REMARK INTER:                  -4.255
REMARK INTRA:                  -0.230
REMARK UNBOUND:                -0.230
REMARK SMILES CCCCCC(=O)[O-]
REMARK SMILES IDX 4 1 5 2 6 3 7 4 8 5 3 6 2 7 1 8
REMARK H PARENT
REMARK Flexibility Score: inf
ROOT
ATOM      1  C   UNL     1     -35.720  -4.604  -0.920  1.00  0.00     0.006 C 
ENDROOT
BRANCH   1   2
ATOM      2  C   UNL     1     -35.607  -3.719   0.335  1.00  0.00     0.053 C 
BRANCH   2   3
ATOM      3  C   UNL     1     -34.435  -2.786   0.283  1.00  0.00     0.041 C 
ATOM      4  O   UNL     1     -34.403  -1.853  -0.562  1.00  0.00    -0.550 OA
ATOM      5  O   UNL     1     -33.396  -2.920   1.195  1.00  0.00    -0.550 OA
ENDBRANCH   2   3
ENDBRANCH   1   2
BRANCH   1   6
ATOM      6  C   UNL     1     -34.408  -5.315  -1.307  1.00  0.00     0.000 C 
BRANCH   6   7
ATOM      7  C   UNL     1     -34.050  -5.255  -2.801  1.00  0.00    -0.003 C 
ATOM      8  C   UNL     1     -32.976  -4.216  -3.118  1.00  0.00     0.004 C 
ENDBRANCH   6   7
ENDBRANCH   1   6
TORSDOF 4
ENDMDL
MODEL 2
REMARK VINA RESULT:    -3.440      0.136      1.150
REMARK INTER + INTRA:          -4.475
REMARK INTER:                  -4.241
REMARK INTRA:                  -0.234
REMARK UNBOUND:                -0.230
REMARK SMILES CCCCCC(=O)[O-]
REMARK SMILES IDX 4 1 5 2 6 3 7 4 8 5 3 6 2 7 1 8
REMARK H PARENT
REMARK Flexibility Score: inf
ROOT
ATOM      1  C   UNL     1     -35.720  -4.567  -0.917  1.00  0.00     0.006 C 
ENDROOT
BRANCH   1   2
ATOM      2  C   UNL     1     -35.652  -3.743   0.382  1.00  0.00     0.053 C 
BRANCH   2   3
ATOM      3  C   UNL     1     -34.489  -2.798   0.408  1.00  0.00     0.041 C 
ATOM      4  O   UNL     1     -33.571  -2.944   1.257  1.00  0.00    -0.550 OA
ATOM      5  O   UNL     1     -34.397  -1.780  -0.532  1.00  0.00    -0.550 OA
ENDBRANCH   2   3
ENDBRANCH   1   2
BRANCH   1   6
ATOM      6  C   UNL     1     -34.407  -5.291  -1.272  1.00  0.00     0.000 C 
BRANCH   6   7
ATOM      7  C   UNL     1     -34.019  -5.249  -2.759  1.00  0.00    -0.003 C 
ATOM      8  C   UNL     1     -33.180  -4.026  -3.125  1.00  0.00     0.004 C 
ENDBRANCH   6   7
ENDBRANCH   1   6
TORSDOF 4
ENDMDL
MODEL 3
REMARK VINA RESULT:    -3.402      1.221      1.622
REMARK INTER + INTRA:          -4.427
REMARK INTER:                  -4.308
REMARK INTRA:                  -0.119
REMARK UNBOUND:                -0.230
REMARK SMILES CCCCCC(=O)[O-]
REMARK SMILES IDX 4 1 5 2 6 3 7 4 8 5 3 6 2 7 1 8
REMARK H PARENT
REMARK Flexibility Score: inf
ROOT
ATOM      1  C   UNL     1     -35.725  -4.355  -0.547  1.00  0.00     0.006 C 
ENDROOT
BRANCH   1   2
ATOM      2  C   UNL     1     -35.637  -3.169   0.431  1.00  0.00     0.053 C 
BRANCH   2   3
ATOM      3  C   UNL     1     -34.926  -3.518   1.704  1.00  0.00     0.041 C 
ATOM      4  O   UNL     1     -35.478  -4.263   2.555  1.00  0.00    -0.550 OA
ATOM      5  O   UNL     1     -33.637  -3.055   1.931  1.00  0.00    -0.550 OA
ENDBRANCH   2   3
ENDBRANCH   1   2
BRANCH   1   6
ATOM      6  C   UNL     1     -34.356  -4.921  -0.972  1.00  0.00     0.000 C 
BRANCH   6   7
ATOM      7  C   UNL     1     -34.195  -5.175  -2.480  1.00  0.00    -0.003 C 
ATOM      8  C   UNL     1     -33.110  -4.311  -3.121  1.00  0.00     0.004 C 
ENDBRANCH   6   7
ENDBRANCH   1   6
TORSDOF 4
ENDMDL
MODEL 4
REMARK VINA RESULT:    -3.307      1.684      1.906
REMARK INTER + INTRA:          -4.310
REMARK INTER:                  -4.167
REMARK INTRA:                  -0.143
REMARK UNBOUND:                -0.230
REMARK SMILES CCCCCC(=O)[O-]
REMARK SMILES IDX 4 1 5 2 6 3 7 4 8 5 3 6 2 7 1 8
REMARK H PARENT
REMARK Flexibility Score: inf
ROOT
ATOM      1  C   UNL     1     -33.779  -3.602  -0.441  1.00  0.00     0.006 C 
ENDROOT
BRANCH   1   2
ATOM      2  C   UNL     1     -34.972  -2.756   0.040  1.00  0.00     0.053 C 
BRANCH   2   3
ATOM      3  C   UNL     1     -35.974  -3.556   0.818  1.00  0.00     0.041 C 
ATOM      4  O   UNL     1     -37.098  -3.824   0.318  1.00  0.00    -0.550 OA
ATOM      5  O   UNL     1     -35.650  -4.041   2.078  1.00  0.00    -0.550 OA
ENDBRANCH   2   3
ENDBRANCH   1   2
BRANCH   1   6
ATOM      6  C   UNL     1     -34.174  -4.983  -1.001  1.00  0.00     0.000 C 
BRANCH   6   7
ATOM      7  C   UNL     1     -34.099  -5.112  -2.531  1.00  0.00    -0.003 C 
ATOM      8  C   UNL     1     -33.073  -4.172  -3.162  1.00  0.00     0.004 C 
ENDBRANCH   6   7
ENDBRANCH   1   6
TORSDOF 4
ENDMDL
MODEL 5
REMARK VINA RESULT:    -3.180      0.852      1.579
REMARK INTER + INTRA:          -4.153
REMARK INTER:                  -3.970
REMARK INTRA:                  -0.183
REMARK UNBOUND:                -0.230
REMARK SMILES CCCCCC(=O)[O-]
REMARK SMILES IDX 4 1 5 2 6 3 7 4 8 5 3 6 2 7 1 8
REMARK H PARENT
REMARK Flexibility Score: inf
ROOT
ATOM      1  C   UNL     1     -35.493  -3.846   0.023  1.00  0.00     0.006 C 
ENDROOT
BRANCH   1   2
ATOM      2  C   UNL     1     -34.173  -3.405   0.680  1.00  0.00     0.053 C 
BRANCH   2   3
ATOM      3  C   UNL     1     -33.822  -1.979   0.375  1.00  0.00     0.041 C 
ATOM      4  O   UNL     1     -32.776  -1.467   0.853  1.00  0.00    -0.550 OA
ATOM      5  O   UNL     1     -34.628  -1.230  -0.472  1.00  0.00    -0.550 OA
ENDBRANCH   2   3
ENDBRANCH   1   2
BRANCH   1   6
ATOM      6  C   UNL     1     -35.307  -4.729  -1.227  1.00  0.00     0.000 C 
BRANCH   6   7
ATOM      7  C   UNL     1     -33.857  -5.150  -1.520  1.00  0.00    -0.003 C 
ATOM      8  C   UNL     1     -33.310  -4.553  -2.816  1.00  0.00     0.004 C 
ENDBRANCH   6   7
ENDBRANCH   1   6
TORSDOF 4
ENDMDL
MODEL 6
REMARK VINA RESULT:    -3.026     13.783     14.777
REMARK INTER + INTRA:          -3.964
REMARK INTER:                  -3.887
REMARK INTRA:                  -0.077
REMARK UNBOUND:                -0.230
REMARK SMILES CCCCCC(=O)[O-]
REMARK SMILES IDX 4 1 5 2 6 3 7 4 8 5 3 6 2 7 1 8
REMARK H PARENT
REMARK Flexibility Score: inf
ROOT
ATOM      1  C   UNL     1     -22.942  -1.335  -9.658  1.00  0.00     0.006 C 
ENDROOT
BRANCH   1   2
ATOM      2  C   UNL     1     -22.681  -2.670 -10.379  1.00  0.00     0.053 C 
BRANCH   2   3
ATOM      3  C   UNL     1     -23.184  -3.854  -9.609  1.00  0.00     0.041 C 
ATOM      4  O   UNL     1     -22.399  -4.519  -8.883  1.00  0.00    -0.550 OA
ATOM      5  O   UNL     1     -24.528  -4.197  -9.659  1.00  0.00    -0.550 OA
ENDBRANCH   2   3
ENDBRANCH   1   2
BRANCH   1   6
ATOM      6  C   UNL     1     -23.143  -0.137 -10.606  1.00  0.00     0.000 C 
BRANCH   6   7
ATOM      7  C   UNL     1     -23.763   1.112  -9.958  1.00  0.00    -0.003 C 
ATOM      8  C   UNL     1     -24.228   0.873  -8.522  1.00  0.00     0.004 C 
ENDBRANCH   6   7
ENDBRANCH   1   6
TORSDOF 4
ENDMDL
MODEL 7
REMARK VINA RESULT:    -2.910      2.281      3.930
REMARK INTER + INTRA:          -3.821
REMARK INTER:                  -3.707
REMARK INTRA:                  -0.114
REMARK UNBOUND:                -0.230
REMARK SMILES CCCCCC(=O)[O-]
REMARK SMILES IDX 4 1 5 2 6 3 7 4 8 5 3 6 2 7 1 8
REMARK H PARENT
REMARK Flexibility Score: inf
ROOT
ATOM      1  C   UNL     1     -35.658  -3.960  -0.436  1.00  0.00     0.006 C 
ENDROOT
BRANCH   1   2
ATOM      2  C   UNL     1     -34.428  -3.363  -1.142  1.00  0.00     0.053 C 
BRANCH   2   3
ATOM      3  C   UNL     1     -33.671  -4.377  -1.946  1.00  0.00     0.041 C 
ATOM      4  O   UNL     1     -33.482  -5.535  -1.491  1.00  0.00    -0.550 OA
ATOM      5  O   UNL     1     -33.211  -4.056  -3.217  1.00  0.00    -0.550 OA
ENDBRANCH   2   3
ENDBRANCH   1   2
BRANCH   1   6
ATOM      6  C   UNL     1     -36.002  -3.286   0.907  1.00  0.00     0.000 C 
BRANCH   6   7
ATOM      7  C   UNL     1     -35.264  -3.855   2.130  1.00  0.00    -0.003 C 
ATOM      8  C   UNL     1     -34.124  -2.960   2.613  1.00  0.00     0.004 C 
ENDBRANCH   6   7
ENDBRANCH   1   6
TORSDOF 4
ENDMDL
MODEL 8
REMARK VINA RESULT:    -2.743     11.444     12.697
REMARK INTER + INTRA:          -3.614
REMARK INTER:                  -3.445
REMARK INTRA:                  -0.170
REMARK UNBOUND:                -0.230
REMARK SMILES CCCCCC(=O)[O-]
REMARK SMILES IDX 4 1 5 2 6 3 7 4 8 5 3 6 2 7 1 8
REMARK H PARENT
REMARK Flexibility Score: inf
ROOT
ATOM      1  C   UNL     1     -34.609   8.048  -3.098  1.00  0.00     0.006 C 
ENDROOT
BRANCH   1   2
ATOM      2  C   UNL     1     -35.836   7.491  -2.353  1.00  0.00     0.053 C 
BRANCH   2   3
ATOM      3  C   UNL     1     -36.382   6.246  -2.985  1.00  0.00     0.041 C 
ATOM      4  O   UNL     1     -36.696   5.257  -2.272  1.00  0.00    -0.550 OA
ATOM      5  O   UNL     1     -36.583   6.193  -4.358  1.00  0.00    -0.550 OA
ENDBRANCH   2   3
ENDBRANCH   1   2
BRANCH   1   6
ATOM      6  C   UNL     1     -34.710   9.547  -3.441  1.00  0.00     0.000 C 
BRANCH   6   7
ATOM      7  C   UNL     1     -35.936   9.943  -4.281  1.00  0.00    -0.003 C 
ATOM      8  C   UNL     1     -36.706  11.125  -3.694  1.00  0.00     0.004 C 
ENDBRANCH   6   7
ENDBRANCH   1   6
TORSDOF 4
ENDMDL
MODEL 9
REMARK VINA RESULT:    -2.734     11.657     12.958
REMARK INTER + INTRA:          -3.604
REMARK INTER:                  -3.449
REMARK INTRA:                  -0.155
REMARK UNBOUND:                -0.230
REMARK SMILES CCCCCC(=O)[O-]
REMARK SMILES IDX 4 1 5 2 6 3 7 4 8 5 3 6 2 7 1 8
REMARK H PARENT
REMARK Flexibility Score: inf
ROOT
ATOM      1  C   UNL     1     -34.070   7.965  -3.185  1.00  0.00     0.006 C 
ENDROOT
BRANCH   1   2
ATOM      2  C   UNL     1     -34.270   9.490  -3.235  1.00  0.00     0.053 C 
BRANCH   2   3
ATOM      3  C   UNL     1     -35.575   9.883  -3.859  1.00  0.00     0.041 C 
ATOM      4  O   UNL     1     -36.191  10.904  -3.454  1.00  0.00    -0.550 OA
ATOM      5  O   UNL     1     -36.091   9.146  -4.917  1.00  0.00    -0.550 OA
ENDBRANCH   2   3
ENDBRANCH   1   2
BRANCH   1   6
ATOM      6  C   UNL     1     -33.972   7.390  -1.758  1.00  0.00     0.000 C 
BRANCH   6   7
ATOM      7  C   UNL     1     -35.102   6.424  -1.365  1.00  0.00    -0.003 C 
ATOM      8  C   UNL     1     -36.472   7.097  -1.309  1.00  0.00     0.004 C 
ENDBRANCH   6   7
ENDBRANCH   1   6
TORSDOF 4
ENDMDL
