MODEL 1
REMARK VINA RESULT:    -5.370      0.000      0.000
REMARK INTER + INTRA:          -6.159
REMARK INTER:                  -5.998
REMARK INTRA:                  -0.160
REMARK UNBOUND:                -0.160
REMARK SMILES C=CCc1ccc2c(c1)OCO2
REMARK SMILES IDX 3 1 2 2 1 3 4 4 9 5 5 6 8 7 6 8 7 9 10 10 12 11 11 12
REMARK H PARENT
REMARK Flexibility Score: inf
ROOT
ATOM      1  C   UNL     1      12.111  19.669  -2.222  1.00  0.00     0.062 C 
ENDROOT
BRANCH   1   2
ATOM      2  C   UNL     1      11.633  19.652  -3.647  1.00  0.00    -0.030 C 
ATOM      3  C   UNL     1      10.511  19.022  -4.004  1.00  0.00     0.004 C 
ENDBRANCH   1   2
BRANCH   1   4
ATOM      4  C   UNL     1      12.505  21.060  -1.808  1.00  0.00    -0.040 A 
ATOM      5  C   UNL     1      13.802  21.542  -2.095  1.00  0.00     0.054 A 
ATOM      6  C   UNL     1      11.596  21.878  -1.088  1.00  0.00     0.008 A 
ATOM      7  C   UNL     1      14.132  22.825  -1.667  1.00  0.00     0.166 A 
ATOM      8  C   UNL     1      11.971  23.169  -0.673  1.00  0.00     0.051 A 
ATOM      9  C   UNL     1      13.255  23.604  -0.986  1.00  0.00     0.165 A 
ATOM     10  O   UNL     1      15.323  23.506  -1.830  1.00  0.00    -0.454 OA
ATOM     11  O   UNL     1      13.849  24.815  -0.690  1.00  0.00    -0.454 OA
ATOM     12  C   UNL     1      15.184  24.795  -1.216  1.00  0.00     0.468 C 
ENDBRANCH   1   4
TORSDOF 2
ENDMDL
MODEL 2
REMARK VINA RESULT:    -5.356      1.488      1.963
REMARK INTER + INTRA:          -6.143
REMARK INTER:                  -5.965
REMARK INTRA:                  -0.178
REMARK UNBOUND:                -0.160
REMARK SMILES C=CCc1ccc2c(c1)OCO2
REMARK SMILES IDX 3 1 2 2 1 3 4 4 9 5 5 6 8 7 6 8 7 9 10 10 12 11 11 12
REMARK H PARENT
REMARK Flexibility Score: inf
ROOT
ATOM      1  C   UNL     1      11.287  19.602  -2.207  1.00  0.00     0.062 C 
ENDROOT
BRANCH   1   2
ATOM      2  C   UNL     1      11.079  19.259  -3.656  1.00  0.00    -0.030 C 
ATOM      3  C   UNL     1       9.888  18.876  -4.122  1.00  0.00     0.004 C 
ENDBRANCH   1   2
BRANCH   1   4
ATOM      4  C   UNL     1      12.435  20.561  -2.045  1.00  0.00    -0.040 A 
ATOM      5  C   UNL     1      12.924  20.865  -0.754  1.00  0.00     0.054 A 
ATOM      6  C   UNL     1      13.001  21.199  -3.178  1.00  0.00     0.008 A 
ATOM      7  C   UNL     1      13.968  21.780  -0.650  1.00  0.00     0.166 A 
ATOM      8  C   UNL     1      14.055  22.119  -3.027  1.00  0.00     0.051 A 
ATOM      9  C   UNL     1      14.510  22.380  -1.739  1.00  0.00     0.165 A 
ATOM     10  O   UNL     1      14.608  22.228   0.490  1.00  0.00    -0.454 OA
ATOM     11  O   UNL     1      15.519  23.235  -1.339  1.00  0.00    -0.454 OA
ATOM     12  C   UNL     1      15.617  23.167   0.091  1.00  0.00     0.468 C 
ENDBRANCH   1   4
TORSDOF 2
ENDMDL
MODEL 3
REMARK VINA RESULT:    -5.320      2.572      4.763
REMARK INTER + INTRA:          -6.102
REMARK INTER:                  -5.864
REMARK INTRA:                  -0.239
REMARK UNBOUND:                -0.160
REMARK SMILES C=CCc1ccc2c(c1)OCO2
REMARK SMILES IDX 3 1 2 2 1 3 4 4 9 5 5 6 8 7 6 8 7 9 10 10 12 11 11 12
REMARK H PARENT
REMARK Flexibility Score: inf
ROOT
ATOM      1  C   UNL     1      15.176  23.358  -1.204  1.00  0.00     0.062 C 
ENDROOT
BRANCH   1   2
ATOM      2  C   UNL     1      15.782  23.005   0.125  1.00  0.00    -0.030 C 
ATOM      3  C   UNL     1      16.502  21.893   0.295  1.00  0.00     0.004 C 
ENDBRANCH   1   2
BRANCH   1   4
ATOM      4  C   UNL     1      14.107  22.370  -1.584  1.00  0.00    -0.040 A 
ATOM      5  C   UNL     1      14.281  21.543  -2.716  1.00  0.00     0.054 A 
ATOM      6  C   UNL     1      12.904  22.292  -0.836  1.00  0.00     0.008 A 
ATOM      7  C   UNL     1      13.253  20.663  -3.047  1.00  0.00     0.166 A 
ATOM      8  C   UNL     1      11.890  21.389  -1.205  1.00  0.00     0.051 A 
ATOM      9  C   UNL     1      12.108  20.589  -2.323  1.00  0.00     0.165 A 
ATOM     10  O   UNL     1      13.194  19.764  -4.094  1.00  0.00    -0.454 OA
ATOM     11  O   UNL     1      11.273  19.639  -2.877  1.00  0.00    -0.454 OA
ATOM     12  C   UNL     1      11.934  19.082  -4.022  1.00  0.00     0.468 C 
ENDBRANCH   1   4
TORSDOF 2
ENDMDL
MODEL 4
REMARK VINA RESULT:    -5.216      2.762      5.011
REMARK INTER + INTRA:          -5.986
REMARK INTER:                  -5.781
REMARK INTRA:                  -0.205
REMARK UNBOUND:                -0.160
REMARK SMILES C=CCc1ccc2c(c1)OCO2
REMARK SMILES IDX 3 1 2 2 1 3 4 4 9 5 5 6 8 7 6 8 7 9 10 10 12 11 11 12
REMARK H PARENT
REMARK Flexibility Score: inf
ROOT
ATOM      1  C   UNL     1      14.296  22.618   0.285  1.00  0.00     0.062 C 
ENDROOT
BRANCH   1   2
ATOM      2  C   UNL     1      15.779  22.791   0.111  1.00  0.00    -0.030 C 
ATOM      3  C   UNL     1      16.637  21.802   0.374  1.00  0.00     0.004 C 
ENDBRANCH   1   2
BRANCH   1   4
ATOM      4  C   UNL     1      13.686  21.980  -0.932  1.00  0.00    -0.040 A 
ATOM      5  C   UNL     1      12.651  21.028  -0.787  1.00  0.00     0.054 A 
ATOM      6  C   UNL     1      14.174  22.294  -2.227  1.00  0.00     0.008 A 
ATOM      7  C   UNL     1      12.136  20.442  -1.940  1.00  0.00     0.166 A 
ATOM      8  C   UNL     1      13.625  21.677  -3.366  1.00  0.00     0.051 A 
ATOM      9  C   UNL     1      12.602  20.753  -3.176  1.00  0.00     0.165 A 
ATOM     10  O   UNL     1      11.132  19.499  -2.051  1.00  0.00    -0.454 OA
ATOM     11  O   UNL     1      11.914  20.023  -4.125  1.00  0.00    -0.454 OA
ATOM     12  C   UNL     1      10.956  19.202  -3.444  1.00  0.00     0.468 C 
ENDBRANCH   1   4
TORSDOF 2
ENDMDL
MODEL 5
REMARK VINA RESULT:    -4.747      1.682      2.140
REMARK INTER + INTRA:          -5.462
REMARK INTER:                  -5.361
REMARK INTRA:                  -0.102
REMARK UNBOUND:                -0.160
REMARK SMILES C=CCc1ccc2c(c1)OCO2
REMARK SMILES IDX 3 1 2 2 1 3 4 4 9 5 5 6 8 7 6 8 7 9 10 10 12 11 11 12
REMARK H PARENT
REMARK Flexibility Score: inf
ROOT
ATOM      1  C   UNL     1      13.138  21.188  -3.947  1.00  0.00     0.062 C 
ENDROOT
BRANCH   1   2
ATOM      2  C   UNL     1      12.486  19.952  -3.394  1.00  0.00    -0.030 C 
ATOM      3  C   UNL     1      11.699  19.995  -2.316  1.00  0.00     0.004 C 
ENDBRANCH   1   2
BRANCH   1   4
ATOM      4  C   UNL     1      13.779  21.991  -2.848  1.00  0.00    -0.040 A 
ATOM      5  C   UNL     1      14.810  21.423  -2.067  1.00  0.00     0.054 A 
ATOM      6  C   UNL     1      13.323  23.304  -2.560  1.00  0.00     0.008 A 
ATOM      7  C   UNL     1      15.354  22.192  -1.042  1.00  0.00     0.166 A 
ATOM      8  C   UNL     1      13.900  24.047  -1.515  1.00  0.00     0.051 A 
ATOM      9  C   UNL     1      14.919  23.450  -0.778  1.00  0.00     0.165 A 
ATOM     10  O   UNL     1      16.361  21.859  -0.158  1.00  0.00    -0.454 OA
ATOM     11  O   UNL     1      15.631  23.970   0.284  1.00  0.00    -0.454 OA
ATOM     12  C   UNL     1      16.573  22.977   0.715  1.00  0.00     0.468 C 
ENDBRANCH   1   4
TORSDOF 2
ENDMDL
MODEL 6
REMARK VINA RESULT:    -4.529      2.497      4.654
REMARK INTER + INTRA:          -5.219
REMARK INTER:                  -5.136
REMARK INTRA:                  -0.083
REMARK UNBOUND:                -0.160
REMARK SMILES C=CCc1ccc2c(c1)OCO2
REMARK SMILES IDX 3 1 2 2 1 3 4 4 9 5 5 6 8 7 6 8 7 9 10 10 12 11 11 12
REMARK H PARENT
REMARK Flexibility Score: inf
ROOT
ATOM      1  C   UNL     1      15.115  23.265  -0.875  1.00  0.00     0.062 C 
ENDROOT
BRANCH   1   2
ATOM      2  C   UNL     1      14.609  24.625  -1.269  1.00  0.00    -0.030 C 
ATOM      3  C   UNL     1      14.154  24.875  -2.499  1.00  0.00     0.004 C 
ENDBRANCH   1   2
BRANCH   1   4
ATOM      4  C   UNL     1      14.184  22.188  -1.362  1.00  0.00    -0.040 A 
ATOM      5  C   UNL     1      14.470  21.497  -2.561  1.00  0.00     0.054 A 
ATOM      6  C   UNL     1      12.996  21.891  -0.647  1.00  0.00     0.008 A 
ATOM      7  C   UNL     1      13.566  20.528  -2.988  1.00  0.00     0.166 A 
ATOM      8  C   UNL     1      12.109  20.904  -1.114  1.00  0.00     0.051 A 
ATOM      9  C   UNL     1      12.435  20.243  -2.295  1.00  0.00     0.165 A 
ATOM     10  O   UNL     1      13.630  19.728  -4.112  1.00  0.00    -0.454 OA
ATOM     11  O   UNL     1      11.732  19.250  -2.947  1.00  0.00    -0.454 OA
ATOM     12  C   UNL     1      12.467  18.887  -4.125  1.00  0.00     0.468 C 
ENDBRANCH   1   4
TORSDOF 2
ENDMDL
MODEL 7
REMARK VINA RESULT:    -3.805      1.464      2.200
REMARK INTER + INTRA:          -4.410
REMARK INTER:                  -4.270
REMARK INTRA:                  -0.140
REMARK UNBOUND:                -0.160
REMARK SMILES C=CCc1ccc2c(c1)OCO2
REMARK SMILES IDX 3 1 2 2 1 3 4 4 9 5 5 6 8 7 6 8 7 9 10 10 12 11 11 12
REMARK H PARENT
REMARK Flexibility Score: inf
ROOT
ATOM      1  C   UNL     1      13.003  20.732  -3.995  1.00  0.00     0.062 C 
ENDROOT
BRANCH   1   2
ATOM      2  C   UNL     1      12.252  19.619  -3.319  1.00  0.00    -0.030 C 
ATOM      3  C   UNL     1      11.566  19.820  -2.191  1.00  0.00     0.004 C 
ENDBRANCH   1   2
BRANCH   1   4
ATOM      4  C   UNL     1      13.739  21.570  -2.986  1.00  0.00    -0.040 A 
ATOM      5  C   UNL     1      13.339  22.904  -2.748  1.00  0.00     0.054 A 
ATOM      6  C   UNL     1      14.864  21.042  -2.300  1.00  0.00     0.008 A 
ATOM      7  C   UNL     1      14.067  23.651  -1.826  1.00  0.00     0.166 A 
ATOM      8  C   UNL     1      15.573  21.832  -1.377  1.00  0.00     0.051 A 
ATOM      9  C   UNL     1      15.137  23.137  -1.169  1.00  0.00     0.165 A 
ATOM     10  O   UNL     1      13.868  24.959  -1.430  1.00  0.00    -0.454 OA
ATOM     11  O   UNL     1      15.662  24.096  -0.325  1.00  0.00    -0.454 OA
ATOM     12  C   UNL     1      14.874  25.287  -0.461  1.00  0.00     0.468 C 
ENDBRANCH   1   4
TORSDOF 2
ENDMDL
MODEL 8
REMARK VINA RESULT:    -3.324     15.919     17.813
REMARK INTER + INTRA:          -3.873
REMARK INTER:                  -3.729
REMARK INTRA:                  -0.143
REMARK UNBOUND:                -0.160
REMARK SMILES C=CCc1ccc2c(c1)OCO2
REMARK SMILES IDX 3 1 2 2 1 3 4 4 9 5 5 6 8 7 6 8 7 9 10 10 12 11 11 12
REMARK H PARENT
REMARK Flexibility Score: inf
ROOT
ATOM      1  C   UNL     1      21.061  25.182  15.920  1.00  0.00     0.062 C 
ENDROOT
BRANCH   1   2
ATOM      2  C   UNL     1      20.513  26.549  15.622  1.00  0.00    -0.030 C 
ATOM      3  C   UNL     1      19.224  26.844  15.807  1.00  0.00     0.004 C 
ENDBRANCH   1   2
BRANCH   1   4
ATOM      4  C   UNL     1      21.094  24.336  14.677  1.00  0.00    -0.040 A 
ATOM      5  C   UNL     1      21.105  24.951  13.405  1.00  0.00     0.054 A 
ATOM      6  C   UNL     1      21.070  22.921  14.771  1.00  0.00     0.008 A 
ATOM      7  C   UNL     1      21.106  24.129  12.281  1.00  0.00     0.166 A 
ATOM      8  C   UNL     1      21.071  22.127  13.610  1.00  0.00     0.051 A 
ATOM      9  C   UNL     1      21.090  22.777  12.379  1.00  0.00     0.165 A 
ATOM     10  O   UNL     1      21.118  24.494  10.948  1.00  0.00    -0.454 OA
ATOM     11  O   UNL     1      21.094  22.223  11.114  1.00  0.00    -0.454 OA
ATOM     12  C   UNL     1      21.112  23.295  10.161  1.00  0.00     0.468 C 
ENDBRANCH   1   4
TORSDOF 2
ENDMDL
