MODEL 1
REMARK VINA RESULT:    -5.279      0.000      0.000
REMARK INTER + INTRA:          -9.288
REMARK INTER:                  -8.056
REMARK INTRA:                  -1.231
REMARK UNBOUND:                -1.231
REMARK SMILES CCCCCCCCCC=CC(=O)[O-]
REMARK SMILES IDX 7 1 8 2 9 3 10 4 11 5 12 6 13 7 14 8 6 9 5 10 4 11 3 12 2 13
REMARK SMILES IDX 1 14
REMARK H PARENT
REMARK Flexibility Score: inf
ROOT
ATOM      1  C   UNL     1      19.331  22.203  10.208  1.00  0.00     0.000 C 
ENDROOT
BRANCH   1   2
ATOM      2  C   UNL     1      18.032  22.458  10.991  1.00  0.00     0.004 C 
BRANCH   2   3
ATOM      3  C   UNL     1      17.330  23.748  10.538  1.00  0.00     0.027 C 
BRANCH   3   4
ATOM      4  C   UNL     1      17.240  23.854   9.038  1.00  0.00    -0.025 C 
ATOM      5  C   UNL     1      17.571  24.927   8.301  1.00  0.00     0.020 C 
BRANCH   5   6
ATOM      6  C   UNL     1      18.047  26.232   8.807  1.00  0.00     0.064 C 
ATOM      7  O   UNL     1      19.270  26.486   8.957  1.00  0.00    -0.545 OA
ATOM      8  O   UNL     1      17.111  27.198   9.151  1.00  0.00    -0.545 OA
ENDBRANCH   5   6
ENDBRANCH   3   4
ENDBRANCH   2   3
ENDBRANCH   1   2
BRANCH   1   9
ATOM      9  C   UNL     1      20.479  23.128  10.646  1.00  0.00     0.000 C 
BRANCH   9  10
ATOM     10  C   UNL     1      21.656  23.119   9.660  1.00  0.00     0.000 C 
BRANCH  10  11
ATOM     11  C   UNL     1      21.164  23.302   8.216  1.00  0.00    -0.000 C 
BRANCH  11  12
ATOM     12  C   UNL     1      21.688  22.214   7.261  1.00  0.00    -0.000 C 
BRANCH  12  13
ATOM     13  C   UNL     1      20.782  21.922   6.051  1.00  0.00    -0.003 C 
ATOM     14  C   UNL     1      19.422  22.614   6.141  1.00  0.00     0.004 C 
ENDBRANCH  12  13
ENDBRANCH  11  12
ENDBRANCH  10  11
ENDBRANCH   9  10
ENDBRANCH   1   9
TORSDOF 9
ENDMDL
MODEL 2
REMARK VINA RESULT:    -5.246      2.342      3.841
REMARK INTER + INTRA:          -9.238
REMARK INTER:                  -7.900
REMARK INTRA:                  -1.338
REMARK UNBOUND:                -1.231
REMARK SMILES CCCCCCCCCC=CC(=O)[O-]
REMARK SMILES IDX 7 1 8 2 9 3 10 4 11 5 12 6 13 7 14 8 6 9 5 10 4 11 3 12 2 13
REMARK SMILES IDX 1 14
REMARK H PARENT
REMARK Flexibility Score: inf
ROOT
ATOM      1  C   UNL     1      16.938  24.008   7.897  1.00  0.00     0.000 C 
ENDROOT
BRANCH   1   2
ATOM      2  C   UNL     1      17.845  25.173   8.330  1.00  0.00     0.004 C 
BRANCH   2   3
ATOM      3  C   UNL     1      18.228  25.081   9.815  1.00  0.00     0.027 C 
BRANCH   3   4
ATOM      4  C   UNL     1      19.657  24.645  10.013  1.00  0.00    -0.025 C 
ATOM      5  C   UNL     1      20.071  23.393  10.270  1.00  0.00     0.020 C 
BRANCH   5   6
ATOM      6  C   UNL     1      19.217  22.202  10.456  1.00  0.00     0.064 C 
ATOM      7  O   UNL     1      18.933  21.427   9.506  1.00  0.00    -0.545 OA
ATOM      8  O   UNL     1      18.690  21.945  11.715  1.00  0.00    -0.545 OA
ENDBRANCH   5   6
ENDBRANCH   3   4
ENDBRANCH   2   3
ENDBRANCH   1   2
BRANCH   1   9
ATOM      9  C   UNL     1      17.440  23.306   6.625  1.00  0.00     0.000 C 
BRANCH   9  10
ATOM     10  C   UNL     1      18.971  23.305   6.513  1.00  0.00     0.000 C 
BRANCH  10  11
ATOM     11  C   UNL     1      19.451  22.199   5.561  1.00  0.00    -0.000 C 
BRANCH  11  12
ATOM     12  C   UNL     1      20.872  21.703   5.885  1.00  0.00    -0.000 C 
BRANCH  12  13
ATOM     13  C   UNL     1      21.497  22.311   7.154  1.00  0.00    -0.003 C 
ATOM     14  C   UNL     1      22.251  21.285   8.000  1.00  0.00     0.004 C 
ENDBRANCH  12  13
ENDBRANCH  11  12
ENDBRANCH  10  11
ENDBRANCH   9  10
ENDBRANCH   1   9
TORSDOF 9
ENDMDL
MODEL 3
REMARK VINA RESULT:    -5.240      0.814      3.120
REMARK INTER + INTRA:          -9.229
REMARK INTER:                  -7.863
REMARK INTRA:                  -1.366
REMARK UNBOUND:                -1.231
REMARK SMILES CCCCCCCCCC=CC(=O)[O-]
REMARK SMILES IDX 7 1 8 2 9 3 10 4 11 5 12 6 13 7 14 8 6 9 5 10 4 11 3 12 2 13
REMARK SMILES IDX 1 14
REMARK H PARENT
REMARK Flexibility Score: inf
ROOT
ATOM      1  C   UNL     1      19.382  22.573   5.953  1.00  0.00     0.000 C 
ENDROOT
BRANCH   1   2
ATOM      2  C   UNL     1      17.957  22.693   6.520  1.00  0.00     0.004 C 
BRANCH   2   3
ATOM      3  C   UNL     1      17.619  24.136   6.926  1.00  0.00     0.027 C 
BRANCH   3   4
ATOM      4  C   UNL     1      17.059  24.224   8.321  1.00  0.00    -0.025 C 
ATOM      5  C   UNL     1      17.246  25.236   9.185  1.00  0.00     0.020 C 
BRANCH   5   6
ATOM      6  C   UNL     1      18.069  26.443   8.964  1.00  0.00     0.064 C 
ATOM      7  O   UNL     1      17.560  27.586   8.831  1.00  0.00    -0.545 OA
ATOM      8  O   UNL     1      19.449  26.306   8.876  1.00  0.00    -0.545 OA
ENDBRANCH   5   6
ENDBRANCH   3   4
ENDBRANCH   2   3
ENDBRANCH   1   2
BRANCH   1   9
ATOM      9  C   UNL     1      20.291  21.683   6.816  1.00  0.00     0.000 C 
BRANCH   9  10
ATOM     10  C   UNL     1      21.594  22.385   7.224  1.00  0.00     0.000 C 
BRANCH  10  11
ATOM     11  C   UNL     1      21.342  23.401   8.349  1.00  0.00    -0.000 C 
BRANCH  11  12
ATOM     12  C   UNL     1      21.239  22.745   9.738  1.00  0.00    -0.000 C 
BRANCH  12  13
ATOM     13  C   UNL     1      19.975  23.111  10.536  1.00  0.00    -0.003 C 
ATOM     14  C   UNL     1      18.951  21.978  10.588  1.00  0.00     0.004 C 
ENDBRANCH  12  13
ENDBRANCH  11  12
ENDBRANCH  10  11
ENDBRANCH   9  10
ENDBRANCH   1   9
TORSDOF 9
ENDMDL
MODEL 4
REMARK VINA RESULT:    -5.151      2.745      4.880
REMARK INTER + INTRA:          -9.093
REMARK INTER:                  -7.575
REMARK INTRA:                  -1.518
REMARK UNBOUND:                -1.231
REMARK SMILES CCCCCCCCCC=CC(=O)[O-]
REMARK SMILES IDX 7 1 8 2 9 3 10 4 11 5 12 6 13 7 14 8 6 9 5 10 4 11 3 12 2 13
REMARK SMILES IDX 1 14
REMARK H PARENT
REMARK Flexibility Score: inf
ROOT
ATOM      1  C   UNL     1      19.149  22.102  10.596  1.00  0.00     0.000 C 
ENDROOT
BRANCH   1   2
ATOM      2  C   UNL     1      20.156  23.254  10.763  1.00  0.00     0.004 C 
BRANCH   2   3
ATOM      3  C   UNL     1      21.360  23.107   9.819  1.00  0.00     0.027 C 
BRANCH   3   4
ATOM      4  C   UNL     1      21.020  23.468   8.397  1.00  0.00    -0.025 C 
ATOM      5  C   UNL     1      20.846  22.602   7.383  1.00  0.00     0.020 C 
BRANCH   5   6
ATOM      6  C   UNL     1      20.996  21.133   7.442  1.00  0.00     0.064 C 
ATOM      7  O   UNL     1      20.006  20.363   7.533  1.00  0.00    -0.545 OA
ATOM      8  O   UNL     1      22.274  20.589   7.422  1.00  0.00    -0.545 OA
ENDBRANCH   5   6
ENDBRANCH   3   4
ENDBRANCH   2   3
ENDBRANCH   1   2
BRANCH   1   9
ATOM      9  C   UNL     1      17.730  22.484  11.046  1.00  0.00     0.000 C 
BRANCH   9  10
ATOM     10  C   UNL     1      17.202  23.741  10.339  1.00  0.00     0.000 C 
BRANCH  10  11
ATOM     11  C   UNL     1      17.222  23.562   8.813  1.00  0.00    -0.000 C 
BRANCH  11  12
ATOM     12  C   UNL     1      17.578  24.858   8.062  1.00  0.00    -0.000 C 
BRANCH  12  13
ATOM     13  C   UNL     1      17.724  26.104   8.953  1.00  0.00    -0.003 C 
ATOM     14  C   UNL     1      19.140  26.679   8.950  1.00  0.00     0.004 C 
ENDBRANCH  12  13
ENDBRANCH  11  12
ENDBRANCH  10  11
ENDBRANCH   9  10
ENDBRANCH   1   9
TORSDOF 9
ENDMDL
MODEL 5
REMARK VINA RESULT:    -5.055      3.300      5.454
REMARK INTER + INTRA:          -8.946
REMARK INTER:                  -7.589
REMARK INTRA:                  -1.357
REMARK UNBOUND:                -1.231
REMARK SMILES CCCCCCCCCC=CC(=O)[O-]
REMARK SMILES IDX 7 1 8 2 9 3 10 4 11 5 12 6 13 7 14 8 6 9 5 10 4 11 3 12 2 13
REMARK SMILES IDX 1 14
REMARK H PARENT
REMARK Flexibility Score: inf
ROOT
ATOM      1  C   UNL     1      17.382  23.975   6.617  1.00  0.00     0.000 C 
ENDROOT
BRANCH   1   2
ATOM      2  C   UNL     1      17.913  22.530   6.603  1.00  0.00     0.004 C 
BRANCH   2   3
ATOM      3  C   UNL     1      19.277  22.426   5.903  1.00  0.00     0.027 C 
BRANCH   3   4
ATOM      4  C   UNL     1      20.427  22.641   6.853  1.00  0.00    -0.025 C 
ATOM      5  C   UNL     1      21.596  21.978   6.841  1.00  0.00     0.020 C 
BRANCH   5   6
ATOM      6  C   UNL     1      21.977  20.878   5.930  1.00  0.00     0.064 C 
ATOM      7  O   UNL     1      22.127  19.697   6.335  1.00  0.00    -0.545 OA
ATOM      8  O   UNL     1      22.202  21.166   4.590  1.00  0.00    -0.545 OA
ENDBRANCH   5   6
ENDBRANCH   3   4
ENDBRANCH   2   3
ENDBRANCH   1   2
BRANCH   1   9
ATOM      9  C   UNL     1      17.248  24.543   8.039  1.00  0.00     0.000 C 
BRANCH   9  10
ATOM     10  C   UNL     1      18.399  25.489   8.411  1.00  0.00     0.000 C 
BRANCH  10  11
ATOM     11  C   UNL     1      19.069  25.049   9.721  1.00  0.00    -0.000 C 
BRANCH  11  12
ATOM     12  C   UNL     1      18.636  23.643  10.174  1.00  0.00    -0.000 C 
BRANCH  12  13
ATOM     13  C   UNL     1      19.792  22.693  10.536  1.00  0.00    -0.003 C 
ATOM     14  C   UNL     1      21.166  23.357  10.435  1.00  0.00     0.004 C 
ENDBRANCH  12  13
ENDBRANCH  11  12
ENDBRANCH  10  11
ENDBRANCH   9  10
ENDBRANCH   1   9
TORSDOF 9
ENDMDL
MODEL 6
REMARK VINA RESULT:    -5.005      2.115      4.706
REMARK INTER + INTRA:          -8.871
REMARK INTER:                  -7.650
REMARK INTRA:                  -1.221
REMARK UNBOUND:                -1.231
REMARK SMILES CCCCCCCCCC=CC(=O)[O-]
REMARK SMILES IDX 7 1 8 2 9 3 10 4 11 5 12 6 13 7 14 8 6 9 5 10 4 11 3 12 2 13
REMARK SMILES IDX 1 14
REMARK H PARENT
REMARK Flexibility Score: inf
ROOT
ATOM      1  C   UNL     1      20.626  22.045   6.239  1.00  0.00     0.000 C 
ENDROOT
BRANCH   1   2
ATOM      2  C   UNL     1      21.694  22.340   7.306  1.00  0.00     0.004 C 
BRANCH   2   3
ATOM      3  C   UNL     1      21.241  21.906   8.709  1.00  0.00     0.027 C 
BRANCH   3   4
ATOM      4  C   UNL     1      21.261  23.044   9.696  1.00  0.00    -0.025 C 
ATOM      5  C   UNL     1      20.353  23.269  10.660  1.00  0.00     0.020 C 
BRANCH   5   6
ATOM      6  C   UNL     1      19.131  22.480  10.922  1.00  0.00     0.064 C 
ATOM      7  O   UNL     1      18.163  22.459  10.120  1.00  0.00    -0.545 OA
ATOM      8  O   UNL     1      19.041  21.760  12.107  1.00  0.00    -0.545 OA
ENDBRANCH   5   6
ENDBRANCH   3   4
ENDBRANCH   2   3
ENDBRANCH   1   2
BRANCH   1   9
ATOM      9  C   UNL     1      19.208  21.961   6.826  1.00  0.00     0.000 C 
BRANCH   9  10
ATOM     10  C   UNL     1      18.195  22.818   6.054  1.00  0.00     0.000 C 
BRANCH  10  11
ATOM     11  C   UNL     1      17.559  23.876   6.969  1.00  0.00    -0.000 C 
BRANCH  11  12
ATOM     12  C   UNL     1      18.601  24.722   7.723  1.00  0.00    -0.000 C 
BRANCH  12  13
ATOM     13  C   UNL     1      18.017  25.700   8.757  1.00  0.00    -0.003 C 
ATOM     14  C   UNL     1      18.984  26.822   9.133  1.00  0.00     0.004 C 
ENDBRANCH  12  13
ENDBRANCH  11  12
ENDBRANCH  10  11
ENDBRANCH   9  10
ENDBRANCH   1   9
TORSDOF 9
ENDMDL
MODEL 7
REMARK VINA RESULT:    -4.935      2.255      4.369
REMARK INTER + INTRA:          -8.763
REMARK INTER:                  -7.301
REMARK INTRA:                  -1.463
REMARK UNBOUND:                -1.231
REMARK SMILES CCCCCCCCCC=CC(=O)[O-]
REMARK SMILES IDX 7 1 8 2 9 3 10 4 11 5 12 6 13 7 14 8 6 9 5 10 4 11 3 12 2 13
REMARK SMILES IDX 1 14
REMARK H PARENT
REMARK Flexibility Score: inf
ROOT
ATOM      1  C   UNL     1      20.310  23.287  10.510  1.00  0.00     0.000 C 
ENDROOT
BRANCH   1   2
ATOM      2  C   UNL     1      21.268  23.089   9.322  1.00  0.00     0.004 C 
BRANCH   2   3
ATOM      3  C   UNL     1      20.719  22.081   8.301  1.00  0.00     0.027 C 
BRANCH   3   4
ATOM      4  C   UNL     1      20.514  22.697   6.942  1.00  0.00    -0.025 C 
ATOM      5  C   UNL     1      19.361  22.719   6.251  1.00  0.00     0.020 C 
BRANCH   5   6
ATOM      6  C   UNL     1      18.077  22.111   6.657  1.00  0.00     0.064 C 
ATOM      7  O   UNL     1      17.978  20.893   6.956  1.00  0.00    -0.545 OA
ATOM      8  O   UNL     1      16.938  22.906   6.685  1.00  0.00    -0.545 OA
ENDBRANCH   5   6
ENDBRANCH   3   4
ENDBRANCH   2   3
ENDBRANCH   1   2
BRANCH   1   9
ATOM      9  C   UNL     1      19.201  22.224  10.561  1.00  0.00     0.000 C 
BRANCH   9  10
ATOM     10  C   UNL     1      17.808  22.806  10.284  1.00  0.00     0.000 C 
BRANCH  10  11
ATOM     11  C   UNL     1      17.763  24.305  10.617  1.00  0.00    -0.000 C 
BRANCH  11  12
ATOM     12  C   UNL     1      17.278  25.167   9.438  1.00  0.00    -0.000 C 
BRANCH  12  13
ATOM     13  C   UNL     1      18.384  25.627   8.472  1.00  0.00    -0.003 C 
ATOM     14  C   UNL     1      19.166  26.835   8.989  1.00  0.00     0.004 C 
ENDBRANCH  12  13
ENDBRANCH  11  12
ENDBRANCH  10  11
ENDBRANCH   9  10
ENDBRANCH   1   9
TORSDOF 9
ENDMDL
MODEL 8
REMARK VINA RESULT:    -4.912      2.938      4.698
REMARK INTER + INTRA:          -8.729
REMARK INTER:                  -7.122
REMARK INTRA:                  -1.606
REMARK UNBOUND:                -1.231
REMARK SMILES CCCCCCCCCC=CC(=O)[O-]
REMARK SMILES IDX 7 1 8 2 9 3 10 4 11 5 12 6 13 7 14 8 6 9 5 10 4 11 3 12 2 13
REMARK SMILES IDX 1 14
REMARK H PARENT
REMARK Flexibility Score: inf
ROOT
ATOM      1  C   UNL     1      18.688  22.355  10.830  1.00  0.00     0.000 C 
ENDROOT
BRANCH   1   2
ATOM      2  C   UNL     1      18.323  21.296   9.775  1.00  0.00     0.004 C 
BRANCH   2   3
ATOM      3  C   UNL     1      19.453  21.087   8.755  1.00  0.00     0.027 C 
BRANCH   3   4
ATOM      4  C   UNL     1      20.386  22.267   8.684  1.00  0.00    -0.025 C 
ATOM      5  C   UNL     1      21.362  22.448   7.778  1.00  0.00     0.020 C 
BRANCH   5   6
ATOM      6  C   UNL     1      21.749  21.514   6.700  1.00  0.00     0.064 C 
ATOM      7  O   UNL     1      21.405  21.693   5.503  1.00  0.00    -0.545 OA
ATOM      8  O   UNL     1      22.495  20.388   7.025  1.00  0.00    -0.545 OA
ENDBRANCH   5   6
ENDBRANCH   3   4
ENDBRANCH   2   3
ENDBRANCH   1   2
BRANCH   1   9
ATOM      9  C   UNL     1      17.455  23.072  11.403  1.00  0.00     0.000 C 
BRANCH   9  10
ATOM     10  C   UNL     1      17.011  24.265  10.544  1.00  0.00     0.000 C 
BRANCH  10  11
ATOM     11  C   UNL     1      18.226  25.010   9.970  1.00  0.00    -0.000 C 
BRANCH  11  12
ATOM     12  C   UNL     1      18.133  25.225   8.448  1.00  0.00    -0.000 C 
BRANCH  12  13
ATOM     13  C   UNL     1      17.107  24.331   7.729  1.00  0.00    -0.003 C 
ATOM     14  C   UNL     1      17.690  23.608   6.515  1.00  0.00     0.004 C 
ENDBRANCH  12  13
ENDBRANCH  11  12
ENDBRANCH  10  11
ENDBRANCH   9  10
ENDBRANCH   1   9
TORSDOF 9
ENDMDL
MODEL 9
REMARK VINA RESULT:    -4.829      2.347      4.441
REMARK INTER + INTRA:          -8.601
REMARK INTER:                  -6.978
REMARK INTRA:                  -1.623
REMARK UNBOUND:                -1.231
REMARK SMILES CCCCCCCCCC=CC(=O)[O-]
REMARK SMILES IDX 7 1 8 2 9 3 10 4 11 5 12 6 13 7 14 8 6 9 5 10 4 11 3 12 2 13
REMARK SMILES IDX 1 14
REMARK H PARENT
REMARK Flexibility Score: inf
ROOT
ATOM      1  C   UNL     1      18.023  20.882  10.174  1.00  0.00     0.000 C 
ENDROOT
BRANCH   1   2
ATOM      2  C   UNL     1      17.931  21.249   8.682  1.00  0.00     0.004 C 
BRANCH   2   3
ATOM      3  C   UNL     1      19.243  20.957   7.936  1.00  0.00     0.027 C 
BRANCH   3   4
ATOM      4  C   UNL     1      19.842  22.195   7.323  1.00  0.00    -0.025 C 
ATOM      5  C   UNL     1      20.958  22.820   7.736  1.00  0.00     0.020 C 
BRANCH   5   6
ATOM      6  C   UNL     1      21.797  22.452   8.895  1.00  0.00     0.064 C 
ATOM      7  O   UNL     1      22.647  21.526   8.839  1.00  0.00    -0.545 OA
ATOM      8  O   UNL     1      21.622  23.135  10.092  1.00  0.00    -0.545 OA
ENDBRANCH   5   6
ENDBRANCH   3   4
ENDBRANCH   2   3
ENDBRANCH   1   2
BRANCH   1   9
ATOM      9  C   UNL     1      18.335  22.094  11.065  1.00  0.00     0.000 C 
BRANCH   9  10
ATOM     10  C   UNL     1      17.079  22.896  11.437  1.00  0.00     0.000 C 
BRANCH  10  11
ATOM     11  C   UNL     1      17.108  24.291  10.793  1.00  0.00    -0.000 C 
BRANCH  11  12
ATOM     12  C   UNL     1      18.499  24.676  10.258  1.00  0.00    -0.000 C 
BRANCH  12  13
ATOM     13  C   UNL     1      18.497  25.357   8.878  1.00  0.00    -0.003 C 
ATOM     14  C   UNL     1      17.382  24.851   7.962  1.00  0.00     0.004 C 
ENDBRANCH  12  13
ENDBRANCH  11  12
ENDBRANCH  10  11
ENDBRANCH   9  10
ENDBRANCH   1   9
TORSDOF 9
ENDMDL
