MODEL 1
REMARK VINA RESULT:    -1.955      0.000      0.000
REMARK INTER + INTRA:          -0.018
REMARK INTER:                  -2.755
REMARK INTRA:                   2.737
REMARK UNBOUND:                 2.737
REMARK SMILES CC1=CCC(=C(C)C)C(=O)CC(C)=CCC1
REMARK SMILES IDX 12 1 14 2 13 3 15 4 16 5 2 6 1 7 3 8 11 10 9 11 10 12 5 13
REMARK SMILES IDX 6 14 7 15 8 16 4 17
REMARK H PARENT
REMARK Flexibility Score: 60.00
ROOT
ATOM      1  C   UNL     1     -27.201 -13.373  24.999  1.00  0.00    -0.070 C 
ATOM      2  C   UNL     1     -27.799 -13.965  23.939  1.00  0.00    -0.027 C 
ATOM      3  C   UNL     1     -25.695 -13.364  25.052  1.00  0.00     0.039 C 
ENDROOT
BRANCH   2   4
ATOM      4  C   UNL     1     -29.282 -14.193  23.800  1.00  0.00     0.032 C 
BRANCH   4   5
ATOM      5  C   UNL     1     -29.921 -13.019  23.049  1.00  0.00     0.034 C 
BRANCH   5   6
ATOM      6  C   UNL     1     -29.028 -12.478  21.950  1.00  0.00    -0.077 C 
ATOM      7  C   UNL     1     -29.143 -13.072  20.569  1.00  0.00     0.039 C 
ATOM      8  C   UNL     1     -28.177 -11.436  22.120  1.00  0.00    -0.023 CG0
ATOM      9  G   UNL     1     -27.845 -10.718  23.415  1.00  0.00     0.000 G0
ENDBRANCH   5   6
ENDBRANCH   4   5
ENDBRANCH   2   4
BRANCH   1  10
ATOM     10  C   UNL     1     -27.969 -12.705  26.123  1.00  0.00     0.111 C 
BRANCH  10  11
ATOM     11  C   UNL     1     -28.902 -11.635  25.608  1.00  0.00     0.163 C 
ATOM     12  O   UNL     1     -30.089 -11.655  26.032  1.00  0.00    -0.294 OA
BRANCH  11  13
ATOM     13  C   UNL     1     -28.487 -10.555  24.651  1.00  0.00    -0.002 C 
ATOM     14  C   UNL     1     -28.688  -9.237  24.959  1.00  0.00    -0.069 C 
ATOM     15  C   UNL     1     -29.572  -8.822  26.114  1.00  0.00     0.039 C 
ATOM     16  C   UNL     1     -28.081  -8.121  24.139  1.00  0.00     0.039 C 
BRANCH  13  17
ATOM     17  C   UNL     1     -27.681 -10.964  23.423  1.00  0.00     0.066 CG0
ATOM     18  G   UNL     1     -28.462 -11.570  22.271  1.00  0.00     0.000 G0
ENDBRANCH  13  17
ENDBRANCH  11  13
ENDBRANCH  10  11
ENDBRANCH   1  10
TORSDOF 0
ENDMDL
MODEL 2
REMARK VINA RESULT:    -1.278      1.629      3.580
REMARK INTER + INTRA:           0.936
REMARK INTER:                  -0.307
REMARK INTRA:                   1.244
REMARK UNBOUND:                 2.737
REMARK SMILES CC1=CCC(=C(C)C)C(=O)CC(C)=CCC1
REMARK SMILES IDX 12 1 14 2 13 3 15 4 16 5 2 6 1 7 3 8 11 10 9 11 10 12 5 13
REMARK SMILES IDX 6 14 7 15 8 16 4 17
REMARK H PARENT
REMARK Flexibility Score: 60.00
ROOT
ATOM      1  C   UNL     1     -28.229 -13.262  21.678  1.00  0.00    -0.070 C 
ATOM      2  C   UNL     1     -28.343 -14.341  22.487  1.00  0.00    -0.027 C 
ATOM      3  C   UNL     1     -28.627 -13.412  20.233  1.00  0.00     0.039 C 
ENDROOT
BRANCH   2   4
ATOM      4  C   UNL     1     -27.856 -14.409  23.912  1.00  0.00     0.032 C 
BRANCH   4   5
ATOM      5  C   UNL     1     -26.451 -13.803  24.011  1.00  0.00     0.034 C 
BRANCH   5   6
ATOM      6  C   UNL     1     -26.108 -13.359  25.418  1.00  0.00    -0.077 C 
ATOM      7  C   UNL     1     -24.837 -13.872  26.048  1.00  0.00     0.039 C 
ATOM      8  C   UNL     1     -26.846 -12.465  26.124  1.00  0.00    -0.023 CG0
ATOM      9  G   UNL     1     -28.180 -11.858  25.732  1.00  0.00     0.000 G0
ENDBRANCH   5   6
ENDBRANCH   4   5
ENDBRANCH   2   4
BRANCH   1  10
ATOM     10  C   UNL     1     -27.740 -11.909  22.158  1.00  0.00     0.111 C 
BRANCH  10  11
ATOM     11  C   UNL     1     -28.633 -11.337  23.233  1.00  0.00     0.163 C 
ATOM     12  O   UNL     1     -29.868 -11.286  22.987  1.00  0.00    -0.294 OA
BRANCH  11  13
ATOM     13  C   UNL     1     -28.133 -10.856  24.565  1.00  0.00    -0.002 C 
ATOM     14  C   UNL     1     -27.809  -9.540  24.753  1.00  0.00    -0.069 C 
ATOM     15  C   UNL     1     -27.665  -8.588  23.586  1.00  0.00     0.039 C 
ATOM     16  C   UNL     1     -27.527  -8.972  26.125  1.00  0.00     0.039 C 
BRANCH  13  17
ATOM     17  C   UNL     1     -28.172 -11.834  25.735  1.00  0.00     0.066 CG0
ATOM     18  G   UNL     1     -26.859 -12.496  26.108  1.00  0.00     0.000 G0
ENDBRANCH  13  17
ENDBRANCH  11  13
ENDBRANCH  10  11
ENDBRANCH   1  10
TORSDOF 0
ENDMDL
MODEL 3
REMARK VINA RESULT:     0.704      1.828      4.518
REMARK INTER + INTRA:           3.729
REMARK INTER:                   1.087
REMARK INTRA:                   2.642
REMARK UNBOUND:                 2.737
REMARK SMILES CC1=CCC(=C(C)C)C(=O)CC(C)=CCC1
REMARK SMILES IDX 12 1 14 2 13 3 15 4 16 5 2 6 1 7 3 8 11 10 9 11 10 12 5 13
REMARK SMILES IDX 6 14 7 15 8 16 4 17
REMARK H PARENT
REMARK Flexibility Score: 60.00
ROOT
ATOM      1  C   UNL     1     -29.339 -12.466  21.346  1.00  0.00    -0.070 C 
ATOM      2  C   UNL     1     -30.023 -11.520  22.030  1.00  0.00    -0.027 C 
ATOM      3  C   UNL     1     -29.628 -12.628  19.876  1.00  0.00     0.039 C 
ENDROOT
BRANCH   2   4
ATOM      4  C   UNL     1     -29.966 -11.323  23.523  1.00  0.00     0.032 C 
BRANCH   4   5
ATOM      5  C   UNL     1     -28.867 -10.312  23.873  1.00  0.00     0.034 C 
BRANCH   5   6
ATOM      6  C   UNL     1     -28.502 -10.338  25.344  1.00  0.00    -0.077 C 
ATOM      7  C   UNL     1     -28.089  -9.049  26.008  1.00  0.00     0.039 C 
ATOM      8  C   UNL     1     -28.595 -11.446  26.121  1.00  0.00    -0.023 CG0
ATOM      9  G   UNL     1     -28.929 -12.859  25.677  1.00  0.00     0.000 G0
ENDBRANCH   5   6
ENDBRANCH   4   5
ENDBRANCH   2   4
BRANCH   1  10
ATOM     10  C   UNL     1     -28.286 -13.355  21.979  1.00  0.00     0.111 C 
BRANCH  10  11
ATOM     11  C   UNL     1     -28.730 -13.885  23.321  1.00  0.00     0.163 C 
ATOM     12  O   UNL     1     -29.695 -14.697  23.327  1.00  0.00    -0.294 OA
BRANCH  11  13
ATOM     13  C   UNL     1     -28.076 -13.518  24.621  1.00  0.00    -0.002 C 
ATOM     14  C   UNL     1     -26.717 -13.596  24.764  1.00  0.00    -0.069 C 
ATOM     15  C   UNL     1     -25.857 -14.309  23.745  1.00  0.00     0.039 C 
ATOM     16  C   UNL     1     -26.003 -13.020  25.965  1.00  0.00     0.039 C 
BRANCH  13  17
ATOM     17  C   UNL     1     -28.948 -12.890  25.704  1.00  0.00     0.066 CG0
ATOM     18  G   UNL     1     -28.602 -11.470  26.112  1.00  0.00     0.000 G0
ENDBRANCH  13  17
ENDBRANCH  11  13
ENDBRANCH  10  11
ENDBRANCH   1  10
TORSDOF 0
ENDMDL
