MODEL 1
REMARK VINA RESULT:    -2.941      0.000      0.000
REMARK INTER + INTRA:          -7.593
REMARK INTER:                  -5.347
REMARK INTRA:                  -2.245
REMARK UNBOUND:                -2.245
REMARK SMILES CCCCCCCCCCCCCC[C@@H](C)C(=O)[O-]
REMARK SMILES IDX 9 1 10 2 11 3 12 4 13 5 14 6 15 7 16 8 17 9 18 10 19 11 8 12
REMARK SMILES IDX 7 13 6 14 5 15 4 16 3 17 2 18 1 19
REMARK H PARENT
REMARK Flexibility Score: inf
ROOT
ATOM      1  C   UNL     1       6.933 -15.989  19.948  1.00  0.00     0.000 C 
ENDROOT
BRANCH   1   2
ATOM      2  C   UNL     1       5.958 -15.673  18.803  1.00  0.00     0.000 C 
BRANCH   2   3
ATOM      3  C   UNL     1       4.698 -16.552  18.839  1.00  0.00     0.000 C 
BRANCH   3   4
ATOM      4  C   UNL     1       4.727 -17.503  20.042  1.00  0.00     0.000 C 
BRANCH   4   5
ATOM      5  C   UNL     1       4.298 -18.920  19.636  1.00  0.00     0.001 C 
BRANCH   5   6
ATOM      6  C   UNL     1       3.010 -18.963  18.786  1.00  0.00     0.009 C 
BRANCH   6   7
ATOM      7  C   UNL     1       1.858 -19.874  19.287  1.00  0.00     0.032 C 
ATOM      8  C   UNL     1       1.811 -19.999  20.818  1.00  0.00     0.014 C 
BRANCH   7   9
ATOM      9  C   UNL     1       0.519 -19.496  18.711  1.00  0.00     0.044 C 
ATOM     10  O   UNL     1       0.357 -18.356  18.200  1.00  0.00    -0.550 OA
ATOM     11  O   UNL     1      -0.560 -20.370  18.780  1.00  0.00    -0.550 OA
ENDBRANCH   7   9
ENDBRANCH   6   7
ENDBRANCH   5   6
ENDBRANCH   4   5
ENDBRANCH   3   4
ENDBRANCH   2   3
ENDBRANCH   1   2
BRANCH   1  12
ATOM     12  C   UNL     1       8.372 -16.211  19.458  1.00  0.00     0.000 C 
BRANCH  12  13
ATOM     13  C   UNL     1       8.390 -16.667  17.994  1.00  0.00    -0.000 C 
BRANCH  13  14
ATOM     14  C   UNL     1       8.884 -18.116  17.875  1.00  0.00    -0.000 C 
BRANCH  14  15
ATOM     15  C   UNL     1       7.786 -19.136  18.224  1.00  0.00    -0.000 C 
BRANCH  15  16
ATOM     16  C   UNL     1       8.270 -20.261  19.166  1.00  0.00    -0.000 C 
BRANCH  16  17
ATOM     17  C   UNL     1       7.653 -20.191  20.576  1.00  0.00    -0.000 C 
BRANCH  17  18
ATOM     18  C   UNL     1       8.315 -19.166  21.512  1.00  0.00    -0.003 C 
ATOM     19  C   UNL     1       9.842 -19.244  21.492  1.00  0.00     0.004 C 
ENDBRANCH  17  18
ENDBRANCH  16  17
ENDBRANCH  15  16
ENDBRANCH  14  15
ENDBRANCH  13  14
ENDBRANCH  12  13
ENDBRANCH   1  12
TORSDOF 14
ENDMDL
MODEL 2
REMARK VINA RESULT:    -2.865      5.198      7.627
REMARK INTER + INTRA:          -7.455
REMARK INTER:                  -5.205
REMARK INTRA:                  -2.250
REMARK UNBOUND:                -2.245
REMARK SMILES CCCCCCCCCCCCCC[C@@H](C)C(=O)[O-]
REMARK SMILES IDX 9 1 10 2 11 3 12 4 13 5 14 6 15 7 16 8 17 9 18 10 19 11 8 12
REMARK SMILES IDX 7 13 6 14 5 15 4 16 3 17 2 18 1 19
REMARK H PARENT
REMARK Flexibility Score: inf
ROOT
ATOM      1  C   UNL     1       6.815 -18.899  19.158  1.00  0.00     0.000 C 
ENDROOT
BRANCH   1   2
ATOM      2  C   UNL     1       6.833 -19.281  20.647  1.00  0.00     0.000 C 
BRANCH   2   3
ATOM      3  C   UNL     1       7.620 -20.572  20.918  1.00  0.00     0.000 C 
BRANCH   3   4
ATOM      4  C   UNL     1       8.818 -20.301  21.836  1.00  0.00     0.000 C 
BRANCH   4   5
ATOM      5  C   UNL     1       8.965 -18.800  22.124  1.00  0.00     0.001 C 
BRANCH   5   6
ATOM      6  C   UNL     1      10.384 -18.251  21.863  1.00  0.00     0.009 C 
BRANCH   6   7
ATOM      7  C   UNL     1      11.440 -19.246  21.311  1.00  0.00     0.032 C 
ATOM      8  C   UNL     1      12.074 -18.782  19.991  1.00  0.00     0.014 C 
BRANCH   7   9
ATOM      9  C   UNL     1      12.480 -19.624  22.334  1.00  0.00     0.044 C 
ATOM     10  O   UNL     1      12.551 -20.812  22.744  1.00  0.00    -0.550 OA
ATOM     11  O   UNL     1      13.331 -18.666  22.872  1.00  0.00    -0.550 OA
ENDBRANCH   7   9
ENDBRANCH   6   7
ENDBRANCH   5   6
ENDBRANCH   4   5
ENDBRANCH   3   4
ENDBRANCH   2   3
ENDBRANCH   1   2
BRANCH   1  12
ATOM     12  C   UNL     1       7.965 -19.542  18.367  1.00  0.00     0.000 C 
BRANCH  12  13
ATOM     13  C   UNL     1       8.955 -18.479  17.875  1.00  0.00    -0.000 C 
BRANCH  13  14
ATOM     14  C   UNL     1       8.513 -17.074  18.310  1.00  0.00    -0.000 C 
BRANCH  14  15
ATOM     15  C   UNL     1       9.613 -16.332  19.090  1.00  0.00    -0.000 C 
BRANCH  15  16
ATOM     16  C   UNL     1       9.100 -15.076  19.831  1.00  0.00    -0.000 C 
BRANCH  16  17
ATOM     17  C   UNL     1      10.225 -14.221  20.446  1.00  0.00    -0.000 C 
BRANCH  17  18
ATOM     18  C   UNL     1      11.608 -14.436  19.810  1.00  0.00    -0.003 C 
ATOM     19  C   UNL     1      12.505 -13.201  19.908  1.00  0.00     0.004 C 
ENDBRANCH  17  18
ENDBRANCH  16  17
ENDBRANCH  15  16
ENDBRANCH  14  15
ENDBRANCH  13  14
ENDBRANCH  12  13
ENDBRANCH   1  12
TORSDOF 14
ENDMDL
MODEL 3
REMARK VINA RESULT:    -2.862      5.709      8.235
REMARK INTER + INTRA:          -7.449
REMARK INTER:                  -5.023
REMARK INTRA:                  -2.426
REMARK UNBOUND:                -2.245
REMARK SMILES CCCCCCCCCCCCCC[C@@H](C)C(=O)[O-]
REMARK SMILES IDX 9 1 10 2 11 3 12 4 13 5 14 6 15 7 16 8 17 9 18 10 19 11 8 12
REMARK SMILES IDX 7 13 6 14 5 15 4 16 3 17 2 18 1 19
REMARK H PARENT
REMARK Flexibility Score: inf
ROOT
ATOM      1  C   UNL     1       7.020 -16.482  20.247  1.00  0.00     0.000 C 
ENDROOT
BRANCH   1   2
ATOM      2  C   UNL     1       7.692 -15.577  19.203  1.00  0.00     0.000 C 
BRANCH   2   3
ATOM      3  C   UNL     1       9.195 -15.389  19.462  1.00  0.00     0.000 C 
BRANCH   3   4
ATOM      4  C   UNL     1       9.524 -15.591  20.946  1.00  0.00     0.000 C 
BRANCH   4   5
ATOM      5  C   UNL     1      11.032 -15.448  21.202  1.00  0.00     0.001 C 
BRANCH   5   6
ATOM      6  C   UNL     1      11.855 -15.154  19.930  1.00  0.00     0.009 C 
BRANCH   6   7
ATOM      7  C   UNL     1      12.766 -13.898  19.949  1.00  0.00     0.032 C 
ATOM      8  C   UNL     1      11.986 -12.585  19.769  1.00  0.00     0.014 C 
BRANCH   7   9
ATOM      9  C   UNL     1      13.677 -13.852  21.148  1.00  0.00     0.044 C 
ATOM     10  O   UNL     1      14.636 -14.663  21.236  1.00  0.00    -0.550 OA
ATOM     11  O   UNL     1      13.443 -12.959  22.188  1.00  0.00    -0.550 OA
ENDBRANCH   7   9
ENDBRANCH   6   7
ENDBRANCH   5   6
ENDBRANCH   4   5
ENDBRANCH   3   4
ENDBRANCH   2   3
ENDBRANCH   1   2
BRANCH   1  12
ATOM     12  C   UNL     1       6.416 -17.753  19.631  1.00  0.00     0.000 C 
BRANCH  12  13
ATOM     13  C   UNL     1       7.433 -18.902  19.633  1.00  0.00    -0.000 C 
BRANCH  13  14
ATOM     14  C   UNL     1       7.919 -19.207  18.209  1.00  0.00    -0.000 C 
BRANCH  14  15
ATOM     15  C   UNL     1       9.437 -19.006  18.056  1.00  0.00    -0.000 C 
BRANCH  15  16
ATOM     16  C   UNL     1      10.183 -18.914  19.406  1.00  0.00    -0.000 C 
BRANCH  16  17
ATOM     17  C   UNL     1      11.717 -18.898  19.262  1.00  0.00    -0.000 C 
BRANCH  17  18
ATOM     18  C   UNL     1      12.482 -18.880  20.596  1.00  0.00    -0.003 C 
ATOM     19  C   UNL     1      11.592 -19.210  21.795  1.00  0.00     0.004 C 
ENDBRANCH  17  18
ENDBRANCH  16  17
ENDBRANCH  15  16
ENDBRANCH  14  15
ENDBRANCH  13  14
ENDBRANCH  12  13
ENDBRANCH   1  12
TORSDOF 14
ENDMDL
MODEL 4
REMARK VINA RESULT:    -2.832      5.183      8.449
REMARK INTER + INTRA:          -7.394
REMARK INTER:                  -4.880
REMARK INTRA:                  -2.515
REMARK UNBOUND:                -2.245
REMARK SMILES CCCCCCCCCCCCCC[C@@H](C)C(=O)[O-]
REMARK SMILES IDX 9 1 10 2 11 3 12 4 13 5 14 6 15 7 16 8 17 9 18 10 19 11 8 12
REMARK SMILES IDX 7 13 6 14 5 15 4 16 3 17 2 18 1 19
REMARK H PARENT
REMARK Flexibility Score: inf
ROOT
ATOM      1  C   UNL     1      10.534 -19.116  18.883  1.00  0.00     0.000 C 
ENDROOT
BRANCH   1   2
ATOM      2  C   UNL     1      11.597 -18.498  19.806  1.00  0.00     0.000 C 
BRANCH   2   3
ATOM      3  C   UNL     1      11.497 -19.011  21.250  1.00  0.00     0.000 C 
BRANCH   3   4
ATOM      4  C   UNL     1      12.436 -18.227  22.176  1.00  0.00     0.000 C 
BRANCH   4   5
ATOM      5  C   UNL     1      13.586 -17.587  21.385  1.00  0.00     0.001 C 
BRANCH   5   6
ATOM      6  C   UNL     1      13.743 -16.071  21.629  1.00  0.00     0.009 C 
BRANCH   6   7
ATOM      7  C   UNL     1      12.489 -15.183  21.409  1.00  0.00     0.032 C 
ATOM      8  C   UNL     1      12.083 -14.393  22.663  1.00  0.00     0.014 C 
BRANCH   7   9
ATOM      9  C   UNL     1      12.604 -14.297  20.197  1.00  0.00     0.044 C 
ATOM     10  O   UNL     1      12.519 -14.798  19.045  1.00  0.00    -0.550 OA
ATOM     11  O   UNL     1      12.855 -12.936  20.330  1.00  0.00    -0.550 OA
ENDBRANCH   7   9
ENDBRANCH   6   7
ENDBRANCH   5   6
ENDBRANCH   4   5
ENDBRANCH   3   4
ENDBRANCH   2   3
ENDBRANCH   1   2
BRANCH   1  12
ATOM     12  C   UNL     1       9.282 -19.576  19.645  1.00  0.00     0.000 C 
BRANCH  12  13
ATOM     13  C   UNL     1       8.143 -19.919  18.676  1.00  0.00    -0.000 C 
BRANCH  13  14
ATOM     14  C   UNL     1       7.710 -18.680  17.878  1.00  0.00    -0.000 C 
BRANCH  14  15
ATOM     15  C   UNL     1       6.558 -17.921  18.559  1.00  0.00    -0.000 C 
BRANCH  15  16
ATOM     16  C   UNL     1       6.910 -16.458  18.911  1.00  0.00    -0.000 C 
BRANCH  16  17
ATOM     17  C   UNL     1       8.382 -16.096  18.636  1.00  0.00    -0.000 C 
BRANCH  17  18
ATOM     18  C   UNL     1       9.128 -15.501  19.842  1.00  0.00    -0.003 C 
ATOM     19  C   UNL     1       8.859 -16.261  21.140  1.00  0.00     0.004 C 
ENDBRANCH  17  18
ENDBRANCH  16  17
ENDBRANCH  15  16
ENDBRANCH  14  15
ENDBRANCH  13  14
ENDBRANCH  12  13
ENDBRANCH   1  12
TORSDOF 14
ENDMDL
MODEL 5
REMARK VINA RESULT:    -2.831      4.944      8.323
REMARK INTER + INTRA:          -7.393
REMARK INTER:                  -5.205
REMARK INTRA:                  -2.187
REMARK UNBOUND:                -2.245
REMARK SMILES CCCCCCCCCCCCCC[C@@H](C)C(=O)[O-]
REMARK SMILES IDX 9 1 10 2 11 3 12 4 13 5 14 6 15 7 16 8 17 9 18 10 19 11 8 12
REMARK SMILES IDX 7 13 6 14 5 15 4 16 3 17 2 18 1 19
REMARK H PARENT
REMARK Flexibility Score: inf
ROOT
ATOM      1  C   UNL     1      11.012 -18.834  21.093  1.00  0.00     0.000 C 
ENDROOT
BRANCH   1   2
ATOM      2  C   UNL     1      11.882 -19.287  22.277  1.00  0.00     0.000 C 
BRANCH   2   3
ATOM      3  C   UNL     1      13.385 -19.234  21.962  1.00  0.00     0.000 C 
BRANCH   3   4
ATOM      4  C   UNL     1      14.016 -17.951  22.517  1.00  0.00     0.000 C 
BRANCH   4   5
ATOM      5  C   UNL     1      14.780 -17.193  21.423  1.00  0.00     0.001 C 
BRANCH   5   6
ATOM      6  C   UNL     1      14.189 -15.805  21.096  1.00  0.00     0.009 C 
BRANCH   6   7
ATOM      7  C   UNL     1      12.671 -15.603  21.349  1.00  0.00     0.032 C 
ATOM      8  C   UNL     1      12.375 -14.655  22.521  1.00  0.00     0.014 C 
BRANCH   7   9
ATOM      9  C   UNL     1      11.917 -15.212  20.104  1.00  0.00     0.044 C 
ATOM     10  O   UNL     1      12.543 -14.758  19.110  1.00  0.00    -0.550 OA
ATOM     11  O   UNL     1      10.530 -15.297  20.055  1.00  0.00    -0.550 OA
ENDBRANCH   7   9
ENDBRANCH   6   7
ENDBRANCH   5   6
ENDBRANCH   4   5
ENDBRANCH   3   4
ENDBRANCH   2   3
ENDBRANCH   1   2
BRANCH   1  12
ATOM     12  C   UNL     1      11.759 -18.894  19.751  1.00  0.00     0.000 C 
BRANCH  12  13
ATOM     13  C   UNL     1      10.799 -19.227  18.602  1.00  0.00    -0.000 C 
BRANCH  13  14
ATOM     14  C   UNL     1       9.521 -18.379  18.691  1.00  0.00    -0.000 C 
BRANCH  14  15
ATOM     15  C   UNL     1       8.256 -19.198  18.382  1.00  0.00    -0.000 C 
BRANCH  15  16
ATOM     16  C   UNL     1       8.261 -20.603  19.025  1.00  0.00    -0.000 C 
BRANCH  16  17
ATOM     17  C   UNL     1       7.929 -20.593  20.530  1.00  0.00    -0.000 C 
BRANCH  17  18
ATOM     18  C   UNL     1       6.816 -19.611  20.930  1.00  0.00    -0.003 C 
ATOM     19  C   UNL     1       7.289 -18.550  21.923  1.00  0.00     0.004 C 
ENDBRANCH  17  18
ENDBRANCH  16  17
ENDBRANCH  15  16
ENDBRANCH  14  15
ENDBRANCH  13  14
ENDBRANCH  12  13
ENDBRANCH   1  12
TORSDOF 14
ENDMDL
MODEL 6
REMARK VINA RESULT:    -2.822      4.265      6.141
REMARK INTER + INTRA:          -7.376
REMARK INTER:                  -4.910
REMARK INTRA:                  -2.466
REMARK UNBOUND:                -2.245
REMARK SMILES CCCCCCCCCCCCCC[C@@H](C)C(=O)[O-]
REMARK SMILES IDX 9 1 10 2 11 3 12 4 13 5 14 6 15 7 16 8 17 9 18 10 19 11 8 12
REMARK SMILES IDX 7 13 6 14 5 15 4 16 3 17 2 18 1 19
REMARK H PARENT
REMARK Flexibility Score: inf
ROOT
ATOM      1  C   UNL     1      10.348 -16.904  20.473  1.00  0.00     0.000 C 
ENDROOT
BRANCH   1   2
ATOM      2  C   UNL     1       9.186 -16.267  19.696  1.00  0.00     0.000 C 
BRANCH   2   3
ATOM      3  C   UNL     1       8.901 -16.981  18.366  1.00  0.00     0.000 C 
BRANCH   3   4
ATOM      4  C   UNL     1       7.675 -17.895  18.486  1.00  0.00     0.000 C 
BRANCH   4   5
ATOM      5  C   UNL     1       8.076 -19.374  18.391  1.00  0.00     0.001 C 
BRANCH   5   6
ATOM      6  C   UNL     1       8.103 -20.102  19.752  1.00  0.00     0.009 C 
BRANCH   6   7
ATOM      7  C   UNL     1       7.571 -19.323  20.984  1.00  0.00     0.032 C 
ATOM      8  C   UNL     1       6.081 -19.577  21.260  1.00  0.00     0.014 C 
BRANCH   7   9
ATOM      9  C   UNL     1       8.415 -19.527  22.215  1.00  0.00     0.044 C 
ATOM     10  O   UNL     1       8.605 -18.568  23.009  1.00  0.00    -0.550 OA
ATOM     11  O   UNL     1       9.031 -20.748  22.463  1.00  0.00    -0.550 OA
ENDBRANCH   7   9
ENDBRANCH   6   7
ENDBRANCH   5   6
ENDBRANCH   4   5
ENDBRANCH   3   4
ENDBRANCH   2   3
ENDBRANCH   1   2
BRANCH   1  12
ATOM     12  C   UNL     1      11.278 -17.735  19.575  1.00  0.00     0.000 C 
BRANCH  12  13
ATOM     13  C   UNL     1      11.665 -19.055  20.255  1.00  0.00    -0.000 C 
BRANCH  13  14
ATOM     14  C   UNL     1      11.956 -18.838  21.747  1.00  0.00    -0.000 C 
BRANCH  14  15
ATOM     15  C   UNL     1      13.291 -19.470  22.178  1.00  0.00    -0.000 C 
BRANCH  15  16
ATOM     16  C   UNL     1      14.336 -18.434  22.651  1.00  0.00    -0.000 C 
BRANCH  16  17
ATOM     17  C   UNL     1      14.701 -17.393  21.574  1.00  0.00    -0.000 C 
BRANCH  17  18
ATOM     18  C   UNL     1      14.388 -15.938  21.963  1.00  0.00    -0.003 C 
ATOM     19  C   UNL     1      13.623 -15.185  20.874  1.00  0.00     0.004 C 
ENDBRANCH  17  18
ENDBRANCH  16  17
ENDBRANCH  15  16
ENDBRANCH  14  15
ENDBRANCH  13  14
ENDBRANCH  12  13
ENDBRANCH   1  12
TORSDOF 14
ENDMDL
MODEL 7
REMARK VINA RESULT:    -2.818      5.154      7.792
REMARK INTER + INTRA:          -7.369
REMARK INTER:                  -4.857
REMARK INTRA:                  -2.512
REMARK UNBOUND:                -2.245
REMARK SMILES CCCCCCCCCCCCCC[C@@H](C)C(=O)[O-]
REMARK SMILES IDX 9 1 10 2 11 3 12 4 13 5 14 6 15 7 16 8 17 9 18 10 19 11 8 12
REMARK SMILES IDX 7 13 6 14 5 15 4 16 3 17 2 18 1 19
REMARK H PARENT
REMARK Flexibility Score: inf
ROOT
ATOM      1  C   UNL     1       8.661 -15.673  19.261  1.00  0.00     0.000 C 
ENDROOT
BRANCH   1   2
ATOM      2  C   UNL     1       9.716 -16.250  20.218  1.00  0.00     0.000 C 
BRANCH   2   3
ATOM      3  C   UNL     1      10.968 -15.365  20.323  1.00  0.00     0.000 C 
BRANCH   3   4
ATOM      4  C   UNL     1      11.813 -15.753  21.543  1.00  0.00     0.000 C 
BRANCH   4   5
ATOM      5  C   UNL     1      13.279 -15.984  21.149  1.00  0.00     0.001 C 
BRANCH   5   6
ATOM      6  C   UNL     1      13.730 -17.456  21.262  1.00  0.00     0.009 C 
BRANCH   6   7
ATOM      7  C   UNL     1      12.619 -18.530  21.401  1.00  0.00     0.032 C 
ATOM      8  C   UNL     1      12.081 -19.021  20.047  1.00  0.00     0.014 C 
BRANCH   7   9
ATOM      9  C   UNL     1      13.018 -19.674  22.297  1.00  0.00     0.044 C 
ATOM     10  O   UNL     1      12.155 -20.516  22.658  1.00  0.00    -0.550 OA
ATOM     11  O   UNL     1      14.319 -19.785  22.773  1.00  0.00    -0.550 OA
ENDBRANCH   7   9
ENDBRANCH   6   7
ENDBRANCH   5   6
ENDBRANCH   4   5
ENDBRANCH   3   4
ENDBRANCH   2   3
ENDBRANCH   1   2
BRANCH   1  12
ATOM     12  C   UNL     1       8.195 -16.691  18.210  1.00  0.00     0.000 C 
BRANCH  12  13
ATOM     13  C   UNL     1       9.045 -17.967  18.263  1.00  0.00    -0.000 C 
BRANCH  13  14
ATOM     14  C   UNL     1       8.160 -19.220  18.192  1.00  0.00    -0.000 C 
BRANCH  14  15
ATOM     15  C   UNL     1       8.138 -19.994  19.521  1.00  0.00    -0.000 C 
BRANCH  15  16
ATOM     16  C   UNL     1       7.004 -19.548  20.473  1.00  0.00    -0.000 C 
BRANCH  16  17
ATOM     17  C   UNL     1       7.507 -18.793  21.718  1.00  0.00    -0.000 C 
BRANCH  17  18
ATOM     18  C   UNL     1       8.910 -19.208  22.191  1.00  0.00    -0.003 C 
ATOM     19  C   UNL     1       9.445 -18.319  23.314  1.00  0.00     0.004 C 
ENDBRANCH  17  18
ENDBRANCH  16  17
ENDBRANCH  15  16
ENDBRANCH  14  15
ENDBRANCH  13  14
ENDBRANCH  12  13
ENDBRANCH   1  12
TORSDOF 14
ENDMDL
MODEL 8
REMARK VINA RESULT:    -2.812      5.335      8.168
REMARK INTER + INTRA:          -7.359
REMARK INTER:                  -5.137
REMARK INTRA:                  -2.222
REMARK UNBOUND:                -2.245
REMARK SMILES CCCCCCCCCCCCCC[C@@H](C)C(=O)[O-]
REMARK SMILES IDX 9 1 10 2 11 3 12 4 13 5 14 6 15 7 16 8 17 9 18 10 19 11 8 12
REMARK SMILES IDX 7 13 6 14 5 15 4 16 3 17 2 18 1 19
REMARK H PARENT
REMARK Flexibility Score: inf
ROOT
ATOM      1  C   UNL     1       8.013 -19.166  17.946  1.00  0.00     0.000 C 
ENDROOT
BRANCH   1   2
ATOM      2  C   UNL     1       9.511 -18.825  17.931  1.00  0.00     0.000 C 
BRANCH   2   3
ATOM      3  C   UNL     1      10.226 -19.243  19.225  1.00  0.00     0.000 C 
BRANCH   3   4
ATOM      4  C   UNL     1      11.737 -19.001  19.120  1.00  0.00     0.000 C 
BRANCH   4   5
ATOM      5  C   UNL     1      12.375 -18.875  20.510  1.00  0.00     0.001 C 
BRANCH   5   6
ATOM      6  C   UNL     1      12.053 -17.546  21.227  1.00  0.00     0.009 C 
BRANCH   6   7
ATOM      7  C   UNL     1      13.246 -16.608  21.554  1.00  0.00     0.032 C 
ATOM      8  C   UNL     1      14.592 -17.346  21.622  1.00  0.00     0.014 C 
BRANCH   7   9
ATOM      9  C   UNL     1      13.309 -15.404  20.651  1.00  0.00     0.044 C 
ATOM     10  O   UNL     1      12.897 -15.490  19.463  1.00  0.00    -0.550 OA
ATOM     11  O   UNL     1      13.864 -14.209  21.094  1.00  0.00    -0.550 OA
ENDBRANCH   7   9
ENDBRANCH   6   7
ENDBRANCH   5   6
ENDBRANCH   4   5
ENDBRANCH   3   4
ENDBRANCH   2   3
ENDBRANCH   1   2
BRANCH   1  12
ATOM     12  C   UNL     1       7.120 -17.916  17.969  1.00  0.00     0.000 C 
BRANCH  12  13
ATOM     13  C   UNL     1       7.961 -16.637  17.876  1.00  0.00    -0.000 C 
BRANCH  13  14
ATOM     14  C   UNL     1       7.706 -15.723  19.083  1.00  0.00    -0.000 C 
BRANCH  14  15
ATOM     15  C   UNL     1       8.644 -16.037  20.261  1.00  0.00    -0.000 C 
BRANCH  15  16
ATOM     16  C   UNL     1       7.920 -16.672  21.470  1.00  0.00    -0.000 C 
BRANCH  16  17
ATOM     17  C   UNL     1       8.188 -18.182  21.626  1.00  0.00    -0.000 C 
BRANCH  17  18
ATOM     18  C   UNL     1       6.929 -19.062  21.572  1.00  0.00    -0.003 C 
ATOM     19  C   UNL     1       7.249 -20.545  21.387  1.00  0.00     0.004 C 
ENDBRANCH  17  18
ENDBRANCH  16  17
ENDBRANCH  15  16
ENDBRANCH  14  15
ENDBRANCH  13  14
ENDBRANCH  12  13
ENDBRANCH   1  12
TORSDOF 14
ENDMDL
MODEL 9
REMARK VINA RESULT:    -2.796      5.260      8.167
REMARK INTER + INTRA:          -7.330
REMARK INTER:                  -4.755
REMARK INTRA:                  -2.575
REMARK UNBOUND:                -2.245
REMARK SMILES CCCCCCCCCCCCCC[C@@H](C)C(=O)[O-]
REMARK SMILES IDX 9 1 10 2 11 3 12 4 13 5 14 6 15 7 16 8 17 9 18 10 19 11 8 12
REMARK SMILES IDX 7 13 6 14 5 15 4 16 3 17 2 18 1 19
REMARK H PARENT
REMARK Flexibility Score: inf
ROOT
ATOM      1  C   UNL     1       8.642 -18.329  22.199  1.00  0.00     0.000 C 
ENDROOT
BRANCH   1   2
ATOM      2  C   UNL     1       9.673 -18.928  23.168  1.00  0.00     0.000 C 
BRANCH   2   3
ATOM      3  C   UNL     1      10.836 -19.621  22.442  1.00  0.00     0.000 C 
BRANCH   3   4
ATOM      4  C   UNL     1      11.141 -18.927  21.108  1.00  0.00     0.000 C 
BRANCH   4   5
ATOM      5  C   UNL     1      12.655 -18.814  20.877  1.00  0.00     0.001 C 
BRANCH   5   6
ATOM      6  C   UNL     1      13.236 -17.426  21.224  1.00  0.00     0.009 C 
BRANCH   6   7
ATOM      7  C   UNL     1      12.259 -16.221  21.202  1.00  0.00     0.032 C 
ATOM      8  C   UNL     1      11.788 -15.800  22.603  1.00  0.00     0.014 C 
BRANCH   7   9
ATOM      9  C   UNL     1      12.787 -15.053  20.410  1.00  0.00     0.044 C 
ATOM     10  O   UNL     1      12.467 -14.923  19.199  1.00  0.00    -0.550 OA
ATOM     11  O   UNL     1      13.666 -14.143  20.984  1.00  0.00    -0.550 OA
ENDBRANCH   7   9
ENDBRANCH   6   7
ENDBRANCH   5   6
ENDBRANCH   4   5
ENDBRANCH   3   4
ENDBRANCH   2   3
ENDBRANCH   1   2
BRANCH   1  12
ATOM     12  C   UNL     1       7.341 -19.144  22.139  1.00  0.00     0.000 C 
BRANCH  12  13
ATOM     13  C   UNL     1       6.930 -19.419  20.687  1.00  0.00    -0.000 C 
BRANCH  13  14
ATOM     14  C   UNL     1       7.976 -20.291  19.977  1.00  0.00    -0.000 C 
BRANCH  14  15
ATOM     15  C   UNL     1       8.386 -19.714  18.610  1.00  0.00    -0.000 C 
BRANCH  15  16
ATOM     16  C   UNL     1       7.602 -18.440  18.223  1.00  0.00    -0.000 C 
BRANCH  16  17
ATOM     17  C   UNL     1       8.507 -17.242  17.875  1.00  0.00    -0.000 C 
BRANCH  17  18
ATOM     18  C   UNL     1       9.329 -16.701  19.056  1.00  0.00    -0.003 C 
ATOM     19  C   UNL     1       8.679 -15.491  19.727  1.00  0.00     0.004 C 
ENDBRANCH  17  18
ENDBRANCH  16  17
ENDBRANCH  15  16
ENDBRANCH  14  15
ENDBRANCH  13  14
ENDBRANCH  12  13
ENDBRANCH   1  12
TORSDOF 14
ENDMDL
