MODEL 1
REMARK VINA RESULT:    25.940      0.000      0.000
REMARK INTER + INTRA:          30.221
REMARK INTER:                  30.489
REMARK INTRA:                  -0.268
REMARK UNBOUND:                -0.268
REMARK SMILES Oc1ccc(-c2[o+]c3cc(O)cc(O)c3cc2O)cc1
REMARK SMILES IDX 6 1 7 2 8 3 9 4 10 5 12 6 13 7 15 8 16 9 17 10 5 11 4 12
REMARK SMILES IDX 3 13 2 14 19 15 20 16 1 17 18 19 11 21 14 23
REMARK H PARENT 1 18 18 20 11 22 14 24
REMARK Flexibility Score: inf
ROOT
ATOM      1  C   UNL     1      12.238   5.060  17.955  1.00  0.00     0.401 A 
ATOM      2  O   UNL     1      12.971   6.089  18.370  1.00  0.00    -0.202 OA
ATOM      3  C   UNL     1      12.764   7.341  17.973  1.00  0.00     0.368 A 
ATOM      4  C   UNL     1      13.586   8.356  18.469  1.00  0.00     0.162 A 
ATOM      5  C   UNL     1      13.390   9.679  18.072  1.00  0.00     0.128 A 
ATOM      6  C   UNL     1      12.364   9.993  17.174  1.00  0.00     0.093 A 
ATOM      7  C   UNL     1      11.525   8.993  16.663  1.00  0.00     0.136 A 
ATOM      8  C   UNL     1      11.725   7.646  17.062  1.00  0.00     0.125 A 
ATOM      9  C   UNL     1      10.942   6.578  16.592  1.00  0.00     0.078 A 
ATOM     10  C   UNL     1      11.201   5.275  17.028  1.00  0.00     0.223 A 
ENDROOT
BRANCH   1  11
ATOM     11  C   UNL     1      12.561   3.714  18.477  1.00  0.00     0.084 A 
ATOM     12  C   UNL     1      12.116   3.343  19.757  1.00  0.00     0.022 A 
ATOM     13  C   UNL     1      12.391   2.069  20.262  1.00  0.00     0.047 A 
ATOM     14  C   UNL     1      13.101   1.144  19.490  1.00  0.00     0.115 A 
ATOM     15  C   UNL     1      13.258   2.771  17.697  1.00  0.00     0.022 A 
ATOM     16  C   UNL     1      13.530   1.497  18.204  1.00  0.00     0.047 A 
BRANCH  14  17
ATOM     17  O   UNL     1      13.368  -0.123  20.006  1.00  0.00    -0.508 OA
ATOM     18  H   UNL     1      13.849  -0.826  19.458  1.00  0.00     0.293 HD
ENDBRANCH  14  17
ENDBRANCH   1  11
BRANCH  10  19
ATOM     19  O   UNL     1      10.457   4.208  16.522  1.00  0.00    -0.500 OA
ATOM     20  H   UNL     1       9.664   4.355  15.910  1.00  0.00     0.294 HD
ENDBRANCH  10  19
BRANCH   5  21
ATOM     21  O   UNL     1      14.220  10.677  18.576  1.00  0.00    -0.507 OA
ATOM     22  H   UNL     1      13.919  11.644  18.625  1.00  0.00     0.293 HD
ENDBRANCH   5  21
BRANCH   7  23
ATOM     23  O   UNL     1      10.522   9.387  15.773  1.00  0.00    -0.507 OA
ATOM     24  H   UNL     1      10.310  10.346  15.540  1.00  0.00     0.293 HD
ENDBRANCH   7  23
TORSDOF 5
ENDMDL
MODEL 2
REMARK VINA RESULT:    26.122      1.066      2.868
REMARK INTER + INTRA:          30.435
REMARK INTER:                  30.709
REMARK INTRA:                  -0.274
REMARK UNBOUND:                -0.268
REMARK SMILES Oc1ccc(-c2[o+]c3cc(O)cc(O)c3cc2O)cc1
REMARK SMILES IDX 6 1 7 2 8 3 9 4 10 5 12 6 13 7 15 8 16 9 17 10 5 11 4 12
REMARK SMILES IDX 3 13 2 14 19 15 20 16 1 17 18 19 11 21 14 23
REMARK H PARENT 1 18 18 20 11 22 14 24
REMARK Flexibility Score: inf
ROOT
ATOM      1  C   UNL     1      12.858   5.008  18.497  1.00  0.00     0.401 A 
ATOM      2  O   UNL     1      11.972   5.482  17.625  1.00  0.00    -0.202 OA
ATOM      3  C   UNL     1      11.931   6.755  17.245  1.00  0.00     0.368 A 
ATOM      4  C   UNL     1      10.965   7.158  16.320  1.00  0.00     0.162 A 
ATOM      5  C   UNL     1      10.901   8.487  15.901  1.00  0.00     0.128 A 
ATOM      6  C   UNL     1      11.810   9.422  16.407  1.00  0.00     0.093 A 
ATOM      7  C   UNL     1      12.789   9.043  17.335  1.00  0.00     0.136 A 
ATOM      8  C   UNL     1      12.854   7.693  17.767  1.00  0.00     0.125 A 
ATOM      9  C   UNL     1      13.793   7.227  18.702  1.00  0.00     0.078 A 
ATOM     10  C   UNL     1      13.794   5.881  19.082  1.00  0.00     0.223 A 
ENDROOT
BRANCH   1  11
ATOM     11  C   UNL     1      12.807   3.567  18.834  1.00  0.00     0.084 A 
ATOM     12  C   UNL     1      13.390   2.632  17.962  1.00  0.00     0.022 A 
ATOM     13  C   UNL     1      13.373   1.269  18.270  1.00  0.00     0.047 A 
ATOM     14  C   UNL     1      12.787   0.823  19.459  1.00  0.00     0.115 A 
ATOM     15  C   UNL     1      12.236   3.114  20.038  1.00  0.00     0.022 A 
ATOM     16  C   UNL     1      12.222   1.750  20.345  1.00  0.00     0.047 A 
BRANCH  14  17
ATOM     17  O   UNL     1      12.777  -0.539  19.754  1.00  0.00    -0.508 OA
ATOM     18  H   UNL     1      12.923  -1.237  19.033  1.00  0.00     0.293 HD
ENDBRANCH  14  17
ENDBRANCH   1  11
BRANCH  10  19
ATOM     19  O   UNL     1      14.692   5.428  20.049  1.00  0.00    -0.500 OA
ATOM     20  H   UNL     1      15.188   6.069  20.656  1.00  0.00     0.294 HD
ENDBRANCH  10  19
BRANCH   5  21
ATOM     21  O   UNL     1       9.930   8.869  14.978  1.00  0.00    -0.507 OA
ATOM     22  H   UNL     1      10.027   8.665  13.990  1.00  0.00     0.293 HD
ENDBRANCH   5  21
BRANCH   7  23
ATOM     23  O   UNL     1      13.661  10.035  17.792  1.00  0.00    -0.507 OA
ATOM     24  H   UNL     1      13.418  10.740  18.473  1.00  0.00     0.293 HD
ENDBRANCH   7  23
TORSDOF 5
ENDMDL
MODEL 3
REMARK VINA RESULT:    26.652      4.531      7.507
REMARK INTER + INTRA:          31.058
REMARK INTER:                  31.320
REMARK INTRA:                  -0.261
REMARK UNBOUND:                -0.268
REMARK SMILES Oc1ccc(-c2[o+]c3cc(O)cc(O)c3cc2O)cc1
REMARK SMILES IDX 6 1 7 2 8 3 9 4 10 5 12 6 13 7 15 8 16 9 17 10 5 11 4 12
REMARK SMILES IDX 3 13 2 14 19 15 20 16 1 17 18 19 11 21 14 23
REMARK H PARENT 1 18 18 20 11 22 14 24
REMARK Flexibility Score: inf
ROOT
ATOM      1  C   UNL     1       9.932   9.972  19.802  1.00  0.00     0.401 A 
ATOM      2  O   UNL     1       9.703   9.487  18.585  1.00  0.00    -0.202 OA
ATOM      3  C   UNL     1      10.668   9.056  17.778  1.00  0.00     0.368 A 
ATOM      4  C   UNL     1      10.328   8.561  16.517  1.00  0.00     0.162 A 
ATOM      5  C   UNL     1      11.319   8.098  15.651  1.00  0.00     0.128 A 
ATOM      6  C   UNL     1      12.661   8.129  16.047  1.00  0.00     0.093 A 
ATOM      7  C   UNL     1      13.028   8.620  17.307  1.00  0.00     0.136 A 
ATOM      8  C   UNL     1      12.022   9.094  18.188  1.00  0.00     0.125 A 
ATOM      9  C   UNL     1      12.298   9.616  19.463  1.00  0.00     0.078 A 
ATOM     10  C   UNL     1      11.254  10.068  20.276  1.00  0.00     0.223 A 
ENDROOT
BRANCH   1  11
ATOM     11  C   UNL     1       8.771  10.412  20.609  1.00  0.00     0.084 A 
ATOM     12  C   UNL     1       7.982   9.454  21.266  1.00  0.00     0.022 A 
ATOM     13  C   UNL     1       6.895   9.849  22.052  1.00  0.00     0.047 A 
ATOM     14  C   UNL     1       6.591  11.206  22.202  1.00  0.00     0.115 A 
ATOM     15  C   UNL     1       8.473  11.777  20.781  1.00  0.00     0.022 A 
ATOM     16  C   UNL     1       7.385  12.170  21.568  1.00  0.00     0.047 A 
BRANCH  14  17
ATOM     17  O   UNL     1       5.505  11.585  22.988  1.00  0.00    -0.508 OA
ATOM     18  H   UNL     1       4.725  12.102  22.599  1.00  0.00     0.293 HD
ENDBRANCH  14  17
ENDBRANCH   1  11
BRANCH  10  19
ATOM     19  O   UNL     1      11.531  10.633  21.522  1.00  0.00    -0.500 OA
ATOM     20  H   UNL     1      11.768  10.062  22.323  1.00  0.00     0.294 HD
ENDBRANCH  10  19
BRANCH   5  21
ATOM     21  O   UNL     1      10.961   7.608  14.397  1.00  0.00    -0.507 OA
ATOM     22  H   UNL     1      10.149   7.960  13.902  1.00  0.00     0.293 HD
ENDBRANCH   5  21
BRANCH   7  23
ATOM     23  O   UNL     1      14.388   8.615  17.629  1.00  0.00    -0.507 OA
ATOM     24  H   UNL     1      15.113   8.241  17.036  1.00  0.00     0.293 HD
ENDBRANCH   7  23
TORSDOF 5
ENDMDL
MODEL 4
REMARK VINA RESULT:    27.003      4.779      7.183
REMARK INTER + INTRA:          31.470
REMARK INTER:                  31.738
REMARK INTRA:                  -0.268
REMARK UNBOUND:                -0.268
REMARK SMILES Oc1ccc(-c2[o+]c3cc(O)cc(O)c3cc2O)cc1
REMARK SMILES IDX 6 1 7 2 8 3 9 4 10 5 12 6 13 7 15 8 16 9 17 10 5 11 4 12
REMARK SMILES IDX 3 13 2 14 19 15 20 16 1 17 18 19 11 21 14 23
REMARK H PARENT 1 18 18 20 11 22 14 24
REMARK Flexibility Score: inf
ROOT
ATOM      1  C   UNL     1       9.120   9.901  19.543  1.00  0.00     0.401 A 
ATOM      2  O   UNL     1      10.437   9.913  19.724  1.00  0.00    -0.202 OA
ATOM      3  C   UNL     1      11.306   9.545  18.788  1.00  0.00     0.368 A 
ATOM      4  C   UNL     1      12.673   9.595  19.072  1.00  0.00     0.162 A 
ATOM      5  C   UNL     1      13.608   9.219  18.107  1.00  0.00     0.128 A 
ATOM      6  C   UNL     1      13.175   8.790  16.847  1.00  0.00     0.093 A 
ATOM      7  C   UNL     1      11.810   8.732  16.537  1.00  0.00     0.136 A 
ATOM      8  C   UNL     1      10.857   9.111  17.518  1.00  0.00     0.125 A 
ATOM      9  C   UNL     1       9.470   9.072  17.301  1.00  0.00     0.078 A 
ATOM     10  C   UNL     1       8.590   9.457  18.317  1.00  0.00     0.223 A 
ENDROOT
BRANCH   1  11
ATOM     11  C   UNL     1       8.255  10.343  20.661  1.00  0.00     0.084 A 
ATOM     12  C   UNL     1       8.076  11.716  20.896  1.00  0.00     0.022 A 
ATOM     13  C   UNL     1       7.247  12.156  21.932  1.00  0.00     0.047 A 
ATOM     14  C   UNL     1       6.575  11.230  22.737  1.00  0.00     0.115 A 
ATOM     15  C   UNL     1       7.561   9.417  21.462  1.00  0.00     0.022 A 
ATOM     16  C   UNL     1       6.731   9.859  22.497  1.00  0.00     0.047 A 
BRANCH  14  17
ATOM     17  O   UNL     1       5.752  11.683  23.767  1.00  0.00    -0.508 OA
ATOM     18  H   UNL     1       5.233  12.550  23.686  1.00  0.00     0.293 HD
ENDBRANCH  14  17
ENDBRANCH   1  11
BRANCH  10  19
ATOM     19  O   UNL     1       7.211   9.371  18.120  1.00  0.00    -0.500 OA
ATOM     20  H   UNL     1       6.683  10.135  17.717  1.00  0.00     0.294 HD
ENDBRANCH  10  19
BRANCH   5  21
ATOM     21  O   UNL     1      14.966   9.275  18.409  1.00  0.00    -0.507 OA
ATOM     22  H   UNL     1      15.638   9.669  17.760  1.00  0.00     0.293 HD
ENDBRANCH   5  21
BRANCH   7  23
ATOM     23  O   UNL     1      11.458   8.296  15.257  1.00  0.00    -0.507 OA
ATOM     24  H   UNL     1      10.515   8.280  14.899  1.00  0.00     0.293 HD
ENDBRANCH   7  23
TORSDOF 5
ENDMDL
