MODEL 1
REMARK VINA RESULT:    -1.869      0.000      0.000
REMARK INTER + INTRA:          -2.136
REMARK INTER:                  -1.979
REMARK INTRA:                  -0.157
REMARK UNBOUND:                -0.157
REMARK SMILES Cc1ccc(C(C)C)cc1
REMARK SMILES IDX 1 1 2 2 3 3 4 4 5 5 9 6 10 7 6 8 7 9 8 10
REMARK H PARENT
REMARK Flexibility Score: inf
ROOT
ATOM      1  C   UNL     1     -13.815 -19.994  80.202  1.00  0.00     0.044 C 
ATOM      2  C   UNL     1     -13.829 -20.656  81.547  1.00  0.00    -0.051 A 
ATOM      3  C   UNL     1     -14.740 -21.687  81.818  1.00  0.00     0.004 A 
ATOM      4  C   UNL     1     -14.730 -22.331  83.059  1.00  0.00     0.004 A 
ATOM      5  C   UNL     1     -13.800 -21.962  84.047  1.00  0.00    -0.045 A 
ATOM      6  C   UNL     1     -12.875 -20.939  83.763  1.00  0.00     0.004 A 
ATOM      7  C   UNL     1     -12.887 -20.297  82.521  1.00  0.00     0.004 A 
ENDROOT
BRANCH   5   8
ATOM      8  C   UNL     1     -13.799 -22.669  85.389  1.00  0.00     0.013 C 
ATOM      9  C   UNL     1     -13.346 -24.127  85.247  1.00  0.00     0.012 C 
ATOM     10  C   UNL     1     -15.177 -22.583  86.058  1.00  0.00     0.012 C 
ENDBRANCH   5   8
TORSDOF 1
ENDMDL
MODEL 2
REMARK VINA RESULT:    -1.651      0.954      4.228
REMARK INTER + INTRA:          -1.904
REMARK INTER:                  -1.738
REMARK INTRA:                  -0.167
REMARK UNBOUND:                -0.157
REMARK SMILES Cc1ccc(C(C)C)cc1
REMARK SMILES IDX 1 1 2 2 3 3 4 4 5 5 9 6 10 7 6 8 7 9 8 10
REMARK H PARENT
REMARK Flexibility Score: inf
ROOT
ATOM      1  C   UNL     1     -14.354 -23.240  85.999  1.00  0.00     0.044 C 
ATOM      2  C   UNL     1     -14.209 -22.569  84.666  1.00  0.00    -0.051 A 
ATOM      3  C   UNL     1     -15.137 -22.817  83.644  1.00  0.00     0.004 A 
ATOM      4  C   UNL     1     -15.024 -22.163  82.413  1.00  0.00     0.004 A 
ATOM      5  C   UNL     1     -13.988 -21.240  82.186  1.00  0.00    -0.045 A 
ATOM      6  C   UNL     1     -13.071 -20.981  83.221  1.00  0.00     0.004 A 
ATOM      7  C   UNL     1     -13.184 -21.635  84.452  1.00  0.00     0.004 A 
ENDROOT
BRANCH   5   8
ATOM      8  C   UNL     1     -13.879 -20.539  80.846  1.00  0.00     0.013 C 
ATOM      9  C   UNL     1     -12.876 -19.380  80.908  1.00  0.00     0.012 C 
ATOM     10  C   UNL     1     -15.252 -20.055  80.364  1.00  0.00     0.012 C 
ENDBRANCH   5   8
TORSDOF 1
ENDMDL
MODEL 3
REMARK VINA RESULT:    -1.646      0.498      1.583
REMARK INTER + INTRA:          -1.900
REMARK INTER:                  -1.744
REMARK INTRA:                  -0.156
REMARK UNBOUND:                -0.157
REMARK SMILES Cc1ccc(C(C)C)cc1
REMARK SMILES IDX 1 1 2 2 3 3 4 4 5 5 9 6 10 7 6 8 7 9 8 10
REMARK H PARENT
REMARK Flexibility Score: inf
ROOT
ATOM      1  C   UNL     1     -13.569 -19.880  79.905  1.00  0.00     0.044 C 
ATOM      2  C   UNL     1     -13.542 -20.639  81.197  1.00  0.00    -0.051 A 
ATOM      3  C   UNL     1     -12.875 -20.113  82.314  1.00  0.00     0.004 A 
ATOM      4  C   UNL     1     -12.881 -20.802  83.530  1.00  0.00     0.004 A 
ATOM      5  C   UNL     1     -13.563 -22.025  83.655  1.00  0.00    -0.045 A 
ATOM      6  C   UNL     1     -14.246 -22.540  82.537  1.00  0.00     0.004 A 
ATOM      7  C   UNL     1     -14.239 -21.849  81.321  1.00  0.00     0.004 A 
ENDROOT
BRANCH   5   8
ATOM      8  C   UNL     1     -13.561 -22.762  84.980  1.00  0.00     0.013 C 
ATOM      9  C   UNL     1     -13.359 -24.268  84.777  1.00  0.00     0.012 C 
ATOM     10  C   UNL     1     -14.845 -22.479  85.770  1.00  0.00     0.012 C 
ENDBRANCH   5   8
TORSDOF 1
ENDMDL
MODEL 4
REMARK VINA RESULT:    -1.528      2.091      4.210
REMARK INTER + INTRA:          -1.774
REMARK INTER:                  -1.621
REMARK INTRA:                  -0.154
REMARK UNBOUND:                -0.157
REMARK SMILES Cc1ccc(C(C)C)cc1
REMARK SMILES IDX 1 1 2 2 3 3 4 4 5 5 9 6 10 7 6 8 7 9 8 10
REMARK H PARENT
REMARK Flexibility Score: inf
ROOT
ATOM      1  C   UNL     1     -19.365 -22.563  84.609  1.00  0.00     0.044 C 
ATOM      2  C   UNL     1     -17.871 -22.550  84.724  1.00  0.00    -0.051 A 
ATOM      3  C   UNL     1     -17.259 -22.271  85.956  1.00  0.00     0.004 A 
ATOM      4  C   UNL     1     -15.866 -22.295  86.073  1.00  0.00     0.004 A 
ATOM      5  C   UNL     1     -15.060 -22.610  84.965  1.00  0.00    -0.045 A 
ATOM      6  C   UNL     1     -15.680 -22.908  83.737  1.00  0.00     0.004 A 
ATOM      7  C   UNL     1     -17.074 -22.884  83.620  1.00  0.00     0.004 A 
ENDROOT
BRANCH   5   8
ATOM      8  C   UNL     1     -13.551 -22.633  85.108  1.00  0.00     0.013 C 
ATOM      9  C   UNL     1     -12.891 -21.602  84.184  1.00  0.00     0.012 C 
ATOM     10  C   UNL     1     -12.994 -24.039  84.852  1.00  0.00     0.012 C 
ENDBRANCH   5   8
TORSDOF 1
ENDMDL
MODEL 5
REMARK VINA RESULT:    -1.382      7.468      8.430
REMARK INTER + INTRA:          -1.620
REMARK INTER:                  -1.452
REMARK INTRA:                  -0.167
REMARK UNBOUND:                -0.157
REMARK SMILES Cc1ccc(C(C)C)cc1
REMARK SMILES IDX 1 1 2 2 3 3 4 4 5 5 9 6 10 7 6 8 7 9 8 10
REMARK H PARENT
REMARK Flexibility Score: inf
ROOT
ATOM      1  C   UNL     1     -19.396 -15.293  85.076  1.00  0.00     0.044 C 
ATOM      2  C   UNL     1     -17.962 -14.867  84.968  1.00  0.00    -0.051 A 
ATOM      3  C   UNL     1     -17.211 -14.611  86.125  1.00  0.00     0.004 A 
ATOM      4  C   UNL     1     -15.864 -14.251  86.027  1.00  0.00     0.004 A 
ATOM      5  C   UNL     1     -15.241 -14.151  84.771  1.00  0.00    -0.045 A 
ATOM      6  C   UNL     1     -15.994 -14.426  83.614  1.00  0.00     0.004 A 
ATOM      7  C   UNL     1     -17.341 -14.787  83.713  1.00  0.00     0.004 A 
ENDROOT
BRANCH   5   8
ATOM      8  C   UNL     1     -13.778 -13.759  84.680  1.00  0.00     0.013 C 
ATOM      9  C   UNL     1     -13.033 -14.632  83.664  1.00  0.00     0.012 C 
ATOM     10  C   UNL     1     -13.105 -13.818  86.057  1.00  0.00     0.012 C 
ENDBRANCH   5   8
TORSDOF 1
ENDMDL
MODEL 6
REMARK VINA RESULT:    -1.342      1.070      1.762
REMARK INTER + INTRA:          -1.578
REMARK INTER:                  -1.421
REMARK INTRA:                  -0.157
REMARK UNBOUND:                -0.157
REMARK SMILES Cc1ccc(C(C)C)cc1
REMARK SMILES IDX 1 1 2 2 3 3 4 4 5 5 9 6 10 7 6 8 7 9 8 10
REMARK H PARENT
REMARK Flexibility Score: inf
ROOT
ATOM      1  C   UNL     1     -13.660 -18.809  79.602  1.00  0.00     0.044 C 
ATOM      2  C   UNL     1     -13.865 -19.832  80.679  1.00  0.00    -0.051 A 
ATOM      3  C   UNL     1     -14.916 -20.756  80.586  1.00  0.00     0.004 A 
ATOM      4  C   UNL     1     -15.086 -21.734  81.571  1.00  0.00     0.004 A 
ATOM      5  C   UNL     1     -14.200 -21.813  82.660  1.00  0.00    -0.045 A 
ATOM      6  C   UNL     1     -13.136 -20.896  82.738  1.00  0.00     0.004 A 
ATOM      7  C   UNL     1     -12.967 -19.918  81.753  1.00  0.00     0.004 A 
ENDROOT
BRANCH   5   8
ATOM      8  C   UNL     1     -14.396 -22.880  83.720  1.00  0.00     0.013 C 
ATOM      9  C   UNL     1     -13.886 -22.403  85.086  1.00  0.00     0.012 C 
ATOM     10  C   UNL     1     -13.724 -24.196  83.309  1.00  0.00     0.012 C 
ENDBRANCH   5   8
TORSDOF 1
ENDMDL
MODEL 7
REMARK VINA RESULT:    -1.327      1.575      2.829
REMARK INTER + INTRA:          -1.561
REMARK INTER:                  -1.406
REMARK INTRA:                  -0.155
REMARK UNBOUND:                -0.157
REMARK SMILES Cc1ccc(C(C)C)cc1
REMARK SMILES IDX 1 1 2 2 3 3 4 4 5 5 9 6 10 7 6 8 7 9 8 10
REMARK H PARENT
REMARK Flexibility Score: inf
ROOT
ATOM      1  C   UNL     1     -13.310 -20.715  82.302  1.00  0.00     0.044 C 
ATOM      2  C   UNL     1     -13.494 -21.940  83.147  1.00  0.00    -0.051 A 
ATOM      3  C   UNL     1     -13.571 -21.831  84.544  1.00  0.00     0.004 A 
ATOM      4  C   UNL     1     -13.781 -22.968  85.330  1.00  0.00     0.004 A 
ATOM      5  C   UNL     1     -13.928 -24.232  84.733  1.00  0.00    -0.045 A 
ATOM      6  C   UNL     1     -13.868 -24.333  83.331  1.00  0.00     0.004 A 
ATOM      7  C   UNL     1     -13.659 -23.195  82.545  1.00  0.00     0.004 A 
ENDROOT
BRANCH   5   8
ATOM      8  C   UNL     1     -14.155 -25.457  85.599  1.00  0.00     0.013 C 
ATOM      9  C   UNL     1     -12.875 -26.291  85.725  1.00  0.00     0.012 C 
ATOM     10  C   UNL     1     -15.316 -26.304  85.062  1.00  0.00     0.012 C 
ENDBRANCH   5   8
TORSDOF 1
ENDMDL
MODEL 8
REMARK VINA RESULT:    -1.311      7.142      8.178
REMARK INTER + INTRA:          -1.545
REMARK INTER:                  -1.384
REMARK INTRA:                  -0.161
REMARK UNBOUND:                -0.157
REMARK SMILES Cc1ccc(C(C)C)cc1
REMARK SMILES IDX 1 1 2 2 3 3 4 4 5 5 9 6 10 7 6 8 7 9 8 10
REMARK H PARENT
REMARK Flexibility Score: inf
ROOT
ATOM      1  C   UNL     1     -19.987 -18.948  84.668  1.00  0.00     0.044 C 
ATOM      2  C   UNL     1     -19.247 -17.644  84.681  1.00  0.00    -0.051 A 
ATOM      3  C   UNL     1     -18.830 -17.079  85.896  1.00  0.00     0.004 A 
ATOM      4  C   UNL     1     -18.107 -15.883  85.907  1.00  0.00     0.004 A 
ATOM      5  C   UNL     1     -17.778 -15.235  84.703  1.00  0.00    -0.045 A 
ATOM      6  C   UNL     1     -18.183 -15.816  83.487  1.00  0.00     0.004 A 
ATOM      7  C   UNL     1     -18.905 -17.013  83.477  1.00  0.00     0.004 A 
ENDROOT
BRANCH   5   8
ATOM      8  C   UNL     1     -16.993 -13.938  84.731  1.00  0.00     0.013 C 
ATOM      9  C   UNL     1     -15.543 -14.158  84.285  1.00  0.00     0.012 C 
ATOM     10  C   UNL     1     -17.051 -13.288  86.119  1.00  0.00     0.012 C 
ENDBRANCH   5   8
TORSDOF 1
ENDMDL
MODEL 9
REMARK VINA RESULT:    -1.288      7.200      8.254
REMARK INTER + INTRA:          -1.521
REMARK INTER:                  -1.355
REMARK INTRA:                  -0.165
REMARK UNBOUND:                -0.157
REMARK SMILES Cc1ccc(C(C)C)cc1
REMARK SMILES IDX 1 1 2 2 3 3 4 4 5 5 9 6 10 7 6 8 7 9 8 10
REMARK H PARENT
REMARK Flexibility Score: inf
ROOT
ATOM      1  C   UNL     1     -13.559 -14.196  86.125  1.00  0.00     0.044 C 
ATOM      2  C   UNL     1     -13.907 -14.333  84.673  1.00  0.00    -0.051 A 
ATOM      3  C   UNL     1     -15.231 -14.163  84.244  1.00  0.00     0.004 A 
ATOM      4  C   UNL     1     -15.550 -14.254  82.886  1.00  0.00     0.004 A 
ATOM      5  C   UNL     1     -14.549 -14.504  81.931  1.00  0.00    -0.045 A 
ATOM      6  C   UNL     1     -13.219 -14.655  82.365  1.00  0.00     0.004 A 
ATOM      7  C   UNL     1     -12.901 -14.564  83.724  1.00  0.00     0.004 A 
ENDROOT
BRANCH   5   8
ATOM      8  C   UNL     1     -14.910 -14.600  80.461  1.00  0.00     0.013 C 
ATOM      9  C   UNL     1     -16.089 -15.555  80.242  1.00  0.00     0.012 C 
ATOM     10  C   UNL     1     -13.697 -15.019  79.622  1.00  0.00     0.012 C 
ENDBRANCH   5   8
TORSDOF 1
ENDMDL
