MODEL 1
REMARK VINA RESULT:    -3.632      0.000      0.000
REMARK INTER + INTRA:          -4.673
REMARK INTER:                  -4.482
REMARK INTRA:                  -0.191
REMARK UNBOUND:                -0.191
REMARK SMILES CCCCC=CC(C)=O
REMARK SMILES IDX 4 1 3 2 2 3 1 4 5 5 6 6 7 7 9 8 8 9
REMARK H PARENT
REMARK Flexibility Score: inf
ROOT
ATOM      1  C   UNL     1     -17.907  19.951  41.646  1.00  0.00     0.027 C 
ENDROOT
BRANCH   1   2
ATOM      2  C   UNL     1     -18.841  20.508  42.728  1.00  0.00     0.004 C 
BRANCH   2   3
ATOM      3  C   UNL     1     -20.322  20.359  42.349  1.00  0.00    -0.003 C 
ATOM      4  C   UNL     1     -20.644  21.131  41.073  1.00  0.00     0.004 C 
ENDBRANCH   2   3
ENDBRANCH   1   2
BRANCH   1   5
ATOM      5  C   UNL     1     -17.436  18.565  41.984  1.00  0.00    -0.023 C 
ATOM      6  C   UNL     1     -17.079  17.694  41.034  1.00  0.00     0.042 C 
BRANCH   6   7
ATOM      7  C   UNL     1     -16.650  16.317  41.347  1.00  0.00     0.152 C 
ATOM      8  O   UNL     1     -16.558  15.448  40.438  1.00  0.00    -0.295 OA
ATOM      9  C   UNL     1     -16.321  15.948  42.757  1.00  0.00     0.093 C 
ENDBRANCH   6   7
ENDBRANCH   1   5
TORSDOF 4
ENDMDL
MODEL 2
REMARK VINA RESULT:    -3.568      2.516      5.331
REMARK INTER + INTRA:          -4.593
REMARK INTER:                  -4.447
REMARK INTRA:                  -0.147
REMARK UNBOUND:                -0.191
REMARK SMILES CCCCC=CC(C)=O
REMARK SMILES IDX 4 1 3 2 2 3 1 4 5 5 6 6 7 7 9 8 8 9
REMARK H PARENT
REMARK Flexibility Score: inf
ROOT
ATOM      1  C   UNL     1     -17.358  18.647  42.175  1.00  0.00     0.027 C 
ENDROOT
BRANCH   1   2
ATOM      2  C   UNL     1     -17.074  17.661  41.035  1.00  0.00     0.004 C 
BRANCH   2   3
ATOM      3  C   UNL     1     -16.360  16.394  41.528  1.00  0.00    -0.003 C 
ATOM      4  C   UNL     1     -16.472  16.253  43.043  1.00  0.00     0.004 C 
ENDBRANCH   2   3
ENDBRANCH   1   2
BRANCH   1   5
ATOM      5  C   UNL     1     -17.973  19.919  41.664  1.00  0.00    -0.023 C 
ATOM      6  C   UNL     1     -19.290  20.142  41.739  1.00  0.00     0.042 C 
BRANCH   6   7
ATOM      7  C   UNL     1     -19.915  21.368  41.209  1.00  0.00     0.152 C 
ATOM      8  O   UNL     1     -19.226  22.232  40.601  1.00  0.00    -0.295 OA
ATOM      9  C   UNL     1     -21.381  21.590  41.394  1.00  0.00     0.093 C 
ENDBRANCH   6   7
ENDBRANCH   1   5
TORSDOF 4
ENDMDL
MODEL 3
REMARK VINA RESULT:    -3.546      2.087      3.282
REMARK INTER + INTRA:          -4.566
REMARK INTER:                  -4.395
REMARK INTRA:                  -0.172
REMARK UNBOUND:                -0.191
REMARK SMILES CCCCC=CC(C)=O
REMARK SMILES IDX 4 1 3 2 2 3 1 4 5 5 6 6 7 7 9 8 8 9
REMARK H PARENT
REMARK Flexibility Score: inf
ROOT
ATOM      1  C   UNL     1     -21.092  21.186  41.876  1.00  0.00     0.027 C 
ENDROOT
BRANCH   1   2
ATOM      2  C   UNL     1     -20.870  21.680  40.441  1.00  0.00     0.004 C 
BRANCH   2   3
ATOM      3  C   UNL     1     -22.192  21.987  39.722  1.00  0.00    -0.003 C 
ATOM      4  C   UNL     1     -22.102  21.647  38.237  1.00  0.00     0.004 C 
ENDBRANCH   2   3
ENDBRANCH   1   2
BRANCH   1   5
ATOM      5  C   UNL     1     -19.998  20.252  42.313  1.00  0.00    -0.023 C 
ATOM      6  C   UNL     1     -18.850  20.150  41.635  1.00  0.00     0.042 C 
BRANCH   6   7
ATOM      7  C   UNL     1     -17.782  19.212  42.029  1.00  0.00     0.152 C 
ATOM      8  O   UNL     1     -17.219  18.478  41.172  1.00  0.00    -0.295 OA
ATOM      9  C   UNL     1     -17.362  19.130  43.461  1.00  0.00     0.093 C 
ENDBRANCH   6   7
ENDBRANCH   1   5
TORSDOF 4
ENDMDL
MODEL 4
REMARK VINA RESULT:    -3.483      3.095      4.848
REMARK INTER + INTRA:          -4.489
REMARK INTER:                  -4.369
REMARK INTRA:                  -0.120
REMARK UNBOUND:                -0.191
REMARK SMILES CCCCC=CC(C)=O
REMARK SMILES IDX 4 1 3 2 2 3 1 4 5 5 6 6 7 7 9 8 8 9
REMARK H PARENT
REMARK Flexibility Score: inf
ROOT
ATOM      1  C   UNL     1     -21.843  21.792  40.458  1.00  0.00     0.027 C 
ENDROOT
BRANCH   1   2
ATOM      2  C   UNL     1     -21.804  21.962  38.934  1.00  0.00     0.004 C 
BRANCH   2   3
ATOM      3  C   UNL     1     -22.948  21.212  38.237  1.00  0.00    -0.003 C 
ATOM      4  C   UNL     1     -22.713  21.125  36.732  1.00  0.00     0.004 C 
ENDBRANCH   2   3
ENDBRANCH   1   2
BRANCH   1   5
ATOM      5  C   UNL     1     -20.508  21.364  41.000  1.00  0.00    -0.023 C 
ATOM      6  C   UNL     1     -20.407  20.543  42.050  1.00  0.00     0.042 C 
BRANCH   6   7
ATOM      7  C   UNL     1     -19.105  20.143  42.617  1.00  0.00     0.152 C 
ATOM      8  O   UNL     1     -18.870  20.274  43.850  1.00  0.00    -0.295 OA
ATOM      9  C   UNL     1     -18.052  19.576  41.721  1.00  0.00     0.093 C 
ENDBRANCH   6   7
ENDBRANCH   1   5
TORSDOF 4
ENDMDL
MODEL 5
REMARK VINA RESULT:    -3.463      4.637      6.959
REMARK INTER + INTRA:          -4.464
REMARK INTER:                  -4.334
REMARK INTRA:                  -0.130
REMARK UNBOUND:                -0.191
REMARK SMILES CCCCC=CC(C)=O
REMARK SMILES IDX 4 1 3 2 2 3 1 4 5 5 6 6 7 7 9 8 8 9
REMARK H PARENT
REMARK Flexibility Score: inf
ROOT
ATOM      1  C   UNL     1     -22.021  21.796  39.882  1.00  0.00     0.027 C 
ENDROOT
BRANCH   1   2
ATOM      2  C   UNL     1     -20.655  21.743  40.578  1.00  0.00     0.004 C 
BRANCH   2   3
ATOM      3  C   UNL     1     -20.606  20.672  41.678  1.00  0.00    -0.003 C 
ATOM      4  C   UNL     1     -19.182  20.476  42.192  1.00  0.00     0.004 C 
ENDBRANCH   2   3
ENDBRANCH   1   2
BRANCH   1   5
ATOM      5  C   UNL     1     -21.876  21.894  38.390  1.00  0.00    -0.023 C 
ATOM      6  C   UNL     1     -22.657  21.192  37.561  1.00  0.00     0.042 C 
BRANCH   6   7
ATOM      7  C   UNL     1     -22.502  21.248  36.095  1.00  0.00     0.152 C 
ATOM      8  O   UNL     1     -23.426  20.852  35.333  1.00  0.00    -0.295 OA
ATOM      9  C   UNL     1     -21.237  21.780  35.505  1.00  0.00     0.093 C 
ENDBRANCH   6   7
ENDBRANCH   1   5
TORSDOF 4
ENDMDL
MODEL 6
REMARK VINA RESULT:    -3.446      3.369      5.970
REMARK INTER + INTRA:          -4.443
REMARK INTER:                  -4.176
REMARK INTRA:                  -0.267
REMARK UNBOUND:                -0.191
REMARK SMILES CCCCC=CC(C)=O
REMARK SMILES IDX 4 1 3 2 2 3 1 4 5 5 6 6 7 7 9 8 8 9
REMARK H PARENT
REMARK Flexibility Score: inf
ROOT
ATOM      1  C   UNL     1     -19.640  20.309  42.660  1.00  0.00     0.027 C 
ENDROOT
BRANCH   1   2
ATOM      2  C   UNL     1     -18.479  21.261  42.346  1.00  0.00     0.004 C 
BRANCH   2   3
ATOM      3  C   UNL     1     -17.320  20.548  41.634  1.00  0.00    -0.003 C 
ATOM      4  C   UNL     1     -17.517  19.035  41.640  1.00  0.00     0.004 C 
ENDBRANCH   2   3
ENDBRANCH   1   2
BRANCH   1   5
ATOM      5  C   UNL     1     -20.920  20.773  42.025  1.00  0.00    -0.023 C 
ATOM      6  C   UNL     1     -20.931  21.705  41.065  1.00  0.00     0.042 C 
BRANCH   6   7
ATOM      7  C   UNL     1     -22.182  22.198  40.459  1.00  0.00     0.152 C 
ATOM      8  O   UNL     1     -22.674  21.633  39.444  1.00  0.00    -0.295 OA
ATOM      9  C   UNL     1     -22.875  23.381  41.053  1.00  0.00     0.093 C 
ENDBRANCH   6   7
ENDBRANCH   1   5
TORSDOF 4
ENDMDL
MODEL 7
REMARK VINA RESULT:    -3.411      2.268      3.489
REMARK INTER + INTRA:          -4.400
REMARK INTER:                  -4.166
REMARK INTRA:                  -0.234
REMARK UNBOUND:                -0.191
REMARK SMILES CCCCC=CC(C)=O
REMARK SMILES IDX 4 1 3 2 2 3 1 4 5 5 6 6 7 7 9 8 8 9
REMARK H PARENT
REMARK Flexibility Score: inf
ROOT
ATOM      1  C   UNL     1     -21.023  21.295  41.456  1.00  0.00     0.027 C 
ENDROOT
BRANCH   1   2
ATOM      2  C   UNL     1     -20.316  22.304  40.542  1.00  0.00     0.004 C 
BRANCH   2   3
ATOM      3  C   UNL     1     -20.842  23.734  40.739  1.00  0.00    -0.003 C 
ATOM      4  C   UNL     1     -20.253  24.368  41.995  1.00  0.00     0.004 C 
ENDBRANCH   2   3
ENDBRANCH   1   2
BRANCH   1   5
ATOM      5  C   UNL     1     -20.055  20.303  42.035  1.00  0.00    -0.023 C 
ATOM      6  C   UNL     1     -18.791  20.221  41.605  1.00  0.00     0.042 C 
BRANCH   6   7
ATOM      7  C   UNL     1     -17.839  19.228  42.137  1.00  0.00     0.152 C 
ATOM      8  O   UNL     1     -17.493  19.251  43.350  1.00  0.00    -0.295 OA
ATOM      9  C   UNL     1     -17.278  18.183  41.229  1.00  0.00     0.093 C 
ENDBRANCH   6   7
ENDBRANCH   1   5
TORSDOF 4
ENDMDL
MODEL 8
REMARK VINA RESULT:    -3.380     18.097     19.203
REMARK INTER + INTRA:          -4.361
REMARK INTER:                  -4.178
REMARK INTRA:                  -0.183
REMARK UNBOUND:                -0.191
REMARK SMILES CCCCC=CC(C)=O
REMARK SMILES IDX 4 1 3 2 2 3 1 4 5 5 6 6 7 7 9 8 8 9
REMARK H PARENT
REMARK Flexibility Score: inf
ROOT
ATOM      1  C   UNL     1      -7.502  31.006  46.698  1.00  0.00     0.027 C 
ENDROOT
BRANCH   1   2
ATOM      2  C   UNL     1      -7.116  29.588  46.260  1.00  0.00     0.004 C 
BRANCH   2   3
ATOM      3  C   UNL     1      -5.772  29.143  46.855  1.00  0.00    -0.003 C 
ATOM      4  C   UNL     1      -5.437  27.711  46.446  1.00  0.00     0.004 C 
ENDBRANCH   2   3
ENDBRANCH   1   2
BRANCH   1   5
ATOM      5  C   UNL     1      -6.507  31.574  47.670  1.00  0.00    -0.023 C 
ATOM      6  C   UNL     1      -6.490  32.875  47.980  1.00  0.00     0.042 C 
BRANCH   6   7
ATOM      7  C   UNL     1      -5.497  33.453  48.903  1.00  0.00     0.152 C 
ATOM      8  O   UNL     1      -4.327  33.717  48.511  1.00  0.00    -0.295 OA
ATOM      9  C   UNL     1      -5.879  33.731  50.321  1.00  0.00     0.093 C 
ENDBRANCH   6   7
ENDBRANCH   1   5
TORSDOF 4
ENDMDL
MODEL 9
REMARK VINA RESULT:    -3.334     17.660     18.503
REMARK INTER + INTRA:          -4.305
REMARK INTER:                  -4.101
REMARK INTRA:                  -0.204
REMARK UNBOUND:                -0.191
REMARK SMILES CCCCC=CC(C)=O
REMARK SMILES IDX 4 1 3 2 2 3 1 4 5 5 6 6 7 7 9 8 8 9
REMARK H PARENT
REMARK Flexibility Score: inf
ROOT
ATOM      1  C   UNL     1      -6.874  32.531  47.624  1.00  0.00     0.027 C 
ENDROOT
BRANCH   1   2
ATOM      2  C   UNL     1      -5.440  32.885  48.038  1.00  0.00     0.004 C 
BRANCH   2   3
ATOM      3  C   UNL     1      -5.379  34.169  48.878  1.00  0.00    -0.003 C 
ATOM      4  C   UNL     1      -6.125  33.999  50.198  1.00  0.00     0.004 C 
ENDBRANCH   2   3
ENDBRANCH   1   2
BRANCH   1   5
ATOM      5  C   UNL     1      -6.942  31.177  46.975  1.00  0.00    -0.023 C 
ATOM      6  C   UNL     1      -6.048  30.220  47.250  1.00  0.00     0.042 C 
BRANCH   6   7
ATOM      7  C   UNL     1      -6.079  28.900  46.594  1.00  0.00     0.152 C 
ATOM      8  O   UNL     1      -5.128  28.084  46.739  1.00  0.00    -0.295 OA
ATOM      9  C   UNL     1      -7.252  28.522  45.748  1.00  0.00     0.093 C 
ENDBRANCH   6   7
ENDBRANCH   1   5
TORSDOF 4
ENDMDL
