MODEL 1
REMARK VINA RESULT:    -6.677      0.000      0.000
REMARK INTER + INTRA:         -10.122
REMARK INTER:                  -9.410
REMARK INTRA:                  -0.713
REMARK UNBOUND:                -0.713
REMARK SMILES COc1ccc(-c2cc(=O)c3c(OC)c(OC)c(OC)c(OC)c3o2)cc1OC
REMARK SMILES IDX 7 1 8 2 9 3 10 4 11 5 24 6 25 7 21 8 18 9 15 10 12 11 6 12
REMARK SMILES IDX 3 13 27 14 4 15 26 16 5 17 2 18 1 19 28 20 29 21 22 22 23 23
REMARK SMILES IDX 13 24 14 25 19 26 20 27 16 28 17 29
REMARK H PARENT
REMARK Flexibility Score: inf
ROOT
ATOM      1  C   UNL     1      -1.358  -6.214  15.262  1.00  0.00     0.138 A 
ATOM      2  C   UNL     1      -1.781  -6.665  14.008  1.00  0.00     0.100 A 
ATOM      3  C   UNL     1      -0.848  -7.202  13.126  1.00  0.00     0.197 A 
ATOM      4  O   UNL     1      -1.250  -7.603  12.000  1.00  0.00    -0.289 OA
ATOM      5  C   UNL     1       0.513  -7.289  13.506  1.00  0.00     0.115 A 
ATOM      6  C   UNL     1       0.861  -6.837  14.802  1.00  0.00     0.188 A 
ATOM      7  O   UNL     1      -0.078  -6.332  15.600  1.00  0.00    -0.452 OA
ATOM      8  C   UNL     1       2.200  -6.908  15.244  1.00  0.00     0.209 A 
ATOM      9  C   UNL     1       3.180  -7.471  14.406  1.00  0.00     0.211 A 
ATOM     10  C   UNL     1       2.856  -7.881  13.088  1.00  0.00     0.208 A 
ATOM     11  C   UNL     1       1.517  -7.780  12.633  1.00  0.00     0.179 A 
ENDROOT
BRANCH   1  12
ATOM     12  C   UNL     1      -2.307  -5.610  16.231  1.00  0.00     0.021 A 
ATOM     13  C   UNL     1      -4.062  -4.414  18.093  1.00  0.00     0.160 A 
ATOM     14  C   UNL     1      -4.486  -4.634  16.774  1.00  0.00     0.161 A 
ATOM     15  C   UNL     1      -2.763  -4.791  18.475  1.00  0.00     0.051 A 
ATOM     16  C   UNL     1      -3.605  -5.227  15.846  1.00  0.00     0.062 A 
ATOM     17  C   UNL     1      -1.897  -5.382  17.554  1.00  0.00     0.016 A 
BRANCH  13  18
ATOM     18  O   UNL     1      -4.961  -3.817  18.992  1.00  0.00    -0.493 OA
ATOM     19  C   UNL     1      -5.437  -4.432  20.184  1.00  0.00     0.278 C 
ENDBRANCH  13  18
BRANCH  14  20
ATOM     20  O   UNL     1      -5.791  -4.247  16.420  1.00  0.00    -0.493 OA
ATOM     21  C   UNL     1      -6.268  -4.138  15.083  1.00  0.00     0.278 C 
ENDBRANCH  14  20
ENDBRANCH   1  12
BRANCH   8  22
ATOM     22  O   UNL     1       2.632  -6.407  16.486  1.00  0.00    -0.490 OA
ATOM     23  C   UNL     1       2.491  -7.031  17.758  1.00  0.00     0.278 C 
ENDBRANCH   8  22
BRANCH  11  24
ATOM     24  O   UNL     1       1.130  -8.159  11.330  1.00  0.00    -0.492 OA
ATOM     25  C   UNL     1       1.239  -9.451  10.740  1.00  0.00     0.278 C 
ENDBRANCH  11  24
BRANCH   9  26
ATOM     26  O   UNL     1       4.492  -7.609  14.879  1.00  0.00    -0.490 OA
ATOM     27  C   UNL     1       4.976  -8.799  15.496  1.00  0.00     0.279 C 
ENDBRANCH   9  26
BRANCH  10  28
ATOM     28  O   UNL     1       3.818  -8.413  12.206  1.00  0.00    -0.490 OA
ATOM     29  C   UNL     1       4.676  -7.700  11.323  1.00  0.00     0.278 C 
ENDBRANCH  10  28
TORSDOF 7
ENDMDL
MODEL 2
REMARK VINA RESULT:    -6.661      3.003      5.005
REMARK INTER + INTRA:         -10.100
REMARK INTER:                  -9.328
REMARK INTRA:                  -0.772
REMARK UNBOUND:                -0.713
REMARK SMILES COc1ccc(-c2cc(=O)c3c(OC)c(OC)c(OC)c(OC)c3o2)cc1OC
REMARK SMILES IDX 7 1 8 2 9 3 10 4 11 5 24 6 25 7 21 8 18 9 15 10 12 11 6 12
REMARK SMILES IDX 3 13 27 14 4 15 26 16 5 17 2 18 1 19 28 20 29 21 22 22 23 23
REMARK SMILES IDX 13 24 14 25 19 26 20 27 16 28 17 29
REMARK H PARENT
REMARK Flexibility Score: inf
ROOT
ATOM      1  C   UNL     1      -1.103  -7.653  14.140  1.00  0.00     0.138 A 
ATOM      2  C   UNL     1      -0.681  -7.260  15.413  1.00  0.00     0.100 A 
ATOM      3  C   UNL     1       0.677  -7.067  15.652  1.00  0.00     0.197 A 
ATOM      4  O   UNL     1       1.038  -6.711  16.807  1.00  0.00    -0.289 OA
ATOM      5  C   UNL     1       1.612  -7.267  14.608  1.00  0.00     0.115 A 
ATOM      6  C   UNL     1       1.106  -7.639  13.338  1.00  0.00     0.188 A 
ATOM      7  O   UNL     1      -0.204  -7.809  13.173  1.00  0.00    -0.452 OA
ATOM      8  C   UNL     1       1.987  -7.842  12.254  1.00  0.00     0.209 A 
ATOM      9  C   UNL     1       3.367  -7.630  12.429  1.00  0.00     0.211 A 
ATOM     10  C   UNL     1       3.892  -7.308  13.706  1.00  0.00     0.208 A 
ATOM     11  C   UNL     1       3.010  -7.134  14.803  1.00  0.00     0.179 A 
ENDROOT
BRANCH   1  12
ATOM     12  C   UNL     1      -2.536  -7.896  13.839  1.00  0.00     0.021 A 
ATOM     13  C   UNL     1      -5.258  -8.316  13.208  1.00  0.00     0.160 A 
ATOM     14  C   UNL     1      -4.420  -9.413  13.457  1.00  0.00     0.161 A 
ATOM     15  C   UNL     1      -4.731  -7.014  13.274  1.00  0.00     0.051 A 
ATOM     16  C   UNL     1      -3.061  -9.200  13.766  1.00  0.00     0.062 A 
ATOM     17  C   UNL     1      -3.387  -6.808  13.585  1.00  0.00     0.016 A 
BRANCH  13  18
ATOM     18  O   UNL     1      -6.605  -8.561  12.897  1.00  0.00    -0.493 OA
ATOM     19  C   UNL     1      -7.615  -7.559  12.842  1.00  0.00     0.278 C 
ENDBRANCH  13  18
BRANCH  14  20
ATOM     20  O   UNL     1      -4.974 -10.703  13.384  1.00  0.00    -0.493 OA
ATOM     21  C   UNL     1      -4.333 -11.886  13.850  1.00  0.00     0.278 C 
ENDBRANCH  14  20
ENDBRANCH   1  12
BRANCH   8  22
ATOM     22  O   UNL     1       1.564  -8.288  10.987  1.00  0.00    -0.490 OA
ATOM     23  C   UNL     1       1.390  -9.637  10.569  1.00  0.00     0.278 C 
ENDBRANCH   8  22
BRANCH  11  24
ATOM     24  O   UNL     1       3.469  -6.825  16.101  1.00  0.00    -0.492 OA
ATOM     25  C   UNL     1       4.248  -7.653  16.959  1.00  0.00     0.278 C 
ENDBRANCH  11  24
BRANCH   9  26
ATOM     26  O   UNL     1       4.227  -7.759  11.331  1.00  0.00    -0.490 OA
ATOM     27  C   UNL     1       4.553  -6.675  10.466  1.00  0.00     0.279 C 
ENDBRANCH   9  26
BRANCH  10  28
ATOM     28  O   UNL     1       5.272  -7.127  13.929  1.00  0.00    -0.490 OA
ATOM     29  C   UNL     1       6.025  -5.927  13.792  1.00  0.00     0.278 C 
ENDBRANCH  10  28
TORSDOF 7
ENDMDL
MODEL 3
REMARK VINA RESULT:    -6.644      3.044      4.089
REMARK INTER + INTRA:         -10.075
REMARK INTER:                  -9.333
REMARK INTRA:                  -0.743
REMARK UNBOUND:                -0.713
REMARK SMILES COc1ccc(-c2cc(=O)c3c(OC)c(OC)c(OC)c(OC)c3o2)cc1OC
REMARK SMILES IDX 7 1 8 2 9 3 10 4 11 5 24 6 25 7 21 8 18 9 15 10 12 11 6 12
REMARK SMILES IDX 3 13 27 14 4 15 26 16 5 17 2 18 1 19 28 20 29 21 22 22 23 23
REMARK SMILES IDX 13 24 14 25 19 26 20 27 16 28 17 29
REMARK H PARENT
REMARK Flexibility Score: inf
ROOT
ATOM      1  C   UNL     1      -1.087  -7.955  13.046  1.00  0.00     0.138 A 
ATOM      2  C   UNL     1      -0.472  -8.284  11.835  1.00  0.00     0.100 A 
ATOM      3  C   UNL     1       0.914  -8.205  11.729  1.00  0.00     0.197 A 
ATOM      4  O   UNL     1       1.450  -8.506  10.628  1.00  0.00    -0.289 OA
ATOM      5  C   UNL     1       1.684  -7.797  12.845  1.00  0.00     0.115 A 
ATOM      6  C   UNL     1       0.992  -7.506  14.047  1.00  0.00     0.188 A 
ATOM      7  O   UNL     1      -0.335  -7.600  14.084  1.00  0.00    -0.452 OA
ATOM      8  C   UNL     1       1.705  -7.106  15.198  1.00  0.00     0.209 A 
ATOM      9  C   UNL     1       3.110  -7.039  15.158  1.00  0.00     0.211 A 
ATOM     10  C   UNL     1       3.811  -7.278  13.950  1.00  0.00     0.208 A 
ATOM     11  C   UNL     1       3.093  -7.650  12.785  1.00  0.00     0.179 A 
ENDROOT
BRANCH   1  12
ATOM     12  C   UNL     1      -2.562  -7.998  13.205  1.00  0.00     0.021 A 
ATOM     13  C   UNL     1      -5.375  -8.029  13.456  1.00  0.00     0.160 A 
ATOM     14  C   UNL     1      -4.676  -9.232  13.277  1.00  0.00     0.161 A 
ATOM     15  C   UNL     1      -4.666  -6.816  13.506  1.00  0.00     0.051 A 
ATOM     16  C   UNL     1      -3.272  -9.212  13.147  1.00  0.00     0.062 A 
ATOM     17  C   UNL     1      -3.276  -6.803  13.382  1.00  0.00     0.016 A 
BRANCH  13  18
ATOM     18  O   UNL     1      -6.773  -8.081  13.577  1.00  0.00    -0.493 OA
ATOM     19  C   UNL     1      -7.675  -7.224  12.885  1.00  0.00     0.278 C 
ENDBRANCH  13  18
BRANCH  14  20
ATOM     20  O   UNL     1      -5.411 -10.429  13.231  1.00  0.00    -0.493 OA
ATOM     21  C   UNL     1      -5.067 -11.618  13.935  1.00  0.00     0.278 C 
ENDBRANCH  14  20
ENDBRANCH   1  12
BRANCH   8  22
ATOM     22  O   UNL     1       1.080  -6.726  16.401  1.00  0.00    -0.490 OA
ATOM     23  C   UNL     1       0.606  -7.588  17.429  1.00  0.00     0.278 C 
ENDBRANCH   8  22
BRANCH  11  24
ATOM     24  O   UNL     1       3.729  -7.890  11.548  1.00  0.00    -0.492 OA
ATOM     25  C   UNL     1       4.253  -6.919  10.647  1.00  0.00     0.278 C 
ENDBRANCH  11  24
BRANCH   9  26
ATOM     26  O   UNL     1       3.815  -6.715  16.325  1.00  0.00    -0.490 OA
ATOM     27  C   UNL     1       4.355  -7.697  17.207  1.00  0.00     0.279 C 
ENDBRANCH   9  26
BRANCH  10  28
ATOM     28  O   UNL     1       5.215  -7.183  13.862  1.00  0.00    -0.490 OA
ATOM     29  C   UNL     1       5.999  -6.003  13.727  1.00  0.00     0.278 C 
ENDBRANCH  10  28
TORSDOF 7
ENDMDL
MODEL 4
REMARK VINA RESULT:    -6.626      2.254      3.625
REMARK INTER + INTRA:         -10.050
REMARK INTER:                  -9.265
REMARK INTRA:                  -0.785
REMARK UNBOUND:                -0.713
REMARK SMILES COc1ccc(-c2cc(=O)c3c(OC)c(OC)c(OC)c(OC)c3o2)cc1OC
REMARK SMILES IDX 7 1 8 2 9 3 10 4 11 5 24 6 25 7 21 8 18 9 15 10 12 11 6 12
REMARK SMILES IDX 3 13 27 14 4 15 26 16 5 17 2 18 1 19 28 20 29 21 22 22 23 23
REMARK SMILES IDX 13 24 14 25 19 26 20 27 16 28 17 29
REMARK H PARENT
REMARK Flexibility Score: inf
ROOT
ATOM      1  C   UNL     1      -1.154  -7.886  12.985  1.00  0.00     0.138 A 
ATOM      2  C   UNL     1      -0.522  -8.246  11.791  1.00  0.00     0.100 A 
ATOM      3  C   UNL     1       0.868  -8.209  11.717  1.00  0.00     0.197 A 
ATOM      4  O   UNL     1       1.419  -8.539  10.632  1.00  0.00    -0.289 OA
ATOM      5  C   UNL     1       1.624  -7.812  12.846  1.00  0.00     0.115 A 
ATOM      6  C   UNL     1       0.914  -7.486  14.028  1.00  0.00     0.188 A 
ATOM      7  O   UNL     1      -0.417  -7.540  14.036  1.00  0.00    -0.452 OA
ATOM      8  C   UNL     1       1.612  -7.093  15.191  1.00  0.00     0.209 A 
ATOM      9  C   UNL     1       3.019  -7.068  15.183  1.00  0.00     0.211 A 
ATOM     10  C   UNL     1       3.740  -7.341  13.993  1.00  0.00     0.208 A 
ATOM     11  C   UNL     1       3.037  -7.706  12.817  1.00  0.00     0.179 A 
ENDROOT
BRANCH   1  12
ATOM     12  C   UNL     1      -2.633  -7.884  13.110  1.00  0.00     0.021 A 
ATOM     13  C   UNL     1      -5.444  -7.944  13.381  1.00  0.00     0.160 A 
ATOM     14  C   UNL     1      -4.730  -6.796  13.755  1.00  0.00     0.161 A 
ATOM     15  C   UNL     1      -4.751  -9.057  12.875  1.00  0.00     0.051 A 
ATOM     16  C   UNL     1      -3.326  -6.772  13.623  1.00  0.00     0.062 A 
ATOM     17  C   UNL     1      -3.362  -9.026  12.742  1.00  0.00     0.016 A 
BRANCH  13  18
ATOM     18  O   UNL     1      -6.841  -7.940  13.530  1.00  0.00    -0.493 OA
ATOM     19  C   UNL     1      -7.564  -8.829  14.374  1.00  0.00     0.278 C 
ENDBRANCH  13  18
BRANCH  14  20
ATOM     20  O   UNL     1      -5.450  -5.698  14.258  1.00  0.00    -0.493 OA
ATOM     21  C   UNL     1      -5.175  -5.048  15.494  1.00  0.00     0.278 C 
ENDBRANCH  14  20
ENDBRANCH   1  12
BRANCH   8  22
ATOM     22  O   UNL     1       0.971  -6.681  16.374  1.00  0.00    -0.490 OA
ATOM     23  C   UNL     1       0.449  -7.517  17.401  1.00  0.00     0.278 C 
ENDBRANCH   8  22
BRANCH  11  24
ATOM     24  O   UNL     1       3.694  -7.979  11.598  1.00  0.00    -0.492 OA
ATOM     25  C   UNL     1       4.267  -7.035  10.698  1.00  0.00     0.278 C 
ENDBRANCH  11  24
BRANCH   9  26
ATOM     26  O   UNL     1       3.707  -6.751  16.362  1.00  0.00    -0.490 OA
ATOM     27  C   UNL     1       4.238  -7.738  17.242  1.00  0.00     0.279 C 
ENDBRANCH   9  26
BRANCH  10  28
ATOM     28  O   UNL     1       5.147  -7.288  13.936  1.00  0.00    -0.490 OA
ATOM     29  C   UNL     1       5.969  -6.133  13.826  1.00  0.00     0.278 C 
ENDBRANCH  10  28
TORSDOF 7
ENDMDL
MODEL 5
REMARK VINA RESULT:    -6.607      4.368      6.100
REMARK INTER + INTRA:         -10.023
REMARK INTER:                  -9.373
REMARK INTRA:                  -0.650
REMARK UNBOUND:                -0.713
REMARK SMILES COc1ccc(-c2cc(=O)c3c(OC)c(OC)c(OC)c(OC)c3o2)cc1OC
REMARK SMILES IDX 7 1 8 2 9 3 10 4 11 5 24 6 25 7 21 8 18 9 15 10 12 11 6 12
REMARK SMILES IDX 3 13 27 14 4 15 26 16 5 17 2 18 1 19 28 20 29 21 22 22 23 23
REMARK SMILES IDX 13 24 14 25 19 26 20 27 16 28 17 29
REMARK H PARENT
REMARK Flexibility Score: inf
ROOT
ATOM      1  C   UNL     1      -5.553  -8.344  13.522  1.00  0.00     0.138 A 
ATOM      2  C   UNL     1      -4.852  -7.148  13.344  1.00  0.00     0.100 A 
ATOM      3  C   UNL     1      -3.487  -7.190  13.074  1.00  0.00     0.197 A 
ATOM      4  O   UNL     1      -2.874  -6.100  12.915  1.00  0.00    -0.289 OA
ATOM      5  C   UNL     1      -2.825  -8.437  12.982  1.00  0.00     0.115 A 
ATOM      6  C   UNL     1      -3.606  -9.607  13.148  1.00  0.00     0.188 A 
ATOM      7  O   UNL     1      -4.908  -9.501  13.405  1.00  0.00    -0.452 OA
ATOM      8  C   UNL     1      -3.006 -10.882  13.056  1.00  0.00     0.209 A 
ATOM      9  C   UNL     1      -1.635 -10.985  12.754  1.00  0.00     0.211 A 
ATOM     10  C   UNL     1      -0.831  -9.823  12.636  1.00  0.00     0.208 A 
ATOM     11  C   UNL     1      -1.429  -8.543  12.759  1.00  0.00     0.179 A 
ENDROOT
BRANCH   1  12
ATOM     12  C   UNL     1      -7.003  -8.355  13.836  1.00  0.00     0.021 A 
ATOM     13  C   UNL     1      -9.748  -8.369  14.503  1.00  0.00     0.160 A 
ATOM     14  C   UNL     1      -9.277  -7.511  13.499  1.00  0.00     0.161 A 
ATOM     15  C   UNL     1      -8.846  -9.215  15.171  1.00  0.00     0.051 A 
ATOM     16  C   UNL     1      -7.906  -7.503  13.173  1.00  0.00     0.062 A 
ATOM     17  C   UNL     1      -7.490  -9.207  14.840  1.00  0.00     0.016 A 
BRANCH  13  18
ATOM     18  O   UNL     1     -11.119  -8.350  14.810  1.00  0.00    -0.493 OA
ATOM     19  C   UNL     1     -11.691  -7.636  15.900  1.00  0.00     0.278 C 
ENDBRANCH  13  18
BRANCH  14  20
ATOM     20  O   UNL     1     -10.202  -6.676  12.849  1.00  0.00    -0.493 OA
ATOM     21  C   UNL     1     -10.659  -6.860  11.513  1.00  0.00     0.278 C 
ENDBRANCH  14  20
ENDBRANCH   1  12
BRANCH   8  22
ATOM     22  O   UNL     1      -3.702 -12.083  13.288  1.00  0.00    -0.490 OA
ATOM     23  C   UNL     1      -4.285 -12.512  14.513  1.00  0.00     0.278 C 
ENDBRANCH   8  22
BRANCH  11  24
ATOM     24  O   UNL     1      -0.684  -7.348  12.664  1.00  0.00    -0.492 OA
ATOM     25  C   UNL     1       0.280  -6.858  13.591  1.00  0.00     0.278 C 
ENDBRANCH  11  24
BRANCH   9  26
ATOM     26  O   UNL     1      -1.062 -12.253  12.589  1.00  0.00    -0.490 OA
ATOM     27  C   UNL     1      -0.310 -12.906  13.608  1.00  0.00     0.279 C 
ENDBRANCH   9  26
BRANCH  10  28
ATOM     28  O   UNL     1       0.552  -9.887  12.373  1.00  0.00    -0.490 OA
ATOM     29  C   UNL     1       1.201  -9.806  11.110  1.00  0.00     0.278 C 
ENDBRANCH  10  28
TORSDOF 7
ENDMDL
MODEL 6
REMARK VINA RESULT:    -6.584      3.054      4.933
REMARK INTER + INTRA:          -9.992
REMARK INTER:                  -9.215
REMARK INTRA:                  -0.777
REMARK UNBOUND:                -0.713
REMARK SMILES COc1ccc(-c2cc(=O)c3c(OC)c(OC)c(OC)c(OC)c3o2)cc1OC
REMARK SMILES IDX 7 1 8 2 9 3 10 4 11 5 24 6 25 7 21 8 18 9 15 10 12 11 6 12
REMARK SMILES IDX 3 13 27 14 4 15 26 16 5 17 2 18 1 19 28 20 29 21 22 22 23 23
REMARK SMILES IDX 13 24 14 25 19 26 20 27 16 28 17 29
REMARK H PARENT
REMARK Flexibility Score: inf
ROOT
ATOM      1  C   UNL     1      -3.425  -7.722  13.870  1.00  0.00     0.138 A 
ATOM      2  C   UNL     1      -2.868  -6.705  14.651  1.00  0.00     0.100 A 
ATOM      3  C   UNL     1      -1.483  -6.583  14.726  1.00  0.00     0.197 A 
ATOM      4  O   UNL     1      -1.001  -5.659  15.435  1.00  0.00    -0.289 OA
ATOM      5  C   UNL     1      -0.657  -7.483  14.010  1.00  0.00     0.115 A 
ATOM      6  C   UNL     1      -1.294  -8.470  13.219  1.00  0.00     0.188 A 
ATOM      7  O   UNL     1      -2.624  -8.536  13.190  1.00  0.00    -0.452 OA
ATOM      8  C   UNL     1      -0.524  -9.389  12.474  1.00  0.00     0.209 A 
ATOM      9  C   UNL     1       0.879  -9.293  12.487  1.00  0.00     0.211 A 
ATOM     10  C   UNL     1       1.531  -8.343  13.314  1.00  0.00     0.208 A 
ATOM     11  C   UNL     1       0.758  -7.440  14.086  1.00  0.00     0.179 A 
ENDROOT
BRANCH   1  12
ATOM     12  C   UNL     1      -4.895  -7.911  13.776  1.00  0.00     0.021 A 
ATOM     13  C   UNL     1      -7.694  -8.271  13.669  1.00  0.00     0.160 A 
ATOM     14  C   UNL     1      -7.087  -7.277  12.888  1.00  0.00     0.161 A 
ATOM     15  C   UNL     1      -6.900  -9.080  14.501  1.00  0.00     0.051 A 
ATOM     16  C   UNL     1      -5.690  -7.097  12.948  1.00  0.00     0.062 A 
ATOM     17  C   UNL     1      -5.517  -8.901  14.553  1.00  0.00     0.016 A 
BRANCH  13  18
ATOM     18  O   UNL     1      -9.088  -8.423  13.592  1.00  0.00    -0.493 OA
ATOM     19  C   UNL     1     -10.002  -8.001  14.598  1.00  0.00     0.278 C 
ENDBRANCH  13  18
BRANCH  14  20
ATOM     20  O   UNL     1      -7.905  -6.484  12.065  1.00  0.00    -0.493 OA
ATOM     21  C   UNL     1      -8.408  -5.200  12.422  1.00  0.00     0.278 C 
ENDBRANCH  14  20
ENDBRANCH   1  12
BRANCH   8  22
ATOM     22  O   UNL     1      -1.086 -10.444  11.730  1.00  0.00    -0.490 OA
ATOM     23  C   UNL     1      -1.522 -11.705  12.226  1.00  0.00     0.278 C 
ENDBRANCH   8  22
BRANCH  11  24
ATOM     24  O   UNL     1       1.345  -6.479  14.938  1.00  0.00    -0.492 OA
ATOM     25  C   UNL     1       2.193  -6.723  16.056  1.00  0.00     0.278 C 
ENDBRANCH  11  24
BRANCH   9  26
ATOM     26  O   UNL     1       1.635 -10.159  11.686  1.00  0.00    -0.490 OA
ATOM     27  C   UNL     1       2.014  -9.850  10.347  1.00  0.00     0.279 C 
ENDBRANCH   9  26
BRANCH  10  28
ATOM     28  O   UNL     1       2.935  -8.242  13.383  1.00  0.00    -0.490 OA
ATOM     29  C   UNL     1       3.787  -7.419  12.595  1.00  0.00     0.278 C 
ENDBRANCH  10  28
TORSDOF 7
ENDMDL
MODEL 7
REMARK VINA RESULT:    -6.539      2.043      7.906
REMARK INTER + INTRA:          -9.927
REMARK INTER:                  -9.106
REMARK INTRA:                  -0.821
REMARK UNBOUND:                -0.713
REMARK SMILES COc1ccc(-c2cc(=O)c3c(OC)c(OC)c(OC)c(OC)c3o2)cc1OC
REMARK SMILES IDX 7 1 8 2 9 3 10 4 11 5 24 6 25 7 21 8 18 9 15 10 12 11 6 12
REMARK SMILES IDX 3 13 27 14 4 15 26 16 5 17 2 18 1 19 28 20 29 21 22 22 23 23
REMARK SMILES IDX 13 24 14 25 19 26 20 27 16 28 17 29
REMARK H PARENT
REMARK Flexibility Score: inf
ROOT
ATOM      1  C   UNL     1      -0.317  -7.428  13.467  1.00  0.00     0.138 A 
ATOM      2  C   UNL     1      -1.033  -8.224  12.569  1.00  0.00     0.100 A 
ATOM      3  C   UNL     1      -2.423  -8.259  12.645  1.00  0.00     0.197 A 
ATOM      4  O   UNL     1      -3.050  -8.982  11.825  1.00  0.00    -0.289 OA
ATOM      5  C   UNL     1      -3.095  -7.488  13.625  1.00  0.00     0.115 A 
ATOM      6  C   UNL     1      -2.303  -6.686  14.483  1.00  0.00     0.188 A 
ATOM      7  O   UNL     1      -0.977  -6.696  14.360  1.00  0.00    -0.452 OA
ATOM      8  C   UNL     1      -2.914  -5.887  15.473  1.00  0.00     0.209 A 
ATOM      9  C   UNL     1      -4.318  -5.858  15.575  1.00  0.00     0.211 A 
ATOM     10  C   UNL     1      -5.119  -6.694  14.758  1.00  0.00     0.208 A 
ATOM     11  C   UNL     1      -4.503  -7.520  13.784  1.00  0.00     0.179 A 
ENDROOT
BRANCH   1  12
ATOM     12  C   UNL     1       1.166  -7.375  13.445  1.00  0.00     0.021 A 
ATOM     13  C   UNL     1       3.986  -7.229  13.346  1.00  0.00     0.160 A 
ATOM     14  C   UNL     1       3.316  -7.012  14.560  1.00  0.00     0.161 A 
ATOM     15  C   UNL     1       3.243  -7.516  12.188  1.00  0.00     0.051 A 
ATOM     16  C   UNL     1       1.909  -7.080  14.604  1.00  0.00     0.062 A 
ATOM     17  C   UNL     1       1.850  -7.587  12.238  1.00  0.00     0.016 A 
BRANCH  13  18
ATOM     18  O   UNL     1       5.387  -7.149  13.334  1.00  0.00    -0.493 OA
ATOM     19  C   UNL     1       6.125  -5.997  12.939  1.00  0.00     0.278 C 
ENDBRANCH  13  18
BRANCH  14  20
ATOM     20  O   UNL     1       4.084  -6.727  15.702  1.00  0.00    -0.493 OA
ATOM     21  C   UNL     1       4.234  -7.602  16.815  1.00  0.00     0.278 C 
ENDBRANCH  14  20
ENDBRANCH   1  12
BRANCH   8  22
ATOM     22  O   UNL     1      -2.189  -5.126  16.410  1.00  0.00    -0.490 OA
ATOM     23  C   UNL     1      -1.714  -5.559  17.680  1.00  0.00     0.278 C 
ENDBRANCH   8  22
BRANCH  11  24
ATOM     24  O   UNL     1      -5.242  -8.384  12.948  1.00  0.00    -0.492 OA
ATOM     25  C   UNL     1      -5.880  -9.603  13.317  1.00  0.00     0.278 C 
ENDBRANCH  11  24
BRANCH   9  26
ATOM     26  O   UNL     1      -4.921  -5.005  16.509  1.00  0.00    -0.490 OA
ATOM     27  C   UNL     1      -5.310  -3.668  16.204  1.00  0.00     0.279 C 
ENDBRANCH   9  26
BRANCH  10  28
ATOM     28  O   UNL     1      -6.525  -6.722  14.858  1.00  0.00    -0.490 OA
ATOM     29  C   UNL     1      -7.465  -5.972  14.098  1.00  0.00     0.278 C 
ENDBRANCH  10  28
TORSDOF 7
ENDMDL
MODEL 8
REMARK VINA RESULT:    -6.529      3.280      6.582
REMARK INTER + INTRA:          -9.914
REMARK INTER:                  -9.188
REMARK INTRA:                  -0.726
REMARK UNBOUND:                -0.713
REMARK SMILES COc1ccc(-c2cc(=O)c3c(OC)c(OC)c(OC)c(OC)c3o2)cc1OC
REMARK SMILES IDX 7 1 8 2 9 3 10 4 11 5 24 6 25 7 21 8 18 9 15 10 12 11 6 12
REMARK SMILES IDX 3 13 27 14 4 15 26 16 5 17 2 18 1 19 28 20 29 21 22 22 23 23
REMARK SMILES IDX 13 24 14 25 19 26 20 27 16 28 17 29
REMARK H PARENT
REMARK Flexibility Score: inf
ROOT
ATOM      1  C   UNL     1      -5.840  -5.649  14.168  1.00  0.00     0.138 A 
ATOM      2  C   UNL     1      -5.699  -4.919  15.352  1.00  0.00     0.100 A 
ATOM      3  C   UNL     1      -4.473  -4.919  16.012  1.00  0.00     0.197 A 
ATOM      4  O   UNL     1      -4.366  -4.254  17.078  1.00  0.00    -0.289 OA
ATOM      5  C   UNL     1      -3.385  -5.651  15.478  1.00  0.00     0.115 A 
ATOM      6  C   UNL     1      -3.596  -6.344  14.261  1.00  0.00     0.188 A 
ATOM      7  O   UNL     1      -4.793  -6.307  13.678  1.00  0.00    -0.452 OA
ATOM      8  C   UNL     1      -2.547  -7.083  13.673  1.00  0.00     0.209 A 
ATOM      9  C   UNL     1      -1.277  -7.092  14.279  1.00  0.00     0.211 A 
ATOM     10  C   UNL     1      -1.065  -6.446  15.523  1.00  0.00     0.208 A 
ATOM     11  C   UNL     1      -2.128  -5.729  16.130  1.00  0.00     0.179 A 
ENDROOT
BRANCH   1  12
ATOM     12  C   UNL     1      -7.131  -5.703  13.439  1.00  0.00     0.021 A 
ATOM     13  C   UNL     1      -9.610  -5.862  12.093  1.00  0.00     0.160 A 
ATOM     14  C   UNL     1      -9.155  -4.627  12.578  1.00  0.00     0.161 A 
ATOM     15  C   UNL     1      -8.825  -7.013  12.285  1.00  0.00     0.051 A 
ATOM     16  C   UNL     1      -7.920  -4.553  13.253  1.00  0.00     0.062 A 
ATOM     17  C   UNL     1      -7.601  -6.933  12.950  1.00  0.00     0.016 A 
BRANCH  13  18
ATOM     18  O   UNL     1     -10.846  -5.905  11.429  1.00  0.00    -0.493 OA
ATOM     19  C   UNL     1     -11.455  -7.093  10.935  1.00  0.00     0.278 C 
ENDBRANCH  13  18
BRANCH  14  20
ATOM     20  O   UNL     1      -9.961  -3.494  12.372  1.00  0.00    -0.493 OA
ATOM     21  C   UNL     1      -9.709  -2.488  11.395  1.00  0.00     0.278 C 
ENDBRANCH  14  20
ENDBRANCH   1  12
BRANCH   8  22
ATOM     22  O   UNL     1      -2.705  -7.859  12.509  1.00  0.00    -0.490 OA
ATOM     23  C   UNL     1      -3.202  -9.190  12.428  1.00  0.00     0.278 C 
ENDBRANCH   8  22
BRANCH  11  24
ATOM     24  O   UNL     1      -1.987  -5.074  17.372  1.00  0.00    -0.492 OA
ATOM     25  C   UNL     1      -1.918  -5.678  18.660  1.00  0.00     0.278 C 
ENDBRANCH  11  24
BRANCH   9  26
ATOM     26  O   UNL     1      -0.220  -7.764  13.651  1.00  0.00    -0.490 OA
ATOM     27  C   UNL     1       0.714  -7.115  12.792  1.00  0.00     0.279 C 
ENDBRANCH   9  26
BRANCH  10  28
ATOM     28  O   UNL     1       0.181  -6.466  16.180  1.00  0.00    -0.490 OA
ATOM     29  C   UNL     1       0.762  -7.540  16.909  1.00  0.00     0.278 C 
ENDBRANCH  10  28
TORSDOF 7
ENDMDL
MODEL 9
REMARK VINA RESULT:    -6.510      4.642     10.749
REMARK INTER + INTRA:          -9.887
REMARK INTER:                  -9.174
REMARK INTRA:                  -0.714
REMARK UNBOUND:                -0.713
REMARK SMILES COc1ccc(-c2cc(=O)c3c(OC)c(OC)c(OC)c(OC)c3o2)cc1OC
REMARK SMILES IDX 7 1 8 2 9 3 10 4 11 5 24 6 25 7 21 8 18 9 15 10 12 11 6 12
REMARK SMILES IDX 3 13 27 14 4 15 26 16 5 17 2 18 1 19 28 20 29 21 22 22 23 23
REMARK SMILES IDX 13 24 14 25 19 26 20 27 16 28 17 29
REMARK H PARENT
REMARK Flexibility Score: inf
ROOT
ATOM      1  C   UNL     1      -6.316  -7.949  13.687  1.00  0.00     0.138 A 
ATOM      2  C   UNL     1      -6.960  -9.025  14.305  1.00  0.00     0.100 A 
ATOM      3  C   UNL     1      -8.327  -8.950  14.554  1.00  0.00     0.197 A 
ATOM      4  O   UNL     1      -8.889  -9.932  15.111  1.00  0.00    -0.289 OA
ATOM      5  C   UNL     1      -9.050  -7.792  14.179  1.00  0.00     0.115 A 
ATOM      6  C   UNL     1      -8.334  -6.754  13.534  1.00  0.00     0.188 A 
ATOM      7  O   UNL     1      -7.025  -6.885  13.324  1.00  0.00    -0.452 OA
ATOM      8  C   UNL     1      -9.001  -5.578  13.126  1.00  0.00     0.209 A 
ATOM      9  C   UNL     1     -10.389  -5.461  13.324  1.00  0.00     0.211 A 
ATOM     10  C   UNL     1     -11.108  -6.470  14.014  1.00  0.00     0.208 A 
ATOM     11  C   UNL     1     -10.433  -7.637  14.451  1.00  0.00     0.179 A 
ENDROOT
BRANCH   1  12
ATOM     12  C   UNL     1      -4.855  -7.967  13.421  1.00  0.00     0.021 A 
ATOM     13  C   UNL     1      -2.090  -8.011  12.845  1.00  0.00     0.160 A 
ATOM     14  C   UNL     1      -2.626  -6.976  13.626  1.00  0.00     0.161 A 
ATOM     15  C   UNL     1      -2.940  -9.018  12.354  1.00  0.00     0.051 A 
ATOM     16  C   UNL     1      -4.007  -6.955  13.907  1.00  0.00     0.062 A 
ATOM     17  C   UNL     1      -4.305  -8.995  12.640  1.00  0.00     0.016 A 
BRANCH  13  18
ATOM     18  O   UNL     1      -0.712  -8.002  12.578  1.00  0.00    -0.493 OA
ATOM     19  C   UNL     1       0.018  -9.112  12.067  1.00  0.00     0.278 C 
ENDBRANCH  13  18
BRANCH  14  20
ATOM     20  O   UNL     1      -1.753  -5.983  14.103  1.00  0.00    -0.493 OA
ATOM     21  C   UNL     1      -1.143  -5.991  15.390  1.00  0.00     0.278 C 
ENDBRANCH  14  20
ENDBRANCH   1  12
BRANCH   8  22
ATOM     22  O   UNL     1      -8.341  -4.475  12.552  1.00  0.00    -0.490 OA
ATOM     23  C   UNL     1      -7.754  -3.375  13.240  1.00  0.00     0.278 C 
ENDBRANCH   8  22
BRANCH  11  24
ATOM     24  O   UNL     1     -11.087  -8.672  15.153  1.00  0.00    -0.492 OA
ATOM     25  C   UNL     1     -11.436  -8.689  16.534  1.00  0.00     0.278 C 
ENDBRANCH  11  24
BRANCH   9  26
ATOM     26  O   UNL     1     -11.057  -4.325  12.848  1.00  0.00    -0.490 OA
ATOM     27  C   UNL     1     -11.680  -4.268  11.568  1.00  0.00     0.279 C 
ENDBRANCH   9  26
BRANCH  10  28
ATOM     28  O   UNL     1     -12.491  -6.370  14.265  1.00  0.00    -0.490 OA
ATOM     29  C   UNL     1     -13.135  -5.651  15.310  1.00  0.00     0.278 C 
ENDBRANCH  10  28
TORSDOF 7
ENDMDL
