MODEL 1
REMARK VINA RESULT:    -5.561      0.000      0.000
REMARK INTER + INTRA:         -15.375
REMARK INTER:                 -12.714
REMARK INTRA:                  -2.661
REMARK UNBOUND:                -2.661
REMARK SMILES CCCCCCCCCCCCCCCCCCCCCCCC(=O)[O-]
REMARK SMILES IDX 13 1 14 2 15 3 16 4 17 5 18 6 19 7 20 8 21 9 22 10 23 11
REMARK SMILES IDX 24 12 25 13 26 14 12 15 11 16 10 17 9 18 8 19 7 20 6 21 5 22
REMARK SMILES IDX 4 23 3 24 2 25 1 26
REMARK H PARENT
REMARK Flexibility Score: inf
ROOT
ATOM      1  C   UNL     1      24.047 -10.022  20.200  1.00  0.00     0.000 C 
ENDROOT
BRANCH   1   2
ATOM      2  C   UNL     1      25.517  -9.586  20.191  1.00  0.00     0.000 C 
BRANCH   2   3
ATOM      3  C   UNL     1      26.103  -9.652  18.775  1.00  0.00     0.000 C 
BRANCH   3   4
ATOM      4  C   UNL     1      27.555  -9.152  18.759  1.00  0.00     0.000 C 
BRANCH   4   5
ATOM      5  C   UNL     1      27.805  -8.089  17.676  1.00  0.00     0.000 C 
BRANCH   5   6
ATOM      6  C   UNL     1      29.169  -7.396  17.832  1.00  0.00     0.000 C 
BRANCH   6   7
ATOM      7  C   UNL     1      30.353  -8.370  17.682  1.00  0.00     0.000 C 
BRANCH   7   8
ATOM      8  C   UNL     1      30.730  -8.729  16.230  1.00  0.00     0.000 C 
BRANCH   8   9
ATOM      9  C   UNL     1      32.055  -9.493  16.068  1.00  0.00     0.000 C 
BRANCH   9  10
ATOM     10  C   UNL     1      32.985  -9.341  17.283  1.00  0.00     0.006 C 
BRANCH  10  11
ATOM     11  C   UNL     1      34.454  -9.173  16.872  1.00  0.00     0.053 C 
BRANCH  11  12
ATOM     12  C   UNL     1      35.349  -9.006  18.061  1.00  0.00     0.041 C 
ATOM     13  O   UNL     1      35.836  -7.877  18.334  1.00  0.00    -0.550 OA
ATOM     14  O   UNL     1      35.667 -10.102  18.853  1.00  0.00    -0.550 OA
ENDBRANCH  11  12
ENDBRANCH  10  11
ENDBRANCH   9  10
ENDBRANCH   8   9
ENDBRANCH   7   8
ENDBRANCH   6   7
ENDBRANCH   5   6
ENDBRANCH   4   5
ENDBRANCH   3   4
ENDBRANCH   2   3
ENDBRANCH   1   2
BRANCH   1  15
ATOM     15  C   UNL     1      23.521 -10.161  21.633  1.00  0.00     0.000 C 
BRANCH  15  16
ATOM     16  C   UNL     1      22.725 -11.463  21.805  1.00  0.00     0.000 C 
BRANCH  16  17
ATOM     17  C   UNL     1      22.248 -12.044  20.465  1.00  0.00     0.000 C 
BRANCH  17  18
ATOM     18  C   UNL     1      22.615 -13.529  20.300  1.00  0.00    -0.000 C 
BRANCH  18  19
ATOM     19  C   UNL     1      23.586 -13.769  19.134  1.00  0.00    -0.000 C 
BRANCH  19  20
ATOM     20  C   UNL     1      23.402 -12.750  17.996  1.00  0.00    -0.000 C 
BRANCH  20  21
ATOM     21  C   UNL     1      24.656 -12.618  17.116  1.00  0.00    -0.000 C 
BRANCH  21  22
ATOM     22  C   UNL     1      24.350 -11.988  15.745  1.00  0.00    -0.000 C 
BRANCH  22  23
ATOM     23  C   UNL     1      25.294 -10.823  15.398  1.00  0.00    -0.000 C 
BRANCH  23  24
ATOM     24  C   UNL     1      26.535 -11.218  14.579  1.00  0.00    -0.000 C 
BRANCH  24  25
ATOM     25  C   UNL     1      27.844 -10.686  15.181  1.00  0.00    -0.003 C 
ATOM     26  C   UNL     1      28.278 -11.520  16.382  1.00  0.00     0.004 C 
ENDBRANCH  24  25
ENDBRANCH  23  24
ENDBRANCH  22  23
ENDBRANCH  21  22
ENDBRANCH  20  21
ENDBRANCH  19  20
ENDBRANCH  18  19
ENDBRANCH  17  18
ENDBRANCH  16  17
ENDBRANCH  15  16
ENDBRANCH   1  15
TORSDOF 22
ENDMDL
MODEL 2
REMARK VINA RESULT:    -5.551      1.208      4.410
REMARK INTER + INTRA:         -15.352
REMARK INTER:                 -12.557
REMARK INTRA:                  -2.795
REMARK UNBOUND:                -2.661
REMARK SMILES CCCCCCCCCCCCCCCCCCCCCCCC(=O)[O-]
REMARK SMILES IDX 13 1 14 2 15 3 16 4 17 5 18 6 19 7 20 8 21 9 22 10 23 11
REMARK SMILES IDX 24 12 25 13 26 14 12 15 11 16 10 17 9 18 8 19 7 20 6 21 5 22
REMARK SMILES IDX 4 23 3 24 2 25 1 26
REMARK H PARENT
REMARK Flexibility Score: inf
ROOT
ATOM      1  C   UNL     1      27.475 -11.305  17.910  1.00  0.00     0.000 C 
ENDROOT
BRANCH   1   2
ATOM      2  C   UNL     1      26.821 -10.007  18.398  1.00  0.00     0.000 C 
BRANCH   2   3
ATOM      3  C   UNL     1      27.878  -8.941  18.711  1.00  0.00     0.000 C 
BRANCH   3   4
ATOM      4  C   UNL     1      27.681  -7.697  17.833  1.00  0.00     0.000 C 
BRANCH   4   5
ATOM      5  C   UNL     1      28.883  -6.739  17.881  1.00  0.00     0.000 C 
BRANCH   5   6
ATOM      6  C   UNL     1      30.221  -7.458  17.638  1.00  0.00     0.000 C 
BRANCH   6   7
ATOM      7  C   UNL     1      30.393  -7.919  16.179  1.00  0.00     0.000 C 
BRANCH   7   8
ATOM      8  C   UNL     1      31.474  -8.996  15.952  1.00  0.00     0.000 C 
BRANCH   8   9
ATOM      9  C   UNL     1      32.022  -9.653  17.231  1.00  0.00     0.000 C 
BRANCH   9  10
ATOM     10  C   UNL     1      33.513  -9.354  17.463  1.00  0.00     0.006 C 
BRANCH  10  11
ATOM     11  C   UNL     1      34.143  -8.600  16.285  1.00  0.00     0.053 C 
BRANCH  11  12
ATOM     12  C   UNL     1      35.402  -9.258  15.813  1.00  0.00     0.041 C 
ATOM     13  O   UNL     1      35.888 -10.230  16.450  1.00  0.00    -0.550 OA
ATOM     14  O   UNL     1      36.056  -8.780  14.684  1.00  0.00    -0.550 OA
ENDBRANCH  11  12
ENDBRANCH  10  11
ENDBRANCH   9  10
ENDBRANCH   8   9
ENDBRANCH   7   8
ENDBRANCH   6   7
ENDBRANCH   5   6
ENDBRANCH   4   5
ENDBRANCH   3   4
ENDBRANCH   2   3
ENDBRANCH   1   2
BRANCH   1  15
ATOM     15  C   UNL     1      28.688 -11.010  17.020  1.00  0.00     0.000 C 
BRANCH  15  16
ATOM     16  C   UNL     1      28.322 -11.129  15.534  1.00  0.00     0.000 C 
BRANCH  16  17
ATOM     17  C   UNL     1      27.104 -10.270  15.155  1.00  0.00     0.000 C 
BRANCH  17  18
ATOM     18  C   UNL     1      25.930 -11.111  14.625  1.00  0.00    -0.000 C 
BRANCH  18  19
ATOM     19  C   UNL     1      24.710 -11.074  15.559  1.00  0.00    -0.000 C 
BRANCH  19  20
ATOM     20  C   UNL     1      24.168 -12.479  15.875  1.00  0.00    -0.000 C 
BRANCH  20  21
ATOM     21  C   UNL     1      23.264 -12.495  17.118  1.00  0.00    -0.000 C 
BRANCH  21  22
ATOM     22  C   UNL     1      23.889 -13.271  18.292  1.00  0.00    -0.000 C 
BRANCH  22  23
ATOM     23  C   UNL     1      23.041 -13.199  19.574  1.00  0.00    -0.000 C 
BRANCH  23  24
ATOM     24  C   UNL     1      22.417 -11.822  19.860  1.00  0.00    -0.000 C 
BRANCH  24  25
ATOM     25  C   UNL     1      23.007 -11.144  21.106  1.00  0.00    -0.003 C 
ATOM     26  C   UNL     1      23.954 -10.012  20.720  1.00  0.00     0.004 C 
ENDBRANCH  24  25
ENDBRANCH  23  24
ENDBRANCH  22  23
ENDBRANCH  21  22
ENDBRANCH  20  21
ENDBRANCH  19  20
ENDBRANCH  18  19
ENDBRANCH  17  18
ENDBRANCH  16  17
ENDBRANCH  15  16
ENDBRANCH   1  15
TORSDOF 22
ENDMDL
MODEL 3
REMARK VINA RESULT:    -5.462      3.862      9.349
REMARK INTER + INTRA:         -15.149
REMARK INTER:                 -12.160
REMARK INTRA:                  -2.989
REMARK UNBOUND:                -2.661
REMARK SMILES CCCCCCCCCCCCCCCCCCCCCCCC(=O)[O-]
REMARK SMILES IDX 13 1 14 2 15 3 16 4 17 5 18 6 19 7 20 8 21 9 22 10 23 11
REMARK SMILES IDX 24 12 25 13 26 14 12 15 11 16 10 17 9 18 8 19 7 20 6 21 5 22
REMARK SMILES IDX 4 23 3 24 2 25 1 26
REMARK H PARENT
REMARK Flexibility Score: inf
ROOT
ATOM      1  C   UNL     1      31.021 -10.045  15.740  1.00  0.00     0.000 C 
ENDROOT
BRANCH   1   2
ATOM      2  C   UNL     1      29.613 -10.650  15.695  1.00  0.00     0.000 C 
BRANCH   2   3
ATOM      3  C   UNL     1      28.992 -10.705  17.096  1.00  0.00     0.000 C 
BRANCH   3   4
ATOM      4  C   UNL     1      27.460 -10.782  17.014  1.00  0.00     0.000 C 
BRANCH   4   5
ATOM      5  C   UNL     1      26.946 -10.867  15.567  1.00  0.00     0.000 C 
BRANCH   5   6
ATOM      6  C   UNL     1      25.453 -11.230  15.491  1.00  0.00     0.000 C 
BRANCH   6   7
ATOM      7  C   UNL     1      24.814 -11.417  16.879  1.00  0.00     0.000 C 
BRANCH   7   8
ATOM      8  C   UNL     1      23.791 -12.567  16.983  1.00  0.00     0.000 C 
BRANCH   8   9
ATOM      9  C   UNL     1      23.470 -13.031  18.415  1.00  0.00     0.000 C 
BRANCH   9  10
ATOM     10  C   UNL     1      22.484 -12.098  19.138  1.00  0.00     0.006 C 
BRANCH  10  11
ATOM     11  C   UNL     1      22.689 -12.104  20.658  1.00  0.00     0.053 C 
BRANCH  11  12
ATOM     12  C   UNL     1      23.267 -10.813  21.148  1.00  0.00     0.041 C 
ATOM     13  O   UNL     1      23.870 -10.045  20.351  1.00  0.00    -0.550 OA
ATOM     14  O   UNL     1      23.165 -10.468  22.489  1.00  0.00    -0.550 OA
ENDBRANCH  11  12
ENDBRANCH  10  11
ENDBRANCH   9  10
ENDBRANCH   8   9
ENDBRANCH   7   8
ENDBRANCH   6   7
ENDBRANCH   5   6
ENDBRANCH   4   5
ENDBRANCH   3   4
ENDBRANCH   2   3
ENDBRANCH   1   2
BRANCH   1  15
ATOM     15  C   UNL     1      31.404  -9.649  17.170  1.00  0.00     0.000 C 
BRANCH  15  16
ATOM     16  C   UNL     1      32.808  -9.026  17.212  1.00  0.00     0.000 C 
BRANCH  16  17
ATOM     17  C   UNL     1      33.597  -9.261  15.914  1.00  0.00     0.000 C 
BRANCH  17  18
ATOM     18  C   UNL     1      34.233  -7.971  15.368  1.00  0.00    -0.000 C 
BRANCH  18  19
ATOM     19  C   UNL     1      33.932  -6.748  16.249  1.00  0.00    -0.000 C 
BRANCH  19  20
ATOM     20  C   UNL     1      33.109  -5.678  15.509  1.00  0.00    -0.000 C 
BRANCH  20  21
ATOM     21  C   UNL     1      31.615  -5.734  15.865  1.00  0.00    -0.000 C 
BRANCH  21  22
ATOM     22  C   UNL     1      30.824  -6.679  14.943  1.00  0.00    -0.000 C 
BRANCH  22  23
ATOM     23  C   UNL     1      29.325  -6.335  14.879  1.00  0.00    -0.000 C 
BRANCH  23  24
ATOM     24  C   UNL     1      28.432  -7.160  15.823  1.00  0.00    -0.000 C 
BRANCH  24  25
ATOM     25  C   UNL     1      28.154  -6.451  17.156  1.00  0.00    -0.003 C 
ATOM     26  C   UNL     1      27.933  -7.459  18.280  1.00  0.00     0.004 C 
ENDBRANCH  24  25
ENDBRANCH  23  24
ENDBRANCH  22  23
ENDBRANCH  21  22
ENDBRANCH  20  21
ENDBRANCH  19  20
ENDBRANCH  18  19
ENDBRANCH  17  18
ENDBRANCH  16  17
ENDBRANCH  15  16
ENDBRANCH   1  15
TORSDOF 22
ENDMDL
MODEL 4
REMARK VINA RESULT:    -5.392      2.717      6.208
REMARK INTER + INTRA:         -14.987
REMARK INTER:                 -12.690
REMARK INTRA:                  -2.296
REMARK UNBOUND:                -2.661
REMARK SMILES CCCCCCCCCCCCCCCCCCCCCCCC(=O)[O-]
REMARK SMILES IDX 13 1 14 2 15 3 16 4 17 5 18 6 19 7 20 8 21 9 22 10 23 11
REMARK SMILES IDX 24 12 25 13 26 14 12 15 11 16 10 17 9 18 8 19 7 20 6 21 5 22
REMARK SMILES IDX 4 23 3 24 2 25 1 26
REMARK H PARENT
REMARK Flexibility Score: inf
ROOT
ATOM      1  C   UNL     1      30.857  -9.958  15.642  1.00  0.00     0.000 C 
ENDROOT
BRANCH   1   2
ATOM      2  C   UNL     1      31.194  -9.671  17.110  1.00  0.00     0.000 C 
BRANCH   2   3
ATOM      3  C   UNL     1      32.670  -9.288  17.272  1.00  0.00     0.000 C 
BRANCH   3   4
ATOM      4  C   UNL     1      33.201  -8.602  16.005  1.00  0.00     0.000 C 
BRANCH   4   5
ATOM      5  C   UNL     1      33.770  -7.201  16.283  1.00  0.00     0.000 C 
BRANCH   5   6
ATOM      6  C   UNL     1      32.782  -6.079  15.918  1.00  0.00     0.000 C 
BRANCH   6   7
ATOM      7  C   UNL     1      32.180  -6.249  14.511  1.00  0.00     0.000 C 
BRANCH   7   8
ATOM      8  C   UNL     1      30.655  -6.043  14.419  1.00  0.00     0.000 C 
BRANCH   8   9
ATOM      9  C   UNL     1      29.831  -6.743  15.515  1.00  0.00     0.000 C 
BRANCH   9  10
ATOM     10  C   UNL     1      28.350  -6.330  15.503  1.00  0.00     0.006 C 
BRANCH  10  11
ATOM     11  C   UNL     1      27.970  -5.500  16.736  1.00  0.00     0.053 C 
BRANCH  11  12
ATOM     12  C   UNL     1      28.410  -6.158  18.007  1.00  0.00     0.041 C 
ATOM     13  O   UNL     1      27.877  -7.237  18.380  1.00  0.00    -0.550 OA
ATOM     14  O   UNL     1      29.389  -5.566  18.795  1.00  0.00    -0.550 OA
ENDBRANCH  11  12
ENDBRANCH  10  11
ENDBRANCH   9  10
ENDBRANCH   8   9
ENDBRANCH   7   8
ENDBRANCH   6   7
ENDBRANCH   5   6
ENDBRANCH   4   5
ENDBRANCH   3   4
ENDBRANCH   2   3
ENDBRANCH   1   2
BRANCH   1  15
ATOM     15  C   UNL     1      29.875 -11.128  15.520  1.00  0.00     0.000 C 
BRANCH  15  16
ATOM     16  C   UNL     1      28.428 -10.657  15.732  1.00  0.00     0.000 C 
BRANCH  16  17
ATOM     17  C   UNL     1      27.711 -11.435  16.846  1.00  0.00     0.000 C 
BRANCH  17  18
ATOM     18  C   UNL     1      26.891 -10.520  17.772  1.00  0.00    -0.000 C 
BRANCH  18  19
ATOM     19  C   UNL     1      25.398 -10.499  17.408  1.00  0.00    -0.000 C 
BRANCH  19  20
ATOM     20  C   UNL     1      25.065 -11.443  16.239  1.00  0.00    -0.000 C 
BRANCH  20  21
ATOM     21  C   UNL     1      23.856 -12.345  16.538  1.00  0.00    -0.000 C 
BRANCH  21  22
ATOM     22  C   UNL     1      23.872 -12.895  17.975  1.00  0.00    -0.000 C 
BRANCH  22  23
ATOM     23  C   UNL     1      22.593 -12.550  18.760  1.00  0.00    -0.000 C 
BRANCH  23  24
ATOM     24  C   UNL     1      22.792 -12.381  20.277  1.00  0.00    -0.000 C 
BRANCH  24  25
ATOM     25  C   UNL     1      23.200 -10.954  20.672  1.00  0.00    -0.003 C 
ATOM     26  C   UNL     1      22.992 -10.716  22.165  1.00  0.00     0.004 C 
ENDBRANCH  24  25
ENDBRANCH  23  24
ENDBRANCH  22  23
ENDBRANCH  21  22
ENDBRANCH  20  21
ENDBRANCH  19  20
ENDBRANCH  18  19
ENDBRANCH  17  18
ENDBRANCH  16  17
ENDBRANCH  15  16
ENDBRANCH   1  15
TORSDOF 22
ENDMDL
MODEL 5
REMARK VINA RESULT:    -5.349      2.331      4.449
REMARK INTER + INTRA:         -14.891
REMARK INTER:                 -12.097
REMARK INTRA:                  -2.794
REMARK UNBOUND:                -2.661
REMARK SMILES CCCCCCCCCCCCCCCCCCCCCCCC(=O)[O-]
REMARK SMILES IDX 13 1 14 2 15 3 16 4 17 5 18 6 19 7 20 8 21 9 22 10 23 11
REMARK SMILES IDX 24 12 25 13 26 14 12 15 11 16 10 17 9 18 8 19 7 20 6 21 5 22
REMARK SMILES IDX 4 23 3 24 2 25 1 26
REMARK H PARENT
REMARK Flexibility Score: inf
ROOT
ATOM      1  C   UNL     1      22.834 -12.261  20.968  1.00  0.00     0.000 C 
ENDROOT
BRANCH   1   2
ATOM      2  C   UNL     1      22.732 -10.837  20.409  1.00  0.00     0.000 C 
BRANCH   2   3
ATOM      3  C   UNL     1      24.019 -10.047  20.677  1.00  0.00     0.000 C 
BRANCH   3   4
ATOM      4  C   UNL     1      24.907 -10.003  19.424  1.00  0.00     0.000 C 
BRANCH   4   5
ATOM      5  C   UNL     1      26.382  -9.714  19.752  1.00  0.00     0.000 C 
BRANCH   5   6
ATOM      6  C   UNL     1      27.254  -9.592  18.491  1.00  0.00     0.000 C 
BRANCH   6   7
ATOM      7  C   UNL     1      28.065  -8.283  18.452  1.00  0.00     0.000 C 
BRANCH   7   8
ATOM      8  C   UNL     1      27.936  -7.468  17.149  1.00  0.00     0.000 C 
BRANCH   8   9
ATOM      9  C   UNL     1      28.149  -5.951  17.302  1.00  0.00     0.000 C 
BRANCH   9  10
ATOM     10  C   UNL     1      28.452  -5.253  15.966  1.00  0.00     0.006 C 
BRANCH  10  11
ATOM     11  C   UNL     1      29.171  -6.181  14.978  1.00  0.00     0.053 C 
BRANCH  11  12
ATOM     12  C   UNL     1      30.580  -5.741  14.725  1.00  0.00     0.041 C 
ATOM     13  O   UNL     1      31.252  -6.267  13.799  1.00  0.00    -0.550 OA
ATOM     14  O   UNL     1      31.160  -4.770  15.531  1.00  0.00    -0.550 OA
ENDBRANCH  11  12
ENDBRANCH  10  11
ENDBRANCH   9  10
ENDBRANCH   8   9
ENDBRANCH   7   8
ENDBRANCH   6   7
ENDBRANCH   5   6
ENDBRANCH   4   5
ENDBRANCH   3   4
ENDBRANCH   2   3
ENDBRANCH   1   2
BRANCH   1  15
ATOM     15  C   UNL     1      22.779 -13.301  19.843  1.00  0.00     0.000 C 
BRANCH  15  16
ATOM     16  C   UNL     1      22.708 -12.620  18.468  1.00  0.00     0.000 C 
BRANCH  16  17
ATOM     17  C   UNL     1      23.888 -12.999  17.559  1.00  0.00     0.000 C 
BRANCH  17  18
ATOM     18  C   UNL     1      23.748 -12.425  16.139  1.00  0.00    -0.000 C 
BRANCH  18  19
ATOM     19  C   UNL     1      24.607 -11.169  15.923  1.00  0.00    -0.000 C 
BRANCH  19  20
ATOM     20  C   UNL     1      25.735 -11.395  14.901  1.00  0.00    -0.000 C 
BRANCH  20  21
ATOM     21  C   UNL     1      26.864 -10.361  15.032  1.00  0.00    -0.000 C 
BRANCH  21  22
ATOM     22  C   UNL     1      28.255 -10.973  14.788  1.00  0.00    -0.000 C 
BRANCH  22  23
ATOM     23  C   UNL     1      29.165 -10.902  16.027  1.00  0.00    -0.000 C 
BRANCH  23  24
ATOM     24  C   UNL     1      30.657 -10.682  15.721  1.00  0.00    -0.000 C 
BRANCH  24  25
ATOM     25  C   UNL     1      31.128  -9.254  16.037  1.00  0.00    -0.003 C 
ATOM     26  C   UNL     1      31.741  -9.172  17.432  1.00  0.00     0.004 C 
ENDBRANCH  24  25
ENDBRANCH  23  24
ENDBRANCH  22  23
ENDBRANCH  21  22
ENDBRANCH  20  21
ENDBRANCH  19  20
ENDBRANCH  18  19
ENDBRANCH  17  18
ENDBRANCH  16  17
ENDBRANCH  15  16
ENDBRANCH   1  15
TORSDOF 22
ENDMDL
MODEL 6
REMARK VINA RESULT:    -5.293      1.546      2.347
REMARK INTER + INTRA:         -14.763
REMARK INTER:                 -11.989
REMARK INTRA:                  -2.774
REMARK UNBOUND:                -2.661
REMARK SMILES CCCCCCCCCCCCCCCCCCCCCCCC(=O)[O-]
REMARK SMILES IDX 13 1 14 2 15 3 16 4 17 5 18 6 19 7 20 8 21 9 22 10 23 11
REMARK SMILES IDX 24 12 25 13 26 14 12 15 11 16 10 17 9 18 8 19 7 20 6 21 5 22
REMARK SMILES IDX 4 23 3 24 2 25 1 26
REMARK H PARENT
REMARK Flexibility Score: inf
ROOT
ATOM      1  C   UNL     1      26.020  -9.629  18.778  1.00  0.00     0.000 C 
ENDROOT
BRANCH   1   2
ATOM      2  C   UNL     1      27.454 -10.166  18.695  1.00  0.00     0.000 C 
BRANCH   2   3
ATOM      3  C   UNL     1      28.445  -9.040  18.374  1.00  0.00     0.000 C 
BRANCH   3   4
ATOM      4  C   UNL     1      27.715  -7.809  17.817  1.00  0.00     0.000 C 
BRANCH   4   5
ATOM      5  C   UNL     1      28.413  -6.489  18.184  1.00  0.00     0.000 C 
BRANCH   5   6
ATOM      6  C   UNL     1      29.202  -5.890  17.007  1.00  0.00     0.000 C 
BRANCH   6   7
ATOM      7  C   UNL     1      28.917  -6.606  15.673  1.00  0.00     0.000 C 
BRANCH   7   8
ATOM      8  C   UNL     1      30.151  -7.211  14.973  1.00  0.00     0.000 C 
BRANCH   8   9
ATOM      9  C   UNL     1      30.612  -8.574  15.520  1.00  0.00     0.000 C 
BRANCH   9  10
ATOM     10  C   UNL     1      31.665  -8.446  16.633  1.00  0.00     0.006 C 
BRANCH  10  11
ATOM     11  C   UNL     1      32.752  -7.418  16.287  1.00  0.00     0.053 C 
BRANCH  11  12
ATOM     12  C   UNL     1      33.806  -8.002  15.398  1.00  0.00     0.041 C 
ATOM     13  O   UNL     1      34.256  -7.337  14.427  1.00  0.00    -0.550 OA
ATOM     14  O   UNL     1      34.272  -9.291  15.624  1.00  0.00    -0.550 OA
ENDBRANCH  11  12
ENDBRANCH  10  11
ENDBRANCH   9  10
ENDBRANCH   8   9
ENDBRANCH   7   8
ENDBRANCH   6   7
ENDBRANCH   5   6
ENDBRANCH   4   5
ENDBRANCH   3   4
ENDBRANCH   2   3
ENDBRANCH   1   2
BRANCH   1  15
ATOM     15  C   UNL     1      25.508  -9.646  20.223  1.00  0.00     0.000 C 
BRANCH  15  16
ATOM     16  C   UNL     1      23.987  -9.856  20.266  1.00  0.00     0.000 C 
BRANCH  16  17
ATOM     17  C   UNL     1      23.506 -10.418  21.613  1.00  0.00     0.000 C 
BRANCH  17  18
ATOM     18  C   UNL     1      22.407 -11.483  21.451  1.00  0.00    -0.000 C 
BRANCH  18  19
ATOM     19  C   UNL     1      22.883 -12.702  20.645  1.00  0.00    -0.000 C 
BRANCH  19  20
ATOM     20  C   UNL     1      22.405 -12.663  19.183  1.00  0.00    -0.000 C 
BRANCH  20  21
ATOM     21  C   UNL     1      23.569 -12.739  18.180  1.00  0.00    -0.000 C 
BRANCH  21  22
ATOM     22  C   UNL     1      23.143 -12.353  16.753  1.00  0.00    -0.000 C 
BRANCH  22  23
ATOM     23  C   UNL     1      24.309 -12.398  15.749  1.00  0.00    -0.000 C 
BRANCH  23  24
ATOM     24  C   UNL     1      25.192 -11.138  15.728  1.00  0.00    -0.000 C 
BRANCH  24  25
ATOM     25  C   UNL     1      26.304 -11.203  14.671  1.00  0.00    -0.003 C 
ATOM     26  C   UNL     1      27.499 -10.345  15.076  1.00  0.00     0.004 C 
ENDBRANCH  24  25
ENDBRANCH  23  24
ENDBRANCH  22  23
ENDBRANCH  21  22
ENDBRANCH  20  21
ENDBRANCH  19  20
ENDBRANCH  18  19
ENDBRANCH  17  18
ENDBRANCH  16  17
ENDBRANCH  15  16
ENDBRANCH   1  15
TORSDOF 22
ENDMDL
MODEL 7
REMARK VINA RESULT:    -5.255      4.013      8.764
REMARK INTER + INTRA:         -14.674
REMARK INTER:                 -12.180
REMARK INTRA:                  -2.494
REMARK UNBOUND:                -2.661
REMARK SMILES CCCCCCCCCCCCCCCCCCCCCCCC(=O)[O-]
REMARK SMILES IDX 13 1 14 2 15 3 16 4 17 5 18 6 19 7 20 8 21 9 22 10 23 11
REMARK SMILES IDX 24 12 25 13 26 14 12 15 11 16 10 17 9 18 8 19 7 20 6 21 5 22
REMARK SMILES IDX 4 23 3 24 2 25 1 26
REMARK H PARENT
REMARK Flexibility Score: inf
ROOT
ATOM      1  C   UNL     1      30.764  -9.669  16.105  1.00  0.00     0.000 C 
ENDROOT
BRANCH   1   2
ATOM      2  C   UNL     1      29.869 -10.482  15.162  1.00  0.00     0.000 C 
BRANCH   2   3
ATOM      3  C   UNL     1      28.756 -11.196  15.938  1.00  0.00     0.000 C 
BRANCH   3   4
ATOM      4  C   UNL     1      27.396 -11.001  15.251  1.00  0.00     0.000 C 
BRANCH   4   5
ATOM      5  C   UNL     1      26.222 -11.005  16.245  1.00  0.00     0.000 C 
BRANCH   5   6
ATOM      6  C   UNL     1      24.863 -11.199  15.553  1.00  0.00     0.000 C 
BRANCH   6   7
ATOM      7  C   UNL     1      23.987 -12.261  16.244  1.00  0.00     0.000 C 
BRANCH   7   8
ATOM      8  C   UNL     1      24.337 -12.543  17.720  1.00  0.00     0.000 C 
BRANCH   8   9
ATOM      9  C   UNL     1      23.161 -13.015  18.593  1.00  0.00     0.000 C 
BRANCH   9  10
ATOM     10  C   UNL     1      22.493 -11.865  19.366  1.00  0.00     0.006 C 
BRANCH  10  11
ATOM     11  C   UNL     1      22.752 -11.955  20.876  1.00  0.00     0.053 C 
BRANCH  11  12
ATOM     12  C   UNL     1      23.327 -10.683  21.419  1.00  0.00     0.041 C 
ATOM     13  O   UNL     1      23.065 -10.321  22.597  1.00  0.00    -0.550 OA
ATOM     14  O   UNL     1      24.129  -9.883  20.615  1.00  0.00    -0.550 OA
ENDBRANCH  11  12
ENDBRANCH  10  11
ENDBRANCH   9  10
ENDBRANCH   8   9
ENDBRANCH   7   8
ENDBRANCH   6   7
ENDBRANCH   5   6
ENDBRANCH   4   5
ENDBRANCH   3   4
ENDBRANCH   2   3
ENDBRANCH   1   2
BRANCH   1  15
ATOM     15  C   UNL     1      29.989  -9.224  17.351  1.00  0.00     0.000 C 
BRANCH  15  16
ATOM     16  C   UNL     1      29.121  -7.994  17.049  1.00  0.00     0.000 C 
BRANCH  16  17
ATOM     17  C   UNL     1      28.255  -7.573  18.248  1.00  0.00     0.000 C 
BRANCH  17  18
ATOM     18  C   UNL     1      27.991  -6.058  18.282  1.00  0.00    -0.000 C 
BRANCH  18  19
ATOM     19  C   UNL     1      29.246  -5.234  17.955  1.00  0.00    -0.000 C 
BRANCH  19  20
ATOM     20  C   UNL     1      28.921  -3.956  17.161  1.00  0.00    -0.000 C 
BRANCH  20  21
ATOM     21  C   UNL     1      27.904  -4.205  16.036  1.00  0.00    -0.000 C 
BRANCH  21  22
ATOM     22  C   UNL     1      28.417  -5.210  14.989  1.00  0.00    -0.000 C 
BRANCH  22  23
ATOM     23  C   UNL     1      29.885  -4.966  14.596  1.00  0.00    -0.000 C 
BRANCH  23  24
ATOM     24  C   UNL     1      30.696  -6.241  14.303  1.00  0.00    -0.000 C 
BRANCH  24  25
ATOM     25  C   UNL     1      32.173  -6.116  14.704  1.00  0.00    -0.003 C 
ATOM     26  C   UNL     1      32.352  -6.294  16.209  1.00  0.00     0.004 C 
ENDBRANCH  24  25
ENDBRANCH  23  24
ENDBRANCH  22  23
ENDBRANCH  21  22
ENDBRANCH  20  21
ENDBRANCH  19  20
ENDBRANCH  18  19
ENDBRANCH  17  18
ENDBRANCH  16  17
ENDBRANCH  15  16
ENDBRANCH   1  15
TORSDOF 22
ENDMDL
MODEL 8
REMARK VINA RESULT:    -5.248      2.856      5.551
REMARK INTER + INTRA:         -14.658
REMARK INTER:                 -12.112
REMARK INTRA:                  -2.546
REMARK UNBOUND:                -2.661
REMARK SMILES CCCCCCCCCCCCCCCCCCCCCCCC(=O)[O-]
REMARK SMILES IDX 13 1 14 2 15 3 16 4 17 5 18 6 19 7 20 8 21 9 22 10 23 11
REMARK SMILES IDX 24 12 25 13 26 14 12 15 11 16 10 17 9 18 8 19 7 20 6 21 5 22
REMARK SMILES IDX 4 23 3 24 2 25 1 26
REMARK H PARENT
REMARK Flexibility Score: inf
ROOT
ATOM      1  C   UNL     1      26.922 -11.131  14.629  1.00  0.00     0.000 C 
ENDROOT
BRANCH   1   2
ATOM      2  C   UNL     1      27.558 -11.087  16.024  1.00  0.00     0.000 C 
BRANCH   2   3
ATOM      3  C   UNL     1      28.497  -9.883  16.164  1.00  0.00     0.000 C 
BRANCH   3   4
ATOM      4  C   UNL     1      29.829 -10.140  15.442  1.00  0.00     0.000 C 
BRANCH   4   5
ATOM      5  C   UNL     1      30.989 -10.409  16.415  1.00  0.00     0.000 C 
BRANCH   5   6
ATOM      6  C   UNL     1      31.337  -9.181  17.273  1.00  0.00     0.000 C 
BRANCH   6   7
ATOM      7  C   UNL     1      31.915  -8.018  16.443  1.00  0.00     0.000 C 
BRANCH   7   8
ATOM      8  C   UNL     1      31.053  -6.739  16.414  1.00  0.00     0.000 C 
BRANCH   8   9
ATOM      9  C   UNL     1      30.586  -6.297  15.015  1.00  0.00     0.000 C 
BRANCH   9  10
ATOM     10  C   UNL     1      29.128  -5.809  15.001  1.00  0.00     0.006 C 
BRANCH  10  11
ATOM     11  C   UNL     1      28.327  -6.338  16.198  1.00  0.00     0.053 C 
BRANCH  11  12
ATOM     12  C   UNL     1      27.790  -5.225  17.044  1.00  0.00     0.041 C 
ATOM     13  O   UNL     1      27.154  -4.276  16.514  1.00  0.00    -0.550 OA
ATOM     14  O   UNL     1      28.017  -5.222  18.414  1.00  0.00    -0.550 OA
ENDBRANCH  11  12
ENDBRANCH  10  11
ENDBRANCH   9  10
ENDBRANCH   8   9
ENDBRANCH   7   8
ENDBRANCH   6   7
ENDBRANCH   5   6
ENDBRANCH   4   5
ENDBRANCH   3   4
ENDBRANCH   2   3
ENDBRANCH   1   2
BRANCH   1  15
ATOM     15  C   UNL     1      25.426 -10.803  14.695  1.00  0.00     0.000 C 
BRANCH  15  16
ATOM     16  C   UNL     1      24.871 -11.047  16.106  1.00  0.00     0.000 C 
BRANCH  16  17
ATOM     17  C   UNL     1      24.093 -12.368  16.214  1.00  0.00     0.000 C 
BRANCH  17  18
ATOM     18  C   UNL     1      24.150 -12.972  17.628  1.00  0.00    -0.000 C 
BRANCH  18  19
ATOM     19  C   UNL     1      22.875 -12.694  18.439  1.00  0.00    -0.000 C 
BRANCH  19  20
ATOM     20  C   UNL     1      22.632 -13.746  19.535  1.00  0.00    -0.000 C 
BRANCH  20  21
ATOM     21  C   UNL     1      22.630 -13.137  20.947  1.00  0.00    -0.000 C 
BRANCH  21  22
ATOM     22  C   UNL     1      22.256 -11.645  20.944  1.00  0.00    -0.000 C 
BRANCH  22  23
ATOM     23  C   UNL     1      23.035 -10.831  21.993  1.00  0.00    -0.000 C 
BRANCH  23  24
ATOM     24  C   UNL     1      24.125  -9.910  21.418  1.00  0.00    -0.000 C 
BRANCH  24  25
ATOM     25  C   UNL     1      24.193  -9.948  19.884  1.00  0.00    -0.003 C 
ATOM     26  C   UNL     1      25.639  -9.951  19.398  1.00  0.00     0.004 C 
ENDBRANCH  24  25
ENDBRANCH  23  24
ENDBRANCH  22  23
ENDBRANCH  21  22
ENDBRANCH  20  21
ENDBRANCH  19  20
ENDBRANCH  18  19
ENDBRANCH  17  18
ENDBRANCH  16  17
ENDBRANCH  15  16
ENDBRANCH   1  15
TORSDOF 22
ENDMDL
MODEL 9
REMARK VINA RESULT:    -5.196      3.204      5.376
REMARK INTER + INTRA:         -14.539
REMARK INTER:                 -11.722
REMARK INTRA:                  -2.816
REMARK UNBOUND:                -2.661
REMARK SMILES CCCCCCCCCCCCCCCCCCCCCCCC(=O)[O-]
REMARK SMILES IDX 13 1 14 2 15 3 16 4 17 5 18 6 19 7 20 8 21 9 22 10 23 11
REMARK SMILES IDX 24 12 25 13 26 14 12 15 11 16 10 17 9 18 8 19 7 20 6 21 5 22
REMARK SMILES IDX 4 23 3 24 2 25 1 26
REMARK H PARENT
REMARK Flexibility Score: inf
ROOT
ATOM      1  C   UNL     1      25.435 -10.786  15.402  1.00  0.00     0.000 C 
ENDROOT
BRANCH   1   2
ATOM      2  C   UNL     1      26.848 -11.249  15.775  1.00  0.00     0.000 C 
BRANCH   2   3
ATOM      3  C   UNL     1      27.909 -10.307  15.192  1.00  0.00     0.000 C 
BRANCH   3   4
ATOM      4  C   UNL     1      29.259 -11.025  15.045  1.00  0.00     0.000 C 
BRANCH   4   5
ATOM      5  C   UNL     1      29.954 -11.265  16.396  1.00  0.00     0.000 C 
BRANCH   5   6
ATOM      6  C   UNL     1      30.892 -10.112  16.790  1.00  0.00     0.000 C 
BRANCH   6   7
ATOM      7  C   UNL     1      31.093  -9.092  15.654  1.00  0.00     0.000 C 
BRANCH   7   8
ATOM      8  C   UNL     1      31.171  -7.617  16.099  1.00  0.00     0.000 C 
BRANCH   8   9
ATOM      9  C   UNL     1      30.783  -6.587  15.024  1.00  0.00     0.000 C 
BRANCH   9  10
ATOM     10  C   UNL     1      29.871  -5.474  15.565  1.00  0.00     0.006 C 
BRANCH  10  11
ATOM     11  C   UNL     1      28.385  -5.781  15.338  1.00  0.00     0.053 C 
BRANCH  11  12
ATOM     12  C   UNL     1      27.687  -4.660  14.632  1.00  0.00     0.041 C 
ATOM     13  O   UNL     1      28.312  -3.945  13.804  1.00  0.00    -0.550 OA
ATOM     14  O   UNL     1      26.353  -4.386  14.908  1.00  0.00    -0.550 OA
ENDBRANCH  11  12
ENDBRANCH  10  11
ENDBRANCH   9  10
ENDBRANCH   8   9
ENDBRANCH   7   8
ENDBRANCH   6   7
ENDBRANCH   5   6
ENDBRANCH   4   5
ENDBRANCH   3   4
ENDBRANCH   2   3
ENDBRANCH   1   2
BRANCH   1  15
ATOM     15  C   UNL     1      24.395 -11.860  15.741  1.00  0.00     0.000 C 
BRANCH  15  16
ATOM     16  C   UNL     1      24.442 -12.220  17.233  1.00  0.00     0.000 C 
BRANCH  16  17
ATOM     17  C   UNL     1      23.161 -12.920  17.713  1.00  0.00     0.000 C 
BRANCH  17  18
ATOM     18  C   UNL     1      23.117 -13.090  19.241  1.00  0.00    -0.000 C 
BRANCH  18  19
ATOM     19  C   UNL     1      22.344 -11.959  19.938  1.00  0.00    -0.000 C 
BRANCH  19  20
ATOM     20  C   UNL     1      22.701 -11.835  21.430  1.00  0.00    -0.000 C 
BRANCH  20  21
ATOM     21  C   UNL     1      23.435 -10.523  21.752  1.00  0.00    -0.000 C 
BRANCH  21  22
ATOM     22  C   UNL     1      23.894  -9.778  20.487  1.00  0.00    -0.000 C 
BRANCH  22  23
ATOM     23  C   UNL     1      25.426  -9.682  20.372  1.00  0.00    -0.000 C 
BRANCH  23  24
ATOM     24  C   UNL     1      25.961  -9.576  18.933  1.00  0.00    -0.000 C 
BRANCH  24  25
ATOM     25  C   UNL     1      27.493  -9.478  18.869  1.00  0.00    -0.003 C 
ATOM     26  C   UNL     1      27.933  -8.221  18.124  1.00  0.00     0.004 C 
ENDBRANCH  24  25
ENDBRANCH  23  24
ENDBRANCH  22  23
ENDBRANCH  21  22
ENDBRANCH  20  21
ENDBRANCH  19  20
ENDBRANCH  18  19
ENDBRANCH  17  18
ENDBRANCH  16  17
ENDBRANCH  15  16
ENDBRANCH   1  15
TORSDOF 22
ENDMDL
