MODEL 1
REMARK VINA RESULT:    -3.469      0.000      0.000
REMARK INTER + INTRA:          -7.084
REMARK INTER:                  -5.497
REMARK INTRA:                  -1.586
REMARK UNBOUND:                -1.586
REMARK SMILES C=CCCCCCCCCCCC
REMARK SMILES IDX 7 1 8 2 9 3 10 4 11 5 12 6 13 7 6 8 5 9 4 10 3 11 2 12 1 13
REMARK H PARENT
REMARK Flexibility Score: inf
ROOT
ATOM      1  C   UNL     1     138.596 138.949 132.822  1.00  0.00     0.000 C 
ENDROOT
BRANCH   1   2
ATOM      2  C   UNL     1     138.358 139.122 134.332  1.00  0.00     0.000 C 
BRANCH   2   3
ATOM      3  C   UNL     1     138.083 140.580 134.727  1.00  0.00    -0.000 C 
BRANCH   3   4
ATOM      4  C   UNL     1     137.278 141.301 133.636  1.00  0.00    -0.000 C 
BRANCH   4   5
ATOM      5  C   UNL     1     138.026 142.506 133.044  1.00  0.00    -0.000 C 
BRANCH   5   6
ATOM      6  C   UNL     1     138.874 143.246 134.089  1.00  0.00    -0.003 C 
ATOM      7  C   UNL     1     139.809 144.252 133.424  1.00  0.00     0.004 C 
ENDBRANCH   5   6
ENDBRANCH   4   5
ENDBRANCH   3   4
ENDBRANCH   2   3
ENDBRANCH   1   2
BRANCH   1   8
ATOM      8  C   UNL     1     139.769 138.007 132.511  1.00  0.00     0.000 C 
BRANCH   8   9
ATOM      9  C   UNL     1     140.502 137.602 133.799  1.00  0.00     0.000 C 
BRANCH   9  10
ATOM     10  C   UNL     1     141.962 138.086 133.825  1.00  0.00     0.004 C 
BRANCH  10  11
ATOM     11  C   UNL     1     142.254 139.020 135.008  1.00  0.00     0.027 C 
BRANCH  11  12
ATOM     12  C   UNL     1     141.786 140.421 134.721  1.00  0.00    -0.035 C 
ATOM     13  C   UNL     1     141.886 140.959 133.503  1.00  0.00     0.004 C 
ENDBRANCH  11  12
ENDBRANCH  10  11
ENDBRANCH   9  10
ENDBRANCH   8   9
ENDBRANCH   1   8
TORSDOF 10
ENDMDL
MODEL 2
REMARK VINA RESULT:    -3.454      1.823      3.091
REMARK INTER + INTRA:          -7.059
REMARK INTER:                  -5.295
REMARK INTRA:                  -1.764
REMARK UNBOUND:                -1.586
REMARK SMILES C=CCCCCCCCCCCC
REMARK SMILES IDX 7 1 8 2 9 3 10 4 11 5 12 6 13 7 6 8 5 9 4 10 3 11 2 12 1 13
REMARK H PARENT
REMARK Flexibility Score: inf
ROOT
ATOM      1  C   UNL     1     141.400 137.814 134.608  1.00  0.00     0.000 C 
ENDROOT
BRANCH   1   2
ATOM      2  C   UNL     1     140.842 137.272 133.281  1.00  0.00     0.000 C 
BRANCH   2   3
ATOM      3  C   UNL     1     139.566 137.999 132.832  1.00  0.00    -0.000 C 
BRANCH   3   4
ATOM      4  C   UNL     1     139.198 139.119 133.817  1.00  0.00    -0.000 C 
BRANCH   4   5
ATOM      5  C   UNL     1     139.189 140.508 133.160  1.00  0.00    -0.000 C 
BRANCH   5   6
ATOM      6  C   UNL     1     140.512 141.264 133.359  1.00  0.00    -0.003 C 
ATOM      7  C   UNL     1     140.797 141.491 134.841  1.00  0.00     0.004 C 
ENDBRANCH   5   6
ENDBRANCH   4   5
ENDBRANCH   3   4
ENDBRANCH   2   3
ENDBRANCH   1   2
BRANCH   1   8
ATOM      8  C   UNL     1     142.827 138.366 134.469  1.00  0.00     0.000 C 
BRANCH   8   9
ATOM      9  C   UNL     1     143.242 138.445 132.993  1.00  0.00     0.000 C 
BRANCH   9  10
ATOM     10  C   UNL     1     143.859 139.805 132.624  1.00  0.00     0.004 C 
BRANCH  10  11
ATOM     11  C   UNL     1     144.769 140.361 133.730  1.00  0.00     0.027 C 
BRANCH  11  12
ATOM     12  C   UNL     1     144.421 141.787 134.053  1.00  0.00    -0.035 C 
ATOM     13  C   UNL     1     144.088 142.663 133.101  1.00  0.00     0.004 C 
ENDBRANCH  11  12
ENDBRANCH  10  11
ENDBRANCH   9  10
ENDBRANCH   8   9
ENDBRANCH   1   8
TORSDOF 10
ENDMDL
MODEL 3
REMARK VINA RESULT:    -3.453      0.859      4.139
REMARK INTER + INTRA:          -7.058
REMARK INTER:                  -5.334
REMARK INTRA:                  -1.724
REMARK UNBOUND:                -1.586
REMARK SMILES C=CCCCCCCCCCCC
REMARK SMILES IDX 7 1 8 2 9 3 10 4 11 5 12 6 13 7 6 8 5 9 4 10 3 11 2 12 1 13
REMARK H PARENT
REMARK Flexibility Score: inf
ROOT
ATOM      1  C   UNL     1     139.744 138.124 132.427  1.00  0.00     0.000 C 
ENDROOT
BRANCH   1   2
ATOM      2  C   UNL     1     140.572 137.356 133.472  1.00  0.00     0.000 C 
BRANCH   2   3
ATOM      3  C   UNL     1     142.072 137.673 133.391  1.00  0.00    -0.000 C 
BRANCH   3   4
ATOM      4  C   UNL     1     142.537 138.446 134.634  1.00  0.00    -0.000 C 
BRANCH   4   5
ATOM      5  C   UNL     1     143.037 139.861 134.301  1.00  0.00    -0.000 C 
BRANCH   5   6
ATOM      6  C   UNL     1     141.925 140.917 134.397  1.00  0.00    -0.003 C 
ATOM      7  C   UNL     1     141.480 141.374 133.010  1.00  0.00     0.004 C 
ENDBRANCH   5   6
ENDBRANCH   4   5
ENDBRANCH   3   4
ENDBRANCH   2   3
ENDBRANCH   1   2
BRANCH   1   8
ATOM      8  C   UNL     1     138.570 138.892 133.051  1.00  0.00     0.000 C 
BRANCH   8   9
ATOM      9  C   UNL     1     138.619 138.818 134.584  1.00  0.00     0.000 C 
BRANCH   9  10
ATOM     10  C   UNL     1     138.466 140.197 135.249  1.00  0.00     0.004 C 
BRANCH  10  11
ATOM     11  C   UNL     1     137.441 141.088 134.533  1.00  0.00     0.027 C 
BRANCH  11  12
ATOM     12  C   UNL     1     138.082 142.346 134.016  1.00  0.00    -0.035 C 
ATOM     13  C   UNL     1     138.734 143.185 134.825  1.00  0.00     0.004 C 
ENDBRANCH  11  12
ENDBRANCH  10  11
ENDBRANCH   9  10
ENDBRANCH   8   9
ENDBRANCH   1   8
TORSDOF 10
ENDMDL
MODEL 4
REMARK VINA RESULT:    -3.451      1.593      4.584
REMARK INTER + INTRA:          -7.055
REMARK INTER:                  -4.932
REMARK INTRA:                  -2.122
REMARK UNBOUND:                -1.586
REMARK SMILES C=CCCCCCCCCCCC
REMARK SMILES IDX 7 1 8 2 9 3 10 4 11 5 12 6 13 7 6 8 5 9 4 10 3 11 2 12 1 13
REMARK H PARENT
REMARK Flexibility Score: inf
ROOT
ATOM      1  C   UNL     1     137.672 141.344 135.122  1.00  0.00     0.000 C 
ENDROOT
BRANCH   1   2
ATOM      2  C   UNL     1     137.252 141.494 133.650  1.00  0.00     0.000 C 
BRANCH   2   3
ATOM      3  C   UNL     1     137.715 140.318 132.777  1.00  0.00    -0.000 C 
BRANCH   3   4
ATOM      4  C   UNL     1     138.559 140.814 131.594  1.00  0.00    -0.000 C 
BRANCH   4   5
ATOM      5  C   UNL     1     140.053 140.928 131.936  1.00  0.00    -0.000 C 
BRANCH   5   6
ATOM      6  C   UNL     1     140.488 139.932 133.022  1.00  0.00    -0.003 C 
ATOM      7  C   UNL     1     141.454 140.582 134.008  1.00  0.00     0.004 C 
ENDBRANCH   5   6
ENDBRANCH   4   5
ENDBRANCH   3   4
ENDBRANCH   2   3
ENDBRANCH   1   2
BRANCH   1   8
ATOM      8  C   UNL     1     138.651 142.438 135.573  1.00  0.00     0.000 C 
BRANCH   8   9
ATOM      9  C   UNL     1     138.724 143.569 134.536  1.00  0.00     0.000 C 
BRANCH   9  10
ATOM     10  C   UNL     1     140.161 144.064 134.301  1.00  0.00     0.004 C 
BRANCH  10  11
ATOM     11  C   UNL     1     140.421 144.454 132.839  1.00  0.00     0.027 C 
BRANCH  11  12
ATOM     12  C   UNL     1     139.136 144.529 132.061  1.00  0.00    -0.035 C 
ATOM     13  C   UNL     1     139.115 144.442 130.728  1.00  0.00     0.004 C 
ENDBRANCH  11  12
ENDBRANCH  10  11
ENDBRANCH   9  10
ENDBRANCH   8   9
ENDBRANCH   1   8
TORSDOF 10
ENDMDL
MODEL 5
REMARK VINA RESULT:    -3.446      2.826      4.853
REMARK INTER + INTRA:          -7.047
REMARK INTER:                  -5.163
REMARK INTRA:                  -1.885
REMARK UNBOUND:                -1.586
REMARK SMILES C=CCCCCCCCCCCC
REMARK SMILES IDX 7 1 8 2 9 3 10 4 11 5 12 6 13 7 6 8 5 9 4 10 3 11 2 12 1 13
REMARK H PARENT
REMARK Flexibility Score: inf
ROOT
ATOM      1  C   UNL     1     144.465 140.640 135.023  1.00  0.00     0.000 C 
ENDROOT
BRANCH   1   2
ATOM      2  C   UNL     1     145.085 140.624 133.616  1.00  0.00     0.000 C 
BRANCH   2   3
ATOM      3  C   UNL     1     144.589 141.779 132.735  1.00  0.00    -0.000 C 
BRANCH   3   4
ATOM      4  C   UNL     1     143.665 142.716 133.528  1.00  0.00    -0.000 C 
BRANCH   4   5
ATOM      5  C   UNL     1     142.268 142.844 132.899  1.00  0.00    -0.000 C 
BRANCH   5   6
ATOM      6  C   UNL     1     142.063 141.886 131.716  1.00  0.00    -0.003 C 
ATOM      7  C   UNL     1     140.715 141.177 131.812  1.00  0.00     0.004 C 
ENDBRANCH   5   6
ENDBRANCH   4   5
ENDBRANCH   3   4
ENDBRANCH   2   3
ENDBRANCH   1   2
BRANCH   1   8
ATOM      8  C   UNL     1     143.677 139.360 135.338  1.00  0.00     0.000 C 
BRANCH   8   9
ATOM      9  C   UNL     1     142.412 139.268 134.472  1.00  0.00     0.000 C 
BRANCH   9  10
ATOM     10  C   UNL     1     142.171 137.851 133.924  1.00  0.00     0.004 C 
BRANCH  10  11
ATOM     11  C   UNL     1     142.092 137.816 132.391  1.00  0.00     0.027 C 
BRANCH  11  12
ATOM     12  C   UNL     1     143.457 137.650 131.781  1.00  0.00    -0.035 C 
ATOM     13  C   UNL     1     143.915 138.489 130.848  1.00  0.00     0.004 C 
ENDBRANCH  11  12
ENDBRANCH  10  11
ENDBRANCH   9  10
ENDBRANCH   8   9
ENDBRANCH   1   8
TORSDOF 10
ENDMDL
MODEL 6
REMARK VINA RESULT:    -3.441      2.018      4.584
REMARK INTER + INTRA:          -7.040
REMARK INTER:                  -5.389
REMARK INTRA:                  -1.650
REMARK UNBOUND:                -1.586
REMARK SMILES C=CCCCCCCCCCCC
REMARK SMILES IDX 7 1 8 2 9 3 10 4 11 5 12 6 13 7 6 8 5 9 4 10 3 11 2 12 1 13
REMARK H PARENT
REMARK Flexibility Score: inf
ROOT
ATOM      1  C   UNL     1     144.687 140.344 133.286  1.00  0.00     0.000 C 
ENDROOT
BRANCH   1   2
ATOM      2  C   UNL     1     144.329 141.492 132.327  1.00  0.00     0.000 C 
BRANCH   2   3
ATOM      3  C   UNL     1     144.302 142.860 133.024  1.00  0.00    -0.000 C 
BRANCH   3   4
ATOM      4  C   UNL     1     143.837 142.724 134.481  1.00  0.00    -0.000 C 
BRANCH   4   5
ATOM      5  C   UNL     1     142.378 143.162 134.683  1.00  0.00    -0.000 C 
BRANCH   5   6
ATOM      6  C   UNL     1     141.405 141.974 134.732  1.00  0.00    -0.003 C 
ATOM      7  C   UNL     1     140.740 141.752 133.376  1.00  0.00     0.004 C 
ENDBRANCH   5   6
ENDBRANCH   4   5
ENDBRANCH   3   4
ENDBRANCH   2   3
ENDBRANCH   1   2
BRANCH   1   8
ATOM      8  C   UNL     1     143.606 139.253 133.332  1.00  0.00     0.000 C 
BRANCH   8   9
ATOM      9  C   UNL     1     143.373 138.775 134.773  1.00  0.00     0.000 C 
BRANCH   9  10
ATOM     10  C   UNL     1     141.929 138.303 135.014  1.00  0.00     0.004 C 
BRANCH  10  11
ATOM     11  C   UNL     1     141.359 137.514 133.826  1.00  0.00     0.027 C 
BRANCH  11  12
ATOM     12  C   UNL     1     139.921 137.876 133.574  1.00  0.00    -0.035 C 
ATOM     13  C   UNL     1     139.210 138.583 134.457  1.00  0.00     0.004 C 
ENDBRANCH  11  12
ENDBRANCH  10  11
ENDBRANCH   9  10
ENDBRANCH   8   9
ENDBRANCH   1   8
TORSDOF 10
ENDMDL
MODEL 7
REMARK VINA RESULT:    -3.438      3.033      4.796
REMARK INTER + INTRA:          -7.034
REMARK INTER:                  -5.341
REMARK INTRA:                  -1.693
REMARK UNBOUND:                -1.586
REMARK SMILES C=CCCCCCCCCCCC
REMARK SMILES IDX 7 1 8 2 9 3 10 4 11 5 12 6 13 7 6 8 5 9 4 10 3 11 2 12 1 13
REMARK H PARENT
REMARK Flexibility Score: inf
ROOT
ATOM      1  C   UNL     1     141.640 138.989 135.109  1.00  0.00     0.000 C 
ENDROOT
BRANCH   1   2
ATOM      2  C   UNL     1     143.175 138.930 135.190  1.00  0.00     0.000 C 
BRANCH   2   3
ATOM      3  C   UNL     1     143.783 140.178 135.847  1.00  0.00    -0.000 C 
BRANCH   3   4
ATOM      4  C   UNL     1     144.845 140.814 134.938  1.00  0.00    -0.000 C 
BRANCH   4   5
ATOM      5  C   UNL     1     144.762 140.313 133.487  1.00  0.00    -0.000 C 
BRANCH   5   6
ATOM      6  C   UNL     1     144.339 141.416 132.505  1.00  0.00    -0.003 C 
ATOM      7  C   UNL     1     142.821 141.578 132.482  1.00  0.00     0.004 C 
ENDBRANCH   5   6
ENDBRANCH   4   5
ENDBRANCH   3   4
ENDBRANCH   2   3
ENDBRANCH   1   2
BRANCH   1   8
ATOM      8  C   UNL     1     140.998 137.595 135.042  1.00  0.00     0.000 C 
BRANCH   8   9
ATOM      9  C   UNL     1     140.904 137.105 133.590  1.00  0.00     0.000 C 
BRANCH   9  10
ATOM     10  C   UNL     1     140.530 138.230 132.609  1.00  0.00     0.004 C 
BRANCH  10  11
ATOM     11  C   UNL     1     141.506 138.333 131.428  1.00  0.00     0.027 C 
BRANCH  11  12
ATOM     12  C   UNL     1     142.784 137.594 131.714  1.00  0.00    -0.035 C 
ATOM     13  C   UNL     1     143.894 137.808 131.003  1.00  0.00     0.004 C 
ENDBRANCH  11  12
ENDBRANCH  10  11
ENDBRANCH   9  10
ENDBRANCH   8   9
ENDBRANCH   1   8
TORSDOF 10
ENDMDL
MODEL 8
REMARK VINA RESULT:    -3.437      3.704      5.395
REMARK INTER + INTRA:          -7.032
REMARK INTER:                  -5.458
REMARK INTRA:                  -1.574
REMARK UNBOUND:                -1.586
REMARK SMILES C=CCCCCCCCCCCC
REMARK SMILES IDX 7 1 8 2 9 3 10 4 11 5 12 6 13 7 6 8 5 9 4 10 3 11 2 12 1 13
REMARK H PARENT
REMARK Flexibility Score: inf
ROOT
ATOM      1  C   UNL     1     141.729 144.842 133.621  1.00  0.00     0.000 C 
ENDROOT
BRANCH   1   2
ATOM      2  C   UNL     1     140.644 144.366 132.640  1.00  0.00     0.000 C 
BRANCH   2   3
ATOM      3  C   UNL     1     140.797 142.887 132.259  1.00  0.00    -0.000 C 
BRANCH   3   4
ATOM      4  C   UNL     1     142.110 142.649 131.498  1.00  0.00    -0.000 C 
BRANCH   4   5
ATOM      5  C   UNL     1     142.274 143.584 130.290  1.00  0.00    -0.000 C 
BRANCH   5   6
ATOM      6  C   UNL     1     143.678 144.202 130.208  1.00  0.00    -0.003 C 
ATOM      7  C   UNL     1     144.570 143.690 131.334  1.00  0.00     0.004 C 
ENDBRANCH   5   6
ENDBRANCH   4   5
ENDBRANCH   3   4
ENDBRANCH   2   3
ENDBRANCH   1   2
BRANCH   1   8
ATOM      8  C   UNL     1     141.338 144.622 135.089  1.00  0.00     0.000 C 
BRANCH   8   9
ATOM      9  C   UNL     1     142.395 143.780 135.818  1.00  0.00     0.000 C 
BRANCH   9  10
ATOM     10  C   UNL     1     143.483 143.248 134.870  1.00  0.00     0.004 C 
BRANCH  10  11
ATOM     11  C   UNL     1     143.760 141.750 135.068  1.00  0.00     0.027 C 
BRANCH  11  12
ATOM     12  C   UNL     1     144.773 141.249 134.076  1.00  0.00    -0.035 C 
ATOM     13  C   UNL     1     144.506 140.231 133.253  1.00  0.00     0.004 C 
ENDBRANCH  11  12
ENDBRANCH  10  11
ENDBRANCH   9  10
ENDBRANCH   8   9
ENDBRANCH   1   8
TORSDOF 10
ENDMDL
MODEL 9
REMARK VINA RESULT:    -3.419      2.238      5.353
REMARK INTER + INTRA:          -7.003
REMARK INTER:                  -4.962
REMARK INTRA:                  -2.041
REMARK UNBOUND:                -1.586
REMARK SMILES C=CCCCCCCCCCCC
REMARK SMILES IDX 7 1 8 2 9 3 10 4 11 5 12 6 13 7 6 8 5 9 4 10 3 11 2 12 1 13
REMARK H PARENT
REMARK Flexibility Score: inf
ROOT
ATOM      1  C   UNL     1     140.524 144.471 133.079  1.00  0.00     0.000 C 
ENDROOT
BRANCH   1   2
ATOM      2  C   UNL     1     142.043 144.671 133.214  1.00  0.00     0.000 C 
BRANCH   2   3
ATOM      3  C   UNL     1     142.830 144.035 132.059  1.00  0.00    -0.000 C 
BRANCH   3   4
ATOM      4  C   UNL     1     143.859 143.025 132.588  1.00  0.00    -0.000 C 
BRANCH   4   5
ATOM      5  C   UNL     1     143.858 142.923 134.121  1.00  0.00    -0.000 C 
BRANCH   5   6
ATOM      6  C   UNL     1     144.468 141.606 134.626  1.00  0.00    -0.003 C 
ATOM      7  C   UNL     1     144.903 140.721 133.462  1.00  0.00     0.004 C 
ENDBRANCH   5   6
ENDBRANCH   4   5
ENDBRANCH   3   4
ENDBRANCH   2   3
ENDBRANCH   1   2
BRANCH   1   8
ATOM      8  C   UNL     1     139.876 143.958 134.374  1.00  0.00     0.000 C 
BRANCH   8   9
ATOM      9  C   UNL     1     139.435 142.495 134.223  1.00  0.00     0.000 C 
BRANCH   9  10
ATOM     10  C   UNL     1     140.408 141.512 134.897  1.00  0.00     0.004 C 
BRANCH  10  11
ATOM     11  C   UNL     1     141.023 140.515 133.903  1.00  0.00     0.027 C 
BRANCH  11  12
ATOM     12  C   UNL     1     140.569 140.799 132.498  1.00  0.00    -0.035 C 
ATOM     13  C   UNL     1     141.354 140.561 131.445  1.00  0.00     0.004 C 
ENDBRANCH  11  12
ENDBRANCH  10  11
ENDBRANCH   9  10
ENDBRANCH   8   9
ENDBRANCH   1   8
TORSDOF 10
ENDMDL
