MODEL 1
REMARK VINA RESULT:    -2.927      0.000      0.000
REMARK INTER + INTRA:          -3.678
REMARK INTER:                  -3.355
REMARK INTRA:                  -0.323
REMARK UNBOUND:                -0.323
REMARK SMILES COc1ccc(C(C)=O)c(O)c1
REMARK SMILES IDX 6 1 10 2 12 3 3 4 4 5 5 6 7 7 8 8 9 9 11 10 2 12 1 13
REMARK H PARENT 11 11
REMARK Flexibility Score: inf
ROOT
ATOM      1  C   UNL     1      31.940  23.077  27.985  1.00  0.00     0.059 A 
ATOM      2  C   UNL     1      32.517  23.643  29.146  1.00  0.00     0.130 A 
ATOM      3  C   UNL     1      33.886  23.946  29.175  1.00  0.00     0.093 A 
ATOM      4  C   UNL     1      34.702  23.693  28.068  1.00  0.00     0.122 A 
ATOM      5  C   UNL     1      34.133  23.129  26.915  1.00  0.00     0.047 A 
ATOM      6  C   UNL     1      32.771  22.825  26.875  1.00  0.00     0.019 A 
ENDROOT
BRANCH   1   7
ATOM      7  C   UNL     1      30.485  22.755  27.922  1.00  0.00     0.163 C 
ATOM      8  C   UNL     1      29.978  21.529  27.222  1.00  0.00     0.093 C 
ATOM      9  O   UNL     1      29.641  23.535  28.440  1.00  0.00    -0.294 OA
ENDBRANCH   1   7
BRANCH   2  10
ATOM     10  O   UNL     1      31.739  23.896  30.276  1.00  0.00    -0.507 OA
ATOM     11  H   UNL     1      30.869  24.415  30.220  1.00  0.00     0.293 HD
ENDBRANCH   2  10
BRANCH   4  12
ATOM     12  O   UNL     1      36.064  24.016  28.157  1.00  0.00    -0.497 OA
ATOM     13  C   UNL     1      37.010  23.300  28.944  1.00  0.00     0.278 C 
ENDBRANCH   4  12
TORSDOF 3
ENDMDL
MODEL 2
REMARK VINA RESULT:    -1.579      1.416      4.970
REMARK INTER + INTRA:          -2.133
REMARK INTER:                  -1.790
REMARK INTRA:                  -0.343
REMARK UNBOUND:                -0.323
REMARK SMILES COc1ccc(C(C)=O)c(O)c1
REMARK SMILES IDX 6 1 10 2 12 3 3 4 4 5 5 6 7 7 8 8 9 9 11 10 2 12 1 13
REMARK H PARENT 11 11
REMARK Flexibility Score: inf
ROOT
ATOM      1  C   UNL     1      33.853  23.470  28.449  1.00  0.00     0.059 A 
ATOM      2  C   UNL     1      33.542  22.425  27.549  1.00  0.00     0.130 A 
ATOM      3  C   UNL     1      32.206  22.057  27.332  1.00  0.00     0.093 A 
ATOM      4  C   UNL     1      31.164  22.708  28.000  1.00  0.00     0.122 A 
ATOM      5  C   UNL     1      31.469  23.744  28.897  1.00  0.00     0.047 A 
ATOM      6  C   UNL     1      32.796  24.119  29.118  1.00  0.00     0.019 A 
ENDROOT
BRANCH   1   7
ATOM      7  C   UNL     1      35.264  23.890  28.690  1.00  0.00     0.163 C 
ATOM      8  C   UNL     1      35.792  24.123  30.074  1.00  0.00     0.093 C 
ATOM      9  O   UNL     1      36.041  24.085  27.717  1.00  0.00    -0.294 OA
ENDBRANCH   1   7
BRANCH   2  10
ATOM     10  O   UNL     1      34.554  21.741  26.875  1.00  0.00    -0.507 OA
ATOM     11  H   UNL     1      35.167  22.209  26.216  1.00  0.00     0.293 HD
ENDBRANCH   2  10
BRANCH   4  12
ATOM     12  O   UNL     1      29.848  22.295  27.744  1.00  0.00    -0.497 OA
ATOM     13  C   UNL     1      29.501  21.118  27.023  1.00  0.00     0.278 C 
ENDBRANCH   4  12
TORSDOF 3
ENDMDL
