MODEL 1
REMARK VINA RESULT:    -4.250      0.000      0.000
REMARK INTER + INTRA:          -6.555
REMARK INTER:                  -6.487
REMARK INTRA:                  -0.068
REMARK UNBOUND:                -0.068
REMARK SMILES CC1=CCC[C@@H](C)C(=O)C[C@@H](C(C)C)C(=O)C1
REMARK SMILES IDX 8 1 9 2 6 3 7 4 5 5 4 6 3 7 2 8 1 9 10 11 11 12 15 13 16 14
REMARK SMILES IDX 17 15 12 17 13 18 14 19
REMARK H PARENT
REMARK Flexibility Score: 70.00
ROOT
ATOM      1  C   UNL     1      13.448  18.981  57.326  1.00  0.00     0.136 C 
ATOM      2  O   UNL     1      13.667  18.852  58.522  1.00  0.00    -0.299 OA
ENDROOT
BRANCH   1   3
ATOM      3  C   UNL     1      14.502  18.557  56.322  1.00  0.00     0.053 C 
ATOM      4  C   UNL     1      15.614  19.610  56.280  1.00  0.00     0.016 C 
BRANCH   3   5
ATOM      5  C   UNL     1      13.912  18.349  54.907  1.00  0.00     0.015 C 
BRANCH   5   6
ATOM      6  C   UNL     1      13.382  16.929  54.651  1.00  0.00     0.028 C 
BRANCH   6   7
ATOM      7  C   UNL     1      12.371  16.908  53.529  1.00  0.00    -0.028 C 
ATOM      8  C   UNL     1      11.029  16.875  53.693  1.00  0.00    -0.070 CG0
ATOM      9  C   UNL     1      10.163  16.877  52.460  1.00  0.00     0.039 C 
ATOM     10  G   UNL     1      10.366  16.842  55.060  1.00  0.00     0.000 G0
ENDBRANCH   6   7
ENDBRANCH   5   6
ENDBRANCH   3   5
ENDBRANCH   1   3
BRANCH   1  11
ATOM     11  C   UNL     1      12.106  19.513  56.878  1.00  0.00     0.087 C 
BRANCH  11  12
ATOM     12  C   UNL     1      10.945  18.507  57.079  1.00  0.00     0.066 C 
BRANCH  12  13
ATOM     13  C   UNL     1      10.245  18.189  55.761  1.00  0.00     0.140 C 
ATOM     14  O   UNL     1       9.532  19.039  55.247  1.00  0.00    -0.299 OA
BRANCH  13  15
ATOM     15  C   UNL     1      10.352  16.843  55.073  1.00  0.00     0.106 CG0
ATOM     16  G   UNL     1      11.027  16.888  53.713  1.00  0.00     0.000 G0
ENDBRANCH  13  15
ENDBRANCH  12  13
BRANCH  12  17
ATOM     17  C   UNL     1       9.954  18.989  58.184  1.00  0.00    -0.006 C 
ATOM     18  C   UNL     1       9.900  20.522  58.258  1.00  0.00     0.008 C 
ATOM     19  C   UNL     1      10.237  18.411  59.582  1.00  0.00     0.008 C 
ENDBRANCH  12  17
ENDBRANCH  11  12
ENDBRANCH   1  11
TORSDOF 1
ENDMDL
MODEL 2
REMARK VINA RESULT:    -3.767      2.085      4.434
REMARK INTER + INTRA:          -5.818
REMARK INTER:                  -5.496
REMARK INTRA:                  -0.322
REMARK UNBOUND:                -0.068
REMARK SMILES CC1=CCC[C@@H](C)C(=O)C[C@@H](C(C)C)C(=O)C1
REMARK SMILES IDX 8 1 9 2 6 3 7 4 5 5 4 6 3 7 2 8 1 9 10 11 11 12 15 13 16 14
REMARK SMILES IDX 17 15 12 17 13 18 14 19
REMARK H PARENT
REMARK Flexibility Score: 70.00
ROOT
ATOM      1  C   UNL     1      11.058  15.819  53.840  1.00  0.00     0.136 C 
ATOM      2  O   UNL     1      10.744  14.779  53.278  1.00  0.00    -0.299 OA
ENDROOT
BRANCH   1   3
ATOM      3  C   UNL     1      12.106  16.719  53.215  1.00  0.00     0.053 C 
ATOM      4  C   UNL     1      12.519  16.149  51.854  1.00  0.00     0.016 C 
BRANCH   3   5
ATOM      5  C   UNL     1      13.349  16.886  54.122  1.00  0.00     0.015 C 
BRANCH   5   6
ATOM      6  C   UNL     1      13.616  18.336  54.558  1.00  0.00     0.028 C 
BRANCH   6   7
ATOM      7  C   UNL     1      13.624  18.469  56.062  1.00  0.00    -0.028 C 
ATOM      8  C   UNL     1      12.602  18.952  56.805  1.00  0.00    -0.070 CG0
ATOM      9  C   UNL     1      12.773  18.998  58.302  1.00  0.00     0.039 C 
ATOM     10  G   UNL     1      11.299  19.440  56.196  1.00  0.00     0.000 G0
ENDBRANCH   6   7
ENDBRANCH   5   6
ENDBRANCH   3   5
ENDBRANCH   1   3
BRANCH   1  11
ATOM     11  C   UNL     1      10.354  16.205  55.120  1.00  0.00     0.087 C 
BRANCH  11  12
ATOM     12  C   UNL     1       9.717  17.616  55.072  1.00  0.00     0.066 C 
BRANCH  12  13
ATOM     13  C   UNL     1      10.150  18.467  56.262  1.00  0.00     0.140 C 
ATOM     14  O   UNL     1       9.528  18.381  57.312  1.00  0.00    -0.299 OA
BRANCH  13  15
ATOM     15  C   UNL     1      11.296  19.457  56.197  1.00  0.00     0.106 CG0
ATOM     16  G   UNL     1      12.588  18.960  56.821  1.00  0.00     0.000 G0
ENDBRANCH  13  15
ENDBRANCH  12  13
BRANCH  12  17
ATOM     17  C   UNL     1       8.165  17.541  54.921  1.00  0.00    -0.006 C 
ATOM     18  C   UNL     1       7.644  16.123  55.201  1.00  0.00     0.008 C 
ATOM     19  C   UNL     1       7.638  18.030  53.561  1.00  0.00     0.008 C 
ENDBRANCH  12  17
ENDBRANCH  11  12
ENDBRANCH   1  11
TORSDOF 1
ENDMDL
MODEL 3
REMARK VINA RESULT:    -3.760      6.452      7.601
REMARK INTER + INTRA:          -5.806
REMARK INTER:                  -5.526
REMARK INTRA:                  -0.280
REMARK UNBOUND:                -0.068
REMARK SMILES CC1=CCC[C@@H](C)C(=O)C[C@@H](C(C)C)C(=O)C1
REMARK SMILES IDX 8 1 9 2 6 3 7 4 5 5 4 6 3 7 2 8 1 9 10 11 11 12 15 13 16 14
REMARK SMILES IDX 17 15 12 17 13 18 14 19
REMARK H PARENT
REMARK Flexibility Score: 70.00
ROOT
ATOM      1  C   UNL     1       8.493  23.310  55.253  1.00  0.00     0.136 C 
ATOM      2  O   UNL     1       8.238  23.048  56.420  1.00  0.00    -0.299 OA
ENDROOT
BRANCH   1   3
ATOM      3  C   UNL     1       9.328  22.346  54.434  1.00  0.00     0.053 C 
ATOM      4  C   UNL     1       9.742  23.021  53.122  1.00  0.00     0.016 C 
BRANCH   3   5
ATOM      5  C   UNL     1       8.576  21.026  54.140  1.00  0.00     0.015 C 
BRANCH   5   6
ATOM      6  C   UNL     1       8.072  20.902  52.693  1.00  0.00     0.028 C 
BRANCH   6   7
ATOM      7  C   UNL     1       6.563  20.922  52.628  1.00  0.00    -0.028 C 
ATOM      8  C   UNL     1       5.811  22.017  52.373  1.00  0.00    -0.070 CG0
ATOM      9  C   UNL     1       4.314  21.854  52.327  1.00  0.00     0.039 C 
ATOM     10  G   UNL     1       6.412  23.390  52.127  1.00  0.00     0.000 G0
ENDBRANCH   6   7
ENDBRANCH   5   6
ENDBRANCH   3   5
ENDBRANCH   1   3
BRANCH   1  11
ATOM     11  C   UNL     1       7.924  24.570  54.642  1.00  0.00     0.087 C 
BRANCH  11  12
ATOM     12  C   UNL     1       6.377  24.563  54.545  1.00  0.00     0.066 C 
BRANCH  12  13
ATOM     13  C   UNL     1       5.907  24.467  53.096  1.00  0.00     0.140 C 
ATOM     14  O   UNL     1       5.072  25.262  52.689  1.00  0.00    -0.299 OA
BRANCH  13  15
ATOM     15  C   UNL     1       6.394  23.398  52.139  1.00  0.00     0.106 CG0
ATOM     16  G   UNL     1       5.788  22.025  52.375  1.00  0.00     0.000 G0
ENDBRANCH  13  15
ENDBRANCH  12  13
BRANCH  12  17
ATOM     17  C   UNL     1       5.750  25.777  55.301  1.00  0.00    -0.006 C 
ATOM     18  C   UNL     1       6.752  26.405  56.279  1.00  0.00     0.008 C 
ATOM     19  C   UNL     1       4.438  25.452  56.037  1.00  0.00     0.008 C 
ENDBRANCH  12  17
ENDBRANCH  11  12
ENDBRANCH   1  11
TORSDOF 1
ENDMDL
MODEL 4
REMARK VINA RESULT:    -3.760      1.875      4.019
REMARK INTER + INTRA:          -5.806
REMARK INTER:                  -5.445
REMARK INTRA:                  -0.362
REMARK UNBOUND:                -0.068
REMARK SMILES CC1=CCC[C@@H](C)C(=O)C[C@@H](C(C)C)C(=O)C1
REMARK SMILES IDX 8 1 9 2 6 3 7 4 5 5 4 6 3 7 2 8 1 9 10 11 11 12 15 13 16 14
REMARK SMILES IDX 17 15 12 17 13 18 14 19
REMARK H PARENT
REMARK Flexibility Score: 70.00
ROOT
ATOM      1  C   UNL     1      11.517  19.073  56.922  1.00  0.00     0.136 C 
ATOM      2  O   UNL     1      10.657  18.290  57.300  1.00  0.00    -0.299 OA
ENDROOT
BRANCH   1   3
ATOM      3  C   UNL     1      11.119  20.471  56.490  1.00  0.00     0.053 C 
ATOM      4  C   UNL     1      10.485  21.206  57.675  1.00  0.00     0.016 C 
BRANCH   3   5
ATOM      5  C   UNL     1      10.144  20.455  55.289  1.00  0.00     0.015 C 
BRANCH   5   6
ATOM      6  C   UNL     1      10.837  20.357  53.920  1.00  0.00     0.028 C 
BRANCH   6   7
ATOM      7  C   UNL     1      10.550  19.036  53.248  1.00  0.00    -0.028 C 
ATOM      8  C   UNL     1      11.483  18.114  52.917  1.00  0.00    -0.070 CG0
ATOM      9  C   UNL     1      11.018  16.836  52.266  1.00  0.00     0.039 C 
ATOM     10  G   UNL     1      12.966  18.311  53.179  1.00  0.00     0.000 G0
ENDBRANCH   6   7
ENDBRANCH   5   6
ENDBRANCH   3   5
ENDBRANCH   1   3
BRANCH   1  11
ATOM     11  C   UNL     1      12.965  18.641  56.946  1.00  0.00     0.087 C 
BRANCH  11  12
ATOM     12  C   UNL     1      13.727  18.966  55.637  1.00  0.00     0.066 C 
BRANCH  12  13
ATOM     13  C   UNL     1      13.449  17.928  54.553  1.00  0.00     0.140 C 
ATOM     14  O   UNL     1      13.650  16.747  54.798  1.00  0.00    -0.299 OA
BRANCH  13  15
ATOM     15  C   UNL     1      12.977  18.293  53.161  1.00  0.00     0.106 CG0
ATOM     16  G   UNL     1      11.487  18.100  52.935  1.00  0.00     0.000 G0
ENDBRANCH  13  15
ENDBRANCH  12  13
BRANCH  12  17
ATOM     17  C   UNL     1      15.253  19.170  55.897  1.00  0.00    -0.006 C 
ATOM     18  C   UNL     1      15.505  19.815  57.267  1.00  0.00     0.008 C 
ATOM     19  C   UNL     1      15.978  19.972  54.802  1.00  0.00     0.008 C 
ENDBRANCH  12  17
ENDBRANCH  11  12
ENDBRANCH   1  11
TORSDOF 1
ENDMDL
MODEL 5
REMARK VINA RESULT:    -3.712      6.715      8.466
REMARK INTER + INTRA:          -5.732
REMARK INTER:                  -5.301
REMARK INTRA:                  -0.432
REMARK UNBOUND:                -0.068
REMARK SMILES CC1=CCC[C@@H](C)C(=O)C[C@@H](C(C)C)C(=O)C1
REMARK SMILES IDX 8 1 9 2 6 3 7 4 5 5 4 6 3 7 2 8 1 9 10 11 11 12 15 13 16 14
REMARK SMILES IDX 17 15 12 17 13 18 14 19
REMARK H PARENT
REMARK Flexibility Score: 70.00
ROOT
ATOM      1  C   UNL     1       5.490  24.163  55.286  1.00  0.00     0.136 C 
ATOM      2  O   UNL     1       4.508  24.354  55.990  1.00  0.00    -0.299 OA
ENDROOT
BRANCH   1   3
ATOM      3  C   UNL     1       5.911  25.220  54.285  1.00  0.00     0.053 C 
ATOM      4  C   UNL     1       6.032  26.572  54.996  1.00  0.00     0.016 C 
BRANCH   3   5
ATOM      5  C   UNL     1       4.924  25.329  53.099  1.00  0.00     0.015 C 
BRANCH   5   6
ATOM      6  C   UNL     1       5.319  24.487  51.875  1.00  0.00     0.028 C 
BRANCH   6   7
ATOM      7  C   UNL     1       4.400  23.301  51.699  1.00  0.00    -0.028 C 
ATOM      8  C   UNL     1       4.786  22.006  51.743  1.00  0.00    -0.070 CG0
ATOM      9  C   UNL     1       3.731  20.944  51.564  1.00  0.00     0.039 C 
ATOM     10  G   UNL     1       6.228  21.583  51.968  1.00  0.00     0.000 G0
ENDBRANCH   6   7
ENDBRANCH   5   6
ENDBRANCH   3   5
ENDBRANCH   1   3
BRANCH   1  11
ATOM     11  C   UNL     1       6.290  22.894  55.471  1.00  0.00     0.087 C 
BRANCH  11  12
ATOM     12  C   UNL     1       7.195  22.553  54.260  1.00  0.00     0.066 C 
BRANCH  12  13
ATOM     13  C   UNL     1       6.614  21.411  53.431  1.00  0.00     0.140 C 
ATOM     14  O   UNL     1       6.485  20.309  53.946  1.00  0.00    -0.299 OA
BRANCH  13  15
ATOM     15  C   UNL     1       6.228  21.562  51.973  1.00  0.00     0.106 CG0
ATOM     16  G   UNL     1       4.796  22.017  51.750  1.00  0.00     0.000 G0
ENDBRANCH  13  15
ENDBRANCH  12  13
BRANCH  12  17
ATOM     17  C   UNL     1       8.668  22.285  54.702  1.00  0.00    -0.006 C 
ATOM     18  C   UNL     1       9.011  23.043  55.993  1.00  0.00     0.008 C 
ATOM     19  C   UNL     1       9.718  22.597  53.621  1.00  0.00     0.008 C 
ENDBRANCH  12  17
ENDBRANCH  11  12
ENDBRANCH   1  11
TORSDOF 1
ENDMDL
MODEL 6
REMARK VINA RESULT:    -3.652      6.779      8.713
REMARK INTER + INTRA:          -5.642
REMARK INTER:                  -5.374
REMARK INTRA:                  -0.268
REMARK UNBOUND:                -0.068
REMARK SMILES CC1=CCC[C@@H](C)C(=O)C[C@@H](C(C)C)C(=O)C1
REMARK SMILES IDX 8 1 9 2 6 3 7 4 5 5 4 6 3 7 2 8 1 9 10 11 11 12 15 13 16 14
REMARK SMILES IDX 17 15 12 17 13 18 14 19
REMARK H PARENT
REMARK Flexibility Score: 70.00
ROOT
ATOM      1  C   UNL     1       5.160  24.823  53.269  1.00  0.00     0.136 C 
ATOM      2  O   UNL     1       5.634  25.415  52.311  1.00  0.00    -0.299 OA
ENDROOT
BRANCH   1   3
ATOM      3  C   UNL     1       5.310  25.407  54.660  1.00  0.00     0.053 C 
ATOM      4  C   UNL     1       4.482  26.693  54.761  1.00  0.00     0.016 C 
BRANCH   3   5
ATOM      5  C   UNL     1       6.788  25.697  55.016  1.00  0.00     0.015 C 
BRANCH   5   6
ATOM      6  C   UNL     1       7.570  24.462  55.494  1.00  0.00     0.028 C 
BRANCH   6   7
ATOM      7  C   UNL     1       8.669  24.094  54.525  1.00  0.00    -0.028 C 
ATOM      8  C   UNL     1       8.734  22.938  53.826  1.00  0.00    -0.070 CG0
ATOM      9  C   UNL     1       9.895  22.741  52.886  1.00  0.00     0.039 C 
ATOM     10  G   UNL     1       7.689  21.842  53.948  1.00  0.00     0.000 G0
ENDBRANCH   6   7
ENDBRANCH   5   6
ENDBRANCH   3   5
ENDBRANCH   1   3
BRANCH   1  11
ATOM     11  C   UNL     1       4.389  23.544  53.034  1.00  0.00     0.087 C 
BRANCH  11  12
ATOM     12  C   UNL     1       5.059  22.296  53.662  1.00  0.00     0.066 C 
BRANCH  12  13
ATOM     13  C   UNL     1       6.446  22.050  53.077  1.00  0.00     0.140 C 
ATOM     14  O   UNL     1       6.577  21.996  51.862  1.00  0.00    -0.299 OA
BRANCH  13  15
ATOM     15  C   UNL     1       7.675  21.820  53.933  1.00  0.00     0.106 CG0
ATOM     16  G   UNL     1       8.721  22.918  53.833  1.00  0.00     0.000 G0
ENDBRANCH  13  15
ENDBRANCH  12  13
BRANCH  12  17
ATOM     17  C   UNL     1       4.135  21.041  53.567  1.00  0.00    -0.006 C 
ATOM     18  C   UNL     1       2.726  21.418  53.087  1.00  0.00     0.008 C 
ATOM     19  C   UNL     1       4.040  20.226  54.870  1.00  0.00     0.008 C 
ENDBRANCH  12  17
ENDBRANCH  11  12
ENDBRANCH   1  11
TORSDOF 1
ENDMDL
MODEL 7
REMARK VINA RESULT:    -3.619      2.505      4.836
REMARK INTER + INTRA:          -5.592
REMARK INTER:                  -5.194
REMARK INTRA:                  -0.398
REMARK UNBOUND:                -0.068
REMARK SMILES CC1=CCC[C@@H](C)C(=O)C[C@@H](C(C)C)C(=O)C1
REMARK SMILES IDX 8 1 9 2 6 3 7 4 5 5 4 6 3 7 2 8 1 9 10 11 11 12 15 13 16 14
REMARK SMILES IDX 17 15 12 17 13 18 14 19
REMARK H PARENT
REMARK Flexibility Score: 70.00
ROOT
ATOM      1  C   UNL     1       9.950  18.194  56.659  1.00  0.00     0.136 C 
ATOM      2  O   UNL     1       8.787  17.819  56.717  1.00  0.00    -0.299 OA
ENDROOT
BRANCH   1   3
ATOM      3  C   UNL     1      10.469  19.184  57.683  1.00  0.00     0.053 C 
ATOM      4  C   UNL     1      10.661  18.470  59.026  1.00  0.00     0.016 C 
BRANCH   3   5
ATOM      5  C   UNL     1       9.524  20.397  57.855  1.00  0.00     0.015 C 
BRANCH   5   6
ATOM      6  C   UNL     1       9.750  21.517  56.827  1.00  0.00     0.028 C 
BRANCH   6   7
ATOM      7  C   UNL     1       8.737  21.454  55.708  1.00  0.00    -0.028 C 
ATOM      8  C   UNL     1       9.022  21.169  54.417  1.00  0.00    -0.070 CG0
ATOM      9  C   UNL     1       7.883  21.129  53.431  1.00  0.00     0.039 C 
ATOM     10  G   UNL     1      10.432  20.884  53.928  1.00  0.00     0.000 G0
ENDBRANCH   6   7
ENDBRANCH   5   6
ENDBRANCH   3   5
ENDBRANCH   1   3
BRANCH   1  11
ATOM     11  C   UNL     1      10.854  17.619  55.594  1.00  0.00     0.087 C 
BRANCH  11  12
ATOM     12  C   UNL     1      11.660  18.694  54.823  1.00  0.00     0.066 C 
BRANCH  12  13
ATOM     13  C   UNL     1      10.791  19.419  53.799  1.00  0.00     0.140 C 
ATOM     14  O   UNL     1      10.386  18.805  52.823  1.00  0.00    -0.299 OA
BRANCH  13  15
ATOM     15  C   UNL     1      10.439  20.889  53.908  1.00  0.00     0.106 CG0
ATOM     16  G   UNL     1       9.039  21.159  54.432  1.00  0.00     0.000 G0
ENDBRANCH  13  15
ENDBRANCH  12  13
BRANCH  12  17
ATOM     17  C   UNL     1      12.958  18.096  54.193  1.00  0.00    -0.006 C 
ATOM     18  C   UNL     1      13.814  17.383  55.248  1.00  0.00     0.008 C 
ATOM     19  C   UNL     1      13.818  19.119  53.429  1.00  0.00     0.008 C 
ENDBRANCH  12  17
ENDBRANCH  11  12
ENDBRANCH   1  11
TORSDOF 1
ENDMDL
MODEL 8
REMARK VINA RESULT:    -3.550      2.563      4.687
REMARK INTER + INTRA:          -5.486
REMARK INTER:                  -5.099
REMARK INTRA:                  -0.388
REMARK UNBOUND:                -0.068
REMARK SMILES CC1=CCC[C@@H](C)C(=O)C[C@@H](C(C)C)C(=O)C1
REMARK SMILES IDX 8 1 9 2 6 3 7 4 5 5 4 6 3 7 2 8 1 9 10 11 11 12 15 13 16 14
REMARK SMILES IDX 17 15 12 17 13 18 14 19
REMARK H PARENT
REMARK Flexibility Score: 70.00
ROOT
ATOM      1  C   UNL     1      10.547  18.299  54.710  1.00  0.00     0.136 C 
ATOM      2  O   UNL     1      10.433  18.679  53.553  1.00  0.00    -0.299 OA
ENDROOT
BRANCH   1   3
ATOM      3  C   UNL     1       9.894  17.000  55.138  1.00  0.00     0.053 C 
ATOM      4  C   UNL     1      10.539  15.834  54.381  1.00  0.00     0.016 C 
BRANCH   3   5
ATOM      5  C   UNL     1       8.365  17.008  54.900  1.00  0.00     0.015 C 
BRANCH   5   6
ATOM      6  C   UNL     1       7.545  17.479  56.112  1.00  0.00     0.028 C 
BRANCH   6   7
ATOM      7  C   UNL     1       6.985  18.864  55.897  1.00  0.00    -0.028 C 
ATOM      8  C   UNL     1       7.334  19.963  56.605  1.00  0.00    -0.070 CG0
ATOM      9  C   UNL     1       6.688  21.275  56.244  1.00  0.00     0.039 C 
ATOM     10  G   UNL     1       8.347  19.925  57.736  1.00  0.00     0.000 G0
ENDBRANCH   6   7
ENDBRANCH   5   6
ENDBRANCH   3   5
ENDBRANCH   1   3
BRANCH   1  11
ATOM     11  C   UNL     1      11.382  19.113  55.671  1.00  0.00     0.087 C 
BRANCH  11  12
ATOM     12  C   UNL     1      10.825  19.122  57.117  1.00  0.00     0.066 C 
BRANCH  12  13
ATOM     13  C   UNL     1       9.784  20.221  57.309  1.00  0.00     0.140 C 
ATOM     14  O   UNL     1      10.116  21.387  57.149  1.00  0.00    -0.299 OA
BRANCH  13  15
ATOM     15  C   UNL     1       8.358  19.942  57.739  1.00  0.00     0.106 CG0
ATOM     16  G   UNL     1       7.349  19.957  56.604  1.00  0.00     0.000 G0
ENDBRANCH  13  15
ENDBRANCH  12  13
BRANCH  12  17
ATOM     17  C   UNL     1      11.972  19.190  58.173  1.00  0.00    -0.006 C 
ATOM     18  C   UNL     1      13.347  18.985  57.520  1.00  0.00     0.008 C 
ATOM     19  C   UNL     1      11.805  18.212  59.351  1.00  0.00     0.008 C 
ENDBRANCH  12  17
ENDBRANCH  11  12
ENDBRANCH   1  11
TORSDOF 1
ENDMDL
MODEL 9
REMARK VINA RESULT:    -3.532      2.008      2.788
REMARK INTER + INTRA:          -5.459
REMARK INTER:                  -5.059
REMARK INTRA:                  -0.399
REMARK UNBOUND:                -0.068
REMARK SMILES CC1=CCC[C@@H](C)C(=O)C[C@@H](C(C)C)C(=O)C1
REMARK SMILES IDX 8 1 9 2 6 3 7 4 5 5 4 6 3 7 2 8 1 9 10 11 11 12 15 13 16 14
REMARK SMILES IDX 17 15 12 17 13 18 14 19
REMARK H PARENT
REMARK Flexibility Score: 70.00
ROOT
ATOM      1  C   UNL     1      10.895  19.324  55.399  1.00  0.00     0.136 C 
ATOM      2  O   UNL     1      11.001  19.861  54.306  1.00  0.00    -0.299 OA
ENDROOT
BRANCH   1   3
ATOM      3  C   UNL     1      11.755  18.119  55.726  1.00  0.00     0.053 C 
ATOM      4  C   UNL     1      13.210  18.566  55.899  1.00  0.00     0.016 C 
BRANCH   3   5
ATOM      5  C   UNL     1      11.661  17.021  54.640  1.00  0.00     0.015 C 
BRANCH   5   6
ATOM      6  C   UNL     1      10.422  16.119  54.767  1.00  0.00     0.028 C 
BRANCH   6   7
ATOM      7  C   UNL     1       9.274  16.634  53.932  1.00  0.00    -0.028 C 
ATOM      8  C   UNL     1       8.088  17.061  54.421  1.00  0.00    -0.070 CG0
ATOM      9  C   UNL     1       7.056  17.563  53.444  1.00  0.00     0.039 C 
ATOM     10  G   UNL     1       7.760  17.061  55.905  1.00  0.00     0.000 G0
ENDBRANCH   6   7
ENDBRANCH   5   6
ENDBRANCH   3   5
ENDBRANCH   1   3
BRANCH   1  11
ATOM     11  C   UNL     1       9.944  19.909  56.416  1.00  0.00     0.087 C 
BRANCH  11  12
ATOM     12  C   UNL     1       9.207  18.839  57.259  1.00  0.00     0.066 C 
BRANCH  12  13
ATOM     13  C   UNL     1       7.904  18.402  56.596  1.00  0.00     0.140 C 
ATOM     14  O   UNL     1       6.931  19.142  56.654  1.00  0.00    -0.299 OA
BRANCH  13  15
ATOM     15  C   UNL     1       7.737  17.065  55.902  1.00  0.00     0.106 CG0
ATOM     16  G   UNL     1       8.093  17.079  54.426  1.00  0.00     0.000 G0
ENDBRANCH  13  15
ENDBRANCH  12  13
BRANCH  12  17
ATOM     17  C   UNL     1       9.002  19.310  58.733  1.00  0.00    -0.006 C 
ATOM     18  C   UNL     1       9.368  20.792  58.903  1.00  0.00     0.008 C 
ATOM     19  C   UNL     1       9.754  18.466  59.777  1.00  0.00     0.008 C 
ENDBRANCH  12  17
ENDBRANCH  11  12
ENDBRANCH   1  11
TORSDOF 1
ENDMDL
