MODEL 1
REMARK VINA RESULT:    -5.428      0.000      0.000
REMARK INTER + INTRA:         -10.311
REMARK INTER:                  -8.283
REMARK INTRA:                  -2.028
REMARK UNBOUND:                -2.028
REMARK SMILES CC(=O)CCC=C(C)CCC=C(C)CCC=C(C)C
REMARK SMILES IDX 10 1 11 2 12 3 13 4 14 5 15 6 16 7 18 8 17 9 19 10 9 11 7 12
REMARK SMILES IDX 6 13 8 14 5 15 4 16 2 17 3 18 1 19
REMARK H PARENT
REMARK Flexibility Score: inf
ROOT
ATOM      1  C   UNL     1      19.346  31.147  29.447  1.00  0.00     0.032 C 
ENDROOT
BRANCH   1   2
ATOM      2  C   UNL     1      18.779  30.030  28.608  1.00  0.00    -0.028 C 
ATOM      3  C   UNL     1      19.108  28.725  28.747  1.00  0.00    -0.077 C 
ATOM      4  C   UNL     1      20.146  28.266  29.745  1.00  0.00     0.039 C 
BRANCH   3   5
ATOM      5  C   UNL     1      18.432  27.699  27.864  1.00  0.00     0.034 C 
BRANCH   5   6
ATOM      6  C   UNL     1      18.681  26.281  28.388  1.00  0.00     0.032 C 
BRANCH   6   7
ATOM      7  C   UNL     1      19.196  25.387  27.288  1.00  0.00    -0.028 C 
ATOM      8  C   UNL     1      20.800  23.945  26.109  1.00  0.00     0.039 C 
ATOM      9  C   UNL     1      20.438  24.854  27.256  1.00  0.00    -0.080 C 
ATOM     10  C   UNL     1      21.467  25.157  28.319  1.00  0.00     0.039 C 
ENDBRANCH   6   7
ENDBRANCH   5   6
ENDBRANCH   3   5
ENDBRANCH   1   2
BRANCH   1  11
ATOM     11  C   UNL     1      18.334  31.598  30.506  1.00  0.00     0.034 C 
BRANCH  11  12
ATOM     12  C   UNL     1      17.401  32.651  29.939  1.00  0.00    -0.077 C 
ATOM     13  C   UNL     1      16.060  32.487  29.871  1.00  0.00    -0.028 C 
ATOM     14  C   UNL     1      18.000  33.906  29.361  1.00  0.00     0.039 C 
BRANCH  13  15
ATOM     15  C   UNL     1      15.308  31.294  30.408  1.00  0.00     0.035 C 
BRANCH  15  16
ATOM     16  C   UNL     1      15.115  30.237  29.310  1.00  0.00     0.079 C 
BRANCH  16  17
ATOM     17  C   UNL     1      15.383  28.817  29.757  1.00  0.00     0.130 C 
ATOM     18  O   UNL     1      14.892  27.904  29.112  1.00  0.00    -0.300 OA
ATOM     19  C   UNL     1      16.218  28.482  30.962  1.00  0.00     0.087 C 
ENDBRANCH  16  17
ENDBRANCH  15  16
ENDBRANCH  13  15
ENDBRANCH  11  12
ENDBRANCH   1  11
TORSDOF 9
ENDMDL
MODEL 2
REMARK VINA RESULT:    -5.215      2.571      7.065
REMARK INTER + INTRA:          -9.987
REMARK INTER:                  -8.472
REMARK INTRA:                  -1.514
REMARK UNBOUND:                -2.028
REMARK SMILES CC(=O)CCC=C(C)CCC=C(C)CCC=C(C)C
REMARK SMILES IDX 10 1 11 2 12 3 13 4 14 5 15 6 16 7 18 8 17 9 19 10 9 11 7 12
REMARK SMILES IDX 6 13 8 14 5 15 4 16 2 17 3 18 1 19
REMARK H PARENT
REMARK Flexibility Score: inf
ROOT
ATOM      1  C   UNL     1      19.582  29.317  28.623  1.00  0.00     0.032 C 
ENDROOT
BRANCH   1   2
ATOM      2  C   UNL     1      18.707  30.528  28.830  1.00  0.00    -0.028 C 
ATOM      3  C   UNL     1      19.117  31.680  29.408  1.00  0.00    -0.077 C 
ATOM      4  C   UNL     1      20.513  31.840  29.965  1.00  0.00     0.039 C 
BRANCH   3   5
ATOM      5  C   UNL     1      18.145  32.833  29.517  1.00  0.00     0.034 C 
BRANCH   5   6
ATOM      6  C   UNL     1      16.779  32.451  28.937  1.00  0.00     0.032 C 
BRANCH   6   7
ATOM      7  C   UNL     1      15.739  32.370  30.026  1.00  0.00    -0.028 C 
ATOM      8  C   UNL     1      14.028  31.323  31.446  1.00  0.00     0.039 C 
ATOM      9  C   UNL     1      15.003  31.269  30.298  1.00  0.00    -0.080 C 
ATOM     10  C   UNL     1      15.119  30.006  29.479  1.00  0.00     0.039 C 
ENDBRANCH   6   7
ENDBRANCH   5   6
ENDBRANCH   3   5
ENDBRANCH   1   2
BRANCH   1  11
ATOM     11  C   UNL     1      19.097  28.143  29.479  1.00  0.00     0.034 C 
BRANCH  11  12
ATOM     12  C   UNL     1      18.828  26.927  28.613  1.00  0.00    -0.077 C 
ATOM     13  C   UNL     1      19.724  25.927  28.449  1.00  0.00    -0.028 C 
ATOM     14  C   UNL     1      17.534  26.863  27.845  1.00  0.00     0.039 C 
BRANCH  13  15
ATOM     15  C   UNL     1      21.059  25.840  29.148  1.00  0.00     0.035 C 
BRANCH  15  16
ATOM     16  C   UNL     1      22.209  25.911  28.132  1.00  0.00     0.079 C 
BRANCH  16  17
ATOM     17  C   UNL     1      23.304  26.889  28.495  1.00  0.00     0.130 C 
ATOM     18  O   UNL     1      24.456  26.486  28.519  1.00  0.00    -0.300 OA
ATOM     19  C   UNL     1      23.035  28.329  28.836  1.00  0.00     0.087 C 
ENDBRANCH  16  17
ENDBRANCH  15  16
ENDBRANCH  13  15
ENDBRANCH  11  12
ENDBRANCH   1  11
TORSDOF 9
ENDMDL
MODEL 3
REMARK VINA RESULT:    -5.115      1.955      5.800
REMARK INTER + INTRA:          -9.835
REMARK INTER:                  -7.179
REMARK INTRA:                  -2.656
REMARK UNBOUND:                -2.028
REMARK SMILES CC(=O)CCC=C(C)CCC=C(C)CCC=C(C)C
REMARK SMILES IDX 10 1 11 2 12 3 13 4 14 5 15 6 16 7 18 8 17 9 19 10 9 11 7 12
REMARK SMILES IDX 6 13 8 14 5 15 4 16 2 17 3 18 1 19
REMARK H PARENT
REMARK Flexibility Score: inf
ROOT
ATOM      1  C   UNL     1      14.726  29.706  30.192  1.00  0.00     0.032 C 
ENDROOT
BRANCH   1   2
ATOM      2  C   UNL     1      15.359  30.834  29.416  1.00  0.00    -0.028 C 
ATOM      3  C   UNL     1      15.758  32.007  29.957  1.00  0.00    -0.077 C 
ATOM      4  C   UNL     1      15.546  32.324  31.420  1.00  0.00     0.039 C 
BRANCH   3   5
ATOM      5  C   UNL     1      16.417  33.039  29.069  1.00  0.00     0.034 C 
BRANCH   5   6
ATOM      6  C   UNL     1      17.682  33.598  29.729  1.00  0.00     0.032 C 
BRANCH   6   7
ATOM      7  C   UNL     1      18.889  32.776  29.353  1.00  0.00    -0.028 C 
ATOM      8  C   UNL     1      20.723  31.172  29.674  1.00  0.00     0.039 C 
ATOM      9  C   UNL     1      19.556  31.964  30.204  1.00  0.00    -0.080 C 
ATOM     10  C   UNL     1      19.175  31.846  31.660  1.00  0.00     0.039 C 
ENDBRANCH   6   7
ENDBRANCH   5   6
ENDBRANCH   3   5
ENDBRANCH   1   2
BRANCH   1  11
ATOM     11  C   UNL     1      15.550  28.422  30.054  1.00  0.00     0.034 C 
BRANCH  11  12
ATOM     12  C   UNL     1      16.863  28.547  30.803  1.00  0.00    -0.077 C 
ATOM     13  C   UNL     1      18.065  28.594  30.183  1.00  0.00    -0.028 C 
ATOM     14  C   UNL     1      16.835  28.547  32.310  1.00  0.00     0.039 C 
BRANCH  13  15
ATOM     15  C   UNL     1      18.263  28.608  28.687  1.00  0.00     0.035 C 
BRANCH  15  16
ATOM     16  C   UNL     1      19.214  27.481  28.256  1.00  0.00     0.079 C 
BRANCH  16  17
ATOM     17  C   UNL     1      18.593  26.101  28.270  1.00  0.00     0.130 C 
ATOM     18  O   UNL     1      19.285  25.158  28.620  1.00  0.00    -0.300 OA
ATOM     19  C   UNL     1      17.169  25.840  27.863  1.00  0.00     0.087 C 
ENDBRANCH  16  17
ENDBRANCH  15  16
ENDBRANCH  13  15
ENDBRANCH  11  12
ENDBRANCH   1  11
TORSDOF 9
ENDMDL
MODEL 4
REMARK VINA RESULT:    -5.073      1.762      2.523
REMARK INTER + INTRA:          -9.770
REMARK INTER:                  -7.712
REMARK INTRA:                  -2.058
REMARK UNBOUND:                -2.028
REMARK SMILES CC(=O)CCC=C(C)CCC=C(C)CCC=C(C)C
REMARK SMILES IDX 10 1 11 2 12 3 13 4 14 5 15 6 16 7 18 8 17 9 19 10 9 11 7 12
REMARK SMILES IDX 6 13 8 14 5 15 4 16 2 17 3 18 1 19
REMARK H PARENT
REMARK Flexibility Score: inf
ROOT
ATOM      1  C   UNL     1      19.922  30.762  31.353  1.00  0.00     0.032 C 
ENDROOT
BRANCH   1   2
ATOM      2  C   UNL     1      19.141  30.061  30.271  1.00  0.00    -0.028 C 
ATOM      3  C   UNL     1      19.697  29.406  29.227  1.00  0.00    -0.077 C 
ATOM      4  C   UNL     1      21.193  29.366  29.016  1.00  0.00     0.039 C 
BRANCH   3   5
ATOM      5  C   UNL     1      18.795  28.710  28.232  1.00  0.00     0.034 C 
BRANCH   5   6
ATOM      6  C   UNL     1      18.445  27.296  28.710  1.00  0.00     0.032 C 
BRANCH   6   7
ATOM      7  C   UNL     1      18.918  26.264  27.717  1.00  0.00    -0.028 C 
ATOM      8  C   UNL     1      20.341  24.470  26.824  1.00  0.00     0.039 C 
ATOM      9  C   UNL     1      20.013  25.488  27.885  1.00  0.00    -0.080 C 
ATOM     10  C   UNL     1      20.915  25.627  29.088  1.00  0.00     0.039 C 
ENDBRANCH   6   7
ENDBRANCH   5   6
ENDBRANCH   3   5
ENDBRANCH   1   2
BRANCH   1  11
ATOM     11  C   UNL     1      19.535  32.243  31.431  1.00  0.00     0.034 C 
BRANCH  11  12
ATOM     12  C   UNL     1      20.074  33.000  30.233  1.00  0.00    -0.077 C 
ATOM     13  C   UNL     1      19.282  33.676  29.370  1.00  0.00    -0.028 C 
ATOM     14  C   UNL     1      21.553  32.937  29.949  1.00  0.00     0.039 C 
BRANCH  13  15
ATOM     15  C   UNL     1      17.788  33.836  29.515  1.00  0.00     0.035 C 
BRANCH  15  16
ATOM     16  C   UNL     1      17.049  32.687  28.812  1.00  0.00     0.079 C 
BRANCH  16  17
ATOM     17  C   UNL     1      15.934  32.071  29.628  1.00  0.00     0.130 C 
ATOM     18  O   UNL     1      15.367  32.768  30.454  1.00  0.00    -0.300 OA
ATOM     19  C   UNL     1      15.500  30.639  29.472  1.00  0.00     0.087 C 
ENDBRANCH  16  17
ENDBRANCH  15  16
ENDBRANCH  13  15
ENDBRANCH  11  12
ENDBRANCH   1  11
TORSDOF 9
ENDMDL
MODEL 5
REMARK VINA RESULT:    -5.013      3.775      5.893
REMARK INTER + INTRA:          -9.679
REMARK INTER:                  -7.681
REMARK INTRA:                  -1.998
REMARK UNBOUND:                -2.028
REMARK SMILES CC(=O)CCC=C(C)CCC=C(C)CCC=C(C)C
REMARK SMILES IDX 10 1 11 2 12 3 13 4 14 5 15 6 16 7 18 8 17 9 19 10 9 11 7 12
REMARK SMILES IDX 6 13 8 14 5 15 4 16 2 17 3 18 1 19
REMARK H PARENT
REMARK Flexibility Score: inf
ROOT
ATOM      1  C   UNL     1      21.093  29.768  31.183  1.00  0.00     0.032 C 
ENDROOT
BRANCH   1   2
ATOM      2  C   UNL     1      20.440  29.003  30.059  1.00  0.00    -0.028 C 
ATOM      3  C   UNL     1      19.552  29.534  29.187  1.00  0.00    -0.077 C 
ATOM      4  C   UNL     1      19.080  30.964  29.300  1.00  0.00     0.039 C 
BRANCH   3   5
ATOM      5  C   UNL     1      19.003  28.663  28.078  1.00  0.00     0.034 C 
BRANCH   5   6
ATOM      6  C   UNL     1      18.627  27.275  28.610  1.00  0.00     0.032 C 
BRANCH   6   7
ATOM      7  C   UNL     1      19.074  26.198  27.655  1.00  0.00    -0.028 C 
ATOM      8  C   UNL     1      20.406  24.293  26.855  1.00  0.00     0.039 C 
ATOM      9  C   UNL     1      20.099  25.347  27.888  1.00  0.00    -0.080 C 
ATOM     10  C   UNL     1      20.946  25.438  29.134  1.00  0.00     0.039 C 
ENDBRANCH   6   7
ENDBRANCH   5   6
ENDBRANCH   3   5
ENDBRANCH   1   2
BRANCH   1  11
ATOM     11  C   UNL     1      22.613  29.579  31.156  1.00  0.00     0.034 C 
BRANCH  11  12
ATOM     12  C   UNL     1      23.295  30.818  30.606  1.00  0.00    -0.077 C 
ATOM     13  C   UNL     1      24.572  30.819  30.160  1.00  0.00    -0.028 C 
ATOM     14  C   UNL     1      22.541  32.122  30.625  1.00  0.00     0.039 C 
BRANCH  13  15
ATOM     15  C   UNL     1      25.457  29.600  30.072  1.00  0.00     0.035 C 
BRANCH  15  16
ATOM     16  C   UNL     1      25.509  29.071  28.631  1.00  0.00     0.079 C 
BRANCH  16  17
ATOM     17  C   UNL     1      24.620  27.876  28.372  1.00  0.00     0.130 C 
ATOM     18  O   UNL     1      25.024  26.771  28.697  1.00  0.00    -0.300 OA
ATOM     19  C   UNL     1      23.266  27.988  27.724  1.00  0.00     0.087 C 
ENDBRANCH  16  17
ENDBRANCH  15  16
ENDBRANCH  13  15
ENDBRANCH  11  12
ENDBRANCH   1  11
TORSDOF 9
ENDMDL
MODEL 6
REMARK VINA RESULT:    -4.999      1.728      6.094
REMARK INTER + INTRA:          -9.658
REMARK INTER:                  -8.236
REMARK INTRA:                  -1.422
REMARK UNBOUND:                -2.028
REMARK SMILES CC(=O)CCC=C(C)CCC=C(C)CCC=C(C)C
REMARK SMILES IDX 10 1 11 2 12 3 13 4 14 5 15 6 16 7 18 8 17 9 19 10 9 11 7 12
REMARK SMILES IDX 6 13 8 14 5 15 4 16 2 17 3 18 1 19
REMARK H PARENT
REMARK Flexibility Score: inf
ROOT
ATOM      1  C   UNL     1      21.654  27.006  28.675  1.00  0.00     0.032 C 
ENDROOT
BRANCH   1   2
ATOM      2  C   UNL     1      20.926  28.326  28.637  1.00  0.00    -0.028 C 
ATOM      3  C   UNL     1      21.071  29.307  29.557  1.00  0.00    -0.077 C 
ATOM      4  C   UNL     1      21.955  29.138  30.771  1.00  0.00     0.039 C 
BRANCH   3   5
ATOM      5  C   UNL     1      20.309  30.601  29.376  1.00  0.00     0.034 C 
BRANCH   5   6
ATOM      6  C   UNL     1      18.915  30.337  28.797  1.00  0.00     0.032 C 
BRANCH   6   7
ATOM      7  C   UNL     1      17.993  31.498  29.073  1.00  0.00    -0.028 C 
ATOM      8  C   UNL     1      15.925  32.629  29.770  1.00  0.00     0.039 C 
ATOM      9  C   UNL     1      16.715  31.375  29.497  1.00  0.00    -0.080 C 
ATOM     10  C   UNL     1      16.061  30.027  29.684  1.00  0.00     0.039 C 
ENDBRANCH   6   7
ENDBRANCH   5   6
ENDBRANCH   3   5
ENDBRANCH   1   2
BRANCH   1  11
ATOM     11  C   UNL     1      20.694  25.868  29.038  1.00  0.00     0.034 C 
BRANCH  11  12
ATOM     12  C   UNL     1      19.988  25.349  27.800  1.00  0.00    -0.077 C 
ATOM     13  C   UNL     1      18.706  25.657  27.499  1.00  0.00    -0.028 C 
ATOM     14  C   UNL     1      20.724  24.391  26.900  1.00  0.00     0.039 C 
BRANCH  13  15
ATOM     15  C   UNL     1      17.837  26.602  28.292  1.00  0.00     0.035 C 
BRANCH  15  16
ATOM     16  C   UNL     1      16.742  25.829  29.044  1.00  0.00     0.079 C 
BRANCH  16  17
ATOM     17  C   UNL     1      15.386  25.859  28.376  1.00  0.00     0.130 C 
ATOM     18  O   UNL     1      14.632  26.784  28.635  1.00  0.00    -0.300 OA
ATOM     19  C   UNL     1      14.922  24.798  27.416  1.00  0.00     0.087 C 
ENDBRANCH  16  17
ENDBRANCH  15  16
ENDBRANCH  13  15
ENDBRANCH  11  12
ENDBRANCH   1  11
TORSDOF 9
ENDMDL
MODEL 7
REMARK VINA RESULT:    -4.969      1.571      5.857
REMARK INTER + INTRA:          -9.612
REMARK INTER:                  -7.643
REMARK INTRA:                  -1.969
REMARK UNBOUND:                -2.028
REMARK SMILES CC(=O)CCC=C(C)CCC=C(C)CCC=C(C)C
REMARK SMILES IDX 10 1 11 2 12 3 13 4 14 5 15 6 16 7 18 8 17 9 19 10 9 11 7 12
REMARK SMILES IDX 6 13 8 14 5 15 4 16 2 17 3 18 1 19
REMARK H PARENT
REMARK Flexibility Score: inf
ROOT
ATOM      1  C   UNL     1      20.159  29.863  29.863  1.00  0.00     0.032 C 
ENDROOT
BRANCH   1   2
ATOM      2  C   UNL     1      19.429  31.054  29.295  1.00  0.00    -0.028 C 
ATOM      3  C   UNL     1      19.058  32.138  30.014  1.00  0.00    -0.077 C 
ATOM      4  C   UNL     1      19.298  32.229  31.503  1.00  0.00     0.039 C 
BRANCH   3   5
ATOM      5  C   UNL     1      18.365  33.284  29.309  1.00  0.00     0.034 C 
BRANCH   5   6
ATOM      6  C   UNL     1      17.027  32.829  28.716  1.00  0.00     0.032 C 
BRANCH   6   7
ATOM      7  C   UNL     1      15.982  32.696  29.795  1.00  0.00    -0.028 C 
ATOM      8  C   UNL     1      14.426  31.541  31.307  1.00  0.00     0.039 C 
ATOM      9  C   UNL     1      15.432  31.524  30.185  1.00  0.00    -0.080 C 
ATOM     10  C   UNL     1      15.784  30.215  29.519  1.00  0.00     0.039 C 
ENDBRANCH   6   7
ENDBRANCH   5   6
ENDBRANCH   3   5
ENDBRANCH   1   2
BRANCH   1  11
ATOM     11  C   UNL     1      19.264  28.619  29.847  1.00  0.00     0.034 C 
BRANCH  11  12
ATOM     12  C   UNL     1      19.817  27.576  28.896  1.00  0.00    -0.077 C 
ATOM     13  C   UNL     1      19.057  26.945  27.971  1.00  0.00    -0.028 C 
ATOM     14  C   UNL     1      21.262  27.171  29.033  1.00  0.00     0.039 C 
BRANCH  13  15
ATOM     15  C   UNL     1      17.601  27.238  27.706  1.00  0.00     0.035 C 
BRANCH  15  16
ATOM     16  C   UNL     1      16.714  26.106  28.247  1.00  0.00     0.079 C 
BRANCH  16  17
ATOM     17  C   UNL     1      15.589  26.570  29.145  1.00  0.00     0.130 C 
ATOM     18  O   UNL     1      14.547  26.939  28.627  1.00  0.00    -0.300 OA
ATOM     19  C   UNL     1      15.701  26.605  30.645  1.00  0.00     0.087 C 
ENDBRANCH  16  17
ENDBRANCH  15  16
ENDBRANCH  13  15
ENDBRANCH  11  12
ENDBRANCH   1  11
TORSDOF 9
ENDMDL
MODEL 8
REMARK VINA RESULT:    -4.968      1.219      2.311
REMARK INTER + INTRA:          -9.610
REMARK INTER:                  -7.704
REMARK INTRA:                  -1.906
REMARK UNBOUND:                -2.028
REMARK SMILES CC(=O)CCC=C(C)CCC=C(C)CCC=C(C)C
REMARK SMILES IDX 10 1 11 2 12 3 13 4 14 5 15 6 16 7 18 8 17 9 19 10 9 11 7 12
REMARK SMILES IDX 6 13 8 14 5 15 4 16 2 17 3 18 1 19
REMARK H PARENT
REMARK Flexibility Score: inf
ROOT
ATOM      1  C   UNL     1      17.652  32.728  29.180  1.00  0.00     0.032 C 
ENDROOT
BRANCH   1   2
ATOM      2  C   UNL     1      18.059  31.286  29.015  1.00  0.00    -0.028 C 
ATOM      3  C   UNL     1      18.923  30.636  29.829  1.00  0.00    -0.077 C 
ATOM      4  C   UNL     1      19.619  31.334  30.973  1.00  0.00     0.039 C 
BRANCH   3   5
ATOM      5  C   UNL     1      19.214  29.174  29.573  1.00  0.00     0.034 C 
BRANCH   5   6
ATOM      6  C   UNL     1      19.075  28.843  28.082  1.00  0.00     0.032 C 
BRANCH   6   7
ATOM      7  C   UNL     1      18.027  27.780  27.866  1.00  0.00    -0.028 C 
ATOM      8  C   UNL     1      17.113  25.504  27.713  1.00  0.00     0.039 C 
ATOM      9  C   UNL     1      18.269  26.450  27.909  1.00  0.00    -0.080 C 
ATOM     10  C   UNL     1      19.657  25.896  28.129  1.00  0.00     0.039 C 
ENDBRANCH   6   7
ENDBRANCH   5   6
ENDBRANCH   3   5
ENDBRANCH   1   2
BRANCH   1  11
ATOM     11  C   UNL     1      16.157  32.837  29.501  1.00  0.00     0.034 C 
BRANCH  11  12
ATOM     12  C   UNL     1      15.885  32.404  30.929  1.00  0.00    -0.077 C 
ATOM     13  C   UNL     1      14.989  31.442  31.249  1.00  0.00    -0.028 C 
ATOM     14  C   UNL     1      16.590  33.126  32.047  1.00  0.00     0.039 C 
BRANCH  13  15
ATOM     15  C   UNL     1      14.206  30.625  30.250  1.00  0.00     0.035 C 
BRANCH  15  16
ATOM     16  C   UNL     1      15.147  29.737  29.421  1.00  0.00     0.079 C 
BRANCH  16  17
ATOM     17  C   UNL     1      15.188  28.290  29.859  1.00  0.00     0.130 C 
ATOM     18  O   UNL     1      14.584  27.465  29.191  1.00  0.00    -0.300 OA
ATOM     19  C   UNL     1      15.929  27.826  31.083  1.00  0.00     0.087 C 
ENDBRANCH  16  17
ENDBRANCH  15  16
ENDBRANCH  13  15
ENDBRANCH  11  12
ENDBRANCH   1  11
TORSDOF 9
ENDMDL
MODEL 9
REMARK VINA RESULT:    -4.967      1.715      6.100
REMARK INTER + INTRA:          -9.609
REMARK INTER:                  -7.541
REMARK INTRA:                  -2.068
REMARK UNBOUND:                -2.028
REMARK SMILES CC(=O)CCC=C(C)CCC=C(C)CCC=C(C)C
REMARK SMILES IDX 10 1 11 2 12 3 13 4 14 5 15 6 16 7 18 8 17 9 19 10 9 11 7 12
REMARK SMILES IDX 6 13 8 14 5 15 4 16 2 17 3 18 1 19
REMARK H PARENT
REMARK Flexibility Score: inf
ROOT
ATOM      1  C   UNL     1      20.480  30.249  30.152  1.00  0.00     0.032 C 
ENDROOT
BRANCH   1   2
ATOM      2  C   UNL     1      19.706  31.286  29.379  1.00  0.00    -0.028 C 
ATOM      3  C   UNL     1      19.163  32.399  29.923  1.00  0.00    -0.077 C 
ATOM      4  C   UNL     1      19.237  32.680  31.406  1.00  0.00     0.039 C 
BRANCH   3   5
ATOM      5  C   UNL     1      18.445  33.381  29.023  1.00  0.00     0.034 C 
BRANCH   5   6
ATOM      6  C   UNL     1      16.954  33.448  29.371  1.00  0.00     0.032 C 
BRANCH   6   7
ATOM      7  C   UNL     1      16.276  32.134  29.073  1.00  0.00    -0.028 C 
ATOM      8  C   UNL     1      14.886  30.156  29.512  1.00  0.00     0.039 C 
ATOM      9  C   UNL     1      15.537  31.437  29.966  1.00  0.00    -0.080 C 
ATOM     10  C   UNL     1      15.365  31.895  31.394  1.00  0.00     0.039 C 
ENDBRANCH   6   7
ENDBRANCH   5   6
ENDBRANCH   3   5
ENDBRANCH   1   2
BRANCH   1  11
ATOM     11  C   UNL     1      20.140  28.839  29.659  1.00  0.00     0.034 C 
BRANCH  11  12
ATOM     12  C   UNL     1      18.680  28.520  29.917  1.00  0.00    -0.077 C 
ATOM     13  C   UNL     1      17.881  27.924  29.002  1.00  0.00    -0.028 C 
ATOM     14  C   UNL     1      18.071  28.950  31.227  1.00  0.00     0.039 C 
BRANCH  13  15
ATOM     15  C   UNL     1      18.338  27.431  27.651  1.00  0.00     0.035 C 
BRANCH  15  16
ATOM     16  C   UNL     1      18.254  25.899  27.577  1.00  0.00     0.079 C 
BRANCH  16  17
ATOM     17  C   UNL     1      19.565  25.189  27.832  1.00  0.00     0.130 C 
ATOM     18  O   UNL     1      20.010  25.183  28.969  1.00  0.00    -0.300 OA
ATOM     19  C   UNL     1      20.348  24.501  26.747  1.00  0.00     0.087 C 
ENDBRANCH  16  17
ENDBRANCH  15  16
ENDBRANCH  13  15
ENDBRANCH  11  12
ENDBRANCH   1  11
TORSDOF 9
ENDMDL
