MODEL 1
REMARK VINA RESULT:    -3.573      0.000      0.000
REMARK INTER + INTRA:          -5.304
REMARK INTER:                  -4.827
REMARK INTRA:                  -0.477
REMARK UNBOUND:                -0.477
REMARK SMILES CCCCCCC=CC(=O)[O-]
REMARK SMILES IDX 5 1 6 2 7 3 8 4 9 5 10 6 11 7 4 8 3 9 2 10 1 11
REMARK H PARENT
REMARK Flexibility Score: inf
ROOT
ATOM      1  C   UNL     1      18.462  10.811   3.774  1.00  0.00     0.004 C 
ENDROOT
BRANCH   1   2
ATOM      2  C   UNL     1      18.023  10.395   2.361  1.00  0.00     0.027 C 
BRANCH   2   3
ATOM      3  C   UNL     1      16.850   9.448   2.380  1.00  0.00    -0.025 C 
ATOM      4  C   UNL     1      16.911   8.111   2.269  1.00  0.00     0.020 C 
BRANCH   4   5
ATOM      5  C   UNL     1      18.127   7.299   2.058  1.00  0.00     0.064 C 
ATOM      6  O   UNL     1      18.906   7.107   3.027  1.00  0.00    -0.545 OA
ATOM      7  O   UNL     1      18.426   6.715   0.834  1.00  0.00    -0.545 OA
ENDBRANCH   4   5
ENDBRANCH   2   3
ENDBRANCH   1   2
BRANCH   1   8
ATOM      8  C   UNL     1      17.654  12.011   4.298  1.00  0.00     0.000 C 
BRANCH   8   9
ATOM      9  C   UNL     1      18.518  13.267   4.491  1.00  0.00    -0.000 C 
BRANCH   9  10
ATOM     10  C   UNL     1      18.598  14.131   3.224  1.00  0.00    -0.003 C 
ATOM     11  C   UNL     1      17.289  14.081   2.442  1.00  0.00     0.004 C 
ENDBRANCH   9  10
ENDBRANCH   8   9
ENDBRANCH   1   8
TORSDOF 6
ENDMDL
MODEL 2
REMARK VINA RESULT:    -3.548      0.683      1.332
REMARK INTER + INTRA:          -5.269
REMARK INTER:                  -4.874
REMARK INTRA:                  -0.394
REMARK UNBOUND:                -0.477
REMARK SMILES CCCCCCC=CC(=O)[O-]
REMARK SMILES IDX 5 1 6 2 7 3 8 4 9 5 10 6 11 7 4 8 3 9 2 10 1 11
REMARK H PARENT
REMARK Flexibility Score: inf
ROOT
ATOM      1  C   UNL     1      18.098  10.620   3.505  1.00  0.00     0.004 C 
ENDROOT
BRANCH   1   2
ATOM      2  C   UNL     1      17.783   9.954   2.155  1.00  0.00     0.027 C 
BRANCH   2   3
ATOM      3  C   UNL     1      16.749   8.865   2.281  1.00  0.00    -0.025 C 
ATOM      4  C   UNL     1      16.967   7.547   2.136  1.00  0.00     0.020 C 
BRANCH   4   5
ATOM      5  C   UNL     1      18.245   6.900   1.777  1.00  0.00     0.064 C 
ATOM      6  O   UNL     1      18.455   6.592   0.575  1.00  0.00    -0.545 OA
ATOM      7  O   UNL     1      19.238   6.646   2.715  1.00  0.00    -0.545 OA
ENDBRANCH   4   5
ENDBRANCH   2   3
ENDBRANCH   1   2
BRANCH   1   8
ATOM      8  C   UNL     1      16.890  11.392   4.062  1.00  0.00     0.000 C 
BRANCH   8   9
ATOM      9  C   UNL     1      17.295  12.699   4.762  1.00  0.00    -0.000 C 
BRANCH   9  10
ATOM     10  C   UNL     1      18.689  13.187   4.345  1.00  0.00    -0.003 C 
ATOM     11  C   UNL     1      18.603  14.154   3.168  1.00  0.00     0.004 C 
ENDBRANCH   9  10
ENDBRANCH   8   9
ENDBRANCH   1   8
TORSDOF 6
ENDMDL
MODEL 3
REMARK VINA RESULT:    -3.536      1.468      2.157
REMARK INTER + INTRA:          -5.253
REMARK INTER:                  -4.934
REMARK INTRA:                  -0.319
REMARK UNBOUND:                -0.477
REMARK SMILES CCCCCCC=CC(=O)[O-]
REMARK SMILES IDX 5 1 6 2 7 3 8 4 9 5 10 6 11 7 4 8 3 9 2 10 1 11
REMARK H PARENT
REMARK Flexibility Score: inf
ROOT
ATOM      1  C   UNL     1      17.898   9.997   2.260  1.00  0.00     0.004 C 
ENDROOT
BRANCH   1   2
ATOM      2  C   UNL     1      17.195   8.629   2.245  1.00  0.00     0.027 C 
BRANCH   2   3
ATOM      3  C   UNL     1      18.148   7.491   2.505  1.00  0.00    -0.025 C 
ATOM      4  C   UNL     1      18.505   6.541   1.625  1.00  0.00     0.020 C 
BRANCH   4   5
ATOM      5  C   UNL     1      18.003   6.386   0.245  1.00  0.00     0.064 C 
ATOM      6  O   UNL     1      17.109   5.531   0.014  1.00  0.00    -0.545 OA
ATOM      7  O   UNL     1      18.462   7.173  -0.804  1.00  0.00    -0.545 OA
ENDBRANCH   4   5
ENDBRANCH   2   3
ENDBRANCH   1   2
BRANCH   1   8
ATOM      8  C   UNL     1      17.302  10.938   3.321  1.00  0.00     0.000 C 
BRANCH   8   9
ATOM      9  C   UNL     1      18.346  11.412   4.344  1.00  0.00    -0.000 C 
BRANCH   9  10
ATOM     10  C   UNL     1      18.381  12.940   4.489  1.00  0.00    -0.003 C 
ATOM     11  C   UNL     1      18.630  13.613   3.141  1.00  0.00     0.004 C 
ENDBRANCH   9  10
ENDBRANCH   8   9
ENDBRANCH   1   8
TORSDOF 6
ENDMDL
MODEL 4
REMARK VINA RESULT:    -3.463      3.197      5.861
REMARK INTER + INTRA:          -5.154
REMARK INTER:                  -4.785
REMARK INTRA:                  -0.369
REMARK UNBOUND:                -0.477
REMARK SMILES CCCCCCC=CC(=O)[O-]
REMARK SMILES IDX 5 1 6 2 7 3 8 4 9 5 10 6 11 7 4 8 3 9 2 10 1 11
REMARK H PARENT
REMARK Flexibility Score: inf
ROOT
ATOM      1  C   UNL     1      17.008   9.824   2.438  1.00  0.00     0.004 C 
ENDROOT
BRANCH   1   2
ATOM      2  C   UNL     1      18.280  10.603   2.814  1.00  0.00     0.027 C 
BRANCH   2   3
ATOM      3  C   UNL     1      18.167  11.269   4.161  1.00  0.00    -0.025 C 
ATOM      4  C   UNL     1      17.930  12.573   4.381  1.00  0.00     0.020 C 
BRANCH   4   5
ATOM      5  C   UNL     1      17.780  13.626   3.357  1.00  0.00     0.064 C 
ATOM      6  O   UNL     1      16.660  13.783   2.805  1.00  0.00    -0.545 OA
ATOM      7  O   UNL     1      18.825  14.469   3.001  1.00  0.00    -0.545 OA
ENDBRANCH   4   5
ENDBRANCH   2   3
ENDBRANCH   1   2
BRANCH   1   8
ATOM      8  C   UNL     1      17.332   8.515   1.698  1.00  0.00     0.000 C 
BRANCH   8   9
ATOM      9  C   UNL     1      18.205   7.564   2.531  1.00  0.00    -0.000 C 
BRANCH   9  10
ATOM     10  C   UNL     1      18.641   6.319   1.746  1.00  0.00    -0.003 C 
ATOM     11  C   UNL     1      18.318   6.466   0.262  1.00  0.00     0.004 C 
ENDBRANCH   9  10
ENDBRANCH   8   9
ENDBRANCH   1   8
TORSDOF 6
ENDMDL
MODEL 5
REMARK VINA RESULT:    -3.423      3.294      5.604
REMARK INTER + INTRA:          -5.101
REMARK INTER:                  -4.569
REMARK INTRA:                  -0.532
REMARK UNBOUND:                -0.477
REMARK SMILES CCCCCCC=CC(=O)[O-]
REMARK SMILES IDX 5 1 6 2 7 3 8 4 9 5 10 6 11 7 4 8 3 9 2 10 1 11
REMARK H PARENT
REMARK Flexibility Score: inf
ROOT
ATOM      1  C   UNL     1      17.306  10.610   0.429  1.00  0.00     0.004 C 
ENDROOT
BRANCH   1   2
ATOM      2  C   UNL     1      17.798  11.514   1.572  1.00  0.00     0.027 C 
BRANCH   2   3
ATOM      3  C   UNL     1      18.197  10.728   2.794  1.00  0.00    -0.025 C 
ATOM      4  C   UNL     1      18.202  11.180   4.059  1.00  0.00     0.020 C 
BRANCH   4   5
ATOM      5  C   UNL     1      17.866  12.547   4.507  1.00  0.00     0.064 C 
ATOM      6  O   UNL     1      18.756  13.436   4.468  1.00  0.00    -0.545 OA
ATOM      7  O   UNL     1      16.593  12.894   4.941  1.00  0.00    -0.545 OA
ENDBRANCH   4   5
ENDBRANCH   2   3
ENDBRANCH   1   2
BRANCH   1   8
ATOM      8  C   UNL     1      17.046   9.171   0.905  1.00  0.00     0.000 C 
BRANCH   8   9
ATOM      9  C   UNL     1      17.539   8.118  -0.100  1.00  0.00    -0.000 C 
BRANCH   9  10
ATOM     10  C   UNL     1      18.080   6.854   0.585  1.00  0.00    -0.003 C 
ATOM     11  C   UNL     1      18.224   7.064   2.090  1.00  0.00     0.004 C 
ENDBRANCH   9  10
ENDBRANCH   8   9
ENDBRANCH   1   8
TORSDOF 6
ENDMDL
MODEL 6
REMARK VINA RESULT:    -3.397      1.559      2.657
REMARK INTER + INTRA:          -5.066
REMARK INTER:                  -4.712
REMARK INTRA:                  -0.353
REMARK UNBOUND:                -0.477
REMARK SMILES CCCCCCC=CC(=O)[O-]
REMARK SMILES IDX 5 1 6 2 7 3 8 4 9 5 10 6 11 7 4 8 3 9 2 10 1 11
REMARK H PARENT
REMARK Flexibility Score: inf
ROOT
ATOM      1  C   UNL     1      17.446  10.470   0.731  1.00  0.00     0.004 C 
ENDROOT
BRANCH   1   2
ATOM      2  C   UNL     1      17.270   8.974   1.040  1.00  0.00     0.027 C 
BRANCH   2   3
ATOM      3  C   UNL     1      17.674   8.098  -0.118  1.00  0.00    -0.025 C 
ATOM      4  C   UNL     1      18.053   6.811  -0.042  1.00  0.00     0.020 C 
BRANCH   4   5
ATOM      5  C   UNL     1      18.198   6.007   1.189  1.00  0.00     0.064 C 
ATOM      6  O   UNL     1      17.334   5.130   1.449  1.00  0.00    -0.545 OA
ATOM      7  O   UNL     1      19.273   6.165   2.056  1.00  0.00    -0.545 OA
ENDBRANCH   4   5
ENDBRANCH   2   3
ENDBRANCH   1   2
BRANCH   1   8
ATOM      8  C   UNL     1      18.144  11.217   1.880  1.00  0.00     0.000 C 
BRANCH   8   9
ATOM      9  C   UNL     1      18.079  10.450   3.211  1.00  0.00    -0.000 C 
BRANCH   9  10
ATOM     10  C   UNL     1      18.294  11.359   4.429  1.00  0.00    -0.003 C 
ATOM     11  C   UNL     1      18.751  12.751   4.001  1.00  0.00     0.004 C 
ENDBRANCH   9  10
ENDBRANCH   8   9
ENDBRANCH   1   8
TORSDOF 6
ENDMDL
MODEL 7
REMARK VINA RESULT:    -3.312      1.348      2.226
REMARK INTER + INTRA:          -4.951
REMARK INTER:                  -4.368
REMARK INTRA:                  -0.583
REMARK UNBOUND:                -0.477
REMARK SMILES CCCCCCC=CC(=O)[O-]
REMARK SMILES IDX 5 1 6 2 7 3 8 4 9 5 10 6 11 7 4 8 3 9 2 10 1 11
REMARK H PARENT
REMARK Flexibility Score: inf
ROOT
ATOM      1  C   UNL     1      16.561  11.925   1.066  1.00  0.00     0.004 C 
ENDROOT
BRANCH   1   2
ATOM      2  C   UNL     1      17.769  10.974   1.055  1.00  0.00     0.027 C 
BRANCH   2   3
ATOM      3  C   UNL     1      17.805  10.078   2.266  1.00  0.00    -0.025 C 
ATOM      4  C   UNL     1      17.684   8.740   2.264  1.00  0.00     0.020 C 
BRANCH   4   5
ATOM      5  C   UNL     1      17.445   7.879   1.088  1.00  0.00     0.064 C 
ATOM      6  O   UNL     1      18.338   7.063   0.739  1.00  0.00    -0.545 OA
ATOM      7  O   UNL     1      16.256   7.917   0.370  1.00  0.00    -0.545 OA
ENDBRANCH   4   5
ENDBRANCH   2   3
ENDBRANCH   1   2
BRANCH   1   8
ATOM      8  C   UNL     1      16.983  13.388   1.285  1.00  0.00     0.000 C 
BRANCH   8   9
ATOM      9  C   UNL     1      17.027  13.775   2.772  1.00  0.00    -0.000 C 
BRANCH   9  10
ATOM     10  C   UNL     1      18.459  13.959   3.294  1.00  0.00    -0.003 C 
ATOM     11  C   UNL     1      18.743  13.016   4.459  1.00  0.00     0.004 C 
ENDBRANCH   9  10
ENDBRANCH   8   9
ENDBRANCH   1   8
TORSDOF 6
ENDMDL
MODEL 8
REMARK VINA RESULT:    -3.209      2.762      5.407
REMARK INTER + INTRA:          -4.811
REMARK INTER:                  -4.050
REMARK INTRA:                  -0.762
REMARK UNBOUND:                -0.477
REMARK SMILES CCCCCCC=CC(=O)[O-]
REMARK SMILES IDX 5 1 6 2 7 3 8 4 9 5 10 6 11 7 4 8 3 9 2 10 1 11
REMARK H PARENT
REMARK Flexibility Score: inf
ROOT
ATOM      1  C   UNL     1      18.094   6.298   0.995  1.00  0.00     0.004 C 
ENDROOT
BRANCH   1   2
ATOM      2  C   UNL     1      18.094   7.341   2.125  1.00  0.00     0.027 C 
BRANCH   2   3
ATOM      3  C   UNL     1      16.809   8.127   2.180  1.00  0.00    -0.025 C 
ATOM      4  C   UNL     1      16.702   9.456   2.341  1.00  0.00     0.020 C 
BRANCH   4   5
ATOM      5  C   UNL     1      17.810  10.410   2.547  1.00  0.00     0.064 C 
ATOM      6  O   UNL     1      18.212  11.096   1.571  1.00  0.00    -0.545 OA
ATOM      7  O   UNL     1      18.406  10.600   3.788  1.00  0.00    -0.545 OA
ENDBRANCH   4   5
ENDBRANCH   2   3
ENDBRANCH   1   2
BRANCH   1   8
ATOM      8  C   UNL     1      18.211   6.954  -0.392  1.00  0.00     0.000 C 
BRANCH   8   9
ATOM      9  C   UNL     1      16.922   6.821  -1.219  1.00  0.00    -0.000 C 
BRANCH   9  10
ATOM     10  C   UNL     1      16.431   8.168  -1.770  1.00  0.00    -0.003 C 
ATOM     11  C   UNL     1      17.419   9.285  -1.446  1.00  0.00     0.004 C 
ENDBRANCH   9  10
ENDBRANCH   8   9
ENDBRANCH   1   8
TORSDOF 6
ENDMDL
