MODEL 1
REMARK VINA RESULT:    -3.854      0.000      0.000
REMARK INTER + INTRA:          -5.429
REMARK INTER:                  -5.205
REMARK INTRA:                  -0.223
REMARK UNBOUND:                -0.223
REMARK SMILES [NH3+]CCCC[C@H]([NH3+])C(=O)[O-]
REMARK SMILES IDX 4 1 3 2 2 3 1 4 5 8 6 9 7 10 8 14 9 15 10 16
REMARK H PARENT 1 5 1 6 1 7 7 11 7 12 7 13
REMARK Flexibility Score: inf
ROOT
ATOM      1  C   UNL     1       2.764   9.472  19.551  1.00  0.00     0.012 C 
ENDROOT
BRANCH   1   2
ATOM      2  C   UNL     1       1.956   8.509  20.435  1.00  0.00     0.061 C 
BRANCH   2   3
ATOM      3  C   UNL     1       0.482   8.924  20.572  1.00  0.00     0.258 C 
BRANCH   3   4
ATOM      4  N   UNL     1       0.347  10.381  20.543  1.00  0.00    -0.358 N 
ATOM      5  H   UNL     1      -0.043  10.688  19.622  1.00  0.00     0.344 HD
ATOM      6  H   UNL     1       1.277  10.832  20.704  1.00  0.00     0.344 HD
ATOM      7  H   UNL     1      -0.308  10.677  21.303  1.00  0.00     0.344 HD
ENDBRANCH   3   4
ENDBRANCH   2   3
ENDBRANCH   1   2
BRANCH   1   8
ATOM      8  C   UNL     1       2.437   9.313  18.052  1.00  0.00     0.072 C 
BRANCH   8   9
ATOM      9  C   UNL     1       3.054  10.409  17.151  1.00  0.00     0.227 C 
BRANCH   9  10
ATOM     10  N   UNL     1       4.484  10.604  17.423  1.00  0.00    -0.350 N 
ATOM     11  H   UNL     1       4.836  11.434  16.893  1.00  0.00     0.345 HD
ATOM     12  H   UNL     1       5.042   9.763  17.152  1.00  0.00     0.345 HD
ATOM     13  H   UNL     1       4.623  10.785  18.443  1.00  0.00     0.345 HD
ENDBRANCH   9  10
BRANCH   9  14
ATOM     14  C   UNL     1       2.292  11.706  17.257  1.00  0.00     0.099 C 
ATOM     15  O   UNL     1       1.109  11.705  17.690  1.00  0.00    -0.544 OA
ATOM     16  O   UNL     1       2.894  12.916  16.927  1.00  0.00    -0.544 OA
ENDBRANCH   9  14
ENDBRANCH   8   9
ENDBRANCH   1   8
TORSDOF 7
ENDMDL
MODEL 2
REMARK VINA RESULT:    -3.846      0.828      1.289
REMARK INTER + INTRA:          -5.418
REMARK INTER:                  -5.060
REMARK INTRA:                  -0.358
REMARK UNBOUND:                -0.223
REMARK SMILES [NH3+]CCCC[C@H]([NH3+])C(=O)[O-]
REMARK SMILES IDX 4 1 3 2 2 3 1 4 5 8 6 9 7 10 8 14 9 15 10 16
REMARK H PARENT 1 5 1 6 1 7 7 11 7 12 7 13
REMARK Flexibility Score: inf
ROOT
ATOM      1  C   UNL     1       2.460   9.500  19.027  1.00  0.00     0.012 C 
ENDROOT
BRANCH   1   2
ATOM      2  C   UNL     1       1.182   8.816  19.538  1.00  0.00     0.061 C 
BRANCH   2   3
ATOM      3  C   UNL     1       0.220   9.795  20.230  1.00  0.00     0.258 C 
BRANCH   3   4
ATOM      4  N   UNL     1       0.035  11.000  19.423  1.00  0.00    -0.358 N 
ATOM      5  H   UNL     1       0.960  11.356  19.089  1.00  0.00     0.344 HD
ATOM      6  H   UNL     1      -0.449  11.739  19.984  1.00  0.00     0.344 HD
ATOM      7  H   UNL     1      -0.557  10.767  18.592  1.00  0.00     0.344 HD
ENDBRANCH   3   4
ENDBRANCH   2   3
ENDBRANCH   1   2
BRANCH   1   8
ATOM      8  C   UNL     1       2.547   9.514  17.488  1.00  0.00     0.072 C 
BRANCH   8   9
ATOM      9  C   UNL     1       3.459  10.626  16.916  1.00  0.00     0.227 C 
BRANCH   9  10
ATOM     10  N   UNL     1       4.746  10.698  17.620  1.00  0.00    -0.350 N 
ATOM     11  H   UNL     1       5.484  11.061  16.974  1.00  0.00     0.345 HD
ATOM     12  H   UNL     1       5.037   9.760  17.981  1.00  0.00     0.345 HD
ATOM     13  H   UNL     1       4.665  11.358  18.428  1.00  0.00     0.345 HD
ENDBRANCH   9  10
BRANCH   9  14
ATOM     14  C   UNL     1       2.761  11.963  16.907  1.00  0.00     0.099 C 
ATOM     15  O   UNL     1       3.440  13.024  16.875  1.00  0.00    -0.544 OA
ATOM     16  O   UNL     1       1.373  12.043  16.885  1.00  0.00    -0.544 OA
ENDBRANCH   9  14
ENDBRANCH   8   9
ENDBRANCH   1   8
TORSDOF 7
ENDMDL
MODEL 3
REMARK VINA RESULT:    -3.803      2.084      4.281
REMARK INTER + INTRA:          -5.360
REMARK INTER:                  -4.918
REMARK INTRA:                  -0.442
REMARK UNBOUND:                -0.223
REMARK SMILES [NH3+]CCCC[C@H]([NH3+])C(=O)[O-]
REMARK SMILES IDX 4 1 3 2 2 3 1 4 5 8 6 9 7 10 8 14 9 15 10 16
REMARK H PARENT 1 5 1 6 1 7 7 11 7 12 7 13
REMARK Flexibility Score: inf
ROOT
ATOM      1  C   UNL     1       1.746  12.083  18.190  1.00  0.00     0.012 C 
ENDROOT
BRANCH   1   2
ATOM      2  C   UNL     1       2.539  12.026  16.875  1.00  0.00     0.061 C 
BRANCH   2   3
ATOM      3  C   UNL     1       4.034  11.741  17.095  1.00  0.00     0.258 C 
BRANCH   3   4
ATOM      4  N   UNL     1       4.313  10.310  16.973  1.00  0.00    -0.358 N 
ATOM      5  H   UNL     1       4.764   9.956  17.848  1.00  0.00     0.344 HD
ATOM      6  H   UNL     1       4.940  10.134  16.154  1.00  0.00     0.344 HD
ATOM      7  H   UNL     1       3.414   9.798  16.824  1.00  0.00     0.344 HD
ENDBRANCH   3   4
ENDBRANCH   2   3
ENDBRANCH   1   2
BRANCH   1   8
ATOM      8  C   UNL     1       0.462  11.229  18.142  1.00  0.00     0.072 C 
BRANCH   8   9
ATOM      9  C   UNL     1       0.490   9.995  19.074  1.00  0.00     0.227 C 
BRANCH   9  10
ATOM     10  N   UNL     1       0.602  10.375  20.488  1.00  0.00    -0.350 N 
ATOM     11  H   UNL     1       0.381   9.553  21.096  1.00  0.00     0.345 HD
ATOM     12  H   UNL     1      -0.047  11.160  20.725  1.00  0.00     0.345 HD
ATOM     13  H   UNL     1       1.582  10.677  20.691  1.00  0.00     0.345 HD
ENDBRANCH   9  10
BRANCH   9  14
ATOM     14  C   UNL     1       1.575   9.025  18.678  1.00  0.00     0.099 C 
ATOM     15  O   UNL     1       2.310   8.511  19.562  1.00  0.00    -0.544 OA
ATOM     16  O   UNL     1       1.747   8.652  17.349  1.00  0.00    -0.544 OA
ENDBRANCH   9  14
ENDBRANCH   8   9
ENDBRANCH   1   8
TORSDOF 7
ENDMDL
MODEL 4
REMARK VINA RESULT:    -3.800      1.981      2.612
REMARK INTER + INTRA:          -5.356
REMARK INTER:                  -4.805
REMARK INTRA:                  -0.551
REMARK UNBOUND:                -0.223
REMARK SMILES [NH3+]CCCC[C@H]([NH3+])C(=O)[O-]
REMARK SMILES IDX 4 1 3 2 2 3 1 4 5 8 6 9 7 10 8 14 9 15 10 16
REMARK H PARENT 1 5 1 6 1 7 7 11 7 12 7 13
REMARK Flexibility Score: inf
ROOT
ATOM      1  C   UNL     1       0.086   9.092  18.734  1.00  0.00     0.012 C 
ENDROOT
BRANCH   1   2
ATOM      2  C   UNL     1       0.858   9.403  20.026  1.00  0.00     0.061 C 
BRANCH   2   3
ATOM      3  C   UNL     1       2.129   8.552  20.178  1.00  0.00     0.258 C 
BRANCH   3   4
ATOM      4  N   UNL     1       3.325   9.393  20.155  1.00  0.00    -0.358 N 
ATOM      5  H   UNL     1       3.550   9.672  19.172  1.00  0.00     0.344 HD
ATOM      6  H   UNL     1       4.135   8.880  20.572  1.00  0.00     0.344 HD
ATOM      7  H   UNL     1       3.147  10.256  20.719  1.00  0.00     0.344 HD
ENDBRANCH   3   4
ENDBRANCH   2   3
ENDBRANCH   1   2
BRANCH   1   8
ATOM      8  C   UNL     1       0.269  10.183  17.660  1.00  0.00     0.072 C 
BRANCH   8   9
ATOM      9  C   UNL     1       0.967  11.465  18.172  1.00  0.00     0.227 C 
BRANCH   9  10
ATOM     10  N   UNL     1       0.092  12.641  18.086  1.00  0.00    -0.350 N 
ATOM     11  H   UNL     1      -0.365  12.676  17.146  1.00  0.00     0.345 HD
ATOM     12  H   UNL     1       0.625  13.527  18.242  1.00  0.00     0.345 HD
ATOM     13  H   UNL     1      -0.659  12.570  18.811  1.00  0.00     0.345 HD
ENDBRANCH   9  10
BRANCH   9  14
ATOM     14  C   UNL     1       2.278  11.702  17.465  1.00  0.00     0.099 C 
ATOM     15  O   UNL     1       2.513  12.822  16.940  1.00  0.00    -0.544 OA
ATOM     16  O   UNL     1       3.255  10.713  17.424  1.00  0.00    -0.544 OA
ENDBRANCH   9  14
ENDBRANCH   8   9
ENDBRANCH   1   8
TORSDOF 7
ENDMDL
MODEL 5
REMARK VINA RESULT:    -3.671      1.804      1.987
REMARK INTER + INTRA:          -5.181
REMARK INTER:                  -5.082
REMARK INTRA:                  -0.100
REMARK UNBOUND:                -0.223
REMARK SMILES [NH3+]CCCC[C@H]([NH3+])C(=O)[O-]
REMARK SMILES IDX 4 1 3 2 2 3 1 4 5 8 6 9 7 10 8 14 9 15 10 16
REMARK H PARENT 1 5 1 6 1 7 7 11 7 12 7 13
REMARK Flexibility Score: inf
ROOT
ATOM      1  C   UNL     1       2.281   8.526  20.180  1.00  0.00     0.012 C 
ENDROOT
BRANCH   1   2
ATOM      2  C   UNL     1       0.851   8.769  20.686  1.00  0.00     0.061 C 
BRANCH   2   3
ATOM      3  C   UNL     1       0.528   7.973  21.961  1.00  0.00     0.258 C 
BRANCH   3   4
ATOM      4  N   UNL     1       1.580   6.996  22.244  1.00  0.00    -0.358 N 
ATOM      5  H   UNL     1       2.451   7.243  21.720  1.00  0.00     0.344 HD
ATOM      6  H   UNL     1       1.263   6.037  21.972  1.00  0.00     0.344 HD
ATOM      7  H   UNL     1       1.787   7.005  23.269  1.00  0.00     0.344 HD
ENDBRANCH   3   4
ENDBRANCH   2   3
ENDBRANCH   1   2
BRANCH   1   8
ATOM      8  C   UNL     1       2.873   9.757  19.466  1.00  0.00     0.072 C 
BRANCH   8   9
ATOM      9  C   UNL     1       2.483   9.871  17.973  1.00  0.00     0.227 C 
BRANCH   9  10
ATOM     10  N   UNL     1       2.868   8.675  17.211  1.00  0.00    -0.350 N 
ATOM     11  H   UNL     1       3.824   8.803  16.808  1.00  0.00     0.345 HD
ATOM     12  H   UNL     1       2.192   8.482  16.437  1.00  0.00     0.345 HD
ATOM     13  H   UNL     1       2.891   7.847  17.850  1.00  0.00     0.345 HD
ENDBRANCH   9  10
BRANCH   9  14
ATOM     14  C   UNL     1       3.042  11.124  17.348  1.00  0.00     0.099 C 
ATOM     15  O   UNL     1       2.263  12.043  16.981  1.00  0.00    -0.544 OA
ATOM     16  O   UNL     1       4.414  11.303  17.213  1.00  0.00    -0.544 OA
ENDBRANCH   9  14
ENDBRANCH   8   9
ENDBRANCH   1   8
TORSDOF 7
ENDMDL
MODEL 6
REMARK VINA RESULT:    -3.437      2.614      4.369
REMARK INTER + INTRA:          -4.865
REMARK INTER:                  -4.734
REMARK INTRA:                  -0.131
REMARK UNBOUND:                -0.223
REMARK SMILES [NH3+]CCCC[C@H]([NH3+])C(=O)[O-]
REMARK SMILES IDX 4 1 3 2 2 3 1 4 5 8 6 9 7 10 8 14 9 15 10 16
REMARK H PARENT 1 5 1 6 1 7 7 11 7 12 7 13
REMARK Flexibility Score: inf
ROOT
ATOM      1  C   UNL     1       0.197  11.564  18.160  1.00  0.00     0.012 C 
ENDROOT
BRANCH   1   2
ATOM      2  C   UNL     1       0.812  12.141  16.875  1.00  0.00     0.061 C 
BRANCH   2   3
ATOM      3  C   UNL     1       2.069  12.983  17.144  1.00  0.00     0.258 C 
BRANCH   3   4
ATOM      4  N   UNL     1       1.707  14.335  17.571  1.00  0.00    -0.358 N 
ATOM      5  H   UNL     1       2.378  15.031  17.170  1.00  0.00     0.344 HD
ATOM      6  H   UNL     1       1.714  14.397  18.615  1.00  0.00     0.344 HD
ATOM      7  H   UNL     1       0.745  14.556  17.227  1.00  0.00     0.344 HD
ENDBRANCH   3   4
ENDBRANCH   2   3
ENDBRANCH   1   2
BRANCH   1   8
ATOM      8  C   UNL     1       0.211  10.023  18.183  1.00  0.00     0.072 C 
BRANCH   8   9
ATOM      9  C   UNL     1       0.628   9.414  19.542  1.00  0.00     0.227 C 
BRANCH   9  10
ATOM     10  N   UNL     1       0.233  10.267  20.671  1.00  0.00    -0.350 N 
ATOM     11  H   UNL     1      -0.789  10.152  20.863  1.00  0.00     0.345 HD
ATOM     12  H   UNL     1       0.434  11.275  20.477  1.00  0.00     0.345 HD
ATOM     13  H   UNL     1       0.761   9.978  21.527  1.00  0.00     0.345 HD
ENDBRANCH   9  10
BRANCH   9  14
ATOM     14  C   UNL     1       2.103   9.100  19.580  1.00  0.00     0.099 C 
ATOM     15  O   UNL     1       2.541   8.243  20.392  1.00  0.00    -0.544 OA
ATOM     16  O   UNL     1       2.984   9.711  18.695  1.00  0.00    -0.544 OA
ENDBRANCH   9  14
ENDBRANCH   8   9
ENDBRANCH   1   8
TORSDOF 7
ENDMDL
MODEL 7
REMARK VINA RESULT:    -3.172      2.779      3.289
REMARK INTER + INTRA:          -4.508
REMARK INTER:                  -4.432
REMARK INTRA:                  -0.076
REMARK UNBOUND:                -0.223
REMARK SMILES [NH3+]CCCC[C@H]([NH3+])C(=O)[O-]
REMARK SMILES IDX 4 1 3 2 2 3 1 4 5 8 6 9 7 10 8 14 9 15 10 16
REMARK H PARENT 1 5 1 6 1 7 7 11 7 12 7 13
REMARK Flexibility Score: inf
ROOT
ATOM      1  C   UNL     1       1.349   7.963  21.664  1.00  0.00     0.012 C 
ENDROOT
BRANCH   1   2
ATOM      2  C   UNL     1       0.381   7.753  22.839  1.00  0.00     0.061 C 
BRANCH   2   3
ATOM      3  C   UNL     1       0.792   6.580  23.744  1.00  0.00     0.258 C 
BRANCH   3   4
ATOM      4  N   UNL     1       1.201   7.060  25.064  1.00  0.00    -0.358 N 
ATOM      5  H   UNL     1       1.117   6.291  25.768  1.00  0.00     0.344 HD
ATOM      6  H   UNL     1       0.608   7.872  25.352  1.00  0.00     0.344 HD
ATOM      7  H   UNL     1       2.199   7.370  25.020  1.00  0.00     0.344 HD
ENDBRANCH   3   4
ENDBRANCH   2   3
ENDBRANCH   1   2
BRANCH   1   8
ATOM      8  C   UNL     1       0.789   8.931  20.603  1.00  0.00     0.072 C 
BRANCH   8   9
ATOM      9  C   UNL     1       1.569   8.926  19.268  1.00  0.00     0.227 C 
BRANCH   9  10
ATOM     10  N   UNL     1       2.917   8.364  19.421  1.00  0.00    -0.350 N 
ATOM     11  H   UNL     1       3.522   8.667  18.622  1.00  0.00     0.345 HD
ATOM     12  H   UNL     1       2.894   7.319  19.455  1.00  0.00     0.345 HD
ATOM     13  H   UNL     1       3.345   8.719  20.307  1.00  0.00     0.345 HD
ENDBRANCH   9  10
BRANCH   9  14
ATOM     14  C   UNL     1       1.614  10.300  18.647  1.00  0.00     0.099 C 
ATOM     15  O   UNL     1       0.976  11.248  19.176  1.00  0.00    -0.544 OA
ATOM     16  O   UNL     1       2.390  10.548  17.520  1.00  0.00    -0.544 OA
ENDBRANCH   9  14
ENDBRANCH   8   9
ENDBRANCH   1   8
TORSDOF 7
ENDMDL
