MODEL 1
REMARK VINA RESULT:    -3.786      0.000      0.000
REMARK INTER + INTRA:          -5.093
REMARK INTER:                  -4.893
REMARK INTRA:                  -0.200
REMARK UNBOUND:                -0.200
REMARK SMILES CCO[C@@H]1O[C@@H](CO)[C@H](O)[C@@H](O)[C@H]1O
REMARK SMILES IDX 4 1 13 2 11 3 9 4 6 5 5 6 3 7 2 8 1 9 14 10 12 12 7 14 8 15
REMARK SMILES IDX 10 17
REMARK H PARENT 14 11 12 13 8 16 10 18
REMARK Flexibility Score: inf
ROOT
ATOM      1  C   UNL     1       7.924  -6.098  -1.622  1.00  0.00     0.281 C 
ATOM      2  C   UNL     1       9.326  -5.462  -1.795  1.00  0.00     0.202 C 
ATOM      3  C   UNL     1       9.231  -4.111  -2.533  1.00  0.00     0.179 C 
ATOM      4  C   UNL     1       8.145  -3.218  -1.911  1.00  0.00     0.177 C 
ATOM      5  C   UNL     1       6.830  -4.019  -1.768  1.00  0.00     0.178 C 
ATOM      6  O   UNL     1       7.029  -5.193  -0.994  1.00  0.00    -0.341 OA
ENDROOT
BRANCH   1   7
ATOM      7  O   UNL     1       7.399  -6.517  -2.876  1.00  0.00    -0.350 OA
BRANCH   7   8
ATOM      8  C   UNL     1       6.555  -7.646  -2.744  1.00  0.00     0.160 C 
ATOM      9  C   UNL     1       7.119  -8.609  -1.706  1.00  0.00     0.035 C 
ENDBRANCH   7   8
ENDBRANCH   1   7
BRANCH   2  10
ATOM     10  O   UNL     1       9.978  -5.325  -0.555  1.00  0.00    -0.385 OA
ATOM     11  H   UNL     1      10.693  -4.646  -0.654  1.00  0.00     0.211 HD
ENDBRANCH   2  10
BRANCH   3  12
ATOM     12  O   UNL     1      10.469  -3.447  -2.493  1.00  0.00    -0.387 OA
ATOM     13  H   UNL     1      10.636  -3.211  -1.543  1.00  0.00     0.211 HD
ENDBRANCH   3  12
BRANCH   5  14
ATOM     14  C   UNL     1       5.736  -3.179  -1.096  1.00  0.00     0.191 C 
BRANCH  14  15
ATOM     15  O   UNL     1       5.639  -3.497   0.264  1.00  0.00    -0.394 OA
ATOM     16  H   UNL     1       6.484  -3.964   0.499  1.00  0.00     0.210 HD
ENDBRANCH  14  15
ENDBRANCH   5  14
BRANCH   4  17
ATOM     17  O   UNL     1       7.926  -2.101  -2.736  1.00  0.00    -0.387 OA
ATOM     18  H   UNL     1       8.481  -1.362  -2.375  1.00  0.00     0.211 HD
ENDBRANCH   4  17
TORSDOF 7
ENDMDL
MODEL 2
REMARK VINA RESULT:    -3.708      1.472      3.470
REMARK INTER + INTRA:          -4.992
REMARK INTER:                  -4.832
REMARK INTRA:                  -0.160
REMARK UNBOUND:                -0.200
REMARK SMILES CCO[C@@H]1O[C@@H](CO)[C@H](O)[C@@H](O)[C@H]1O
REMARK SMILES IDX 4 1 13 2 11 3 9 4 6 5 5 6 3 7 2 8 1 9 14 10 12 12 7 14 8 15
REMARK SMILES IDX 10 17
REMARK H PARENT 14 11 12 13 8 16 10 18
REMARK Flexibility Score: inf
ROOT
ATOM      1  C   UNL     1       6.318  -5.169  -3.085  1.00  0.00     0.281 C 
ATOM      2  C   UNL     1       5.451  -4.081  -2.404  1.00  0.00     0.202 C 
ATOM      3  C   UNL     1       5.874  -3.878  -0.935  1.00  0.00     0.179 C 
ATOM      4  C   UNL     1       7.398  -3.713  -0.818  1.00  0.00     0.177 C 
ATOM      5  C   UNL     1       8.107  -4.851  -1.588  1.00  0.00     0.178 C 
ATOM      6  O   UNL     1       7.700  -4.877  -2.948  1.00  0.00    -0.341 OA
ENDROOT
BRANCH   1   7
ATOM      7  O   UNL     1       6.033  -6.455  -2.547  1.00  0.00    -0.350 OA
BRANCH   7   8
ATOM      8  C   UNL     1       6.845  -7.461  -3.125  1.00  0.00     0.160 C 
ATOM      9  C   UNL     1       7.056  -8.602  -2.136  1.00  0.00     0.035 C 
ENDBRANCH   7   8
ENDBRANCH   1   7
BRANCH   2  10
ATOM     10  O   UNL     1       5.498  -2.871  -3.124  1.00  0.00    -0.385 OA
ATOM     11  H   UNL     1       4.578  -2.650  -3.419  1.00  0.00     0.211 HD
ENDBRANCH   2  10
BRANCH   3  12
ATOM     12  O   UNL     1       5.234  -2.749  -0.396  1.00  0.00    -0.387 OA
ATOM     13  H   UNL     1       5.781  -2.452   0.378  1.00  0.00     0.211 HD
ENDBRANCH   3  12
BRANCH   5  14
ATOM     14  C   UNL     1       9.632  -4.689  -1.543  1.00  0.00     0.191 C 
BRANCH  14  15
ATOM     15  O   UNL     1      10.165  -5.370  -0.441  1.00  0.00    -0.394 OA
ATOM     16  H   UNL     1      10.903  -4.802  -0.096  1.00  0.00     0.210 HD
ENDBRANCH  14  15
ENDBRANCH   5  14
BRANCH   4  17
ATOM     17  O   UNL     1       7.773  -3.760   0.537  1.00  0.00    -0.387 OA
ATOM     18  H   UNL     1       8.550  -3.151   0.643  1.00  0.00     0.211 HD
ENDBRANCH   4  17
TORSDOF 7
ENDMDL
MODEL 3
REMARK VINA RESULT:    -3.420      1.473      3.386
REMARK INTER + INTRA:          -4.620
REMARK INTER:                  -4.420
REMARK INTRA:                  -0.200
REMARK UNBOUND:                -0.200
REMARK SMILES CCO[C@@H]1O[C@@H](CO)[C@H](O)[C@@H](O)[C@H]1O
REMARK SMILES IDX 4 1 13 2 11 3 9 4 6 5 5 6 3 7 2 8 1 9 14 10 12 12 7 14 8 15
REMARK SMILES IDX 10 17
REMARK H PARENT 14 11 12 13 8 16 10 18
REMARK Flexibility Score: inf
ROOT
ATOM      1  C   UNL     1       7.132  -5.628  -2.733  1.00  0.00     0.281 C 
ATOM      2  C   UNL     1       6.129  -4.933  -1.778  1.00  0.00     0.202 C 
ATOM      3  C   UNL     1       6.859  -4.303  -0.575  1.00  0.00     0.179 C 
ATOM      4  C   UNL     1       8.061  -3.462  -1.038  1.00  0.00     0.177 C 
ATOM      5  C   UNL     1       8.930  -4.287  -2.016  1.00  0.00     0.178 C 
ATOM      6  O   UNL     1       8.163  -4.735  -3.125  1.00  0.00    -0.341 OA
ENDROOT
BRANCH   1   7
ATOM      7  O   UNL     1       7.692  -6.786  -2.125  1.00  0.00    -0.350 OA
BRANCH   7   8
ATOM      8  C   UNL     1       6.777  -7.867  -2.105  1.00  0.00     0.160 C 
ATOM      9  C   UNL     1       7.033  -8.753  -0.891  1.00  0.00     0.035 C 
ENDBRANCH   7   8
ENDBRANCH   1   7
BRANCH   2  10
ATOM     10  O   UNL     1       5.353  -3.980  -2.464  1.00  0.00    -0.385 OA
ATOM     11  H   UNL     1       5.925  -3.547  -3.148  1.00  0.00     0.211 HD
ENDBRANCH   2  10
BRANCH   3  12
ATOM     12  O   UNL     1       5.976  -3.497   0.163  1.00  0.00    -0.387 OA
ATOM     13  H   UNL     1       6.534  -2.937   0.764  1.00  0.00     0.211 HD
ENDBRANCH   3  12
BRANCH   5  14
ATOM     14  C   UNL     1      10.109  -3.461  -2.547  1.00  0.00     0.191 C 
BRANCH  14  15
ATOM     15  O   UNL     1      11.299  -4.195  -2.462  1.00  0.00    -0.394 OA
ATOM     16  H   UNL     1      11.052  -5.075  -2.072  1.00  0.00     0.210 HD
ENDBRANCH  14  15
ENDBRANCH   5  14
BRANCH   4  17
ATOM     17  O   UNL     1       8.833  -3.093   0.077  1.00  0.00    -0.387 OA
ATOM     18  H   UNL     1       9.754  -3.428  -0.085  1.00  0.00     0.211 HD
ENDBRANCH   4  17
TORSDOF 7
ENDMDL
MODEL 4
REMARK VINA RESULT:    -3.333      1.910      3.883
REMARK INTER + INTRA:          -4.507
REMARK INTER:                  -4.137
REMARK INTRA:                  -0.370
REMARK UNBOUND:                -0.200
REMARK SMILES CCO[C@@H]1O[C@@H](CO)[C@H](O)[C@@H](O)[C@H]1O
REMARK SMILES IDX 4 1 13 2 11 3 9 4 6 5 5 6 3 7 2 8 1 9 14 10 12 12 7 14 8 15
REMARK SMILES IDX 10 17
REMARK H PARENT 14 11 12 13 8 16 10 18
REMARK Flexibility Score: inf
ROOT
ATOM      1  C   UNL     1       7.253  -4.209  -2.489  1.00  0.00     0.281 C 
ATOM      2  C   UNL     1       7.608  -3.385  -1.227  1.00  0.00     0.202 C 
ATOM      3  C   UNL     1       8.497  -4.201  -0.267  1.00  0.00     0.179 C 
ATOM      4  C   UNL     1       9.673  -4.846  -1.019  1.00  0.00     0.177 C 
ATOM      5  C   UNL     1       9.150  -5.586  -2.271  1.00  0.00     0.178 C 
ATOM      6  O   UNL     1       8.424  -4.707  -3.118  1.00  0.00    -0.341 OA
ENDROOT
BRANCH   1   7
ATOM      7  O   UNL     1       6.377  -5.283  -2.165  1.00  0.00    -0.350 OA
BRANCH   7   8
ATOM      8  C   UNL     1       5.348  -5.433  -3.125  1.00  0.00     0.160 C 
ATOM      9  C   UNL     1       4.438  -4.211  -3.120  1.00  0.00     0.035 C 
ENDBRANCH   7   8
ENDBRANCH   1   7
BRANCH   2  10
ATOM     10  O   UNL     1       8.214  -2.162  -1.573  1.00  0.00    -0.385 OA
ATOM     11  H   UNL     1       8.972  -2.353  -2.182  1.00  0.00     0.211 HD
ENDBRANCH   2  10
BRANCH   3  12
ATOM     12  O   UNL     1       8.987  -3.378   0.761  1.00  0.00    -0.387 OA
ATOM     13  H   UNL     1       8.420  -3.548   1.558  1.00  0.00     0.211 HD
ENDBRANCH   3  12
BRANCH   5  14
ATOM     14  C   UNL     1      10.303  -6.194  -3.081  1.00  0.00     0.191 C 
BRANCH  14  15
ATOM     15  O   UNL     1      11.412  -5.339  -3.073  1.00  0.00    -0.394 OA
ATOM     16  H   UNL     1      11.693  -5.261  -2.123  1.00  0.00     0.210 HD
ENDBRANCH  14  15
ENDBRANCH   5  14
BRANCH   4  17
ATOM     17  O   UNL     1      10.327  -5.759  -0.173  1.00  0.00    -0.387 OA
ATOM     18  H   UNL     1      10.881  -5.225   0.456  1.00  0.00     0.211 HD
ENDBRANCH   4  17
TORSDOF 7
ENDMDL
MODEL 5
REMARK VINA RESULT:    -3.263      1.720      3.839
REMARK INTER + INTRA:          -4.416
REMARK INTER:                  -4.025
REMARK INTRA:                  -0.392
REMARK UNBOUND:                -0.200
REMARK SMILES CCO[C@@H]1O[C@@H](CO)[C@H](O)[C@@H](O)[C@H]1O
REMARK SMILES IDX 4 1 13 2 11 3 9 4 6 5 5 6 3 7 2 8 1 9 14 10 12 12 7 14 8 15
REMARK SMILES IDX 10 17
REMARK H PARENT 14 11 12 13 8 16 10 18
REMARK Flexibility Score: inf
ROOT
ATOM      1  C   UNL     1       9.487  -4.809  -1.613  1.00  0.00     0.281 C 
ATOM      2  C   UNL     1       8.610  -3.573  -1.295  1.00  0.00     0.202 C 
ATOM      3  C   UNL     1       7.266  -3.642  -2.048  1.00  0.00     0.179 C 
ATOM      4  C   UNL     1       6.603  -5.019  -1.868  1.00  0.00     0.177 C 
ATOM      5  C   UNL     1       7.626  -6.135  -2.181  1.00  0.00     0.178 C 
ATOM      6  O   UNL     1       8.780  -6.014  -1.361  1.00  0.00    -0.341 OA
ENDROOT
BRANCH   1   7
ATOM      7  O   UNL     1       9.937  -4.778  -2.962  1.00  0.00    -0.350 OA
BRANCH   7   8
ATOM      8  C   UNL     1      11.064  -3.936  -3.125  1.00  0.00     0.160 C 
ATOM      9  C   UNL     1      12.342  -4.691  -2.777  1.00  0.00     0.035 C 
ENDBRANCH   7   8
ENDBRANCH   1   7
BRANCH   2  10
ATOM     10  O   UNL     1       8.414  -3.433   0.093  1.00  0.00    -0.385 OA
ATOM     11  H   UNL     1       8.101  -4.303   0.451  1.00  0.00     0.211 HD
ENDBRANCH   2  10
BRANCH   3  12
ATOM     12  O   UNL     1       6.398  -2.637  -1.588  1.00  0.00    -0.387 OA
ATOM     13  H   UNL     1       6.650  -2.451  -0.646  1.00  0.00     0.211 HD
ENDBRANCH   3  12
BRANCH   5  14
ATOM     14  C   UNL     1       7.019  -7.526  -1.957  1.00  0.00     0.191 C 
BRANCH  14  15
ATOM     15  O   UNL     1       6.210  -7.889  -3.042  1.00  0.00    -0.394 OA
ATOM     16  H   UNL     1       6.250  -7.129  -3.680  1.00  0.00     0.210 HD
ENDBRANCH  14  15
ENDBRANCH   5  14
BRANCH   4  17
ATOM     17  O   UNL     1       5.507  -5.130  -2.742  1.00  0.00    -0.387 OA
ATOM     18  H   UNL     1       5.722  -4.587  -3.546  1.00  0.00     0.211 HD
ENDBRANCH   4  17
TORSDOF 7
ENDMDL
MODEL 6
REMARK VINA RESULT:    -3.259      1.912      2.109
REMARK INTER + INTRA:          -4.411
REMARK INTER:                  -4.002
REMARK INTRA:                  -0.409
REMARK UNBOUND:                -0.200
REMARK SMILES CCO[C@@H]1O[C@@H](CO)[C@H](O)[C@@H](O)[C@H]1O
REMARK SMILES IDX 4 1 13 2 11 3 9 4 6 5 5 6 3 7 2 8 1 9 14 10 12 12 7 14 8 15
REMARK SMILES IDX 10 17
REMARK H PARENT 14 11 12 13 8 16 10 18
REMARK Flexibility Score: inf
ROOT
ATOM      1  C   UNL     1       8.412  -5.427  -1.590  1.00  0.00     0.281 C 
ATOM      2  C   UNL     1       8.967  -4.073  -1.083  1.00  0.00     0.202 C 
ATOM      3  C   UNL     1       8.455  -2.907  -1.953  1.00  0.00     0.179 C 
ATOM      4  C   UNL     1       6.932  -2.994  -2.152  1.00  0.00     0.177 C 
ATOM      5  C   UNL     1       6.547  -4.419  -2.613  1.00  0.00     0.178 C 
ATOM      6  O   UNL     1       6.997  -5.394  -1.683  1.00  0.00    -0.341 OA
ENDROOT
BRANCH   1   7
ATOM      7  O   UNL     1       8.979  -5.768  -2.850  1.00  0.00    -0.350 OA
BRANCH   7   8
ATOM      8  C   UNL     1      10.196  -6.476  -2.708  1.00  0.00     0.160 C 
ATOM      9  C   UNL     1      10.053  -7.567  -1.653  1.00  0.00     0.035 C 
ENDBRANCH   7   8
ENDBRANCH   1   7
BRANCH   2  10
ATOM     10  O   UNL     1       8.656  -3.874   0.276  1.00  0.00    -0.385 OA
ATOM     11  H   UNL     1       8.177  -4.676   0.605  1.00  0.00     0.211 HD
ENDBRANCH   2  10
BRANCH   3  12
ATOM     12  O   UNL     1       8.784  -1.676  -1.360  1.00  0.00    -0.387 OA
ATOM     13  H   UNL     1       8.126  -1.012  -1.696  1.00  0.00     0.211 HD
ENDBRANCH   3  12
BRANCH   5  14
ATOM     14  C   UNL     1       5.027  -4.562  -2.766  1.00  0.00     0.191 C 
BRANCH  14  15
ATOM     15  O   UNL     1       4.365  -3.543  -2.069  1.00  0.00    -0.394 OA
ATOM     16  H   UNL     1       4.357  -2.756  -2.676  1.00  0.00     0.210 HD
ENDBRANCH  14  15
ENDBRANCH   5  14
BRANCH   4  17
ATOM     17  O   UNL     1       6.532  -2.062  -3.125  1.00  0.00    -0.387 OA
ATOM     18  H   UNL     1       7.221  -1.347  -3.142  1.00  0.00     0.211 HD
ENDBRANCH   4  17
TORSDOF 7
ENDMDL
MODEL 7
REMARK VINA RESULT:    -3.117      3.354      5.340
REMARK INTER + INTRA:          -4.228
REMARK INTER:                  -3.919
REMARK INTRA:                  -0.309
REMARK UNBOUND:                -0.200
REMARK SMILES CCO[C@@H]1O[C@@H](CO)[C@H](O)[C@@H](O)[C@H]1O
REMARK SMILES IDX 4 1 13 2 11 3 9 4 6 5 5 6 3 7 2 8 1 9 14 10 12 12 7 14 8 15
REMARK SMILES IDX 10 17
REMARK H PARENT 14 11 12 13 8 16 10 18
REMARK Flexibility Score: inf
ROOT
ATOM      1  C   UNL     1      12.419  -7.217  -2.399  1.00  0.00     0.281 C 
ATOM      2  C   UNL     1      11.372  -8.095  -1.670  1.00  0.00     0.202 C 
ATOM      3  C   UNL     1      10.449  -7.232  -0.786  1.00  0.00     0.179 C 
ATOM      4  C   UNL     1       9.907  -6.025  -1.568  1.00  0.00     0.177 C 
ATOM      5  C   UNL     1      11.073  -5.290  -2.269  1.00  0.00     0.178 C 
ATOM      6  O   UNL     1      11.791  -6.170  -3.122  1.00  0.00    -0.341 OA
ENDROOT
BRANCH   1   7
ATOM      7  O   UNL     1      13.361  -6.679  -1.478  1.00  0.00    -0.350 OA
BRANCH   7   8
ATOM      8  C   UNL     1      14.642  -6.524  -2.061  1.00  0.00     0.160 C 
ATOM      9  C   UNL     1      15.665  -7.379  -1.323  1.00  0.00     0.035 C 
ENDBRANCH   7   8
ENDBRANCH   1   7
BRANCH   2  10
ATOM     10  O   UNL     1      10.632  -8.867  -2.585  1.00  0.00    -0.385 OA
ATOM     11  H   UNL     1       9.749  -8.435  -2.712  1.00  0.00     0.211 HD
ENDBRANCH   2  10
BRANCH   3  12
ATOM     12  O   UNL     1       9.377  -8.003  -0.304  1.00  0.00    -0.387 OA
ATOM     13  H   UNL     1       8.748  -8.123  -1.062  1.00  0.00     0.211 HD
ENDBRANCH   3  12
BRANCH   5  14
ATOM     14  C   UNL     1      10.564  -4.111  -3.110  1.00  0.00     0.191 C 
BRANCH  14  15
ATOM     15  O   UNL     1      10.036  -3.112  -2.283  1.00  0.00    -0.394 OA
ATOM     16  H   UNL     1      10.348  -3.321  -1.363  1.00  0.00     0.210 HD
ENDBRANCH  14  15
ENDBRANCH   5  14
BRANCH   4  17
ATOM     17  O   UNL     1       9.262  -5.143  -0.684  1.00  0.00    -0.387 OA
ATOM     18  H   UNL     1       9.739  -4.274  -0.742  1.00  0.00     0.211 HD
ENDBRANCH   4  17
TORSDOF 7
ENDMDL
MODEL 8
REMARK VINA RESULT:    -2.882      1.716      2.105
REMARK INTER + INTRA:          -3.925
REMARK INTER:                  -3.641
REMARK INTRA:                  -0.283
REMARK UNBOUND:                -0.200
REMARK SMILES CCO[C@@H]1O[C@@H](CO)[C@H](O)[C@@H](O)[C@H]1O
REMARK SMILES IDX 4 1 13 2 11 3 9 4 6 5 5 6 3 7 2 8 1 9 14 10 12 12 7 14 8 15
REMARK SMILES IDX 10 17
REMARK H PARENT 14 11 12 13 8 16 10 18
REMARK Flexibility Score: inf
ROOT
ATOM      1  C   UNL     1      10.103  -7.080  -1.846  1.00  0.00     0.281 C 
ATOM      2  C   UNL     1      11.278  -6.086  -2.016  1.00  0.00     0.202 C 
ATOM      3  C   UNL     1      10.824  -4.819  -2.770  1.00  0.00     0.179 C 
ATOM      4  C   UNL     1       9.528  -4.253  -2.167  1.00  0.00     0.177 C 
ATOM      5  C   UNL     1       8.481  -5.382  -2.025  1.00  0.00     0.178 C 
ATOM      6  O   UNL     1       8.987  -6.450  -1.236  1.00  0.00    -0.341 OA
ENDROOT
BRANCH   1   7
ATOM      7  O   UNL     1       9.725  -7.638  -3.099  1.00  0.00    -0.350 OA
BRANCH   7   8
ATOM      8  C   UNL     1       9.361  -9.001  -2.982  1.00  0.00     0.160 C 
ATOM      9  C   UNL     1       7.879  -9.125  -2.648  1.00  0.00     0.035 C 
ENDBRANCH   7   8
ENDBRANCH   1   7
BRANCH   2  10
ATOM     10  O   UNL     1      11.854  -5.764  -0.772  1.00  0.00    -0.385 OA
ATOM     11  H   UNL     1      11.272  -5.099  -0.323  1.00  0.00     0.211 HD
ENDBRANCH   2  10
BRANCH   3  12
ATOM     12  O   UNL     1      11.832  -3.840  -2.727  1.00  0.00    -0.387 OA
ATOM     13  H   UNL     1      12.214  -3.783  -3.642  1.00  0.00     0.211 HD
ENDBRANCH   3  12
BRANCH   5  14
ATOM     14  C   UNL     1       7.192  -4.868  -1.372  1.00  0.00     0.191 C 
BRANCH  14  15
ATOM     15  O   UNL     1       7.458  -3.743  -0.581  1.00  0.00    -0.394 OA
ATOM     16  H   UNL     1       7.541  -2.978  -1.209  1.00  0.00     0.210 HD
ENDBRANCH  14  15
ENDBRANCH   5  14
BRANCH   4  17
ATOM     17  O   UNL     1       9.020  -3.246  -3.007  1.00  0.00    -0.387 OA
ATOM     18  H   UNL     1       8.219  -2.871  -2.556  1.00  0.00     0.211 HD
ENDBRANCH   4  17
TORSDOF 7
ENDMDL
MODEL 9
REMARK VINA RESULT:    -2.863      2.557      3.973
REMARK INTER + INTRA:          -3.900
REMARK INTER:                  -3.545
REMARK INTRA:                  -0.354
REMARK UNBOUND:                -0.200
REMARK SMILES CCO[C@@H]1O[C@@H](CO)[C@H](O)[C@@H](O)[C@H]1O
REMARK SMILES IDX 4 1 13 2 11 3 9 4 6 5 5 6 3 7 2 8 1 9 14 10 12 12 7 14 8 15
REMARK SMILES IDX 10 17
REMARK H PARENT 14 11 12 13 8 16 10 18
REMARK Flexibility Score: inf
ROOT
ATOM      1  C   UNL     1      10.719  -7.709  -1.205  1.00  0.00     0.281 C 
ATOM      2  C   UNL     1      10.796  -6.166  -1.094  1.00  0.00     0.202 C 
ATOM      3  C   UNL     1       9.679  -5.497  -1.921  1.00  0.00     0.179 C 
ATOM      4  C   UNL     1       8.314  -6.139  -1.624  1.00  0.00     0.177 C 
ATOM      5  C   UNL     1       8.425  -7.677  -1.733  1.00  0.00     0.178 C 
ATOM      6  O   UNL     1       9.425  -8.179  -0.859  1.00  0.00    -0.341 OA
ENDROOT
BRANCH   1   7
ATOM      7  O   UNL     1      11.063  -8.142  -2.515  1.00  0.00    -0.350 OA
BRANCH   7   8
ATOM      8  C   UNL     1      12.082  -9.125  -2.496  1.00  0.00     0.160 C 
ATOM      9  C   UNL     1      13.392  -8.518  -2.008  1.00  0.00     0.035 C 
ENDBRANCH   7   8
ENDBRANCH   1   7
BRANCH   2  10
ATOM     10  O   UNL     1      10.758  -5.750   0.250  1.00  0.00    -0.385 OA
ATOM     11  H   UNL     1      11.263  -4.901   0.327  1.00  0.00     0.211 HD
ENDBRANCH   2  10
BRANCH   3  12
ATOM     12  O   UNL     1       9.625  -4.121  -1.643  1.00  0.00    -0.387 OA
ATOM     13  H   UNL     1       9.018  -4.010  -0.864  1.00  0.00     0.211 HD
ENDBRANCH   3  12
BRANCH   5  14
ATOM     14  C   UNL     1       7.094  -8.358  -1.385  1.00  0.00     0.191 C 
BRANCH  14  15
ATOM     15  O   UNL     1       6.251  -8.386  -2.503  1.00  0.00    -0.394 OA
ATOM     16  H   UNL     1       5.447  -8.900  -2.229  1.00  0.00     0.210 HD
ENDBRANCH  14  15
ENDBRANCH   5  14
BRANCH   4  17
ATOM     17  O   UNL     1       7.364  -5.671  -2.548  1.00  0.00    -0.387 OA
ATOM     18  H   UNL     1       7.856  -5.127  -3.219  1.00  0.00     0.211 HD
ENDBRANCH   4  17
TORSDOF 7
ENDMDL
