MODEL 1
REMARK VINA RESULT:    -7.654      0.000      0.000
REMARK INTER + INTRA:          -9.292
REMARK INTER:                  -8.996
REMARK INTRA:                  -0.296
REMARK UNBOUND:                -0.296
REMARK SMILES O=c1c(O)c(-c2ccc(O)cc2)oc2cc(O)cc(O)c12
REMARK SMILES IDX 5 1 3 2 2 3 1 4 21 5 19 6 18 7 16 8 15 9 14 10 13 11 6 12
REMARK SMILES IDX 7 13 8 14 9 15 12 16 11 17 10 18 4 20 20 22 17 24
REMARK H PARENT 10 19 4 21 20 23 17 25
REMARK Flexibility Score: inf
ROOT
ATOM      1  C   UNL     1      -8.697  49.291  55.646  1.00  0.00     0.180 A 
ATOM      2  C   UNL     1      -9.419  48.109  55.890  1.00  0.00     0.208 A 
ATOM      3  C   UNL     1     -10.724  47.992  55.383  1.00  0.00     0.238 A 
ATOM      4  O   UNL     1     -11.344  46.911  55.559  1.00  0.00    -0.285 OA
ATOM      5  C   UNL     1     -11.296  49.062  54.656  1.00  0.00     0.111 A 
ATOM      6  C   UNL     1     -12.623  49.069  54.131  1.00  0.00     0.134 A 
ATOM      7  C   UNL     1     -13.038  50.127  53.315  1.00  0.00     0.093 A 
ATOM      8  C   UNL     1     -12.200  51.210  53.058  1.00  0.00     0.123 A 
ATOM      9  C   UNL     1     -10.921  51.244  53.614  1.00  0.00     0.094 A 
ATOM     10  C   UNL     1     -10.464  50.185  54.403  1.00  0.00     0.146 A 
ATOM     11  O   UNL     1      -9.237  50.250  54.904  1.00  0.00    -0.452 OA
ENDROOT
BRANCH   1  12
ATOM     12  C   UNL     1      -7.326  49.499  56.169  1.00  0.00     0.021 A 
ATOM     13  C   UNL     1      -6.223  49.140  55.376  1.00  0.00     0.016 A 
ATOM     14  C   UNL     1      -4.920  49.348  55.841  1.00  0.00     0.047 A 
ATOM     15  C   UNL     1      -4.705  49.931  57.093  1.00  0.00     0.115 A 
ATOM     16  C   UNL     1      -7.103  50.103  57.420  1.00  0.00     0.016 A 
ATOM     17  C   UNL     1      -5.799  50.310  57.880  1.00  0.00     0.047 A 
BRANCH  15  18
ATOM     18  O   UNL     1      -3.402  50.131  57.543  1.00  0.00    -0.508 OA
ATOM     19  H   UNL     1      -2.605  49.757  57.041  1.00  0.00     0.293 HD
ENDBRANCH  15  18
ENDBRANCH   1  12
BRANCH   2  20
ATOM     20  O   UNL     1      -8.827  47.056  56.592  1.00  0.00    -0.502 OA
ATOM     21  H   UNL     1      -8.795  47.027  57.605  1.00  0.00     0.293 HD
ENDBRANCH   2  20
BRANCH   6  22
ATOM     22  O   UNL     1     -13.574  48.080  54.403  1.00  0.00    -0.507 OA
ATOM     23  H   UNL     1     -14.484  48.252  54.802  1.00  0.00     0.293 HD
ENDBRANCH   6  22
BRANCH   8  24
ATOM     24  O   UNL     1     -12.652  52.255  52.254  1.00  0.00    -0.508 OA
ATOM     25  H   UNL     1     -13.589  52.261  51.870  1.00  0.00     0.293 HD
ENDBRANCH   8  24
TORSDOF 5
ENDMDL
MODEL 2
REMARK VINA RESULT:    -7.289     19.480     21.150
REMARK INTER + INTRA:          -8.863
REMARK INTER:                  -8.835
REMARK INTRA:                  -0.028
REMARK UNBOUND:                -0.296
REMARK SMILES O=c1c(O)c(-c2ccc(O)cc2)oc2cc(O)cc(O)c12
REMARK SMILES IDX 5 1 3 2 2 3 1 4 21 5 19 6 18 7 16 8 15 9 14 10 13 11 6 12
REMARK SMILES IDX 7 13 8 14 9 15 12 16 11 17 10 18 4 20 20 22 17 24
REMARK H PARENT 10 19 4 21 20 23 17 25
REMARK Flexibility Score: inf
ROOT
ATOM      1  C   UNL     1     -10.956  62.883  39.230  1.00  0.00     0.180 A 
ATOM      2  C   UNL     1     -10.924  61.557  39.697  1.00  0.00     0.208 A 
ATOM      3  C   UNL     1     -12.124  60.830  39.762  1.00  0.00     0.238 A 
ATOM      4  O   UNL     1     -12.080  59.626  40.129  1.00  0.00    -0.285 OA
ATOM      5  C   UNL     1     -13.340  61.440  39.377  1.00  0.00     0.111 A 
ATOM      6  C   UNL     1     -14.620  60.811  39.440  1.00  0.00     0.134 A 
ATOM      7  C   UNL     1     -15.738  61.464  38.911  1.00  0.00     0.093 A 
ATOM      8  C   UNL     1     -15.637  62.749  38.379  1.00  0.00     0.123 A 
ATOM      9  C   UNL     1     -14.403  63.399  38.366  1.00  0.00     0.094 A 
ATOM     10  C   UNL     1     -13.261  62.758  38.855  1.00  0.00     0.146 A 
ATOM     11  O   UNL     1     -12.103  63.406  38.814  1.00  0.00    -0.452 OA
ENDROOT
BRANCH   1  12
ATOM     12  C   UNL     1      -9.738  63.722  39.156  1.00  0.00     0.021 A 
ATOM     13  C   UNL     1      -9.439  64.403  37.964  1.00  0.00     0.016 A 
ATOM     14  C   UNL     1      -8.306  65.219  37.880  1.00  0.00     0.047 A 
ATOM     15  C   UNL     1      -7.468  65.375  38.987  1.00  0.00     0.115 A 
ATOM     16  C   UNL     1      -8.901  63.899  40.273  1.00  0.00     0.016 A 
ATOM     17  C   UNL     1      -7.769  64.715  40.185  1.00  0.00     0.047 A 
BRANCH  15  18
ATOM     18  O   UNL     1      -6.342  66.189  38.888  1.00  0.00    -0.508 OA
ATOM     19  H   UNL     1      -5.984  66.490  37.989  1.00  0.00     0.293 HD
ENDBRANCH  15  18
ENDBRANCH   1  12
BRANCH   2  20
ATOM     20  O   UNL     1      -9.709  60.966  40.051  1.00  0.00    -0.502 OA
ATOM     21  H   UNL     1      -9.318  61.041  40.983  1.00  0.00     0.293 HD
ENDBRANCH   2  20
BRANCH   6  22
ATOM     22  O   UNL     1     -14.847  59.566  40.035  1.00  0.00    -0.507 OA
ATOM     23  H   UNL     1     -14.351  58.719  39.803  1.00  0.00     0.293 HD
ENDBRANCH   6  22
BRANCH   8  24
ATOM     24  O   UNL     1     -16.775  63.376  37.875  1.00  0.00    -0.508 OA
ATOM     25  H   UNL     1     -17.477  63.773  38.488  1.00  0.00     0.293 HD
ENDBRANCH   8  24
TORSDOF 5
ENDMDL
MODEL 3
REMARK VINA RESULT:    -7.146      2.115      6.859
REMARK INTER + INTRA:          -8.694
REMARK INTER:                  -8.502
REMARK INTRA:                  -0.192
REMARK UNBOUND:                -0.296
REMARK SMILES O=c1c(O)c(-c2ccc(O)cc2)oc2cc(O)cc(O)c12
REMARK SMILES IDX 5 1 3 2 2 3 1 4 21 5 19 6 18 7 16 8 15 9 14 10 13 11 6 12
REMARK SMILES IDX 7 13 8 14 9 15 12 16 11 17 10 18 4 20 20 22 17 24
REMARK H PARENT 10 19 4 21 20 23 17 25
REMARK Flexibility Score: inf
ROOT
ATOM      1  C   UNL     1      -7.870  49.520  55.019  1.00  0.00     0.180 A 
ATOM      2  C   UNL     1      -7.301  49.603  56.302  1.00  0.00     0.208 A 
ATOM      3  C   UNL     1      -5.902  49.605  56.427  1.00  0.00     0.238 A 
ATOM      4  O   UNL     1      -5.399  49.734  57.574  1.00  0.00    -0.285 OA
ATOM      5  C   UNL     1      -5.091  49.506  55.272  1.00  0.00     0.111 A 
ATOM      6  C   UNL     1      -3.665  49.458  55.284  1.00  0.00     0.134 A 
ATOM      7  C   UNL     1      -2.962  49.493  54.074  1.00  0.00     0.093 A 
ATOM      8  C   UNL     1      -3.633  49.507  52.852  1.00  0.00     0.123 A 
ATOM      9  C   UNL     1      -5.028  49.494  52.826  1.00  0.00     0.094 A 
ATOM     10  C   UNL     1      -5.757  49.496  54.018  1.00  0.00     0.146 A 
ATOM     11  O   UNL     1      -7.083  49.495  53.951  1.00  0.00    -0.452 OA
ENDROOT
BRANCH   1  12
ATOM     12  C   UNL     1      -9.336  49.488  54.808  1.00  0.00     0.021 A 
ATOM     13  C   UNL     1      -9.961  50.552  54.137  1.00  0.00     0.016 A 
ATOM     14  C   UNL     1     -11.341  50.531  53.906  1.00  0.00     0.047 A 
ATOM     15  C   UNL     1     -12.108  49.442  54.330  1.00  0.00     0.115 A 
ATOM     16  C   UNL     1     -10.111  48.386  55.214  1.00  0.00     0.016 A 
ATOM     17  C   UNL     1     -11.490  48.368  54.982  1.00  0.00     0.047 A 
BRANCH  15  18
ATOM     18  O   UNL     1     -13.481  49.436  54.095  1.00  0.00    -0.508 OA
ATOM     19  H   UNL     1     -14.141  49.721  54.809  1.00  0.00     0.293 HD
ENDBRANCH  15  18
ENDBRANCH   1  12
BRANCH   2  20
ATOM     20  O   UNL     1      -8.120  49.722  57.428  1.00  0.00    -0.502 OA
ATOM     21  H   UNL     1      -7.808  49.467  58.358  1.00  0.00     0.293 HD
ENDBRANCH   2  20
BRANCH   6  22
ATOM     22  O   UNL     1      -2.898  49.348  56.448  1.00  0.00    -0.507 OA
ATOM     23  H   UNL     1      -3.273  49.180  57.369  1.00  0.00     0.293 HD
ENDBRANCH   6  22
BRANCH   8  24
ATOM     24  O   UNL     1      -2.901  49.525  51.666  1.00  0.00    -0.508 OA
ATOM     25  H   UNL     1      -2.346  48.730  51.374  1.00  0.00     0.293 HD
ENDBRANCH   8  24
TORSDOF 5
ENDMDL
MODEL 4
REMARK VINA RESULT:    -7.002      2.028      3.377
REMARK INTER + INTRA:          -8.526
REMARK INTER:                  -8.251
REMARK INTRA:                  -0.275
REMARK UNBOUND:                -0.296
REMARK SMILES O=c1c(O)c(-c2ccc(O)cc2)oc2cc(O)cc(O)c12
REMARK SMILES IDX 5 1 3 2 2 3 1 4 21 5 19 6 18 7 16 8 15 9 14 10 13 11 6 12
REMARK SMILES IDX 7 13 8 14 9 15 12 16 11 17 10 18 4 20 20 22 17 24
REMARK H PARENT 10 19 4 21 20 23 17 25
REMARK Flexibility Score: inf
ROOT
ATOM      1  C   UNL     1     -10.163  48.801  55.213  1.00  0.00     0.180 A 
ATOM      2  C   UNL     1     -10.178  50.100  54.674  1.00  0.00     0.208 A 
ATOM      3  C   UNL     1     -11.293  50.512  53.926  1.00  0.00     0.238 A 
ATOM      4  O   UNL     1     -11.324  51.694  53.492  1.00  0.00    -0.285 OA
ATOM      5  C   UNL     1     -12.368  49.618  53.712  1.00  0.00     0.111 A 
ATOM      6  C   UNL     1     -13.529  49.917  52.936  1.00  0.00     0.134 A 
ATOM      7  C   UNL     1     -14.589  49.004  52.900  1.00  0.00     0.093 A 
ATOM      8  C   UNL     1     -14.505  47.777  53.557  1.00  0.00     0.123 A 
ATOM      9  C   UNL     1     -13.352  47.449  54.269  1.00  0.00     0.094 A 
ATOM     10  C   UNL     1     -12.291  48.354  54.353  1.00  0.00     0.146 A 
ATOM     11  O   UNL     1     -11.215  48.009  55.050  1.00  0.00    -0.452 OA
ENDROOT
BRANCH   1  12
ATOM     12  C   UNL     1      -9.013  48.285  55.991  1.00  0.00     0.021 A 
ATOM     13  C   UNL     1      -7.890  47.782  55.313  1.00  0.00     0.016 A 
ATOM     14  C   UNL     1      -6.784  47.310  56.029  1.00  0.00     0.047 A 
ATOM     15  C   UNL     1      -6.781  47.350  57.426  1.00  0.00     0.115 A 
ATOM     16  C   UNL     1      -8.996  48.340  57.397  1.00  0.00     0.016 A 
ATOM     17  C   UNL     1      -7.888  47.868  58.108  1.00  0.00     0.047 A 
BRANCH  15  18
ATOM     18  O   UNL     1      -5.674  46.875  58.125  1.00  0.00    -0.508 OA
ATOM     19  H   UNL     1      -5.763  46.157  58.834  1.00  0.00     0.293 HD
ENDBRANCH  15  18
ENDBRANCH   1  12
BRANCH   2  20
ATOM     20  O   UNL     1      -9.115  50.973  54.916  1.00  0.00    -0.502 OA
ATOM     21  H   UNL     1      -8.202  50.849  54.496  1.00  0.00     0.293 HD
ENDBRANCH   2  20
BRANCH   6  22
ATOM     22  O   UNL     1     -13.676  51.075  52.167  1.00  0.00    -0.507 OA
ATOM     23  H   UNL     1     -13.643  51.104  51.159  1.00  0.00     0.293 HD
ENDBRANCH   6  22
BRANCH   8  24
ATOM     24  O   UNL     1     -15.574  46.885  53.486  1.00  0.00    -0.508 OA
ATOM     25  H   UNL     1     -15.807  46.275  54.261  1.00  0.00     0.293 HD
ENDBRANCH   8  24
TORSDOF 5
ENDMDL
MODEL 5
REMARK VINA RESULT:    -6.598      2.739      8.243
REMARK INTER + INTRA:          -8.051
REMARK INTER:                  -7.882
REMARK INTRA:                  -0.169
REMARK UNBOUND:                -0.296
REMARK SMILES O=c1c(O)c(-c2ccc(O)cc2)oc2cc(O)cc(O)c12
REMARK SMILES IDX 5 1 3 2 2 3 1 4 21 5 19 6 18 7 16 8 15 9 14 10 13 11 6 12
REMARK SMILES IDX 7 13 8 14 9 15 12 16 11 17 10 18 4 20 20 22 17 24
REMARK H PARENT 10 19 4 21 20 23 17 25
REMARK Flexibility Score: inf
ROOT
ATOM      1  C   UNL     1     -13.759  48.842  53.549  1.00  0.00     0.180 A 
ATOM      2  C   UNL     1     -13.211  50.034  53.042  1.00  0.00     0.208 A 
ATOM      3  C   UNL     1     -11.919  50.413  53.442  1.00  0.00     0.238 A 
ATOM      4  O   UNL     1     -11.414  51.452  52.943  1.00  0.00    -0.285 OA
ATOM      5  C   UNL     1     -11.199  49.606  54.354  1.00  0.00     0.111 A 
ATOM      6  C   UNL     1      -9.899  49.914  54.858  1.00  0.00     0.134 A 
ATOM      7  C   UNL     1      -9.227  48.979  55.653  1.00  0.00     0.093 A 
ATOM      8  C   UNL     1      -9.832  47.777  56.017  1.00  0.00     0.123 A 
ATOM      9  C   UNL     1     -11.125  47.490  55.580  1.00  0.00     0.094 A 
ATOM     10  C   UNL     1     -11.808  48.388  54.755  1.00  0.00     0.146 A 
ATOM     11  O   UNL     1     -13.032  48.073  54.351  1.00  0.00    -0.452 OA
ENDROOT
BRANCH   1  12
ATOM     12  C   UNL     1     -15.124  48.389  53.194  1.00  0.00     0.021 A 
ATOM     13  C   UNL     1     -16.234  49.124  53.642  1.00  0.00     0.016 A 
ATOM     14  C   UNL     1     -17.531  48.727  53.299  1.00  0.00     0.047 A 
ATOM     15  C   UNL     1     -17.733  47.602  52.495  1.00  0.00     0.115 A 
ATOM     16  C   UNL     1     -15.333  47.269  52.369  1.00  0.00     0.016 A 
ATOM     17  C   UNL     1     -16.630  46.875  52.028  1.00  0.00     0.047 A 
BRANCH  15  18
ATOM     18  O   UNL     1     -19.030  47.217  52.164  1.00  0.00    -0.508 OA
ATOM     19  H   UNL     1     -19.745  47.900  51.945  1.00  0.00     0.293 HD
ENDBRANCH  15  18
ENDBRANCH   1  12
BRANCH   2  20
ATOM     20  O   UNL     1     -13.932  50.804  52.126  1.00  0.00    -0.502 OA
ATOM     21  H   UNL     1     -14.262  50.432  51.243  1.00  0.00     0.293 HD
ENDBRANCH   2  20
BRANCH   6  22
ATOM     22  O   UNL     1      -9.242  51.127  54.630  1.00  0.00    -0.507 OA
ATOM     23  H   UNL     1      -9.534  51.822  53.961  1.00  0.00     0.293 HD
ENDBRANCH   6  22
BRANCH   8  24
ATOM     24  O   UNL     1      -9.139  46.876  56.824  1.00  0.00    -0.508 OA
ATOM     25  H   UNL     1      -9.258  46.865  57.830  1.00  0.00     0.293 HD
ENDBRANCH   8  24
TORSDOF 5
ENDMDL
MODEL 6
REMARK VINA RESULT:    -5.617     19.347     21.894
REMARK INTER + INTRA:          -6.898
REMARK INTER:                  -7.433
REMARK INTRA:                   0.535
REMARK UNBOUND:                -0.296
REMARK SMILES O=c1c(O)c(-c2ccc(O)cc2)oc2cc(O)cc(O)c12
REMARK SMILES IDX 5 1 3 2 2 3 1 4 21 5 19 6 18 7 16 8 15 9 14 10 13 11 6 12
REMARK SMILES IDX 7 13 8 14 9 15 12 16 11 17 10 18 4 20 20 22 17 24
REMARK H PARENT 10 19 4 21 20 23 17 25
REMARK Flexibility Score: inf
ROOT
ATOM      1  C   UNL     1     -14.128  61.982  39.105  1.00  0.00     0.180 A 
ATOM      2  C   UNL     1     -13.608  60.725  39.462  1.00  0.00     0.208 A 
ATOM      3  C   UNL     1     -12.239  60.614  39.756  1.00  0.00     0.238 A 
ATOM      4  O   UNL     1     -11.791  59.498  40.127  1.00  0.00    -0.285 OA
ATOM      5  C   UNL     1     -11.406  61.754  39.674  1.00  0.00     0.111 A 
ATOM      6  C   UNL     1      -9.998  61.749  39.911  1.00  0.00     0.134 A 
ATOM      7  C   UNL     1      -9.296  62.959  39.930  1.00  0.00     0.093 A 
ATOM      8  C   UNL     1      -9.936  64.167  39.656  1.00  0.00     0.123 A 
ATOM      9  C   UNL     1     -11.300  64.179  39.363  1.00  0.00     0.094 A 
ATOM     10  C   UNL     1     -12.035  62.991  39.373  1.00  0.00     0.146 A 
ATOM     11  O   UNL     1     -13.333  63.045  39.101  1.00  0.00    -0.452 OA
ENDROOT
BRANCH   1  12
ATOM     12  C   UNL     1     -15.555  62.175  38.757  1.00  0.00     0.021 A 
ATOM     13  C   UNL     1     -16.481  61.161  39.055  1.00  0.00     0.016 A 
ATOM     14  C   UNL     1     -17.837  61.332  38.756  1.00  0.00     0.047 A 
ATOM     15  C   UNL     1     -18.284  62.519  38.170  1.00  0.00     0.115 A 
ATOM     16  C   UNL     1     -16.014  63.375  38.185  1.00  0.00     0.016 A 
ATOM     17  C   UNL     1     -17.370  63.542  37.888  1.00  0.00     0.047 A 
BRANCH  15  18
ATOM     18  O   UNL     1     -19.637  62.674  37.875  1.00  0.00    -0.508 OA
ATOM     19  H   UNL     1     -20.133  62.005  37.298  1.00  0.00     0.293 HD
ENDBRANCH  15  18
ENDBRANCH   1  12
BRANCH   2  20
ATOM     20  O   UNL     1     -14.453  59.617  39.559  1.00  0.00    -0.502 OA
ATOM     21  H   UNL     1     -14.219  58.717  39.156  1.00  0.00     0.293 HD
ENDBRANCH   2  20
BRANCH   6  22
ATOM     22  O   UNL     1      -9.245  60.587  40.104  1.00  0.00    -0.507 OA
ATOM     23  H   UNL     1      -8.382  60.375  39.627  1.00  0.00     0.293 HD
ENDBRANCH   6  22
BRANCH   8  24
ATOM     24  O   UNL     1      -9.202  65.352  39.667  1.00  0.00    -0.508 OA
ATOM     25  H   UNL     1      -9.595  66.222  39.326  1.00  0.00     0.293 HD
ENDBRANCH   8  24
TORSDOF 5
ENDMDL
MODEL 7
REMARK VINA RESULT:    -5.396     18.069     20.602
REMARK INTER + INTRA:          -6.638
REMARK INTER:                  -7.083
REMARK INTRA:                   0.445
REMARK UNBOUND:                -0.296
REMARK SMILES O=c1c(O)c(-c2ccc(O)cc2)oc2cc(O)cc(O)c12
REMARK SMILES IDX 5 1 3 2 2 3 1 4 21 5 19 6 18 7 16 8 15 9 14 10 13 11 6 12
REMARK SMILES IDX 7 13 8 14 9 15 12 16 11 17 10 18 4 20 20 22 17 24
REMARK H PARENT 10 19 4 21 20 23 17 25
REMARK Flexibility Score: inf
ROOT
ATOM      1  C   UNL     1      -9.878  63.216  40.038  1.00  0.00     0.180 A 
ATOM      2  C   UNL     1      -9.873  62.806  41.383  1.00  0.00     0.208 A 
ATOM      3  C   UNL     1     -10.805  61.843  41.804  1.00  0.00     0.238 A 
ATOM      4  O   UNL     1     -10.760  61.440  42.996  1.00  0.00    -0.285 OA
ATOM      5  C   UNL     1     -11.739  61.316  40.881  1.00  0.00     0.111 A 
ATOM      6  C   UNL     1     -12.753  60.366  41.208  1.00  0.00     0.134 A 
ATOM      7  C   UNL     1     -13.538  59.815  40.188  1.00  0.00     0.093 A 
ATOM      8  C   UNL     1     -13.390  60.227  38.864  1.00  0.00     0.123 A 
ATOM      9  C   UNL     1     -12.443  61.199  38.541  1.00  0.00     0.094 A 
ATOM     10  C   UNL     1     -11.620  61.741  39.532  1.00  0.00     0.146 A 
ATOM     11  O   UNL     1     -10.723  62.654  39.183  1.00  0.00    -0.452 OA
ENDROOT
BRANCH   1  12
ATOM     12  C   UNL     1      -8.943  64.245  39.525  1.00  0.00     0.021 A 
ATOM     13  C   UNL     1      -7.723  64.462  40.187  1.00  0.00     0.016 A 
ATOM     14  C   UNL     1      -6.816  65.412  39.706  1.00  0.00     0.047 A 
ATOM     15  C   UNL     1      -7.110  66.144  38.552  1.00  0.00     0.115 A 
ATOM     16  C   UNL     1      -9.225  64.971  38.353  1.00  0.00     0.016 A 
ATOM     17  C   UNL     1      -8.315  65.919  37.875  1.00  0.00     0.047 A 
BRANCH  15  18
ATOM     18  O   UNL     1      -6.199  67.088  38.086  1.00  0.00    -0.508 OA
ATOM     19  H   UNL     1      -5.295  67.214  38.526  1.00  0.00     0.293 HD
ENDBRANCH  15  18
ENDBRANCH   1  12
BRANCH   2  20
ATOM     20  O   UNL     1      -8.927  63.323  42.272  1.00  0.00    -0.502 OA
ATOM     21  H   UNL     1      -8.009  62.911  42.391  1.00  0.00     0.293 HD
ENDBRANCH   2  20
BRANCH   6  22
ATOM     22  O   UNL     1     -13.046  59.955  42.511  1.00  0.00    -0.507 OA
ATOM     23  H   UNL     1     -12.360  59.805  43.235  1.00  0.00     0.293 HD
ENDBRANCH   6  22
BRANCH   8  24
ATOM     24  O   UNL     1     -14.200  59.670  37.876  1.00  0.00    -0.508 OA
ATOM     25  H   UNL     1     -15.148  59.992  37.724  1.00  0.00     0.293 HD
ENDBRANCH   8  24
TORSDOF 5
ENDMDL
MODEL 8
REMARK VINA RESULT:    -5.180      4.158      6.829
REMARK INTER + INTRA:          -6.384
REMARK INTER:                  -6.089
REMARK INTRA:                  -0.295
REMARK UNBOUND:                -0.296
REMARK SMILES O=c1c(O)c(-c2ccc(O)cc2)oc2cc(O)cc(O)c12
REMARK SMILES IDX 5 1 3 2 2 3 1 4 21 5 19 6 18 7 16 8 15 9 14 10 13 11 6 12
REMARK SMILES IDX 7 13 8 14 9 15 12 16 11 17 10 18 4 20 20 22 17 24
REMARK H PARENT 10 19 4 21 20 23 17 25
REMARK Flexibility Score: inf
ROOT
ATOM      1  C   UNL     1     -14.755  48.606  53.581  1.00  0.00     0.180 A 
ATOM      2  C   UNL     1     -15.114  47.818  52.474  1.00  0.00     0.208 A 
ATOM      3  C   UNL     1     -16.473  47.561  52.233  1.00  0.00     0.238 A 
ATOM      4  O   UNL     1     -16.791  46.900  51.210  1.00  0.00    -0.285 OA
ATOM      5  C   UNL     1     -17.455  48.080  53.110  1.00  0.00     0.111 A 
ATOM      6  C   UNL     1     -18.858  47.849  52.986  1.00  0.00     0.134 A 
ATOM      7  C   UNL     1     -19.746  48.519  53.834  1.00  0.00     0.093 A 
ATOM      8  C   UNL     1     -19.281  49.361  54.843  1.00  0.00     0.123 A 
ATOM      9  C   UNL     1     -17.910  49.548  55.014  1.00  0.00     0.094 A 
ATOM     10  C   UNL     1     -16.999  48.921  54.160  1.00  0.00     0.146 A 
ATOM     11  O   UNL     1     -15.702  49.133  54.347  1.00  0.00    -0.452 OA
ENDROOT
BRANCH   1  12
ATOM     12  C   UNL     1     -13.342  48.900  53.915  1.00  0.00     0.021 A 
ATOM     13  C   UNL     1     -12.777  50.122  53.511  1.00  0.00     0.016 A 
ATOM     14  C   UNL     1     -11.451  50.429  53.836  1.00  0.00     0.047 A 
ATOM     15  C   UNL     1     -10.681  49.529  54.578  1.00  0.00     0.115 A 
ATOM     16  C   UNL     1     -12.568  48.007  54.678  1.00  0.00     0.016 A 
ATOM     17  C   UNL     1     -11.244  48.318  55.000  1.00  0.00     0.047 A 
BRANCH  15  18
ATOM     18  O   UNL     1      -9.362  49.848  54.891  1.00  0.00    -0.508 OA
ATOM     19  H   UNL     1      -8.675  49.128  55.083  1.00  0.00     0.293 HD
ENDBRANCH  15  18
ENDBRANCH   1  12
BRANCH   2  20
ATOM     20  O   UNL     1     -14.130  47.334  51.608  1.00  0.00    -0.502 OA
ATOM     21  H   UNL     1     -13.223  47.020  51.935  1.00  0.00     0.293 HD
ENDBRANCH   2  20
BRANCH   6  22
ATOM     22  O   UNL     1     -19.422  46.956  52.070  1.00  0.00    -0.507 OA
ATOM     23  H   UNL     1     -20.262  46.421  52.231  1.00  0.00     0.293 HD
ENDBRANCH   6  22
BRANCH   8  24
ATOM     24  O   UNL     1     -20.194  50.000  55.680  1.00  0.00    -0.508 OA
ATOM     25  H   UNL     1     -20.136  49.919  56.689  1.00  0.00     0.293 HD
ENDBRANCH   8  24
TORSDOF 5
ENDMDL
