MODEL 1
REMARK VINA RESULT:    -4.012      0.000      0.000
REMARK INTER + INTRA:          -6.704
REMARK INTER:                  -6.123
REMARK INTRA:                  -0.581
REMARK UNBOUND:                -0.581
REMARK SMILES O=C([O-])CCCCCCCCC(=O)[O-]
REMARK SMILES IDX 7 1 6 2 5 3 4 4 2 5 1 6 3 7 8 8 9 9 10 10 11 11 12 12 13 13
REMARK SMILES IDX 14 14
REMARK H PARENT
REMARK Flexibility Score: inf
ROOT
ATOM      1  C   UNL     1     -30.013 -20.807 -33.884  1.00  0.00     0.000 C 
ENDROOT
BRANCH   1   2
ATOM      2  C   UNL     1     -31.401 -21.359 -33.508  1.00  0.00     0.000 C 
BRANCH   2   3
ATOM      3  C   UNL     1     -32.250 -21.848 -34.695  1.00  0.00     0.006 C 
BRANCH   3   4
ATOM      4  C   UNL     1     -31.421 -22.096 -35.962  1.00  0.00     0.053 C 
BRANCH   4   5
ATOM      5  C   UNL     1     -32.172 -22.971 -36.915  1.00  0.00     0.041 C 
ATOM      6  O   UNL     1     -33.039 -23.777 -36.486  1.00  0.00    -0.550 OA
ATOM      7  O   UNL     1     -31.882 -22.932 -38.273  1.00  0.00    -0.550 OA
ENDBRANCH   4   5
ENDBRANCH   3   4
ENDBRANCH   2   3
ENDBRANCH   1   2
BRANCH   1   8
ATOM      8  C   UNL     1     -29.728 -19.431 -33.263  1.00  0.00     0.000 C 
BRANCH   8   9
ATOM      9  C   UNL     1     -28.600 -19.520 -32.228  1.00  0.00     0.000 C 
BRANCH   9  10
ATOM     10  C   UNL     1     -29.071 -19.016 -30.856  1.00  0.00     0.006 C 
BRANCH  10  11
ATOM     11  C   UNL     1     -30.598 -18.878 -30.780  1.00  0.00     0.053 C 
BRANCH  11  12
ATOM     12  C   UNL     1     -31.197 -19.873 -29.833  1.00  0.00     0.041 C 
ATOM     13  O   UNL     1     -30.738 -21.044 -29.770  1.00  0.00    -0.550 OA
ATOM     14  O   UNL     1     -32.281 -19.515 -29.042  1.00  0.00    -0.550 OA
ENDBRANCH  11  12
ENDBRANCH  10  11
ENDBRANCH   9  10
ENDBRANCH   8   9
ENDBRANCH   1   8
TORSDOF 9
ENDMDL
MODEL 2
REMARK VINA RESULT:    -3.993      0.884      6.891
REMARK INTER + INTRA:          -6.675
REMARK INTER:                  -6.206
REMARK INTRA:                  -0.469
REMARK UNBOUND:                -0.581
REMARK SMILES O=C([O-])CCCCCCCCC(=O)[O-]
REMARK SMILES IDX 7 1 6 2 5 3 4 4 2 5 1 6 3 7 8 8 9 9 10 10 11 11 12 12 13 13
REMARK SMILES IDX 14 14
REMARK H PARENT
REMARK Flexibility Score: inf
ROOT
ATOM      1  C   UNL     1     -29.995 -20.851 -33.983  1.00  0.00     0.000 C 
ENDROOT
BRANCH   1   2
ATOM      2  C   UNL     1     -29.301 -19.739 -33.174  1.00  0.00     0.000 C 
BRANCH   2   3
ATOM      3  C   UNL     1     -30.236 -18.902 -32.283  1.00  0.00     0.006 C 
BRANCH   3   4
ATOM      4  C   UNL     1     -29.899 -19.017 -30.790  1.00  0.00     0.053 C 
BRANCH   4   5
ATOM      5  C   UNL     1     -30.929 -19.841 -30.084  1.00  0.00     0.041 C 
ATOM      6  O   UNL     1     -30.826 -21.095 -30.056  1.00  0.00    -0.550 OA
ATOM      7  O   UNL     1     -32.030 -19.228 -29.499  1.00  0.00    -0.550 OA
ENDBRANCH   4   5
ENDBRANCH   3   4
ENDBRANCH   2   3
ENDBRANCH   1   2
BRANCH   1   8
ATOM      8  C   UNL     1     -31.476 -21.024 -33.614  1.00  0.00     0.000 C 
BRANCH   8   9
ATOM      9  C   UNL     1     -32.067 -22.268 -34.286  1.00  0.00     0.000 C 
BRANCH   9  10
ATOM     10  C   UNL     1     -31.812 -22.249 -35.801  1.00  0.00     0.006 C 
BRANCH  10  11
ATOM     11  C   UNL     1     -32.623 -23.322 -36.540  1.00  0.00     0.053 C 
BRANCH  11  12
ATOM     12  C   UNL     1     -31.982 -23.703 -37.839  1.00  0.00     0.041 C 
ATOM     13  O   UNL     1     -31.457 -24.840 -37.978  1.00  0.00    -0.550 OA
ATOM     14  O   UNL     1     -31.937 -22.792 -38.886  1.00  0.00    -0.550 OA
ENDBRANCH  11  12
ENDBRANCH  10  11
ENDBRANCH   9  10
ENDBRANCH   8   9
ENDBRANCH   1   8
TORSDOF 9
ENDMDL
MODEL 3
REMARK VINA RESULT:    -3.988      0.950      1.634
REMARK INTER + INTRA:          -6.668
REMARK INTER:                  -6.178
REMARK INTRA:                  -0.490
REMARK UNBOUND:                -0.581
REMARK SMILES O=C([O-])CCCCCCCCC(=O)[O-]
REMARK SMILES IDX 7 1 6 2 5 3 4 4 2 5 1 6 3 7 8 8 9 9 10 10 11 11 12 12 13 13
REMARK SMILES IDX 14 14
REMARK H PARENT
REMARK Flexibility Score: inf
ROOT
ATOM      1  C   UNL     1     -31.296 -21.314 -33.528  1.00  0.00     0.000 C 
ENDROOT
BRANCH   1   2
ATOM      2  C   UNL     1     -32.187 -21.905 -34.637  1.00  0.00     0.000 C 
BRANCH   2   3
ATOM      3  C   UNL     1     -31.476 -22.154 -35.979  1.00  0.00     0.006 C 
BRANCH   3   4
ATOM      4  C   UNL     1     -31.891 -23.476 -36.640  1.00  0.00     0.053 C 
BRANCH   4   5
ATOM      5  C   UNL     1     -31.896 -23.336 -38.129  1.00  0.00     0.041 C 
ATOM      6  O   UNL     1     -31.855 -24.359 -38.861  1.00  0.00    -0.550 OA
ATOM      7  O   UNL     1     -31.894 -22.074 -38.710  1.00  0.00    -0.550 OA
ENDBRANCH   4   5
ENDBRANCH   3   4
ENDBRANCH   2   3
ENDBRANCH   1   2
BRANCH   1   8
ATOM      8  C   UNL     1     -29.942 -20.813 -34.053  1.00  0.00     0.000 C 
BRANCH   8   9
ATOM      9  C   UNL     1     -29.219 -19.976 -32.991  1.00  0.00     0.000 C 
BRANCH   9  10
ATOM     10  C   UNL     1     -30.172 -18.958 -32.348  1.00  0.00     0.006 C 
BRANCH  10  11
ATOM     11  C   UNL     1     -29.993 -18.875 -30.827  1.00  0.00     0.053 C 
BRANCH  11  12
ATOM     12  C   UNL     1     -31.032 -19.676 -30.103  1.00  0.00     0.041 C 
ATOM     13  O   UNL     1     -32.110 -19.136 -29.740  1.00  0.00    -0.550 OA
ATOM     14  O   UNL     1     -30.797 -21.012 -29.804  1.00  0.00    -0.550 OA
ENDBRANCH  11  12
ENDBRANCH  10  11
ENDBRANCH   9  10
ENDBRANCH   8   9
ENDBRANCH   1   8
TORSDOF 9
ENDMDL
MODEL 4
REMARK VINA RESULT:    -3.923      1.099      1.599
REMARK INTER + INTRA:          -6.568
REMARK INTER:                  -6.078
REMARK INTRA:                  -0.490
REMARK UNBOUND:                -0.581
REMARK SMILES O=C([O-])CCCCCCCCC(=O)[O-]
REMARK SMILES IDX 7 1 6 2 5 3 4 4 2 5 1 6 3 7 8 8 9 9 10 10 11 11 12 12 13 13
REMARK SMILES IDX 14 14
REMARK H PARENT
REMARK Flexibility Score: inf
ROOT
ATOM      1  C   UNL     1     -31.363 -21.560 -33.645  1.00  0.00     0.000 C 
ENDROOT
BRANCH   1   2
ATOM      2  C   UNL     1     -32.264 -21.832 -34.864  1.00  0.00     0.000 C 
BRANCH   2   3
ATOM      3  C   UNL     1     -31.518 -22.239 -36.147  1.00  0.00     0.006 C 
BRANCH   3   4
ATOM      4  C   UNL     1     -31.999 -23.580 -36.719  1.00  0.00     0.053 C 
BRANCH   4   5
ATOM      5  C   UNL     1     -31.915 -23.570 -38.213  1.00  0.00     0.041 C 
ATOM      6  O   UNL     1     -31.862 -22.479 -38.837  1.00  0.00    -0.550 OA
ATOM      7  O   UNL     1     -31.946 -24.766 -38.919  1.00  0.00    -0.550 OA
ENDBRANCH   4   5
ENDBRANCH   3   4
ENDBRANCH   2   3
ENDBRANCH   1   2
BRANCH   1   8
ATOM      8  C   UNL     1     -30.239 -20.558 -33.945  1.00  0.00     0.000 C 
BRANCH   8   9
ATOM      9  C   UNL     1     -29.270 -20.450 -32.761  1.00  0.00     0.000 C 
BRANCH   9  10
ATOM     10  C   UNL     1     -29.360 -19.066 -32.100  1.00  0.00     0.006 C 
BRANCH  10  11
ATOM     11  C   UNL     1     -29.619 -19.159 -30.591  1.00  0.00     0.053 C 
BRANCH  11  12
ATOM     12  C   UNL     1     -30.932 -19.815 -30.295  1.00  0.00     0.041 C 
ATOM     13  O   UNL     1     -30.980 -20.831 -29.552  1.00  0.00    -0.550 OA
ATOM     14  O   UNL     1     -32.100 -19.324 -30.864  1.00  0.00    -0.550 OA
ENDBRANCH  11  12
ENDBRANCH  10  11
ENDBRANCH   9  10
ENDBRANCH   8   9
ENDBRANCH   1   8
TORSDOF 9
ENDMDL
MODEL 5
REMARK VINA RESULT:    -3.651      1.522      6.850
REMARK INTER + INTRA:          -6.153
REMARK INTER:                  -5.665
REMARK INTRA:                  -0.488
REMARK UNBOUND:                -0.581
REMARK SMILES O=C([O-])CCCCCCCCC(=O)[O-]
REMARK SMILES IDX 7 1 6 2 5 3 4 4 2 5 1 6 3 7 8 8 9 9 10 10 11 11 12 12 13 13
REMARK SMILES IDX 14 14
REMARK H PARENT
REMARK Flexibility Score: inf
ROOT
ATOM      1  C   UNL     1     -31.199 -21.412 -33.284  1.00  0.00     0.000 C 
ENDROOT
BRANCH   1   2
ATOM      2  C   UNL     1     -29.873 -20.654 -33.476  1.00  0.00     0.000 C 
BRANCH   2   3
ATOM      3  C   UNL     1     -29.852 -19.224 -32.909  1.00  0.00     0.006 C 
BRANCH   3   4
ATOM      4  C   UNL     1     -31.045 -18.926 -31.992  1.00  0.00     0.053 C 
BRANCH   4   5
ATOM      5  C   UNL     1     -30.659 -19.106 -30.558  1.00  0.00     0.041 C 
ATOM      6  O   UNL     1     -31.538 -19.357 -29.692  1.00  0.00    -0.550 OA
ATOM      7  O   UNL     1     -29.335 -18.947 -30.168  1.00  0.00    -0.550 OA
ENDBRANCH   4   5
ENDBRANCH   3   4
ENDBRANCH   2   3
ENDBRANCH   1   2
BRANCH   1   8
ATOM      8  C   UNL     1     -32.066 -21.432 -34.552  1.00  0.00     0.000 C 
BRANCH   8   9
ATOM      9  C   UNL     1     -31.340 -22.141 -35.702  1.00  0.00     0.000 C 
BRANCH   9  10
ATOM     10  C   UNL     1     -32.266 -23.148 -36.400  1.00  0.00     0.006 C 
BRANCH  10  11
ATOM     11  C   UNL     1     -33.644 -22.551 -36.712  1.00  0.00     0.053 C 
BRANCH  11  12
ATOM     12  C   UNL     1     -33.585 -21.595 -37.864  1.00  0.00     0.041 C 
ATOM     13  O   UNL     1     -33.111 -21.964 -38.971  1.00  0.00    -0.550 OA
ATOM     14  O   UNL     1     -34.025 -20.287 -37.706  1.00  0.00    -0.550 OA
ENDBRANCH  11  12
ENDBRANCH  10  11
ENDBRANCH   9  10
ENDBRANCH   8   9
ENDBRANCH   1   8
TORSDOF 9
ENDMDL
MODEL 6
REMARK VINA RESULT:    -1.811      2.146      7.039
REMARK INTER + INTRA:          -3.345
REMARK INTER:                  -3.545
REMARK INTRA:                   0.200
REMARK UNBOUND:                -0.581
REMARK SMILES O=C([O-])CCCCCCCCC(=O)[O-]
REMARK SMILES IDX 7 1 6 2 5 3 4 4 2 5 1 6 3 7 8 8 9 9 10 10 11 11 12 12 13 13
REMARK SMILES IDX 14 14
REMARK H PARENT
REMARK Flexibility Score: inf
ROOT
ATOM      1  C   UNL     1     -31.566 -20.889 -33.911  1.00  0.00     0.000 C 
ENDROOT
BRANCH   1   2
ATOM      2  C   UNL     1     -31.426 -21.366 -32.453  1.00  0.00     0.000 C 
BRANCH   2   3
ATOM      3  C   UNL     1     -31.227 -20.245 -31.418  1.00  0.00     0.006 C 
BRANCH   3   4
ATOM      4  C   UNL     1     -29.766 -20.092 -30.974  1.00  0.00     0.053 C 
BRANCH   4   5
ATOM      5  C   UNL     1     -29.013 -19.236 -31.943  1.00  0.00     0.041 C 
ATOM      6  O   UNL     1     -29.552 -18.877 -33.022  1.00  0.00    -0.550 OA
ATOM      7  O   UNL     1     -27.699 -18.875 -31.677  1.00  0.00    -0.550 OA
ENDBRANCH   4   5
ENDBRANCH   3   4
ENDBRANCH   2   3
ENDBRANCH   1   2
BRANCH   1   8
ATOM      8  C   UNL     1     -31.754 -22.046 -34.903  1.00  0.00     0.000 C 
BRANCH   8   9
ATOM      9  C   UNL     1     -31.297 -21.641 -36.310  1.00  0.00     0.000 C 
BRANCH   9  10
ATOM     10  C   UNL     1     -31.503 -22.791 -37.308  1.00  0.00     0.006 C 
BRANCH  10  11
ATOM     11  C   UNL     1     -32.444 -23.873 -36.762  1.00  0.00     0.053 C 
BRANCH  11  12
ATOM     12  C   UNL     1     -32.493 -25.069 -37.662  1.00  0.00     0.041 C 
ATOM     13  O   UNL     1     -31.903 -25.050 -38.774  1.00  0.00    -0.550 OA
ATOM     14  O   UNL     1     -33.215 -26.194 -37.285  1.00  0.00    -0.550 OA
ENDBRANCH  11  12
ENDBRANCH  10  11
ENDBRANCH   9  10
ENDBRANCH   8   9
ENDBRANCH   1   8
TORSDOF 9
ENDMDL
MODEL 7
REMARK VINA RESULT:    -1.675      1.685      2.109
REMARK INTER + INTRA:          -3.138
REMARK INTER:                  -3.112
REMARK INTRA:                  -0.025
REMARK UNBOUND:                -0.581
REMARK SMILES O=C([O-])CCCCCCCCC(=O)[O-]
REMARK SMILES IDX 7 1 6 2 5 3 4 4 2 5 1 6 3 7 8 8 9 9 10 10 11 11 12 12 13 13
REMARK SMILES IDX 14 14
REMARK H PARENT
REMARK Flexibility Score: inf
ROOT
ATOM      1  C   UNL     1     -30.492 -20.383 -33.752  1.00  0.00     0.000 C 
ENDROOT
BRANCH   1   2
ATOM      2  C   UNL     1     -31.713 -20.750 -34.615  1.00  0.00     0.000 C 
BRANCH   2   3
ATOM      3  C   UNL     1     -31.572 -22.054 -35.421  1.00  0.00     0.006 C 
BRANCH   3   4
ATOM      4  C   UNL     1     -32.489 -22.100 -36.650  1.00  0.00     0.053 C 
BRANCH   4   5
ATOM      5  C   UNL     1     -32.023 -23.148 -37.610  1.00  0.00     0.041 C 
ATOM      6  O   UNL     1     -32.132 -22.965 -38.851  1.00  0.00    -0.550 OA
ATOM      7  O   UNL     1     -31.513 -24.350 -37.135  1.00  0.00    -0.550 OA
ENDBRANCH   4   5
ENDBRANCH   3   4
ENDBRANCH   2   3
ENDBRANCH   1   2
BRANCH   1   8
ATOM      8  C   UNL     1     -30.759 -20.523 -32.246  1.00  0.00     0.000 C 
BRANCH   8   9
ATOM      9  C   UNL     1     -31.639 -19.377 -31.735  1.00  0.00     0.000 C 
BRANCH   9  10
ATOM     10  C   UNL     1     -31.207 -18.934 -30.330  1.00  0.00     0.006 C 
BRANCH  10  11
ATOM     11  C   UNL     1     -31.872 -19.769 -29.227  1.00  0.00     0.053 C 
BRANCH  11  12
ATOM     12  C   UNL     1     -33.274 -19.314 -28.958  1.00  0.00     0.041 C 
ATOM     13  O   UNL     1     -34.123 -19.294 -29.888  1.00  0.00    -0.550 OA
ATOM     14  O   UNL     1     -33.633 -18.883 -27.688  1.00  0.00    -0.550 OA
ENDBRANCH  11  12
ENDBRANCH  10  11
ENDBRANCH   9  10
ENDBRANCH   8   9
ENDBRANCH   1   8
TORSDOF 9
ENDMDL
