MODEL 1
REMARK VINA RESULT:    -2.468      0.000      0.000
REMARK INTER + INTRA:          -2.468
REMARK INTER:                  -2.468
REMARK INTRA:                   0.000
REMARK UNBOUND:                 0.000
REMARK SMILES CC(=O)[O-]
REMARK SMILES IDX 1 1 2 2 3 3 4 4
REMARK H PARENT
REMARK Flexibility Score: inf
ROOT
ATOM      1  C   UNL     1      -2.860   4.079  31.088  1.00  0.00     0.063 C 
ATOM      2  C   UNL     1      -1.628   3.317  31.437  1.00  0.00     0.038 C 
ATOM      3  O   UNL     1      -0.797   3.014  30.540  1.00  0.00    -0.550 OA
ATOM      4  O   UNL     1      -1.364   2.987  32.760  1.00  0.00    -0.550 OA
ENDROOT
TORSDOF 0
ENDMDL
MODEL 2
REMARK VINA RESULT:    -2.196      1.853      2.072
REMARK INTER + INTRA:          -2.196
REMARK INTER:                  -2.196
REMARK INTRA:                   0.000
REMARK UNBOUND:                 0.000
REMARK SMILES CC(=O)[O-]
REMARK SMILES IDX 1 1 2 2 3 3 4 4
REMARK H PARENT
REMARK Flexibility Score: inf
ROOT
ATOM      1  C   UNL     1      -1.476   3.377  30.866  1.00  0.00     0.063 C 
ATOM      2  C   UNL     1      -2.784   3.791  31.449  1.00  0.00     0.038 C 
ATOM      3  O   UNL     1      -3.781   3.968  30.699  1.00  0.00    -0.550 OA
ATOM      4  O   UNL     1      -2.922   3.930  32.823  1.00  0.00    -0.550 OA
ENDROOT
TORSDOF 0
ENDMDL
MODEL 3
REMARK VINA RESULT:    -2.190     14.684     15.345
REMARK INTER + INTRA:          -2.190
REMARK INTER:                  -2.190
REMARK INTRA:                   0.000
REMARK UNBOUND:                 0.000
REMARK SMILES CC(=O)[O-]
REMARK SMILES IDX 1 1 2 2 3 3 4 4
REMARK H PARENT
REMARK Flexibility Score: inf
ROOT
ATOM      1  C   UNL     1       5.970  -1.674  18.357  1.00  0.00     0.063 C 
ATOM      2  C   UNL     1       5.557  -0.248  18.498  1.00  0.00     0.038 C 
ATOM      3  O   UNL     1       5.843   0.583  17.596  1.00  0.00    -0.550 OA
ATOM      4  O   UNL     1       4.811   0.156  19.597  1.00  0.00    -0.550 OA
ENDROOT
TORSDOF 0
ENDMDL
MODEL 4
REMARK VINA RESULT:    -2.174      2.374      2.676
REMARK INTER + INTRA:          -2.174
REMARK INTER:                  -2.174
REMARK INTRA:                   0.000
REMARK UNBOUND:                 0.000
REMARK SMILES CC(=O)[O-]
REMARK SMILES IDX 1 1 2 2 3 3 4 4
REMARK H PARENT
REMARK Flexibility Score: inf
ROOT
ATOM      1  C   UNL     1      -3.892   5.743  31.474  1.00  0.00     0.063 C 
ATOM      2  C   UNL     1      -3.625   4.333  31.069  1.00  0.00     0.038 C 
ATOM      3  O   UNL     1      -4.580   3.575  30.753  1.00  0.00    -0.550 OA
ATOM      4  O   UNL     1      -2.319   3.868  30.986  1.00  0.00    -0.550 OA
ENDROOT
TORSDOF 0
ENDMDL
MODEL 5
REMARK VINA RESULT:    -2.159     15.181     15.814
REMARK INTER + INTRA:          -2.159
REMARK INTER:                  -2.159
REMARK INTRA:                   0.000
REMARK UNBOUND:                 0.000
REMARK SMILES CC(=O)[O-]
REMARK SMILES IDX 1 1 2 2 3 3 4 4
REMARK H PARENT
REMARK Flexibility Score: inf
ROOT
ATOM      1  C   UNL     1       5.790  -0.673  18.489  1.00  0.00     0.063 C 
ATOM      2  C   UNL     1       5.341   0.552  17.768  1.00  0.00     0.038 C 
ATOM      3  O   UNL     1       4.498   1.323  18.298  1.00  0.00    -0.550 OA
ATOM      4  O   UNL     1       5.890   0.875  16.534  1.00  0.00    -0.550 OA
ENDROOT
TORSDOF 0
ENDMDL
MODEL 6
REMARK VINA RESULT:    -2.146     15.144     15.701
REMARK INTER + INTRA:          -2.146
REMARK INTER:                  -2.146
REMARK INTRA:                   0.000
REMARK UNBOUND:                 0.000
REMARK SMILES CC(=O)[O-]
REMARK SMILES IDX 1 1 2 2 3 3 4 4
REMARK H PARENT
REMARK Flexibility Score: inf
ROOT
ATOM      1  C   UNL     1       5.706  -0.705  18.497  1.00  0.00     0.063 C 
ATOM      2  C   UNL     1       5.357   0.545  17.764  1.00  0.00     0.038 C 
ATOM      3  O   UNL     1       5.881   0.789  16.645  1.00  0.00    -0.550 OA
ATOM      4  O   UNL     1       4.412   1.419  18.287  1.00  0.00    -0.550 OA
ENDROOT
TORSDOF 0
ENDMDL
MODEL 7
REMARK VINA RESULT:    -2.114      3.399      3.725
REMARK INTER + INTRA:          -2.114
REMARK INTER:                  -2.114
REMARK INTRA:                   0.000
REMARK UNBOUND:                 0.000
REMARK SMILES CC(=O)[O-]
REMARK SMILES IDX 1 1 2 2 3 3 4 4
REMARK H PARENT
REMARK Flexibility Score: inf
ROOT
ATOM      1  C   UNL     1      -3.069   4.208  31.208  1.00  0.00     0.063 C 
ATOM      2  C   UNL     1      -4.113   5.270  31.265  1.00  0.00     0.038 C 
ATOM      3  O   UNL     1      -3.789   6.461  31.513  1.00  0.00    -0.550 OA
ATOM      4  O   UNL     1      -5.439   4.960  30.991  1.00  0.00    -0.550 OA
ENDROOT
TORSDOF 0
ENDMDL
MODEL 8
REMARK VINA RESULT:    -2.090     15.015     15.642
REMARK INTER + INTRA:          -2.090
REMARK INTER:                  -2.090
REMARK INTRA:                   0.000
REMARK UNBOUND:                 0.000
REMARK SMILES CC(=O)[O-]
REMARK SMILES IDX 1 1 2 2 3 3 4 4
REMARK H PARENT
REMARK Flexibility Score: inf
ROOT
ATOM      1  C   UNL     1       5.401   0.928  16.616  1.00  0.00     0.063 C 
ATOM      2  C   UNL     1       4.188   1.594  17.169  1.00  0.00     0.038 C 
ATOM      3  O   UNL     1       3.230   1.895  16.408  1.00  0.00    -0.550 OA
ATOM      4  O   UNL     1       4.086   1.836  18.533  1.00  0.00    -0.550 OA
ENDROOT
TORSDOF 0
ENDMDL
MODEL 9
REMARK VINA RESULT:    -2.083     25.633     25.945
REMARK INTER + INTRA:          -2.083
REMARK INTER:                  -2.083
REMARK INTRA:                   0.000
REMARK UNBOUND:                 0.000
REMARK SMILES CC(=O)[O-]
REMARK SMILES IDX 1 1 2 2 3 3 4 4
REMARK H PARENT
REMARK Flexibility Score: inf
ROOT
ATOM      1  C   UNL     1      13.037  17.151  13.432  1.00  0.00     0.063 C 
ATOM      2  C   UNL     1      12.642  17.080  14.867  1.00  0.00     0.038 C 
ATOM      3  O   UNL     1      13.364  16.459  15.691  1.00  0.00    -0.550 OA
ATOM      4  O   UNL     1      11.505  17.743  15.310  1.00  0.00    -0.550 OA
ENDROOT
TORSDOF 0
ENDMDL
