MODEL 1
REMARK VINA RESULT:    -4.865      0.000      0.000
REMARK INTER + INTRA:          -5.343
REMARK INTER:                  -5.150
REMARK INTRA:                  -0.193
REMARK UNBOUND:                -0.193
REMARK SMILES CC1=CC[C@]23[C@H]([C@@H](C(C)C)CC[C@H]2C)[C@@H]13
REMARK SMILES IDX 14 1 13 2 12 3 11 4 7 5 6 6 5 7 15 8 2 9 3 10 4 11 1 12 8 13
REMARK SMILES IDX 9 14 10 15
REMARK H PARENT
REMARK Flexibility Score: inf
ROOT
ATOM      1  C   UNL     1      11.835   6.030  19.668  1.00  0.00     0.008 C 
ATOM      2  C   UNL     1      12.025   5.089  18.466  1.00  0.00    -0.007 C 
ATOM      3  C   UNL     1      13.150   4.067  18.697  1.00  0.00     0.004 C 
ATOM      4  C   UNL     1      14.532   4.646  18.398  1.00  0.00     0.004 C 
ATOM      5  C   UNL     1      14.692   4.995  16.899  1.00  0.00    -0.004 C 
ATOM      6  C   UNL     1      13.467   5.751  16.314  1.00  0.00     0.007 C 
ATOM      7  C   UNL     1      12.164   5.849  17.123  1.00  0.00    -0.013 C 
ATOM      8  C   UNL     1      13.119   7.047  17.044  1.00  0.00     0.025 C 
ATOM      9  C   UNL     1      12.371   8.058  16.246  1.00  0.00    -0.073 C 
ATOM     10  C   UNL     1      11.164   7.640  15.887  1.00  0.00    -0.027 C 
ATOM     11  C   UNL     1      10.890   6.254  16.363  1.00  0.00     0.035 C 
ATOM     12  C   UNL     1      12.927   9.397  15.875  1.00  0.00     0.039 C 
ENDROOT
BRANCH   5  13
ATOM     13  C   UNL     1      16.020   5.772  16.625  1.00  0.00    -0.014 C 
ATOM     14  C   UNL     1      17.187   4.817  16.309  1.00  0.00     0.007 C 
ATOM     15  C   UNL     1      16.417   6.670  17.809  1.00  0.00     0.007 C 
ENDBRANCH   5  13
TORSDOF 1
ENDMDL
MODEL 2
REMARK VINA RESULT:    -4.634      1.430      4.968
REMARK INTER + INTRA:          -5.098
REMARK INTER:                  -4.864
REMARK INTRA:                  -0.234
REMARK UNBOUND:                -0.193
REMARK SMILES CC1=CC[C@]23[C@H]([C@@H](C(C)C)CC[C@H]2C)[C@@H]13
REMARK SMILES IDX 14 1 13 2 12 3 11 4 7 5 6 6 5 7 15 8 2 9 3 10 4 11 1 12 8 13
REMARK SMILES IDX 9 14 10 15
REMARK H PARENT
REMARK Flexibility Score: inf
ROOT
ATOM      1  C   UNL     1      16.943   5.692  18.068  1.00  0.00     0.008 C 
ATOM      2  C   UNL     1      16.126   4.808  17.111  1.00  0.00    -0.007 C 
ATOM      3  C   UNL     1      15.611   5.588  15.891  1.00  0.00     0.004 C 
ATOM      4  C   UNL     1      14.327   6.358  16.193  1.00  0.00     0.004 C 
ATOM      5  C   UNL     1      13.150   5.404  16.507  1.00  0.00    -0.004 C 
ATOM      6  C   UNL     1      13.536   4.261  17.487  1.00  0.00     0.007 C 
ATOM      7  C   UNL     1      15.012   4.008  17.833  1.00  0.00    -0.013 C 
ATOM      8  C   UNL     1      14.098   4.740  18.824  1.00  0.00     0.025 C 
ATOM      9  C   UNL     1      13.958   3.789  19.962  1.00  0.00    -0.073 C 
ATOM     10  C   UNL     1      14.649   2.670  19.786  1.00  0.00    -0.027 C 
ATOM     11  C   UNL     1      15.364   2.658  18.478  1.00  0.00     0.035 C 
ATOM     12  C   UNL     1      13.117   4.060  21.170  1.00  0.00     0.039 C 
ENDROOT
BRANCH   5  13
ATOM     13  C   UNL     1      11.894   6.183  17.014  1.00  0.00    -0.014 C 
ATOM     14  C   UNL     1      10.875   5.248  17.691  1.00  0.00     0.007 C 
ATOM     15  C   UNL     1      11.192   6.946  15.877  1.00  0.00     0.007 C 
ENDBRANCH   5  13
TORSDOF 1
ENDMDL
MODEL 3
REMARK VINA RESULT:    -4.621      1.438      2.897
REMARK INTER + INTRA:          -5.084
REMARK INTER:                  -4.831
REMARK INTRA:                  -0.254
REMARK UNBOUND:                -0.193
REMARK SMILES CC1=CC[C@]23[C@H]([C@@H](C(C)C)CC[C@H]2C)[C@@H]13
REMARK SMILES IDX 14 1 13 2 12 3 11 4 7 5 6 6 5 7 15 8 2 9 3 10 4 11 1 12 8 13
REMARK SMILES IDX 9 14 10 15
REMARK H PARENT
REMARK Flexibility Score: inf
ROOT
ATOM      1  C   UNL     1      14.218   3.503  18.315  1.00  0.00     0.008 C 
ATOM      2  C   UNL     1      13.758   4.157  17.001  1.00  0.00    -0.007 C 
ATOM      3  C   UNL     1      14.933   4.475  16.064  1.00  0.00     0.004 C 
ATOM      4  C   UNL     1      15.622   5.791  16.419  1.00  0.00     0.004 C 
ATOM      5  C   UNL     1      14.682   7.002  16.208  1.00  0.00    -0.004 C 
ATOM      6  C   UNL     1      13.255   6.774  16.778  1.00  0.00     0.007 C 
ATOM      7  C   UNL     1      12.821   5.371  17.230  1.00  0.00    -0.013 C 
ATOM      8  C   UNL     1      13.218   6.430  18.266  1.00  0.00     0.025 C 
ATOM      9  C   UNL     1      11.945   6.746  18.972  1.00  0.00    -0.073 C 
ATOM     10  C   UNL     1      10.919   6.035  18.524  1.00  0.00    -0.027 C 
ATOM     11  C   UNL     1      11.314   5.123  17.414  1.00  0.00     0.035 C 
ATOM     12  C   UNL     1      11.833   7.767  20.060  1.00  0.00     0.039 C 
ENDROOT
BRANCH   5  13
ATOM     13  C   UNL     1      15.308   8.323  16.760  1.00  0.00    -0.014 C 
ATOM     14  C   UNL     1      14.943   9.538  15.887  1.00  0.00     0.007 C 
ATOM     15  C   UNL     1      16.839   8.232  16.873  1.00  0.00     0.007 C 
ENDBRANCH   5  13
TORSDOF 1
ENDMDL
MODEL 4
REMARK VINA RESULT:    -4.509      1.926      4.901
REMARK INTER + INTRA:          -4.966
REMARK INTER:                  -4.695
REMARK INTRA:                  -0.272
REMARK UNBOUND:                -0.193
REMARK SMILES CC1=CC[C@]23[C@H]([C@@H](C(C)C)CC[C@H]2C)[C@@H]13
REMARK SMILES IDX 14 1 13 2 12 3 11 4 7 5 6 6 5 7 15 8 2 9 3 10 4 11 1 12 8 13
REMARK SMILES IDX 9 14 10 15
REMARK H PARENT
REMARK Flexibility Score: inf
ROOT
ATOM      1  C   UNL     1      16.373   3.942  19.861  1.00  0.00     0.008 C 
ATOM      2  C   UNL     1      15.218   3.157  19.217  1.00  0.00    -0.007 C 
ATOM      3  C   UNL     1      15.183   3.319  17.689  1.00  0.00     0.004 C 
ATOM      4  C   UNL     1      14.482   4.605  17.256  1.00  0.00     0.004 C 
ATOM      5  C   UNL     1      12.981   4.592  17.631  1.00  0.00    -0.004 C 
ATOM      6  C   UNL     1      12.719   4.098  19.080  1.00  0.00     0.007 C 
ATOM      7  C   UNL     1      13.850   3.442  19.887  1.00  0.00    -0.013 C 
ATOM      8  C   UNL     1      13.445   4.896  20.160  1.00  0.00     0.025 C 
ATOM      9  C   UNL     1      12.833   4.856  21.517  1.00  0.00    -0.073 C 
ATOM     10  C   UNL     1      12.845   3.642  22.052  1.00  0.00    -0.027 C 
ATOM     11  C   UNL     1      13.452   2.636  21.135  1.00  0.00     0.035 C 
ATOM     12  C   UNL     1      12.251   6.055  22.199  1.00  0.00     0.039 C 
ENDROOT
BRANCH   5  13
ATOM     13  C   UNL     1      12.309   5.979  17.376  1.00  0.00    -0.014 C 
ATOM     14  C   UNL     1      10.879   6.036  17.944  1.00  0.00     0.007 C 
ATOM     15  C   UNL     1      12.266   6.332  15.879  1.00  0.00     0.007 C 
ENDBRANCH   5  13
TORSDOF 1
ENDMDL
MODEL 5
REMARK VINA RESULT:    -4.460      1.814      3.892
REMARK INTER + INTRA:          -4.914
REMARK INTER:                  -4.729
REMARK INTRA:                  -0.185
REMARK UNBOUND:                -0.193
REMARK SMILES CC1=CC[C@]23[C@H]([C@@H](C(C)C)CC[C@H]2C)[C@@H]13
REMARK SMILES IDX 14 1 13 2 12 3 11 4 7 5 6 6 5 7 15 8 2 9 3 10 4 11 1 12 8 13
REMARK SMILES IDX 9 14 10 15
REMARK H PARENT
REMARK Flexibility Score: inf
ROOT
ATOM      1  C   UNL     1      12.546   9.600  18.373  1.00  0.00     0.008 C 
ATOM      2  C   UNL     1      11.418   8.635  18.777  1.00  0.00    -0.007 C 
ATOM      3  C   UNL     1      11.283   8.500  20.302  1.00  0.00     0.004 C 
ATOM      4  C   UNL     1      12.278   7.500  20.887  1.00  0.00     0.004 C 
ATOM      5  C   UNL     1      11.999   6.061  20.393  1.00  0.00    -0.004 C 
ATOM      6  C   UNL     1      11.735   5.981  18.864  1.00  0.00     0.007 C 
ATOM      7  C   UNL     1      11.508   7.268  18.053  1.00  0.00    -0.013 C 
ATOM      8  C   UNL     1      12.860   6.545  17.999  1.00  0.00     0.025 C 
ATOM      9  C   UNL     1      12.936   6.015  16.609  1.00  0.00    -0.073 C 
ATOM     10  C   UNL     1      11.875   6.334  15.879  1.00  0.00    -0.027 C 
ATOM     11  C   UNL     1      10.878   7.121  16.658  1.00  0.00     0.035 C 
ATOM     12  C   UNL     1      14.079   5.198  16.095  1.00  0.00     0.039 C 
ENDROOT
BRANCH   5  13
ATOM     13  C   UNL     1      13.130   5.072  20.823  1.00  0.00    -0.014 C 
ATOM     14  C   UNL     1      13.165   3.818  19.930  1.00  0.00     0.007 C 
ATOM     15  C   UNL     1      12.986   4.635  22.291  1.00  0.00     0.007 C 
ENDBRANCH   5  13
TORSDOF 1
ENDMDL
MODEL 6
REMARK VINA RESULT:    -4.432      1.822      3.151
REMARK INTER + INTRA:          -4.884
REMARK INTER:                  -4.757
REMARK INTRA:                  -0.128
REMARK UNBOUND:                -0.193
REMARK SMILES CC1=CC[C@]23[C@H]([C@@H](C(C)C)CC[C@H]2C)[C@@H]13
REMARK SMILES IDX 14 1 13 2 12 3 11 4 7 5 6 6 5 7 15 8 2 9 3 10 4 11 1 12 8 13
REMARK SMILES IDX 9 14 10 15
REMARK H PARENT
REMARK Flexibility Score: inf
ROOT
ATOM      1  C   UNL     1      12.297   7.884  20.137  1.00  0.00     0.008 C 
ATOM      2  C   UNL     1      11.649   6.490  20.106  1.00  0.00    -0.007 C 
ATOM      3  C   UNL     1      11.953   5.676  21.373  1.00  0.00     0.004 C 
ATOM      4  C   UNL     1      13.316   4.988  21.309  1.00  0.00     0.004 C 
ATOM      5  C   UNL     1      13.361   3.914  20.197  1.00  0.00    -0.004 C 
ATOM      6  C   UNL     1      12.752   4.400  18.853  1.00  0.00     0.007 C 
ATOM      7  C   UNL     1      11.954   5.713  18.800  1.00  0.00    -0.013 C 
ATOM      8  C   UNL     1      13.399   5.662  18.288  1.00  0.00     0.025 C 
ATOM      9  C   UNL     1      13.272   5.851  16.816  1.00  0.00    -0.073 C 
ATOM     10  C   UNL     1      12.015   6.017  16.425  1.00  0.00    -0.027 C 
ATOM     11  C   UNL     1      11.062   5.948  17.569  1.00  0.00     0.035 C 
ATOM     12  C   UNL     1      14.436   5.839  15.875  1.00  0.00     0.039 C 
ENDROOT
BRANCH   5  13
ATOM     13  C   UNL     1      14.805   3.353  19.993  1.00  0.00    -0.014 C 
ATOM     14  C   UNL     1      15.019   2.830  18.560  1.00  0.00     0.007 C 
ATOM     15  C   UNL     1      15.133   2.228  20.989  1.00  0.00     0.007 C 
ENDBRANCH   5  13
TORSDOF 1
ENDMDL
MODEL 7
REMARK VINA RESULT:    -4.310      1.307      3.569
REMARK INTER + INTRA:          -4.755
REMARK INTER:                  -4.482
REMARK INTRA:                  -0.273
REMARK UNBOUND:                -0.193
REMARK SMILES CC1=CC[C@]23[C@H]([C@@H](C(C)C)CC[C@H]2C)[C@@H]13
REMARK SMILES IDX 14 1 13 2 12 3 11 4 7 5 6 6 5 7 15 8 2 9 3 10 4 11 1 12 8 13
REMARK SMILES IDX 9 14 10 15
REMARK H PARENT
REMARK Flexibility Score: inf
ROOT
ATOM      1  C   UNL     1      10.876   6.001  16.642  1.00  0.00     0.008 C 
ATOM      2  C   UNL     1      11.806   7.139  17.097  1.00  0.00    -0.007 C 
ATOM      3  C   UNL     1      12.786   7.569  15.994  1.00  0.00     0.004 C 
ATOM      4  C   UNL     1      14.014   6.663  15.922  1.00  0.00     0.004 C 
ATOM      5  C   UNL     1      14.876   6.768  17.202  1.00  0.00    -0.004 C 
ATOM      6  C   UNL     1      14.037   6.718  18.509  1.00  0.00     0.007 C 
ATOM      7  C   UNL     1      12.506   6.840  18.447  1.00  0.00    -0.013 C 
ATOM      8  C   UNL     1      13.168   5.471  18.652  1.00  0.00     0.025 C 
ATOM      9  C   UNL     1      12.801   5.094  20.046  1.00  0.00    -0.073 C 
ATOM     10  C   UNL     1      12.038   6.002  20.641  1.00  0.00    -0.027 C 
ATOM     11  C   UNL     1      11.771   7.171  19.756  1.00  0.00     0.035 C 
ATOM     12  C   UNL     1      13.257   3.832  20.710  1.00  0.00     0.039 C 
ENDROOT
BRANCH   5  13
ATOM     13  C   UNL     1      16.016   5.699  17.221  1.00  0.00    -0.014 C 
ATOM     14  C   UNL     1      17.381   6.311  16.857  1.00  0.00     0.007 C 
ATOM     15  C   UNL     1      15.724   4.529  16.265  1.00  0.00     0.007 C 
ENDBRANCH   5  13
TORSDOF 1
ENDMDL
MODEL 8
REMARK VINA RESULT:    -3.977      2.000      3.750
REMARK INTER + INTRA:          -4.402
REMARK INTER:                  -4.224
REMARK INTRA:                  -0.179
REMARK UNBOUND:                -0.193
REMARK SMILES CC1=CC[C@]23[C@H]([C@@H](C(C)C)CC[C@H]2C)[C@@H]13
REMARK SMILES IDX 14 1 13 2 12 3 11 4 7 5 6 6 5 7 15 8 2 9 3 10 4 11 1 12 8 13
REMARK SMILES IDX 9 14 10 15
REMARK H PARENT
REMARK Flexibility Score: inf
ROOT
ATOM      1  C   UNL     1      14.812   5.273  20.705  1.00  0.00     0.008 C 
ATOM      2  C   UNL     1      13.399   4.717  20.458  1.00  0.00    -0.007 C 
ATOM      3  C   UNL     1      13.363   3.706  19.300  1.00  0.00     0.004 C 
ATOM      4  C   UNL     1      13.278   4.388  17.936  1.00  0.00     0.004 C 
ATOM      5  C   UNL     1      11.944   5.152  17.761  1.00  0.00    -0.004 C 
ATOM      6  C   UNL     1      11.563   6.005  19.002  1.00  0.00     0.007 C 
ATOM      7  C   UNL     1      12.329   5.830  20.323  1.00  0.00    -0.013 C 
ATOM      8  C   UNL     1      12.618   7.030  19.411  1.00  0.00     0.025 C 
ATOM      9  C   UNL     1      12.118   8.203  20.182  1.00  0.00    -0.073 C 
ATOM     10  C   UNL     1      11.622   7.867  21.366  1.00  0.00    -0.027 C 
ATOM     11  C   UNL     1      11.680   6.396  21.597  1.00  0.00     0.035 C 
ATOM     12  C   UNL     1      12.157   9.608  19.669  1.00  0.00     0.039 C 
ENDROOT
BRANCH   5  13
ATOM     13  C   UNL     1      11.938   6.015  16.458  1.00  0.00    -0.014 C 
ATOM     14  C   UNL     1      13.313   6.652  16.187  1.00  0.00     0.007 C 
ATOM     15  C   UNL     1      10.875   7.126  16.508  1.00  0.00     0.007 C 
ENDBRANCH   5  13
TORSDOF 1
ENDMDL
