MODEL 1
REMARK VINA RESULT:    -3.691      0.000      0.000
REMARK INTER + INTRA:          -5.240
REMARK INTER:                  -5.202
REMARK INTRA:                  -0.038
REMARK UNBOUND:                -0.038
REMARK SMILES CC1=CCC(=C(C)C)C(=O)CC(C)=CCC1
REMARK SMILES IDX 12 1 14 2 13 3 15 4 16 5 2 6 1 7 3 8 11 10 9 11 10 12 5 13
REMARK SMILES IDX 6 14 7 15 8 16 4 17
REMARK H PARENT
REMARK Flexibility Score: 60.00
ROOT
ATOM      1  C   UNL     1     -31.065  18.340  23.077  1.00  0.00    -0.070 C 
ATOM      2  C   UNL     1     -30.944  19.503  23.758  1.00  0.00    -0.027 C 
ATOM      3  C   UNL     1     -32.037  17.311  23.596  1.00  0.00     0.039 C 
ENDROOT
BRANCH   2   4
ATOM      4  C   UNL     1     -30.136  20.692  23.302  1.00  0.00     0.032 C 
BRANCH   4   5
ATOM      5  C   UNL     1     -28.897  20.850  24.191  1.00  0.00     0.034 C 
BRANCH   5   6
ATOM      6  C   UNL     1     -27.623  21.011  23.386  1.00  0.00    -0.077 C 
ATOM      7  C   UNL     1     -27.176  22.403  23.012  1.00  0.00     0.039 C 
ATOM      8  C   UNL     1     -26.897  19.967  22.914  1.00  0.00    -0.023 CG0
ATOM      9  G   UNL     1     -27.110  18.491  23.200  1.00  0.00     0.000 G0
ENDBRANCH   5   6
ENDBRANCH   4   5
ENDBRANCH   2   4
BRANCH   1  10
ATOM     10  C   UNL     1     -30.260  18.015  21.834  1.00  0.00     0.111 C 
BRANCH  10  11
ATOM     11  C   UNL     1     -29.052  17.167  22.149  1.00  0.00     0.163 C 
ATOM     12  O   UNL     1     -29.265  15.989  22.544  1.00  0.00    -0.294 OA
BRANCH  11  13
ATOM     13  C   UNL     1     -27.638  17.657  22.041  1.00  0.00    -0.002 C 
ATOM     14  C   UNL     1     -26.834  17.237  21.016  1.00  0.00    -0.069 C 
ATOM     15  C   UNL     1     -27.398  16.508  19.816  1.00  0.00     0.039 C 
ATOM     16  C   UNL     1     -25.348  17.518  20.996  1.00  0.00     0.039 C 
BRANCH  13  17
ATOM     17  C   UNL     1     -27.079  18.482  23.194  1.00  0.00     0.066 CG0
ATOM     18  G   UNL     1     -26.897  19.968  22.939  1.00  0.00     0.000 G0
ENDBRANCH  13  17
ENDBRANCH  11  13
ENDBRANCH  10  11
ENDBRANCH   1  10
TORSDOF 0
ENDMDL
MODEL 2
REMARK VINA RESULT:    -3.523      3.504      6.123
REMARK INTER + INTRA:          -5.003
REMARK INTER:                  -4.831
REMARK INTRA:                  -0.172
REMARK UNBOUND:                -0.038
REMARK SMILES CC1=CCC(=C(C)C)C(=O)CC(C)=CCC1
REMARK SMILES IDX 12 1 14 2 13 3 15 4 16 5 2 6 1 7 3 8 11 10 9 11 10 12 5 13
REMARK SMILES IDX 6 14 7 15 8 16 4 17
REMARK H PARENT
REMARK Flexibility Score: 60.00
ROOT
ATOM      1  C   UNL     1     -29.291  21.171  23.674  1.00  0.00    -0.070 C 
ATOM      2  C   UNL     1     -30.164  20.365  23.025  1.00  0.00    -0.027 C 
ATOM      3  C   UNL     1     -28.096  21.684  22.911  1.00  0.00     0.039 C 
ENDROOT
BRANCH   2   4
ATOM      4  C   UNL     1     -31.479  19.886  23.585  1.00  0.00     0.032 C 
BRANCH   4   5
ATOM      5  C   UNL     1     -31.353  18.425  24.034  1.00  0.00     0.034 C 
BRANCH   5   6
ATOM      6  C   UNL     1     -32.034  18.166  25.362  1.00  0.00    -0.077 C 
ATOM      7  C   UNL     1     -33.520  17.906  25.372  1.00  0.00     0.039 C 
ATOM      8  C   UNL     1     -31.397  18.227  26.557  1.00  0.00    -0.023 CG0
ATOM      9  G   UNL     1     -29.910  18.415  26.801  1.00  0.00     0.000 G0
ENDBRANCH   5   6
ENDBRANCH   4   5
ENDBRANCH   2   4
BRANCH   1  10
ATOM     10  C   UNL     1     -29.448  21.568  25.128  1.00  0.00     0.111 C 
BRANCH  10  11
ATOM     11  C   UNL     1     -28.743  20.606  26.054  1.00  0.00     0.163 C 
ATOM     12  O   UNL     1     -27.506  20.441  25.876  1.00  0.00    -0.294 OA
BRANCH  11  13
ATOM     13  C   UNL     1     -29.435  19.836  27.139  1.00  0.00    -0.002 C 
ATOM     14  C   UNL     1     -29.501  20.335  28.412  1.00  0.00    -0.069 C 
ATOM     15  C   UNL     1     -29.147  21.773  28.717  1.00  0.00     0.039 C 
ATOM     16  C   UNL     1     -29.980  19.498  29.577  1.00  0.00     0.039 C 
BRANCH  13  17
ATOM     17  C   UNL     1     -29.894  18.417  26.824  1.00  0.00     0.066 CG0
ATOM     18  G   UNL     1     -31.377  18.229  26.555  1.00  0.00     0.000 G0
ENDBRANCH  13  17
ENDBRANCH  11  13
ENDBRANCH  10  11
ENDBRANCH   1  10
TORSDOF 0
ENDMDL
MODEL 3
REMARK VINA RESULT:    -3.503      3.471      5.814
REMARK INTER + INTRA:          -4.975
REMARK INTER:                  -5.089
REMARK INTRA:                   0.114
REMARK UNBOUND:                -0.038
REMARK SMILES CC1=CCC(=C(C)C)C(=O)CC(C)=CCC1
REMARK SMILES IDX 12 1 14 2 13 3 15 4 16 5 2 6 1 7 3 8 11 10 9 11 10 12 5 13
REMARK SMILES IDX 6 14 7 15 8 16 4 17
REMARK H PARENT
REMARK Flexibility Score: 60.00
ROOT
ATOM      1  C   UNL     1     -32.672  15.999  23.509  1.00  0.00    -0.070 C 
ATOM      2  C   UNL     1     -31.513  16.371  22.917  1.00  0.00    -0.027 C 
ATOM      3  C   UNL     1     -32.910  14.529  23.743  1.00  0.00     0.039 C 
ENDROOT
BRANCH   2   4
ATOM      4  C   UNL     1     -31.050  17.795  22.743  1.00  0.00     0.032 C 
BRANCH   4   5
ATOM      5  C   UNL     1     -29.894  18.088  23.708  1.00  0.00     0.034 C 
BRANCH   5   6
ATOM      6  C   UNL     1     -30.277  19.084  24.783  1.00  0.00    -0.077 C 
ATOM      7  C   UNL     1     -30.010  20.549  24.538  1.00  0.00     0.039 C 
ATOM      8  C   UNL     1     -30.781  18.729  25.991  1.00  0.00    -0.023 CG0
ATOM      9  G   UNL     1     -31.186  17.339  26.449  1.00  0.00     0.000 G0
ENDBRANCH   5   6
ENDBRANCH   4   5
ENDBRANCH   2   4
BRANCH   1  10
ATOM     10  C   UNL     1     -33.745  16.983  23.930  1.00  0.00     0.111 C 
BRANCH  10  11
ATOM     11  C   UNL     1     -33.449  17.599  25.277  1.00  0.00     0.163 C 
ATOM     12  O   UNL     1     -33.909  18.753  25.493  1.00  0.00    -0.294 OA
BRANCH  11  13
ATOM     13  C   UNL     1     -32.631  16.926  26.339  1.00  0.00    -0.002 C 
ATOM     14  C   UNL     1     -33.226  16.105  27.258  1.00  0.00    -0.069 C 
ATOM     15  C   UNL     1     -34.647  15.617  27.080  1.00  0.00     0.039 C 
ATOM     16  C   UNL     1     -32.487  15.595  28.475  1.00  0.00     0.039 C 
BRANCH  13  17
ATOM     17  C   UNL     1     -31.167  17.328  26.472  1.00  0.00     0.066 CG0
ATOM     18  G   UNL     1     -30.799  18.717  25.982  1.00  0.00     0.000 G0
ENDBRANCH  13  17
ENDBRANCH  11  13
ENDBRANCH  10  11
ENDBRANCH   1  10
TORSDOF 0
ENDMDL
MODEL 4
REMARK VINA RESULT:    -3.451      3.411      5.709
REMARK INTER + INTRA:          -4.902
REMARK INTER:                  -4.875
REMARK INTRA:                  -0.027
REMARK UNBOUND:                -0.038
REMARK SMILES CC1=CCC(=C(C)C)C(=O)CC(C)=CCC1
REMARK SMILES IDX 12 1 14 2 13 3 15 4 16 5 2 6 1 7 3 8 11 10 9 11 10 12 5 13
REMARK SMILES IDX 6 14 7 15 8 16 4 17
REMARK H PARENT
REMARK Flexibility Score: 60.00
ROOT
ATOM      1  C   UNL     1     -30.641  16.886  22.281  1.00  0.00    -0.070 C 
ATOM      2  C   UNL     1     -30.286  18.185  22.141  1.00  0.00    -0.027 C 
ATOM      3  C   UNL     1     -30.761  16.045  21.036  1.00  0.00     0.039 C 
ENDROOT
BRANCH   2   4
ATOM      4  C   UNL     1     -29.978  19.124  23.279  1.00  0.00     0.032 C 
BRANCH   4   5
ATOM      5  C   UNL     1     -31.264  19.816  23.746  1.00  0.00     0.034 C 
BRANCH   5   6
ATOM      6  C   UNL     1     -31.430  19.775  25.252  1.00  0.00    -0.077 C 
ATOM      7  C   UNL     1     -30.500  20.605  26.104  1.00  0.00     0.039 C 
ATOM      8  C   UNL     1     -32.322  18.976  25.887  1.00  0.00    -0.023 CG0
ATOM      9  G   UNL     1     -33.392  18.103  25.255  1.00  0.00     0.000 G0
ENDBRANCH   5   6
ENDBRANCH   4   5
ENDBRANCH   2   4
BRANCH   1  10
ATOM     10  C   UNL     1     -30.940  16.244  23.621  1.00  0.00     0.111 C 
BRANCH  10  11
ATOM     11  C   UNL     1     -32.424  16.139  23.879  1.00  0.00     0.163 C 
ATOM     12  O   UNL     1     -33.131  15.645  22.960  1.00  0.00    -0.294 OA
BRANCH  11  13
ATOM     13  C   UNL     1     -33.086  16.607  25.140  1.00  0.00    -0.002 C 
ATOM     14  C   UNL     1     -33.533  15.704  26.067  1.00  0.00    -0.069 C 
ATOM     15  C   UNL     1     -33.134  14.246  26.005  1.00  0.00     0.039 C 
ATOM     16  C   UNL     1     -34.405  16.115  27.232  1.00  0.00     0.039 C 
BRANCH  13  17
ATOM     17  C   UNL     1     -33.406  18.091  25.269  1.00  0.00     0.066 CG0
ATOM     18  G   UNL     1     -32.321  18.968  25.869  1.00  0.00     0.000 G0
ENDBRANCH  13  17
ENDBRANCH  11  13
ENDBRANCH  10  11
ENDBRANCH   1  10
TORSDOF 0
ENDMDL
MODEL 5
REMARK VINA RESULT:    -3.440      9.398     11.711
REMARK INTER + INTRA:          -4.887
REMARK INTER:                  -5.292
REMARK INTRA:                   0.405
REMARK UNBOUND:                -0.038
REMARK SMILES CC1=CCC(=C(C)C)C(=O)CC(C)=CCC1
REMARK SMILES IDX 12 1 14 2 13 3 15 4 16 5 2 6 1 7 3 8 11 10 9 11 10 12 5 13
REMARK SMILES IDX 6 14 7 15 8 16 4 17
REMARK H PARENT
REMARK Flexibility Score: 60.00
ROOT
ATOM      1  C   UNL     1     -32.561  24.819  30.450  1.00  0.00    -0.070 C 
ATOM      2  C   UNL     1     -32.154  24.044  29.418  1.00  0.00    -0.027 C 
ATOM      3  C   UNL     1     -33.935  25.435  30.377  1.00  0.00     0.039 C 
ENDROOT
BRANCH   2   4
ATOM      4  C   UNL     1     -30.881  23.237  29.392  1.00  0.00     0.032 C 
BRANCH   4   5
ATOM      5  C   UNL     1     -31.195  21.760  29.658  1.00  0.00     0.034 C 
BRANCH   5   6
ATOM      6  C   UNL     1     -30.615  21.272  30.970  1.00  0.00    -0.077 C 
ATOM      7  C   UNL     1     -29.179  20.811  30.998  1.00  0.00     0.039 C 
ATOM      8  C   UNL     1     -31.336  21.155  32.113  1.00  0.00    -0.023 CG0
ATOM      9  G   UNL     1     -32.768  21.602  32.350  1.00  0.00     0.000 G0
ENDBRANCH   5   6
ENDBRANCH   4   5
ENDBRANCH   2   4
BRANCH   1  10
ATOM     10  C   UNL     1     -31.699  25.111  31.662  1.00  0.00     0.111 C 
BRANCH  10  11
ATOM     11  C   UNL     1     -31.769  24.002  32.684  1.00  0.00     0.163 C 
ATOM     12  O   UNL     1     -30.768  23.852  33.437  1.00  0.00    -0.294 OA
BRANCH  11  13
ATOM     13  C   UNL     1     -32.938  23.073  32.829  1.00  0.00    -0.002 C 
ATOM     14  C   UNL     1     -34.059  23.468  33.507  1.00  0.00    -0.069 C 
ATOM     15  C   UNL     1     -34.287  24.915  33.884  1.00  0.00     0.039 C 
ATOM     16  C   UNL     1     -35.158  22.496  33.874  1.00  0.00     0.039 C 
BRANCH  13  17
ATOM     17  C   UNL     1     -32.766  21.633  32.361  1.00  0.00     0.066 CG0
ATOM     18  G   UNL     1     -31.342  21.166  32.118  1.00  0.00     0.000 G0
ENDBRANCH  13  17
ENDBRANCH  11  13
ENDBRANCH  10  11
ENDBRANCH   1  10
TORSDOF 0
ENDMDL
MODEL 6
REMARK VINA RESULT:    -3.403      3.405      5.927
REMARK INTER + INTRA:          -4.834
REMARK INTER:                  -5.060
REMARK INTRA:                   0.226
REMARK UNBOUND:                -0.038
REMARK SMILES CC1=CCC(=C(C)C)C(=O)CC(C)=CCC1
REMARK SMILES IDX 12 1 14 2 13 3 15 4 16 5 2 6 1 7 3 8 11 10 9 11 10 12 5 13
REMARK SMILES IDX 6 14 7 15 8 16 4 17
REMARK H PARENT
REMARK Flexibility Score: 60.00
ROOT
ATOM      1  C   UNL     1     -33.823  17.771  25.028  1.00  0.00    -0.070 C 
ATOM      2  C   UNL     1     -34.253  17.424  26.264  1.00  0.00    -0.027 C 
ATOM      3  C   UNL     1     -33.530  19.225  24.760  1.00  0.00     0.039 C 
ENDROOT
BRANCH   2   4
ATOM      4  C   UNL     1     -34.449  16.009  26.745  1.00  0.00     0.032 C 
BRANCH   4   5
ATOM      5  C   UNL     1     -33.207  15.545  27.516  1.00  0.00     0.034 C 
BRANCH   5   6
ATOM      6  C   UNL     1     -32.334  14.613  26.700  1.00  0.00    -0.077 C 
ATOM      7  C   UNL     1     -32.633  13.134  26.728  1.00  0.00     0.039 C 
ATOM      8  C   UNL     1     -31.249  15.024  25.999  1.00  0.00    -0.023 CG0
ATOM      9  G   UNL     1     -30.781  16.451  25.774  1.00  0.00     0.000 G0
ENDBRANCH   5   6
ENDBRANCH   4   5
ENDBRANCH   2   4
BRANCH   1  10
ATOM     10  C   UNL     1     -33.638  16.775  23.901  1.00  0.00     0.111 C 
BRANCH  10  11
ATOM     11  C   UNL     1     -32.179  16.516  23.610  1.00  0.00     0.163 C 
ATOM     12  O   UNL     1     -31.914  15.765  22.633  1.00  0.00    -0.294 OA
BRANCH  11  13
ATOM     13  C   UNL     1     -31.053  17.080  24.426  1.00  0.00    -0.002 C 
ATOM     14  C   UNL     1     -30.208  18.014  23.892  1.00  0.00    -0.069 C 
ATOM     15  C   UNL     1     -30.529  18.719  22.592  1.00  0.00     0.039 C 
ATOM     16  C   UNL     1     -28.934  18.434  24.589  1.00  0.00     0.039 C 
BRANCH  13  17
ATOM     17  C   UNL     1     -30.775  16.451  25.786  1.00  0.00     0.066 CG0
ATOM     18  G   UNL     1     -31.259  15.026  25.986  1.00  0.00     0.000 G0
ENDBRANCH  13  17
ENDBRANCH  11  13
ENDBRANCH  10  11
ENDBRANCH   1  10
TORSDOF 0
ENDMDL
MODEL 7
REMARK VINA RESULT:    -3.386      2.462      5.426
REMARK INTER + INTRA:          -4.809
REMARK INTER:                  -4.728
REMARK INTRA:                  -0.081
REMARK UNBOUND:                -0.038
REMARK SMILES CC1=CCC(=C(C)C)C(=O)CC(C)=CCC1
REMARK SMILES IDX 12 1 14 2 13 3 15 4 16 5 2 6 1 7 3 8 11 10 9 11 10 12 5 13
REMARK SMILES IDX 6 14 7 15 8 16 4 17
REMARK H PARENT
REMARK Flexibility Score: 60.00
ROOT
ATOM      1  C   UNL     1     -28.436  20.651  23.583  1.00  0.00    -0.070 C 
ATOM      2  C   UNL     1     -27.501  19.754  23.194  1.00  0.00    -0.027 C 
ATOM      3  C   UNL     1     -27.971  21.905  24.279  1.00  0.00     0.039 C 
ENDROOT
BRANCH   2   4
ATOM      4  C   UNL     1     -27.774  18.527  22.361  1.00  0.00     0.032 C 
BRANCH   4   5
ATOM      5  C   UNL     1     -28.013  17.320  23.275  1.00  0.00     0.034 C 
BRANCH   5   6
ATOM      6  C   UNL     1     -29.214  16.500  22.850  1.00  0.00    -0.077 C 
ATOM      7  C   UNL     1     -29.097  15.630  21.622  1.00  0.00     0.039 C 
ATOM      8  C   UNL     1     -30.420  16.558  23.468  1.00  0.00    -0.023 CG0
ATOM      9  G   UNL     1     -30.768  17.308  24.742  1.00  0.00     0.000 G0
ENDBRANCH   5   6
ENDBRANCH   4   5
ENDBRANCH   2   4
BRANCH   1  10
ATOM     10  C   UNL     1     -29.923  20.449  23.371  1.00  0.00     0.111 C 
BRANCH  10  11
ATOM     11  C   UNL     1     -30.598  19.889  24.600  1.00  0.00     0.163 C 
ATOM     12  O   UNL     1     -30.405  20.498  25.687  1.00  0.00    -0.294 OA
BRANCH  11  13
ATOM     13  C   UNL     1     -31.451  18.656  24.594  1.00  0.00    -0.002 C 
ATOM     14  C   UNL     1     -32.816  18.754  24.611  1.00  0.00    -0.069 C 
ATOM     15  C   UNL     1     -33.517  20.070  24.352  1.00  0.00     0.039 C 
ATOM     16  C   UNL     1     -33.704  17.552  24.838  1.00  0.00     0.039 C 
BRANCH  13  17
ATOM     17  C   UNL     1     -30.757  17.308  24.752  1.00  0.00     0.066 CG0
ATOM     18  G   UNL     1     -30.422  16.564  23.471  1.00  0.00     0.000 G0
ENDBRANCH  13  17
ENDBRANCH  11  13
ENDBRANCH  10  11
ENDBRANCH   1  10
TORSDOF 0
ENDMDL
MODEL 8
REMARK VINA RESULT:    -3.331      1.549      4.107
REMARK INTER + INTRA:          -4.733
REMARK INTER:                  -4.682
REMARK INTRA:                  -0.051
REMARK UNBOUND:                -0.038
REMARK SMILES CC1=CCC(=C(C)C)C(=O)CC(C)=CCC1
REMARK SMILES IDX 12 1 14 2 13 3 15 4 16 5 2 6 1 7 3 8 11 10 9 11 10 12 5 13
REMARK SMILES IDX 6 14 7 15 8 16 4 17
REMARK H PARENT
REMARK Flexibility Score: 60.00
ROOT
ATOM      1  C   UNL     1     -27.059  17.778  22.092  1.00  0.00    -0.070 C 
ATOM      2  C   UNL     1     -26.641  19.002  22.490  1.00  0.00    -0.027 C 
ATOM      3  C   UNL     1     -26.402  17.161  20.883  1.00  0.00     0.039 C 
ENDROOT
BRANCH   2   4
ATOM      4  C   UNL     1     -27.081  19.697  23.753  1.00  0.00     0.032 C 
BRANCH   4   5
ATOM      5  C   UNL     1     -27.830  20.988  23.404  1.00  0.00     0.034 C 
BRANCH   5   6
ATOM      6  C   UNL     1     -29.077  21.180  24.243  1.00  0.00    -0.077 C 
ATOM      7  C   UNL     1     -28.995  22.058  25.467  1.00  0.00     0.039 C 
ATOM      8  C   UNL     1     -30.251  20.546  23.999  1.00  0.00    -0.023 CG0
ATOM      9  G   UNL     1     -30.594  19.666  22.810  1.00  0.00     0.000 G0
ENDBRANCH   5   6
ENDBRANCH   4   5
ENDBRANCH   2   4
BRANCH   1  10
ATOM     10  C   UNL     1     -28.163  17.008  22.788  1.00  0.00     0.111 C 
BRANCH  10  11
ATOM     11  C   UNL     1     -29.528  17.367  22.251  1.00  0.00     0.163 C 
ATOM     12  O   UNL     1     -29.796  16.999  21.075  1.00  0.00    -0.294 OA
BRANCH  11  13
ATOM     13  C   UNL     1     -30.550  18.145  23.025  1.00  0.00    -0.002 C 
ATOM     14  C   UNL     1     -31.497  17.498  23.771  1.00  0.00    -0.069 C 
ATOM     15  C   UNL     1     -31.387  16.021  24.079  1.00  0.00     0.039 C 
ATOM     16  C   UNL     1     -32.677  18.225  24.375  1.00  0.00     0.039 C 
BRANCH  13  17
ATOM     17  C   UNL     1     -30.612  19.652  22.808  1.00  0.00     0.066 CG0
ATOM     18  G   UNL     1     -30.237  20.523  23.994  1.00  0.00     0.000 G0
ENDBRANCH  13  17
ENDBRANCH  11  13
ENDBRANCH  10  11
ENDBRANCH   1  10
TORSDOF 0
ENDMDL
MODEL 9
REMARK VINA RESULT:    -3.331      2.348      3.308
REMARK INTER + INTRA:          -4.733
REMARK INTER:                  -4.628
REMARK INTRA:                  -0.105
REMARK UNBOUND:                -0.038
REMARK SMILES CC1=CCC(=C(C)C)C(=O)CC(C)=CCC1
REMARK SMILES IDX 12 1 14 2 13 3 15 4 16 5 2 6 1 7 3 8 11 10 9 11 10 12 5 13
REMARK SMILES IDX 6 14 7 15 8 16 4 17
REMARK H PARENT
REMARK Flexibility Score: 60.00
ROOT
ATOM      1  C   UNL     1     -33.665  17.375  24.976  1.00  0.00    -0.070 C 
ATOM      2  C   UNL     1     -33.349  18.664  25.238  1.00  0.00    -0.027 C 
ATOM      3  C   UNL     1     -34.612  16.671  25.914  1.00  0.00     0.039 C 
ENDROOT
BRANCH   2   4
ATOM      4  C   UNL     1     -32.542  19.558  24.332  1.00  0.00     0.032 C 
BRANCH   4   5
ATOM      5  C   UNL     1     -31.147  19.781  24.928  1.00  0.00     0.034 C 
BRANCH   5   6
ATOM      6  C   UNL     1     -30.062  19.808  23.870  1.00  0.00    -0.077 C 
ATOM      7  C   UNL     1     -29.743  21.120  23.196  1.00  0.00     0.039 C 
ATOM      8  C   UNL     1     -29.407  18.702  23.438  1.00  0.00    -0.023 CG0
ATOM      9  G   UNL     1     -29.511  17.292  23.993  1.00  0.00     0.000 G0
ENDBRANCH   5   6
ENDBRANCH   4   5
ENDBRANCH   2   4
BRANCH   1  10
ATOM     10  C   UNL     1     -33.101  16.602  23.800  1.00  0.00     0.111 C 
BRANCH  10  11
ATOM     11  C   UNL     1     -31.744  16.017  24.108  1.00  0.00     0.163 C 
ATOM     12  O   UNL     1     -31.670  15.224  25.085  1.00  0.00    -0.294 OA
BRANCH  11  13
ATOM     13  C   UNL     1     -30.500  16.345  23.336  1.00  0.00    -0.002 C 
ATOM     14  C   UNL     1     -30.213  15.690  22.169  1.00  0.00    -0.069 C 
ATOM     15  C   UNL     1     -31.246  14.836  21.467  1.00  0.00     0.039 C 
ATOM     16  C   UNL     1     -28.871  15.820  21.486  1.00  0.00     0.039 C 
BRANCH  13  17
ATOM     17  C   UNL     1     -29.489  17.285  23.981  1.00  0.00     0.066 CG0
ATOM     18  G   UNL     1     -29.417  18.693  23.415  1.00  0.00     0.000 G0
ENDBRANCH  13  17
ENDBRANCH  11  13
ENDBRANCH  10  11
ENDBRANCH   1  10
TORSDOF 0
ENDMDL
