MODEL 1
REMARK VINA RESULT:    -2.784      0.000      0.000
REMARK INTER + INTRA:          -5.895
REMARK INTER:                  -4.737
REMARK INTRA:                  -1.158
REMARK UNBOUND:                -1.158
REMARK SMILES CCCCCCCCCCCCCC(=O)[O-]
REMARK SMILES IDX 8 1 9 2 10 3 11 4 12 5 13 6 14 7 15 8 16 9 7 10 6 11 5 12
REMARK SMILES IDX 4 13 3 14 2 15 1 16
REMARK H PARENT
REMARK Flexibility Score: inf
ROOT
ATOM      1  C   UNL     1       2.871   9.013   4.886  1.00  0.00     0.000 C 
ENDROOT
BRANCH   1   2
ATOM      2  C   UNL     1       3.060   9.727   3.538  1.00  0.00     0.000 C 
BRANCH   2   3
ATOM      3  C   UNL     1       3.982   8.949   2.583  1.00  0.00     0.000 C 
BRANCH   3   4
ATOM      4  C   UNL     1       5.389   8.739   3.164  1.00  0.00     0.000 C 
BRANCH   4   5
ATOM      5  C   UNL     1       6.041   7.429   2.684  1.00  0.00     0.006 C 
BRANCH   5   6
ATOM      6  C   UNL     1       5.951   6.318   3.738  1.00  0.00     0.053 C 
BRANCH   6   7
ATOM      7  C   UNL     1       4.909   5.301   3.387  1.00  0.00     0.041 C 
ATOM      8  O   UNL     1       3.686   5.591   3.474  1.00  0.00    -0.550 OA
ATOM      9  O   UNL     1       5.287   4.021   3.000  1.00  0.00    -0.550 OA
ENDBRANCH   6   7
ENDBRANCH   5   6
ENDBRANCH   4   5
ENDBRANCH   3   4
ENDBRANCH   2   3
ENDBRANCH   1   2
BRANCH   1  10
ATOM     10  C   UNL     1       1.505   9.313   5.527  1.00  0.00     0.000 C 
BRANCH  10  11
ATOM     11  C   UNL     1       0.457   9.785   4.502  1.00  0.00    -0.000 C 
BRANCH  11  12
ATOM     12  C   UNL     1      -0.618   8.742   4.138  1.00  0.00    -0.000 C 
BRANCH  12  13
ATOM     13  C   UNL     1      -0.174   7.670   3.122  1.00  0.00    -0.000 C 
BRANCH  13  14
ATOM     14  C   UNL     1       0.163   6.298   3.732  1.00  0.00    -0.000 C 
BRANCH  14  15
ATOM     15  C   UNL     1      -0.988   5.290   3.602  1.00  0.00    -0.003 C 
ATOM     16  C   UNL     1      -0.847   4.160   4.618  1.00  0.00     0.004 C 
ENDBRANCH  14  15
ENDBRANCH  13  14
ENDBRANCH  12  13
ENDBRANCH  11  12
ENDBRANCH  10  11
ENDBRANCH   1  10
TORSDOF 12
ENDMDL
MODEL 2
REMARK VINA RESULT:    -2.469      3.255      4.060
REMARK INTER + INTRA:          -5.360
REMARK INTER:                  -4.536
REMARK INTRA:                  -0.824
REMARK UNBOUND:                -1.158
REMARK SMILES CCCCCCCCCCCCCC(=O)[O-]
REMARK SMILES IDX 8 1 9 2 10 3 11 4 12 5 13 6 14 7 15 8 16 9 7 10 6 11 5 12
REMARK SMILES IDX 4 13 3 14 2 15 1 16
REMARK H PARENT
REMARK Flexibility Score: inf
ROOT
ATOM      1  C   UNL     1       4.152   6.432   3.276  1.00  0.00     0.000 C 
ENDROOT
BRANCH   1   2
ATOM      2  C   UNL     1       5.340   6.577   2.311  1.00  0.00     0.000 C 
BRANCH   2   3
ATOM      3  C   UNL     1       6.449   7.485   2.873  1.00  0.00     0.000 C 
BRANCH   3   4
ATOM      4  C   UNL     1       6.686   8.731   2.005  1.00  0.00     0.000 C 
BRANCH   4   5
ATOM      5  C   UNL     1       8.163   9.166   1.980  1.00  0.00     0.006 C 
BRANCH   5   6
ATOM      6  C   UNL     1       9.120   7.970   2.053  1.00  0.00     0.053 C 
BRANCH   6   7
ATOM      7  C   UNL     1      10.521   8.397   2.365  1.00  0.00     0.041 C 
ATOM      8  O   UNL     1      11.448   7.545   2.415  1.00  0.00    -0.550 OA
ATOM      9  O   UNL     1      10.798   9.732   2.638  1.00  0.00    -0.550 OA
ENDBRANCH   6   7
ENDBRANCH   5   6
ENDBRANCH   4   5
ENDBRANCH   3   4
ENDBRANCH   2   3
ENDBRANCH   1   2
BRANCH   1  10
ATOM     10  C   UNL     1       3.506   7.785   3.623  1.00  0.00     0.000 C 
BRANCH  10  11
ATOM     11  C   UNL     1       2.702   8.379   2.453  1.00  0.00    -0.000 C 
BRANCH  11  12
ATOM     12  C   UNL     1       1.170   8.320   2.614  1.00  0.00    -0.000 C 
BRANCH  12  13
ATOM     13  C   UNL     1       0.674   7.697   3.935  1.00  0.00    -0.000 C 
BRANCH  13  14
ATOM     14  C   UNL     1      -0.244   6.473   3.771  1.00  0.00    -0.000 C 
BRANCH  14  15
ATOM     15  C   UNL     1       0.313   5.216   4.452  1.00  0.00    -0.003 C 
ATOM     16  C   UNL     1      -0.764   4.144   4.592  1.00  0.00     0.004 C 
ENDBRANCH  14  15
ENDBRANCH  13  14
ENDBRANCH  12  13
ENDBRANCH  11  12
ENDBRANCH  10  11
ENDBRANCH   1  10
TORSDOF 12
ENDMDL
MODEL 3
REMARK VINA RESULT:    -2.374      2.489      4.280
REMARK INTER + INTRA:          -5.197
REMARK INTER:                  -3.458
REMARK INTRA:                  -1.739
REMARK UNBOUND:                -1.158
REMARK SMILES CCCCCCCCCCCCCC(=O)[O-]
REMARK SMILES IDX 8 1 9 2 10 3 11 4 12 5 13 6 14 7 15 8 16 9 7 10 6 11 5 12
REMARK SMILES IDX 4 13 3 14 2 15 1 16
REMARK H PARENT
REMARK Flexibility Score: inf
ROOT
ATOM      1  C   UNL     1       1.943   6.394   2.199  1.00  0.00     0.000 C 
ENDROOT
BRANCH   1   2
ATOM      2  C   UNL     1       3.474   6.454   2.081  1.00  0.00     0.000 C 
BRANCH   2   3
ATOM      3  C   UNL     1       4.184   5.831   3.296  1.00  0.00     0.000 C 
BRANCH   3   4
ATOM      4  C   UNL     1       5.671   6.212   3.369  1.00  0.00     0.000 C 
BRANCH   4   5
ATOM      5  C   UNL     1       6.221   6.721   2.024  1.00  0.00     0.006 C 
BRANCH   5   6
ATOM      6  C   UNL     1       7.744   6.909   2.055  1.00  0.00     0.053 C 
BRANCH   6   7
ATOM      7  C   UNL     1       8.123   8.355   2.144  1.00  0.00     0.041 C 
ATOM      8  O   UNL     1       7.231   9.243   2.196  1.00  0.00    -0.550 OA
ATOM      9  O   UNL     1       9.462   8.726   2.133  1.00  0.00    -0.550 OA
ENDBRANCH   6   7
ENDBRANCH   5   6
ENDBRANCH   4   5
ENDBRANCH   3   4
ENDBRANCH   2   3
ENDBRANCH   1   2
BRANCH   1  10
ATOM     10  C   UNL     1       1.471   6.183   3.649  1.00  0.00     0.000 C 
BRANCH  10  11
ATOM     11  C   UNL     1       0.558   7.317   4.149  1.00  0.00    -0.000 C 
BRANCH  11  12
ATOM     12  C   UNL     1       0.658   8.635   3.357  1.00  0.00    -0.000 C 
BRANCH  12  13
ATOM     13  C   UNL     1       1.581   9.704   3.977  1.00  0.00    -0.000 C 
BRANCH  13  14
ATOM     14  C   UNL     1       2.721   9.150   4.850  1.00  0.00    -0.000 C 
BRANCH  14  15
ATOM     15  C   UNL     1       4.113   9.504   4.306  1.00  0.00    -0.003 C 
ATOM     16  C   UNL     1       4.019  10.103   2.906  1.00  0.00     0.004 C 
ENDBRANCH  14  15
ENDBRANCH  13  14
ENDBRANCH  12  13
ENDBRANCH  11  12
ENDBRANCH  10  11
ENDBRANCH   1  10
TORSDOF 12
ENDMDL
MODEL 4
REMARK VINA RESULT:    -2.183      2.118      5.527
REMARK INTER + INTRA:          -4.872
REMARK INTER:                  -3.835
REMARK INTRA:                  -1.037
REMARK UNBOUND:                -1.158
REMARK SMILES CCCCCCCCCCCCCC(=O)[O-]
REMARK SMILES IDX 8 1 9 2 10 3 11 4 12 5 13 6 14 7 15 8 16 9 7 10 6 11 5 12
REMARK SMILES IDX 4 13 3 14 2 15 1 16
REMARK H PARENT
REMARK Flexibility Score: inf
ROOT
ATOM      1  C   UNL     1       3.889   8.909   2.487  1.00  0.00     0.000 C 
ENDROOT
BRANCH   1   2
ATOM      2  C   UNL     1       2.752   9.561   3.290  1.00  0.00     0.000 C 
BRANCH   2   3
ATOM      3  C   UNL     1       2.283   8.686   4.466  1.00  0.00     0.000 C 
BRANCH   3   4
ATOM      4  C   UNL     1       0.761   8.466   4.467  1.00  0.00     0.000 C 
BRANCH   4   5
ATOM      5  C   UNL     1       0.279   7.638   3.263  1.00  0.00     0.006 C 
BRANCH   5   6
ATOM      6  C   UNL     1      -0.919   6.747   3.616  1.00  0.00     0.053 C 
BRANCH   6   7
ATOM      7  C   UNL     1      -0.690   5.322   3.215  1.00  0.00     0.041 C 
ATOM      8  O   UNL     1      -0.633   4.418   4.090  1.00  0.00    -0.550 OA
ATOM      9  O   UNL     1      -0.501   4.997   1.876  1.00  0.00    -0.550 OA
ENDBRANCH   6   7
ENDBRANCH   5   6
ENDBRANCH   4   5
ENDBRANCH   3   4
ENDBRANCH   2   3
ENDBRANCH   1   2
BRANCH   1  10
ATOM     10  C   UNL     1       5.278   9.226   3.069  1.00  0.00     0.000 C 
BRANCH  10  11
ATOM     11  C   UNL     1       6.376   9.283   1.992  1.00  0.00    -0.000 C 
BRANCH  11  12
ATOM     12  C   UNL     1       7.244   8.015   1.876  1.00  0.00    -0.000 C 
BRANCH  12  13
ATOM     13  C   UNL     1       6.884   6.881   2.857  1.00  0.00    -0.000 C 
BRANCH  13  14
ATOM     14  C   UNL     1       6.117   5.702   2.233  1.00  0.00    -0.000 C 
BRANCH  14  15
ATOM     15  C   UNL     1       5.305   4.907   3.265  1.00  0.00    -0.003 C 
ATOM     16  C   UNL     1       3.912   5.502   3.444  1.00  0.00     0.004 C 
ENDBRANCH  14  15
ENDBRANCH  13  14
ENDBRANCH  12  13
ENDBRANCH  11  12
ENDBRANCH  10  11
ENDBRANCH   1  10
TORSDOF 12
ENDMDL
MODEL 5
REMARK VINA RESULT:    -2.165      2.151      3.758
REMARK INTER + INTRA:          -4.842
REMARK INTER:                  -3.505
REMARK INTRA:                  -1.338
REMARK UNBOUND:                -1.158
REMARK SMILES CCCCCCCCCCCCCC(=O)[O-]
REMARK SMILES IDX 8 1 9 2 10 3 11 4 12 5 13 6 14 7 15 8 16 9 7 10 6 11 5 12
REMARK SMILES IDX 4 13 3 14 2 15 1 16
REMARK H PARENT
REMARK Flexibility Score: inf
ROOT
ATOM      1  C   UNL     1       2.763   6.519   3.376  1.00  0.00     0.000 C 
ENDROOT
BRANCH   1   2
ATOM      2  C   UNL     1       3.923   5.996   2.513  1.00  0.00     0.000 C 
BRANCH   2   3
ATOM      3  C   UNL     1       5.153   5.607   3.353  1.00  0.00     0.000 C 
BRANCH   3   4
ATOM      4  C   UNL     1       6.371   6.498   3.061  1.00  0.00     0.000 C 
BRANCH   4   5
ATOM      5  C   UNL     1       6.112   7.507   1.928  1.00  0.00     0.006 C 
BRANCH   5   6
ATOM      6  C   UNL     1       6.208   8.959   2.414  1.00  0.00     0.053 C 
BRANCH   6   7
ATOM      7  C   UNL     1       4.875   9.490   2.843  1.00  0.00     0.041 C 
ATOM      8  O   UNL     1       4.636   9.694   4.063  1.00  0.00    -0.550 OA
ATOM      9  O   UNL     1       3.881   9.725   1.899  1.00  0.00    -0.550 OA
ENDBRANCH   6   7
ENDBRANCH   5   6
ENDBRANCH   4   5
ENDBRANCH   3   4
ENDBRANCH   2   3
ENDBRANCH   1   2
BRANCH   1  10
ATOM     10  C   UNL     1       1.399   6.382   2.676  1.00  0.00     0.000 C 
BRANCH  10  11
ATOM     11  C   UNL     1       0.216   6.432   3.660  1.00  0.00    -0.000 C 
BRANCH  11  12
ATOM     12  C   UNL     1      -0.732   7.635   3.482  1.00  0.00    -0.000 C 
BRANCH  12  13
ATOM     13  C   UNL     1      -0.145   8.821   2.691  1.00  0.00    -0.000 C 
BRANCH  13  14
ATOM     14  C   UNL     1       0.627   9.848   3.537  1.00  0.00    -0.000 C 
BRANCH  14  15
ATOM     15  C   UNL     1       0.365   9.696   5.042  1.00  0.00    -0.003 C 
ATOM     16  C   UNL     1       1.629   9.261   5.778  1.00  0.00     0.004 C 
ENDBRANCH  14  15
ENDBRANCH  13  14
ENDBRANCH  12  13
ENDBRANCH  11  12
ENDBRANCH  10  11
ENDBRANCH   1  10
TORSDOF 12
ENDMDL
MODEL 6
REMARK VINA RESULT:    -2.015      2.332      4.171
REMARK INTER + INTRA:          -4.587
REMARK INTER:                  -3.252
REMARK INTRA:                  -1.335
REMARK UNBOUND:                -1.158
REMARK SMILES CCCCCCCCCCCCCC(=O)[O-]
REMARK SMILES IDX 8 1 9 2 10 3 11 4 12 5 13 6 14 7 15 8 16 9 7 10 6 11 5 12
REMARK SMILES IDX 4 13 3 14 2 15 1 16
REMARK H PARENT
REMARK Flexibility Score: inf
ROOT
ATOM      1  C   UNL     1       5.282   5.237   3.298  1.00  0.00     0.000 C 
ENDROOT
BRANCH   1   2
ATOM      2  C   UNL     1       5.780   5.549   1.877  1.00  0.00     0.000 C 
BRANCH   2   3
ATOM      3  C   UNL     1       7.029   6.448   1.875  1.00  0.00     0.000 C 
BRANCH   3   4
ATOM      4  C   UNL     1       6.820   7.748   2.668  1.00  0.00     0.000 C 
BRANCH   4   5
ATOM      5  C   UNL     1       5.977   8.784   1.902  1.00  0.00     0.006 C 
BRANCH   5   6
ATOM      6  C   UNL     1       5.555   9.959   2.792  1.00  0.00     0.053 C 
BRANCH   6   7
ATOM      7  C   UNL     1       4.129   9.837   3.235  1.00  0.00     0.041 C 
ATOM      8  O   UNL     1       3.858   9.588   4.440  1.00  0.00    -0.550 OA
ATOM      9  O   UNL     1       3.099   9.960   2.310  1.00  0.00    -0.550 OA
ENDBRANCH   6   7
ENDBRANCH   5   6
ENDBRANCH   4   5
ENDBRANCH   3   4
ENDBRANCH   2   3
ENDBRANCH   1   2
BRANCH   1  10
ATOM     10  C   UNL     1       3.818   5.659   3.515  1.00  0.00     0.000 C 
BRANCH  10  11
ATOM     11  C   UNL     1       3.237   6.433   2.317  1.00  0.00    -0.000 C 
BRANCH  11  12
ATOM     12  C   UNL     1       1.704   6.598   2.327  1.00  0.00    -0.000 C 
BRANCH  12  13
ATOM     13  C   UNL     1       1.093   6.966   3.695  1.00  0.00    -0.000 C 
BRANCH  13  14
ATOM     14  C   UNL     1      -0.266   7.683   3.626  1.00  0.00    -0.000 C 
BRANCH  14  15
ATOM     15  C   UNL     1      -0.130   9.212   3.574  1.00  0.00    -0.003 C 
ATOM     16  C   UNL     1       0.364   9.765   4.907  1.00  0.00     0.004 C 
ENDBRANCH  14  15
ENDBRANCH  13  14
ENDBRANCH  12  13
ENDBRANCH  11  12
ENDBRANCH  10  11
ENDBRANCH   1  10
TORSDOF 12
ENDMDL
MODEL 7
REMARK VINA RESULT:    -1.087     19.716     22.403
REMARK INTER + INTRA:          -3.008
REMARK INTER:                  -2.819
REMARK INTRA:                  -0.189
REMARK UNBOUND:                -1.158
REMARK SMILES CCCCCCCCCCCCCC(=O)[O-]
REMARK SMILES IDX 8 1 9 2 10 3 11 4 12 5 13 6 14 7 15 8 16 9 7 10 6 11 5 12
REMARK SMILES IDX 4 13 3 14 2 15 1 16
REMARK H PARENT
REMARK Flexibility Score: inf
ROOT
ATOM      1  C   UNL     1      15.881  -9.931  10.777  1.00  0.00     0.000 C 
ENDROOT
BRANCH   1   2
ATOM      2  C   UNL     1      17.413  -9.884  10.655  1.00  0.00     0.000 C 
BRANCH   2   3
ATOM      3  C   UNL     1      18.030  -8.705  11.428  1.00  0.00     0.000 C 
BRANCH   3   4
ATOM      4  C   UNL     1      18.791  -9.157  12.685  1.00  0.00     0.000 C 
BRANCH   4   5
ATOM      5  C   UNL     1      17.964 -10.108  13.570  1.00  0.00     0.006 C 
BRANCH   5   6
ATOM      6  C   UNL     1      16.645  -9.472  14.027  1.00  0.00     0.053 C 
BRANCH   6   7
ATOM      7  C   UNL     1      16.408  -9.676  15.492  1.00  0.00     0.041 C 
ATOM      8  O   UNL     1      17.334 -10.103  16.231  1.00  0.00    -0.550 OA
ATOM      9  O   UNL     1      15.153  -9.428  16.035  1.00  0.00    -0.550 OA
ENDBRANCH   6   7
ENDBRANCH   5   6
ENDBRANCH   4   5
ENDBRANCH   3   4
ENDBRANCH   2   3
ENDBRANCH   1   2
BRANCH   1  10
ATOM     10  C   UNL     1      15.187 -10.116   9.416  1.00  0.00     0.000 C 
BRANCH  10  11
ATOM     11  C   UNL     1      13.652 -10.125   9.527  1.00  0.00    -0.000 C 
BRANCH  11  12
ATOM     12  C   UNL     1      12.958  -8.813   9.108  1.00  0.00    -0.000 C 
BRANCH  12  13
ATOM     13  C   UNL     1      11.432  -8.780   9.325  1.00  0.00    -0.000 C 
BRANCH  13  14
ATOM     14  C   UNL     1      10.881  -7.444   9.855  1.00  0.00    -0.000 C 
BRANCH  14  15
ATOM     15  C   UNL     1       9.477  -7.579  10.461  1.00  0.00    -0.003 C 
ATOM     16  C   UNL     1       9.247  -6.534  11.550  1.00  0.00     0.004 C 
ENDBRANCH  14  15
ENDBRANCH  13  14
ENDBRANCH  12  13
ENDBRANCH  11  12
ENDBRANCH  10  11
ENDBRANCH   1  10
TORSDOF 12
ENDMDL
MODEL 8
REMARK VINA RESULT:    -0.459      2.020      3.659
REMARK INTER + INTRA:          -1.939
REMARK INTER:                  -0.785
REMARK INTRA:                  -1.153
REMARK UNBOUND:                -1.158
REMARK SMILES CCCCCCCCCCCCCC(=O)[O-]
REMARK SMILES IDX 8 1 9 2 10 3 11 4 12 5 13 6 14 7 15 8 16 9 7 10 6 11 5 12
REMARK SMILES IDX 4 13 3 14 2 15 1 16
REMARK H PARENT
REMARK Flexibility Score: inf
ROOT
ATOM      1  C   UNL     1       1.959   6.650   4.641  1.00  0.00     0.000 C 
ENDROOT
BRANCH   1   2
ATOM      2  C   UNL     1       2.595   5.669   3.643  1.00  0.00     0.000 C 
BRANCH   2   3
ATOM      3  C   UNL     1       2.902   6.325   2.285  1.00  0.00     0.000 C 
BRANCH   3   4
ATOM      4  C   UNL     1       4.381   6.188   1.886  1.00  0.00     0.000 C 
BRANCH   4   5
ATOM      5  C   UNL     1       5.180   5.303   2.860  1.00  0.00     0.006 C 
BRANCH   5   6
ATOM      6  C   UNL     1       6.194   6.113   3.679  1.00  0.00     0.053 C 
BRANCH   6   7
ATOM      7  C   UNL     1       6.705   7.296   2.917  1.00  0.00     0.041 C 
ATOM      8  O   UNL     1       7.746   7.196   2.214  1.00  0.00    -0.550 OA
ATOM      9  O   UNL     1       6.054   8.521   3.012  1.00  0.00    -0.550 OA
ENDBRANCH   6   7
ENDBRANCH   5   6
ENDBRANCH   4   5
ENDBRANCH   3   4
ENDBRANCH   2   3
ENDBRANCH   1   2
BRANCH   1  10
ATOM     10  C   UNL     1       0.468   6.359   4.885  1.00  0.00     0.000 C 
BRANCH  10  11
ATOM     11  C   UNL     1      -0.456   7.136   3.929  1.00  0.00    -0.000 C 
BRANCH  11  12
ATOM     12  C   UNL     1      -0.341   8.671   4.014  1.00  0.00    -0.000 C 
BRANCH  12  13
ATOM     13  C   UNL     1      -0.194   9.393   2.659  1.00  0.00    -0.000 C 
BRANCH  13  14
ATOM     14  C   UNL     1       1.085   9.047   1.875  1.00  0.00    -0.000 C 
BRANCH  14  15
ATOM     15  C   UNL     1       2.170  10.125   2.003  1.00  0.00    -0.003 C 
ATOM     16  C   UNL     1       2.871  10.042   3.355  1.00  0.00     0.004 C 
ENDBRANCH  14  15
ENDBRANCH  13  14
ENDBRANCH  12  13
ENDBRANCH  11  12
ENDBRANCH  10  11
ENDBRANCH   1  10
TORSDOF 12
ENDMDL
