MODEL 1
REMARK VINA RESULT:    -3.662      0.000      0.000
REMARK INTER + INTRA:          -4.604
REMARK INTER:                  -4.518
REMARK INTRA:                  -0.086
REMARK UNBOUND:                -0.086
REMARK SMILES CCCCCC(=O)[O-]
REMARK SMILES IDX 4 1 5 2 6 3 7 4 8 5 3 6 2 7 1 8
REMARK H PARENT
REMARK Flexibility Score: inf
ROOT
ATOM      1  C   UNL     1       5.436  -5.516   2.256  1.00  0.00     0.006 C 
ENDROOT
BRANCH   1   2
ATOM      2  C   UNL     1       6.308  -6.025   1.101  1.00  0.00     0.053 C 
BRANCH   2   3
ATOM      3  C   UNL     1       7.267  -7.083   1.554  1.00  0.00     0.041 C 
ATOM      4  O   UNL     1       7.422  -8.132   0.875  1.00  0.00    -0.550 OA
ATOM      5  O   UNL     1       8.015  -6.894   2.710  1.00  0.00    -0.550 OA
ENDBRANCH   2   3
ENDBRANCH   1   2
BRANCH   1   6
ATOM      6  C   UNL     1       4.835  -4.133   1.966  1.00  0.00     0.000 C 
BRANCH   6   7
ATOM      7  C   UNL     1       4.240  -3.515   3.237  1.00  0.00    -0.003 C 
ATOM      8  C   UNL     1       5.044  -3.914   4.471  1.00  0.00     0.004 C 
ENDBRANCH   6   7
ENDBRANCH   1   6
TORSDOF 4
ENDMDL
MODEL 2
REMARK VINA RESULT:    -3.608      2.996      3.846
REMARK INTER + INTRA:          -4.538
REMARK INTER:                  -4.318
REMARK INTRA:                  -0.220
REMARK UNBOUND:                -0.086
REMARK SMILES CCCCCC(=O)[O-]
REMARK SMILES IDX 4 1 5 2 6 3 7 4 8 5 3 6 2 7 1 8
REMARK H PARENT
REMARK Flexibility Score: inf
ROOT
ATOM      1  C   UNL     1       5.057  -5.006   1.562  1.00  0.00     0.006 C 
ENDROOT
BRANCH   1   2
ATOM      2  C   UNL     1       5.428  -5.409   2.995  1.00  0.00     0.053 C 
BRANCH   2   3
ATOM      3  C   UNL     1       5.030  -4.360   3.987  1.00  0.00     0.041 C 
ATOM      4  O   UNL     1       4.386  -3.345   3.613  1.00  0.00    -0.550 OA
ATOM      5  O   UNL     1       5.342  -4.520   5.332  1.00  0.00    -0.550 OA
ENDBRANCH   2   3
ENDBRANCH   1   2
BRANCH   1   6
ATOM      6  C   UNL     1       3.984  -5.926   0.958  1.00  0.00     0.000 C 
BRANCH   6   7
ATOM      7  C   UNL     1       2.577  -5.425   1.300  1.00  0.00    -0.003 C 
ATOM      8  C   UNL     1       2.391  -3.971   0.877  1.00  0.00     0.004 C 
ENDBRANCH   6   7
ENDBRANCH   1   6
TORSDOF 4
ENDMDL
MODEL 3
REMARK VINA RESULT:    -3.600     16.616     17.435
REMARK INTER + INTRA:          -4.528
REMARK INTER:                  -4.344
REMARK INTRA:                  -0.183
REMARK UNBOUND:                -0.086
REMARK SMILES CCCCCC(=O)[O-]
REMARK SMILES IDX 4 1 5 2 6 3 7 4 8 5 3 6 2 7 1 8
REMARK H PARENT
REMARK Flexibility Score: inf
ROOT
ATOM      1  C   UNL     1      11.414 -15.253  14.363  1.00  0.00     0.006 C 
ENDROOT
BRANCH   1   2
ATOM      2  C   UNL     1      12.045 -16.614  14.046  1.00  0.00     0.053 C 
BRANCH   2   3
ATOM      3  C   UNL     1      13.373 -16.781  14.720  1.00  0.00     0.041 C 
ATOM      4  O   UNL     1      13.617 -17.817  15.393  1.00  0.00    -0.550 OA
ATOM      5  O   UNL     1      14.352 -15.806  14.577  1.00  0.00    -0.550 OA
ENDBRANCH   2   3
ENDBRANCH   1   2
BRANCH   1   6
ATOM      6  C   UNL     1      11.124 -15.081  15.862  1.00  0.00     0.000 C 
BRANCH   6   7
ATOM      7  C   UNL     1      11.863 -13.863  16.428  1.00  0.00    -0.003 C 
ATOM      8  C   UNL     1      11.422 -12.578  15.731  1.00  0.00     0.004 C 
ENDBRANCH   6   7
ENDBRANCH   1   6
TORSDOF 4
ENDMDL
MODEL 4
REMARK VINA RESULT:    -3.597     17.317     18.256
REMARK INTER + INTRA:          -4.524
REMARK INTER:                  -4.283
REMARK INTRA:                  -0.241
REMARK UNBOUND:                -0.086
REMARK SMILES CCCCCC(=O)[O-]
REMARK SMILES IDX 4 1 5 2 6 3 7 4 8 5 3 6 2 7 1 8
REMARK H PARENT
REMARK Flexibility Score: inf
ROOT
ATOM      1  C   UNL     1      13.480 -15.101  15.463  1.00  0.00     0.006 C 
ENDROOT
BRANCH   1   2
ATOM      2  C   UNL     1      13.911 -16.365  16.217  1.00  0.00     0.053 C 
BRANCH   2   3
ATOM      3  C   UNL     1      14.263 -17.478  15.279  1.00  0.00     0.041 C 
ATOM      4  O   UNL     1      13.360 -18.215  14.801  1.00  0.00    -0.550 OA
ATOM      5  O   UNL     1      15.587 -17.682  14.907  1.00  0.00    -0.550 OA
ENDBRANCH   2   3
ENDBRANCH   1   2
BRANCH   1   6
ATOM      6  C   UNL     1      12.061 -14.651  15.844  1.00  0.00     0.000 C 
BRANCH   6   7
ATOM      7  C   UNL     1      11.005 -15.520  15.152  1.00  0.00    -0.003 C 
ATOM      8  C   UNL     1      11.185 -15.503  13.636  1.00  0.00     0.004 C 
ENDBRANCH   6   7
ENDBRANCH   1   6
TORSDOF 4
ENDMDL
MODEL 5
REMARK VINA RESULT:    -3.571     17.360     18.203
REMARK INTER + INTRA:          -4.491
REMARK INTER:                  -4.270
REMARK INTRA:                  -0.221
REMARK UNBOUND:                -0.086
REMARK SMILES CCCCCC(=O)[O-]
REMARK SMILES IDX 4 1 5 2 6 3 7 4 8 5 3 6 2 7 1 8
REMARK H PARENT
REMARK Flexibility Score: inf
ROOT
ATOM      1  C   UNL     1      12.722 -16.534  13.673  1.00  0.00     0.006 C 
ENDROOT
BRANCH   1   2
ATOM      2  C   UNL     1      13.307 -17.734  14.429  1.00  0.00     0.053 C 
BRANCH   2   3
ATOM      3  C   UNL     1      14.525 -17.354  15.215  1.00  0.00     0.041 C 
ATOM      4  O   UNL     1      14.408 -16.740  16.308  1.00  0.00    -0.550 OA
ATOM      5  O   UNL     1      15.787 -17.709  14.754  1.00  0.00    -0.550 OA
ENDBRANCH   2   3
ENDBRANCH   1   2
BRANCH   1   6
ATOM      6  C   UNL     1      11.377 -16.077  14.259  1.00  0.00     0.000 C 
BRANCH   6   7
ATOM      7  C   UNL     1      11.504 -14.698  14.917  1.00  0.00    -0.003 C 
ATOM      8  C   UNL     1      11.475 -14.809  16.439  1.00  0.00     0.004 C 
ENDBRANCH   6   7
ENDBRANCH   1   6
TORSDOF 4
ENDMDL
MODEL 6
REMARK VINA RESULT:    -3.554     17.140     18.440
REMARK INTER + INTRA:          -4.471
REMARK INTER:                  -4.266
REMARK INTRA:                  -0.204
REMARK UNBOUND:                -0.086
REMARK SMILES CCCCCC(=O)[O-]
REMARK SMILES IDX 4 1 5 2 6 3 7 4 8 5 3 6 2 7 1 8
REMARK H PARENT
REMARK Flexibility Score: inf
ROOT
ATOM      1  C   UNL     1      13.056 -16.984  13.741  1.00  0.00     0.006 C 
ENDROOT
BRANCH   1   2
ATOM      2  C   UNL     1      11.742 -16.249  14.037  1.00  0.00     0.053 C 
BRANCH   2   3
ATOM      3  C   UNL     1      11.894 -15.271  15.161  1.00  0.00     0.041 C 
ATOM      4  O   UNL     1      10.995 -15.166  16.037  1.00  0.00    -0.550 OA
ATOM      5  O   UNL     1      13.045 -14.499  15.260  1.00  0.00    -0.550 OA
ENDBRANCH   2   3
ENDBRANCH   1   2
BRANCH   1   6
ATOM      6  C   UNL     1      13.402 -18.017  14.824  1.00  0.00     0.000 C 
BRANCH   6   7
ATOM      7  C   UNL     1      14.769 -17.719  15.450  1.00  0.00    -0.003 C 
ATOM      8  C   UNL     1      15.823 -17.460  14.376  1.00  0.00     0.004 C 
ENDBRANCH   6   7
ENDBRANCH   1   6
TORSDOF 4
ENDMDL
MODEL 7
REMARK VINA RESULT:    -3.544     16.891     18.051
REMARK INTER + INTRA:          -4.459
REMARK INTER:                  -4.262
REMARK INTRA:                  -0.197
REMARK UNBOUND:                -0.086
REMARK SMILES CCCCCC(=O)[O-]
REMARK SMILES IDX 4 1 5 2 6 3 7 4 8 5 3 6 2 7 1 8
REMARK H PARENT
REMARK Flexibility Score: inf
ROOT
ATOM      1  C   UNL     1      11.421 -15.211  14.371  1.00  0.00     0.006 C 
ENDROOT
BRANCH   1   2
ATOM      2  C   UNL     1      11.081 -15.118  15.864  1.00  0.00     0.053 C 
BRANCH   2   3
ATOM      3  C   UNL     1      12.094 -14.310  16.614  1.00  0.00     0.041 C 
ATOM      4  O   UNL     1      12.831 -13.491  16.004  1.00  0.00    -0.550 OA
ATOM      5  O   UNL     1      12.202 -14.438  17.994  1.00  0.00    -0.550 OA
ENDBRANCH   2   3
ENDBRANCH   1   2
BRANCH   1   6
ATOM      6  C   UNL     1      11.836 -16.630  13.955  1.00  0.00     0.000 C 
BRANCH   6   7
ATOM      7  C   UNL     1      13.351 -16.820  14.087  1.00  0.00    -0.003 C 
ATOM      8  C   UNL     1      13.688 -17.816  15.192  1.00  0.00     0.004 C 
ENDBRANCH   6   7
ENDBRANCH   1   6
TORSDOF 4
ENDMDL
MODEL 8
REMARK VINA RESULT:    -3.510     15.874     16.675
REMARK INTER + INTRA:          -4.417
REMARK INTER:                  -4.270
REMARK INTRA:                  -0.147
REMARK UNBOUND:                -0.086
REMARK SMILES CCCCCC(=O)[O-]
REMARK SMILES IDX 4 1 5 2 6 3 7 4 8 5 3 6 2 7 1 8
REMARK H PARENT
REMARK Flexibility Score: inf
ROOT
ATOM      1  C   UNL     1      11.444 -12.903  15.970  1.00  0.00     0.006 C 
ENDROOT
BRANCH   1   2
ATOM      2  C   UNL     1      11.779 -14.213  16.695  1.00  0.00     0.053 C 
BRANCH   2   3
ATOM      3  C   UNL     1      11.989 -15.342  15.732  1.00  0.00     0.041 C 
ATOM      4  O   UNL     1      13.062 -16.002  15.753  1.00  0.00    -0.550 OA
ATOM      5  O   UNL     1      10.987 -15.685  14.833  1.00  0.00    -0.550 OA
ENDBRANCH   2   3
ENDBRANCH   1   2
BRANCH   1   6
ATOM      6  C   UNL     1      12.608 -12.407  15.098  1.00  0.00     0.000 C 
BRANCH   6   7
ATOM      7  C   UNL     1      12.700 -10.877  15.124  1.00  0.00    -0.003 C 
ATOM      8  C   UNL     1      11.326 -10.246  15.330  1.00  0.00     0.004 C 
ENDBRANCH   6   7
ENDBRANCH   1   6
TORSDOF 4
ENDMDL
MODEL 9
REMARK VINA RESULT:    -3.478     17.466     18.521
REMARK INTER + INTRA:          -4.377
REMARK INTER:                  -4.146
REMARK INTRA:                  -0.231
REMARK UNBOUND:                -0.086
REMARK SMILES CCCCCC(=O)[O-]
REMARK SMILES IDX 4 1 5 2 6 3 7 4 8 5 3 6 2 7 1 8
REMARK H PARENT
REMARK Flexibility Score: inf
ROOT
ATOM      1  C   UNL     1      13.953 -15.895  15.721  1.00  0.00     0.006 C 
ENDROOT
BRANCH   1   2
ATOM      2  C   UNL     1      12.854 -15.482  16.708  1.00  0.00     0.053 C 
BRANCH   2   3
ATOM      3  C   UNL     1      11.684 -14.861  16.008  1.00  0.00     0.041 C 
ATOM      4  O   UNL     1      10.994 -15.538  15.201  1.00  0.00    -0.550 OA
ATOM      5  O   UNL     1      11.336 -13.541  16.271  1.00  0.00    -0.550 OA
ENDBRANCH   2   3
ENDBRANCH   1   2
BRANCH   1   6
ATOM      6  C   UNL     1      14.177 -17.414  15.700  1.00  0.00     0.000 C 
BRANCH   6   7
ATOM      7  C   UNL     1      13.444 -18.062  14.520  1.00  0.00    -0.003 C 
ATOM      8  C   UNL     1      13.684 -17.285  13.229  1.00  0.00     0.004 C 
ENDBRANCH   6   7
ENDBRANCH   1   6
TORSDOF 4
ENDMDL
