MODEL 1
REMARK VINA RESULT:    -7.702      0.000      0.000
REMARK INTER + INTRA:          -9.942
REMARK INTER:                  -9.503
REMARK INTRA:                  -0.439
REMARK UNBOUND:                -0.439
REMARK SMILES CC(C)=CCC[C@H](C)c1ccc(C)cc1
REMARK SMILES IDX 6 1 7 2 8 3 9 4 13 5 12 6 11 7 14 8 10 9 15 10 5 11 4 12
REMARK SMILES IDX 2 13 1 14 3 15
REMARK H PARENT
REMARK Flexibility Score: inf
ROOT
ATOM      1  C   UNL     1     -13.965 -14.712 -35.084  1.00  0.00     0.012 C 
ENDROOT
BRANCH   1   2
ATOM      2  C   UNL     1     -13.911 -13.707 -36.258  1.00  0.00     0.016 C 
ATOM      3  C   UNL     1     -15.311 -13.277 -36.732  1.00  0.00     0.013 C 
BRANCH   2   4
ATOM      4  C   UNL     1     -13.012 -14.184 -37.388  1.00  0.00    -0.045 A 
ATOM      5  C   UNL     1     -10.346 -15.517 -40.519  1.00  0.00     0.044 C 
ATOM      6  C   UNL     1     -11.255 -15.074 -39.410  1.00  0.00    -0.051 A 
ATOM      7  C   UNL     1     -10.958 -13.921 -38.670  1.00  0.00     0.004 A 
ATOM      8  C   UNL     1     -12.439 -15.774 -39.144  1.00  0.00     0.004 A 
ATOM      9  C   UNL     1     -11.822 -13.488 -37.661  1.00  0.00     0.004 A 
ATOM     10  C   UNL     1     -13.305 -15.343 -38.136  1.00  0.00     0.004 A 
ENDBRANCH   2   4
ENDBRANCH   1   2
BRANCH   1  11
ATOM     11  C   UNL     1     -15.386 -15.090 -34.631  1.00  0.00     0.028 C 
BRANCH  11  12
ATOM     12  C   UNL     1     -15.757 -14.347 -33.372  1.00  0.00    -0.028 C 
ATOM     13  C   UNL     1     -16.623 -14.813 -32.442  1.00  0.00    -0.080 C 
ATOM     14  C   UNL     1     -17.256 -16.178 -32.550  1.00  0.00     0.039 C 
ATOM     15  C   UNL     1     -16.945 -13.975 -31.231  1.00  0.00     0.039 C 
ENDBRANCH  11  12
ENDBRANCH   1  11
TORSDOF 4
ENDMDL
MODEL 2
REMARK VINA RESULT:    -7.666      1.028      1.898
REMARK INTER + INTRA:          -9.897
REMARK INTER:                  -9.447
REMARK INTRA:                  -0.450
REMARK UNBOUND:                -0.439
REMARK SMILES CC(C)=CCC[C@H](C)c1ccc(C)cc1
REMARK SMILES IDX 6 1 7 2 8 3 9 4 13 5 12 6 11 7 14 8 10 9 15 10 5 11 4 12
REMARK SMILES IDX 2 13 1 14 3 15
REMARK H PARENT
REMARK Flexibility Score: inf
ROOT
ATOM      1  C   UNL     1     -13.564 -14.264 -36.166  1.00  0.00     0.012 C 
ENDROOT
BRANCH   1   2
ATOM      2  C   UNL     1     -13.662 -14.402 -37.703  1.00  0.00     0.016 C 
ATOM      3  C   UNL     1     -14.654 -15.496 -38.137  1.00  0.00     0.013 C 
BRANCH   2   4
ATOM      4  C   UNL     1     -12.296 -14.533 -38.360  1.00  0.00    -0.045 A 
ATOM      5  C   UNL     1      -8.480 -14.932 -40.349  1.00  0.00     0.044 C 
ATOM      6  C   UNL     1      -9.815 -14.773 -39.684  1.00  0.00    -0.051 A 
ATOM      7  C   UNL     1     -10.847 -15.685 -39.943  1.00  0.00     0.004 A 
ATOM      8  C   UNL     1     -10.022 -13.748 -38.752  1.00  0.00     0.004 A 
ATOM      9  C   UNL     1     -12.079 -15.558 -39.297  1.00  0.00     0.004 A 
ATOM     10  C   UNL     1     -11.253 -13.619 -38.104  1.00  0.00     0.004 A 
ENDBRANCH   2   4
ENDBRANCH   1   2
BRANCH   1  11
ATOM     11  C   UNL     1     -14.577 -15.118 -35.383  1.00  0.00     0.028 C 
BRANCH  11  12
ATOM     12  C   UNL     1     -15.092 -14.363 -34.183  1.00  0.00    -0.028 C 
ATOM     13  C   UNL     1     -16.024 -14.841 -33.327  1.00  0.00    -0.080 C 
ATOM     14  C   UNL     1     -16.593 -16.233 -33.458  1.00  0.00     0.039 C 
ATOM     15  C   UNL     1     -16.488 -13.991 -32.173  1.00  0.00     0.039 C 
ENDBRANCH  11  12
ENDBRANCH   1  11
TORSDOF 4
ENDMDL
MODEL 3
REMARK VINA RESULT:    -7.192      1.219      7.316
REMARK INTER + INTRA:          -9.313
REMARK INTER:                  -8.826
REMARK INTRA:                  -0.488
REMARK UNBOUND:                -0.439
REMARK SMILES CC(C)=CCC[C@H](C)c1ccc(C)cc1
REMARK SMILES IDX 6 1 7 2 8 3 9 4 13 5 12 6 11 7 14 8 10 9 15 10 5 11 4 12
REMARK SMILES IDX 2 13 1 14 3 15
REMARK H PARENT
REMARK Flexibility Score: inf
ROOT
ATOM      1  C   UNL     1     -14.638 -15.292 -35.281  1.00  0.00     0.012 C 
ENDROOT
BRANCH   1   2
ATOM      2  C   UNL     1     -15.269 -14.341 -34.238  1.00  0.00     0.016 C 
ATOM      3  C   UNL     1     -14.223 -13.453 -33.539  1.00  0.00     0.013 C 
BRANCH   2   4
ATOM      4  C   UNL     1     -16.183 -15.073 -33.266  1.00  0.00    -0.045 A 
ATOM      5  C   UNL     1     -18.868 -17.043 -30.512  1.00  0.00     0.044 C 
ATOM      6  C   UNL     1     -17.962 -16.353 -31.489  1.00  0.00    -0.051 A 
ATOM      7  C   UNL     1     -17.679 -14.987 -31.347  1.00  0.00     0.004 A 
ATOM      8  C   UNL     1     -17.343 -17.080 -32.514  1.00  0.00     0.004 A 
ATOM      9  C   UNL     1     -16.808 -14.352 -32.235  1.00  0.00     0.004 A 
ATOM     10  C   UNL     1     -16.471 -16.446 -33.403  1.00  0.00     0.004 A 
ENDBRANCH   2   4
ENDBRANCH   1   2
BRANCH   1  11
ATOM     11  C   UNL     1     -14.630 -14.747 -36.720  1.00  0.00     0.028 C 
BRANCH  11  12
ATOM     12  C   UNL     1     -13.373 -13.956 -36.981  1.00  0.00    -0.028 C 
ATOM     13  C   UNL     1     -12.464 -14.267 -37.934  1.00  0.00    -0.080 C 
ATOM     14  C   UNL     1     -12.666 -15.417 -38.890  1.00  0.00     0.039 C 
ATOM     15  C   UNL     1     -11.225 -13.422 -38.093  1.00  0.00     0.039 C 
ENDBRANCH  11  12
ENDBRANCH   1  11
TORSDOF 4
ENDMDL
MODEL 4
REMARK VINA RESULT:    -7.111      1.946      6.864
REMARK INTER + INTRA:          -9.213
REMARK INTER:                  -8.615
REMARK INTRA:                  -0.598
REMARK UNBOUND:                -0.439
REMARK SMILES CC(C)=CCC[C@H](C)c1ccc(C)cc1
REMARK SMILES IDX 6 1 7 2 8 3 9 4 13 5 12 6 11 7 14 8 10 9 15 10 5 11 4 12
REMARK SMILES IDX 2 13 1 14 3 15
REMARK H PARENT
REMARK Flexibility Score: inf
ROOT
ATOM      1  C   UNL     1     -12.405 -15.295 -39.506  1.00  0.00     0.012 C 
ENDROOT
BRANCH   1   2
ATOM      2  C   UNL     1     -12.018 -14.338 -38.355  1.00  0.00     0.016 C 
ATOM      3  C   UNL     1     -10.535 -14.462 -37.957  1.00  0.00     0.013 C 
BRANCH   2   4
ATOM      4  C   UNL     1     -12.969 -14.440 -37.172  1.00  0.00    -0.045 A 
ATOM      5  C   UNL     1     -15.779 -14.702 -33.899  1.00  0.00     0.044 C 
ATOM      6  C   UNL     1     -14.824 -14.631 -35.054  1.00  0.00    -0.051 A 
ATOM      7  C   UNL     1     -14.930 -13.600 -35.997  1.00  0.00     0.004 A 
ATOM      8  C   UNL     1     -13.780 -15.559 -35.165  1.00  0.00     0.004 A 
ATOM      9  C   UNL     1     -14.019 -13.514 -37.053  1.00  0.00     0.004 A 
ATOM     10  C   UNL     1     -12.867 -15.474 -36.220  1.00  0.00     0.004 A 
ENDBRANCH   2   4
ENDBRANCH   1   2
BRANCH   1  11
ATOM     11  C   UNL     1     -11.280 -16.244 -39.954  1.00  0.00     0.028 C 
BRANCH  11  12
ATOM     12  C   UNL     1     -11.645 -17.677 -39.658  1.00  0.00    -0.028 C 
ATOM     13  C   UNL     1     -10.938 -18.746 -40.090  1.00  0.00    -0.080 C 
ATOM     14  C   UNL     1      -9.652 -18.596 -40.864  1.00  0.00     0.039 C 
ATOM     15  C   UNL     1     -11.407 -20.140 -39.758  1.00  0.00     0.039 C 
ENDBRANCH  11  12
ENDBRANCH   1  11
TORSDOF 4
ENDMDL
MODEL 5
REMARK VINA RESULT:    -6.865      1.130      7.123
REMARK INTER + INTRA:          -8.909
REMARK INTER:                  -8.365
REMARK INTRA:                  -0.544
REMARK UNBOUND:                -0.439
REMARK SMILES CC(C)=CCC[C@H](C)c1ccc(C)cc1
REMARK SMILES IDX 6 1 7 2 8 3 9 4 13 5 12 6 11 7 14 8 10 9 15 10 5 11 4 12
REMARK SMILES IDX 2 13 1 14 3 15
REMARK H PARENT
REMARK Flexibility Score: inf
ROOT
ATOM      1  C   UNL     1     -13.484 -15.117 -35.170  1.00  0.00     0.012 C 
ENDROOT
BRANCH   1   2
ATOM      2  C   UNL     1     -15.002 -14.870 -35.326  1.00  0.00     0.016 C 
ATOM      3  C   UNL     1     -15.314 -13.552 -36.058  1.00  0.00     0.013 C 
BRANCH   2   4
ATOM      4  C   UNL     1     -15.751 -15.021 -34.011  1.00  0.00    -0.045 A 
ATOM      5  C   UNL     1     -17.930 -15.319 -30.290  1.00  0.00     0.044 C 
ATOM      6  C   UNL     1     -17.201 -15.204 -31.597  1.00  0.00    -0.051 A 
ATOM      7  C   UNL     1     -16.501 -14.032 -31.915  1.00  0.00     0.004 A 
ATOM      8  C   UNL     1     -17.165 -16.289 -32.483  1.00  0.00     0.004 A 
ATOM      9  C   UNL     1     -15.794 -13.938 -33.116  1.00  0.00     0.004 A 
ATOM     10  C   UNL     1     -16.457 -16.196 -33.684  1.00  0.00     0.004 A 
ENDBRANCH   2   4
ENDBRANCH   1   2
BRANCH   1  11
ATOM     11  C   UNL     1     -12.827 -15.835 -36.362  1.00  0.00     0.028 C 
BRANCH  11  12
ATOM     12  C   UNL     1     -11.754 -14.971 -36.976  1.00  0.00    -0.028 C 
ATOM     13  C   UNL     1     -11.579 -14.809 -38.308  1.00  0.00    -0.080 C 
ATOM     14  C   UNL     1     -12.506 -15.435 -39.320  1.00  0.00     0.039 C 
ATOM     15  C   UNL     1     -10.455 -13.942 -38.816  1.00  0.00     0.039 C 
ENDBRANCH  11  12
ENDBRANCH   1  11
TORSDOF 4
ENDMDL
MODEL 6
REMARK VINA RESULT:    -6.777      1.157      6.994
REMARK INTER + INTRA:          -8.800
REMARK INTER:                  -8.096
REMARK INTRA:                  -0.704
REMARK UNBOUND:                -0.439
REMARK SMILES CC(C)=CCC[C@H](C)c1ccc(C)cc1
REMARK SMILES IDX 6 1 7 2 8 3 9 4 13 5 12 6 11 7 14 8 10 9 15 10 5 11 4 12
REMARK SMILES IDX 2 13 1 14 3 15
REMARK H PARENT
REMARK Flexibility Score: inf
ROOT
ATOM      1  C   UNL     1     -12.462 -14.622 -36.462  1.00  0.00     0.012 C 
ENDROOT
BRANCH   1   2
ATOM      2  C   UNL     1     -13.793 -15.397 -36.325  1.00  0.00     0.016 C 
ATOM      3  C   UNL     1     -14.637 -15.355 -37.612  1.00  0.00     0.013 C 
BRANCH   2   4
ATOM      4  C   UNL     1     -14.571 -14.995 -35.081  1.00  0.00    -0.045 A 
ATOM      5  C   UNL     1     -16.784 -13.989 -31.507  1.00  0.00     0.044 C 
ATOM      6  C   UNL     1     -15.994 -14.357 -32.729  1.00  0.00    -0.051 A 
ATOM      7  C   UNL     1     -16.350 -15.480 -33.489  1.00  0.00     0.004 A 
ATOM      8  C   UNL     1     -14.933 -13.547 -33.154  1.00  0.00     0.004 A 
ATOM      9  C   UNL     1     -15.636 -15.802 -34.646  1.00  0.00     0.004 A 
ATOM     10  C   UNL     1     -14.219 -13.867 -34.312  1.00  0.00     0.004 A 
ENDBRANCH   2   4
ENDBRANCH   1   2
BRANCH   1  11
ATOM     11  C   UNL     1     -12.395 -13.677 -37.675  1.00  0.00     0.028 C 
BRANCH  11  12
ATOM     12  C   UNL     1     -11.032 -13.735 -38.318  1.00  0.00    -0.028 C 
ATOM     13  C   UNL     1     -10.687 -14.610 -39.291  1.00  0.00    -0.080 C 
ATOM     14  C   UNL     1     -11.679 -15.581 -39.884  1.00  0.00     0.039 C 
ATOM     15  C   UNL     1      -9.286 -14.599 -39.846  1.00  0.00     0.039 C 
ENDBRANCH  11  12
ENDBRANCH   1  11
TORSDOF 4
ENDMDL
MODEL 7
REMARK VINA RESULT:    -6.615      2.016      7.666
REMARK INTER + INTRA:          -8.601
REMARK INTER:                  -7.981
REMARK INTRA:                  -0.620
REMARK UNBOUND:                -0.439
REMARK SMILES CC(C)=CCC[C@H](C)c1ccc(C)cc1
REMARK SMILES IDX 6 1 7 2 8 3 9 4 13 5 12 6 11 7 14 8 10 9 15 10 5 11 4 12
REMARK SMILES IDX 2 13 1 14 3 15
REMARK H PARENT
REMARK Flexibility Score: inf
ROOT
ATOM      1  C   UNL     1     -16.730 -14.583 -34.014  1.00  0.00     0.012 C 
ENDROOT
BRANCH   1   2
ATOM      2  C   UNL     1     -17.287 -14.664 -32.574  1.00  0.00     0.016 C 
ATOM      3  C   UNL     1     -16.435 -13.873 -31.566  1.00  0.00     0.013 C 
BRANCH   2   4
ATOM      4  C   UNL     1     -17.559 -16.096 -32.140  1.00  0.00    -0.045 A 
ATOM      5  C   UNL     1     -18.200 -20.196 -30.931  1.00  0.00     0.044 C 
ATOM      6  C   UNL     1     -17.950 -18.772 -31.331  1.00  0.00    -0.051 A 
ATOM      7  C   UNL     1     -17.199 -18.481 -32.479  1.00  0.00     0.004 A 
ATOM      8  C   UNL     1     -18.515 -17.722 -30.596  1.00  0.00     0.004 A 
ATOM      9  C   UNL     1     -16.996 -17.156 -32.871  1.00  0.00     0.004 A 
ATOM     10  C   UNL     1     -18.313 -16.396 -30.987  1.00  0.00     0.004 A 
ENDBRANCH   2   4
ENDBRANCH   1   2
BRANCH   1  11
ATOM     11  C   UNL     1     -15.222 -14.290 -34.101  1.00  0.00     0.028 C 
BRANCH  11  12
ATOM     12  C   UNL     1     -14.564 -15.191 -35.116  1.00  0.00    -0.028 C 
ATOM     13  C   UNL     1     -14.049 -14.763 -36.292  1.00  0.00    -0.080 C 
ATOM     14  C   UNL     1     -14.023 -13.303 -36.671  1.00  0.00     0.039 C 
ATOM     15  C   UNL     1     -13.437 -15.755 -37.247  1.00  0.00     0.039 C 
ENDBRANCH  11  12
ENDBRANCH   1  11
TORSDOF 4
ENDMDL
MODEL 8
REMARK VINA RESULT:    -6.277     12.374     14.786
REMARK INTER + INTRA:          -8.184
REMARK INTER:                  -7.531
REMARK INTRA:                  -0.652
REMARK UNBOUND:                -0.439
REMARK SMILES CC(C)=CCC[C@H](C)c1ccc(C)cc1
REMARK SMILES IDX 6 1 7 2 8 3 9 4 13 5 12 6 11 7 14 8 10 9 15 10 5 11 4 12
REMARK SMILES IDX 2 13 1 14 3 15
REMARK H PARENT
REMARK Flexibility Score: inf
ROOT
ATOM      1  C   UNL     1     -10.439  -3.872 -29.450  1.00  0.00     0.012 C 
ENDROOT
BRANCH   1   2
ATOM      2  C   UNL     1     -11.136  -3.227 -28.231  1.00  0.00     0.016 C 
ATOM      3  C   UNL     1     -10.134  -2.705 -27.185  1.00  0.00     0.013 C 
BRANCH   2   4
ATOM      4  C   UNL     1     -12.213  -4.123 -27.638  1.00  0.00    -0.045 A 
ATOM      5  C   UNL     1     -15.211  -6.780 -26.017  1.00  0.00     0.044 C 
ATOM      6  C   UNL     1     -14.146  -5.879 -26.569  1.00  0.00    -0.051 A 
ATOM      7  C   UNL     1     -13.738  -6.004 -27.904  1.00  0.00     0.004 A 
ATOM      8  C   UNL     1     -13.595  -4.867 -25.773  1.00  0.00     0.004 A 
ATOM      9  C   UNL     1     -12.771  -5.142 -28.429  1.00  0.00     0.004 A 
ATOM     10  C   UNL     1     -12.629  -4.003 -26.296  1.00  0.00     0.004 A 
ENDBRANCH   2   4
ENDBRANCH   1   2
BRANCH   1  11
ATOM     11  C   UNL     1      -9.462  -5.007 -29.101  1.00  0.00     0.028 C 
BRANCH  11  12
ATOM     12  C   UNL     1      -8.078  -4.693 -29.613  1.00  0.00    -0.028 C 
ATOM     13  C   UNL     1      -6.984  -4.577 -28.825  1.00  0.00    -0.080 C 
ATOM     14  C   UNL     1      -7.038  -4.827 -27.338  1.00  0.00     0.039 C 
ATOM     15  C   UNL     1      -5.651  -4.232 -29.438  1.00  0.00     0.039 C 
ENDBRANCH  11  12
ENDBRANCH   1  11
TORSDOF 4
ENDMDL
MODEL 9
REMARK VINA RESULT:    -6.257     12.187     13.348
REMARK INTER + INTRA:          -8.159
REMARK INTER:                  -7.430
REMARK INTRA:                  -0.729
REMARK UNBOUND:                -0.439
REMARK SMILES CC(C)=CCC[C@H](C)c1ccc(C)cc1
REMARK SMILES IDX 6 1 7 2 8 3 9 4 13 5 12 6 11 7 14 8 10 9 15 10 5 11 4 12
REMARK SMILES IDX 2 13 1 14 3 15
REMARK H PARENT
REMARK Flexibility Score: inf
ROOT
ATOM      1  C   UNL     1     -13.277  -5.501 -28.707  1.00  0.00     0.012 C 
ENDROOT
BRANCH   1   2
ATOM      2  C   UNL     1     -12.567  -4.147 -28.937  1.00  0.00     0.016 C 
ATOM      3  C   UNL     1     -13.002  -3.467 -30.247  1.00  0.00     0.013 C 
BRANCH   2   4
ATOM      4  C   UNL     1     -11.057  -4.253 -28.785  1.00  0.00    -0.045 A 
ATOM      5  C   UNL     1      -6.783  -4.548 -28.214  1.00  0.00     0.044 C 
ATOM      6  C   UNL     1      -8.272  -4.470 -28.389  1.00  0.00    -0.051 A 
ATOM      7  C   UNL     1      -9.028  -3.572 -27.622  1.00  0.00     0.004 A 
ATOM      8  C   UNL     1      -8.910  -5.249 -29.363  1.00  0.00     0.004 A 
ATOM      9  C   UNL     1     -10.409  -3.475 -27.810  1.00  0.00     0.004 A 
ATOM     10  C   UNL     1     -10.291  -5.152 -29.552  1.00  0.00     0.004 A 
ENDBRANCH   2   4
ENDBRANCH   1   2
BRANCH   1  11
ATOM     11  C   UNL     1     -14.633  -5.398 -27.986  1.00  0.00     0.028 C 
BRANCH  11  12
ATOM     12  C   UNL     1     -14.590  -6.129 -26.668  1.00  0.00    -0.028 C 
ATOM     13  C   UNL     1     -14.208  -5.564 -25.499  1.00  0.00    -0.080 C 
ATOM     14  C   UNL     1     -13.850  -4.102 -25.394  1.00  0.00     0.039 C 
ATOM     15  C   UNL     1     -14.175  -6.394 -24.241  1.00  0.00     0.039 C 
ENDBRANCH  11  12
ENDBRANCH   1  11
TORSDOF 4
ENDMDL
