MODEL 1
REMARK VINA RESULT:    -4.924      0.000      0.000
REMARK INTER + INTRA:          -6.258
REMARK INTER:                  -6.075
REMARK INTRA:                  -0.182
REMARK UNBOUND:                -0.182
REMARK SMILES COc1cc(-c2oc3cc(O)cc(O)c3c(=O)c2O)ccc1O
REMARK SMILES IDX 6 1 18 2 16 3 17 4 15 5 13 6 12 7 10 8 9 9 8 10 7 11 5 12
REMARK SMILES IDX 3 13 22 14 4 15 21 16 20 17 2 18 1 19 23 20 19 22 14 24
REMARK SMILES IDX 11 26
REMARK H PARENT 23 21 19 23 14 25 11 27
REMARK Flexibility Score: inf
ROOT
ATOM      1  C   UNL     1      -7.433  29.488  37.123  1.00  0.00     0.180 A 
ATOM      2  C   UNL     1      -6.618  29.276  38.249  1.00  0.00     0.208 A 
ATOM      3  C   UNL     1      -6.445  27.968  38.727  1.00  0.00     0.238 A 
ATOM      4  O   UNL     1      -5.776  27.794  39.779  1.00  0.00    -0.285 OA
ATOM      5  C   UNL     1      -7.042  26.881  38.042  1.00  0.00     0.111 A 
ATOM      6  C   UNL     1      -6.897  25.509  38.411  1.00  0.00     0.134 A 
ATOM      7  C   UNL     1      -7.620  24.529  37.721  1.00  0.00     0.093 A 
ATOM      8  C   UNL     1      -8.433  24.860  36.638  1.00  0.00     0.123 A 
ATOM      9  C   UNL     1      -8.539  26.191  36.233  1.00  0.00     0.094 A 
ATOM     10  C   UNL     1      -7.860  27.198  36.925  1.00  0.00     0.146 A 
ATOM     11  O   UNL     1      -8.006  28.453  36.521  1.00  0.00    -0.452 OA
ENDROOT
BRANCH   1  12
ATOM     12  C   UNL     1      -7.674  30.840  36.569  1.00  0.00     0.025 A 
ATOM     13  C   UNL     1      -8.506  33.118  36.882  1.00  0.00     0.161 A 
ATOM     14  C   UNL     1      -8.096  33.439  35.580  1.00  0.00     0.157 A 
ATOM     15  C   UNL     1      -8.285  31.817  37.373  1.00  0.00     0.062 A 
ATOM     16  C   UNL     1      -7.468  32.474  34.783  1.00  0.00     0.051 A 
ATOM     17  C   UNL     1      -7.252  31.186  35.275  1.00  0.00     0.016 A 
BRANCH  13  18
ATOM     18  O   UNL     1      -9.125  34.115  37.653  1.00  0.00    -0.493 OA
ATOM     19  C   UNL     1      -8.726  34.479  38.970  1.00  0.00     0.278 C 
ENDBRANCH  13  18
BRANCH  14  20
ATOM     20  O   UNL     1      -8.313  34.725  35.087  1.00  0.00    -0.504 OA
ATOM     21  H   UNL     1      -8.674  35.465  35.676  1.00  0.00     0.293 HD
ENDBRANCH  14  20
ENDBRANCH   1  12
BRANCH   2  22
ATOM     22  O   UNL     1      -5.976  30.354  38.865  1.00  0.00    -0.502 OA
ATOM     23  H   UNL     1      -5.880  31.257  38.417  1.00  0.00     0.293 HD
ENDBRANCH   2  22
BRANCH   6  24
ATOM     24  O   UNL     1      -6.043  25.057  39.421  1.00  0.00    -0.507 OA
ATOM     25  H   UNL     1      -5.741  24.103  39.538  1.00  0.00     0.293 HD
ENDBRANCH   6  24
BRANCH   8  26
ATOM     26  O   UNL     1      -9.125  23.857  35.964  1.00  0.00    -0.508 OA
ATOM     27  H   UNL     1      -9.777  23.247  36.444  1.00  0.00     0.293 HD
ENDBRANCH   8  26
TORSDOF 6
ENDMDL
MODEL 2
REMARK VINA RESULT:    -4.532      0.828      1.846
REMARK INTER + INTRA:          -5.775
REMARK INTER:                  -5.895
REMARK INTRA:                   0.120
REMARK UNBOUND:                -0.182
REMARK SMILES COc1cc(-c2oc3cc(O)cc(O)c3c(=O)c2O)ccc1O
REMARK SMILES IDX 6 1 18 2 16 3 17 4 15 5 13 6 12 7 10 8 9 9 8 10 7 11 5 12
REMARK SMILES IDX 3 13 22 14 4 15 21 16 20 17 2 18 1 19 23 20 19 22 14 24
REMARK SMILES IDX 11 26
REMARK H PARENT 23 21 19 23 14 25 11 27
REMARK Flexibility Score: inf
ROOT
ATOM      1  C   UNL     1      -7.463  29.236  37.389  1.00  0.00     0.180 A 
ATOM      2  C   UNL     1      -6.485  28.955  38.359  1.00  0.00     0.208 A 
ATOM      3  C   UNL     1      -6.201  27.616  38.671  1.00  0.00     0.238 A 
ATOM      4  O   UNL     1      -5.379  27.373  39.592  1.00  0.00    -0.285 OA
ATOM      5  C   UNL     1      -6.857  26.574  37.971  1.00  0.00     0.111 A 
ATOM      6  C   UNL     1      -6.615  25.181  38.173  1.00  0.00     0.134 A 
ATOM      7  C   UNL     1      -7.400  24.238  37.498  1.00  0.00     0.093 A 
ATOM      8  C   UNL     1      -8.373  24.634  36.582  1.00  0.00     0.123 A 
ATOM      9  C   UNL     1      -8.581  25.992  36.335  1.00  0.00     0.094 A 
ATOM     10  C   UNL     1      -7.840  26.958  37.021  1.00  0.00     0.146 A 
ATOM     11  O   UNL     1      -8.084  28.238  36.773  1.00  0.00    -0.452 OA
ENDROOT
BRANCH   1  12
ATOM     12  C   UNL     1      -7.827  30.622  37.016  1.00  0.00     0.025 A 
ATOM     13  C   UNL     1      -7.599  32.511  35.479  1.00  0.00     0.161 A 
ATOM     14  C   UNL     1      -8.536  33.229  36.235  1.00  0.00     0.157 A 
ATOM     15  C   UNL     1      -7.253  31.202  35.872  1.00  0.00     0.062 A 
ATOM     16  C   UNL     1      -9.125  32.646  37.363  1.00  0.00     0.051 A 
ATOM     17  C   UNL     1      -8.779  31.350  37.748  1.00  0.00     0.016 A 
BRANCH  13  18
ATOM     18  O   UNL     1      -7.036  33.127  34.349  1.00  0.00    -0.493 OA
ATOM     19  C   UNL     1      -7.785  33.794  33.339  1.00  0.00     0.278 C 
ENDBRANCH  13  18
BRANCH  14  20
ATOM     20  O   UNL     1      -8.881  34.525  35.852  1.00  0.00    -0.504 OA
ATOM     21  H   UNL     1      -9.607  35.044  36.332  1.00  0.00     0.293 HD
ENDBRANCH  14  20
ENDBRANCH   1  12
BRANCH   2  22
ATOM     22  O   UNL     1      -5.794  29.997  38.983  1.00  0.00    -0.502 OA
ATOM     23  H   UNL     1      -5.297  30.709  38.461  1.00  0.00     0.293 HD
ENDBRANCH   2  22
BRANCH   6  24
ATOM     24  O   UNL     1      -5.607  24.674  38.999  1.00  0.00    -0.507 OA
ATOM     25  H   UNL     1      -5.742  23.979  39.716  1.00  0.00     0.293 HD
ENDBRANCH   6  24
BRANCH   8  26
ATOM     26  O   UNL     1      -9.124  23.669  35.916  1.00  0.00    -0.508 OA
ATOM     27  H   UNL     1      -8.966  23.455  34.938  1.00  0.00     0.293 HD
ENDBRANCH   8  26
TORSDOF 6
ENDMDL
MODEL 3
REMARK VINA RESULT:    -4.451      2.054      7.526
REMARK INTER + INTRA:          -5.674
REMARK INTER:                  -5.302
REMARK INTRA:                  -0.372
REMARK UNBOUND:                -0.182
REMARK SMILES COc1cc(-c2oc3cc(O)cc(O)c3c(=O)c2O)ccc1O
REMARK SMILES IDX 6 1 18 2 16 3 17 4 15 5 13 6 12 7 10 8 9 9 8 10 7 11 5 12
REMARK SMILES IDX 3 13 22 14 4 15 21 16 20 17 2 18 1 19 23 20 19 22 14 24
REMARK SMILES IDX 11 26
REMARK H PARENT 23 21 19 23 14 25 11 27
REMARK Flexibility Score: inf
ROOT
ATOM      1  C   UNL     1      -8.242  31.925  36.735  1.00  0.00     0.180 A 
ATOM      2  C   UNL     1      -8.695  32.968  37.562  1.00  0.00     0.208 A 
ATOM      3  C   UNL     1      -8.789  34.264  37.032  1.00  0.00     0.238 A 
ATOM      4  O   UNL     1      -9.124  35.206  37.798  1.00  0.00    -0.285 OA
ATOM      5  C   UNL     1      -8.483  34.493  35.668  1.00  0.00     0.111 A 
ATOM      6  C   UNL     1      -8.586  35.759  35.014  1.00  0.00     0.134 A 
ATOM      7  C   UNL     1      -8.155  35.887  33.688  1.00  0.00     0.093 A 
ATOM      8  C   UNL     1      -7.684  34.786  32.973  1.00  0.00     0.123 A 
ATOM      9  C   UNL     1      -7.631  33.533  33.585  1.00  0.00     0.094 A 
ATOM     10  C   UNL     1      -8.018  33.381  34.919  1.00  0.00     0.146 A 
ATOM     11  O   UNL     1      -7.931  32.177  35.470  1.00  0.00    -0.452 OA
ENDROOT
BRANCH   1  12
ATOM     12  C   UNL     1      -8.103  30.535  37.226  1.00  0.00     0.025 A 
ATOM     13  C   UNL     1      -6.822  28.870  38.478  1.00  0.00     0.161 A 
ATOM     14  C   UNL     1      -7.826  27.923  38.232  1.00  0.00     0.157 A 
ATOM     15  C   UNL     1      -6.970  30.178  37.977  1.00  0.00     0.062 A 
ATOM     16  C   UNL     1      -8.966  28.282  37.503  1.00  0.00     0.051 A 
ATOM     17  C   UNL     1      -9.108  29.579  37.009  1.00  0.00     0.016 A 
BRANCH  13  18
ATOM     18  O   UNL     1      -5.697  28.475  39.220  1.00  0.00    -0.493 OA
ATOM     19  C   UNL     1      -5.437  28.874  40.562  1.00  0.00     0.278 C 
ENDBRANCH  13  18
BRANCH  14  20
ATOM     20  O   UNL     1      -7.685  26.626  38.723  1.00  0.00    -0.504 OA
ATOM     21  H   UNL     1      -7.759  25.818  38.116  1.00  0.00     0.293 HD
ENDBRANCH  14  20
ENDBRANCH   1  12
BRANCH   2  22
ATOM     22  O   UNL     1      -9.066  32.707  38.884  1.00  0.00    -0.502 OA
ATOM     23  H   UNL     1      -8.488  32.162  39.513  1.00  0.00     0.293 HD
ENDBRANCH   2  22
BRANCH   6  24
ATOM     24  O   UNL     1      -9.125  36.905  35.606  1.00  0.00    -0.507 OA
ATOM     25  H   UNL     1     -10.057  37.253  35.448  1.00  0.00     0.293 HD
ENDBRANCH   6  24
BRANCH   8  26
ATOM     26  O   UNL     1      -7.279  34.947  31.650  1.00  0.00    -0.508 OA
ATOM     27  H   UNL     1      -6.826  35.796  31.333  1.00  0.00     0.293 HD
ENDBRANCH   8  26
TORSDOF 6
ENDMDL
MODEL 4
REMARK VINA RESULT:    -4.384      2.453      7.994
REMARK INTER + INTRA:          -5.591
REMARK INTER:                  -5.454
REMARK INTRA:                  -0.138
REMARK UNBOUND:                -0.182
REMARK SMILES COc1cc(-c2oc3cc(O)cc(O)c3c(=O)c2O)ccc1O
REMARK SMILES IDX 6 1 18 2 16 3 17 4 15 5 13 6 12 7 10 8 9 9 8 10 7 11 5 12
REMARK SMILES IDX 3 13 22 14 4 15 21 16 20 17 2 18 1 19 23 20 19 22 14 24
REMARK SMILES IDX 11 26
REMARK H PARENT 23 21 19 23 14 25 11 27
REMARK Flexibility Score: inf
ROOT
ATOM      1  C   UNL     1      -7.176  25.024  37.324  1.00  0.00     0.180 A 
ATOM      2  C   UNL     1      -6.421  25.157  38.502  1.00  0.00     0.208 A 
ATOM      3  C   UNL     1      -6.159  26.442  39.001  1.00  0.00     0.238 A 
ATOM      4  O   UNL     1      -5.421  26.557  40.014  1.00  0.00    -0.285 OA
ATOM      5  C   UNL     1      -6.701  27.577  38.348  1.00  0.00     0.111 A 
ATOM      6  C   UNL     1      -6.537  28.925  38.791  1.00  0.00     0.134 A 
ATOM      7  C   UNL     1      -7.029  29.974  38.006  1.00  0.00     0.093 A 
ATOM      8  C   UNL     1      -7.733  29.725  36.829  1.00  0.00     0.123 A 
ATOM      9  C   UNL     1      -7.947  28.410  36.415  1.00  0.00     0.094 A 
ATOM     10  C   UNL     1      -7.436  27.342  37.156  1.00  0.00     0.146 A 
ATOM     11  O   UNL     1      -7.643  26.108  36.716  1.00  0.00    -0.452 OA
ENDROOT
BRANCH   1  12
ATOM     12  C   UNL     1      -7.482  23.703  36.729  1.00  0.00     0.025 A 
ATOM     13  C   UNL     1      -6.687  21.571  35.831  1.00  0.00     0.161 A 
ATOM     14  C   UNL     1      -8.015  21.159  35.654  1.00  0.00     0.157 A 
ATOM     15  C   UNL     1      -6.427  22.844  36.376  1.00  0.00     0.062 A 
ATOM     16  C   UNL     1      -9.069  22.004  36.024  1.00  0.00     0.051 A 
ATOM     17  C   UNL     1      -8.805  23.264  36.564  1.00  0.00     0.016 A 
BRANCH  13  18
ATOM     18  O   UNL     1      -5.658  20.692  35.456  1.00  0.00    -0.493 OA
ATOM     19  C   UNL     1      -4.454  20.502  36.190  1.00  0.00     0.278 C 
ENDBRANCH  13  18
BRANCH  14  20
ATOM     20  O   UNL     1      -8.280  19.902  35.113  1.00  0.00    -0.504 OA
ATOM     21  H   UNL     1      -8.598  19.791  34.157  1.00  0.00     0.293 HD
ENDBRANCH  14  20
ENDBRANCH   1  12
BRANCH   2  22
ATOM     22  O   UNL     1      -5.961  24.021  39.174  1.00  0.00    -0.502 OA
ATOM     23  H   UNL     1      -6.259  23.788  40.113  1.00  0.00     0.293 HD
ENDBRANCH   2  22
BRANCH   6  24
ATOM     24  O   UNL     1      -5.927  29.284  39.997  1.00  0.00    -0.507 OA
ATOM     25  H   UNL     1      -6.407  29.662  40.798  1.00  0.00     0.293 HD
ENDBRANCH   6  24
BRANCH   8  26
ATOM     26  O   UNL     1      -8.223  30.793  36.081  1.00  0.00    -0.508 OA
ATOM     27  H   UNL     1      -8.259  31.733  36.458  1.00  0.00     0.293 HD
ENDBRANCH   8  26
TORSDOF 6
ENDMDL
MODEL 5
REMARK VINA RESULT:    -4.348      2.552      4.848
REMARK INTER + INTRA:          -5.548
REMARK INTER:                  -5.293
REMARK INTRA:                  -0.254
REMARK UNBOUND:                -0.182
REMARK SMILES COc1cc(-c2oc3cc(O)cc(O)c3c(=O)c2O)ccc1O
REMARK SMILES IDX 6 1 18 2 16 3 17 4 15 5 13 6 12 7 10 8 9 9 8 10 7 11 5 12
REMARK SMILES IDX 3 13 22 14 4 15 21 16 20 17 2 18 1 19 23 20 19 22 14 24
REMARK SMILES IDX 11 26
REMARK H PARENT 23 21 19 23 14 25 11 27
REMARK Flexibility Score: inf
ROOT
ATOM      1  C   UNL     1      -7.661  25.698  37.071  1.00  0.00     0.180 A 
ATOM      2  C   UNL     1      -7.293  25.116  35.846  1.00  0.00     0.208 A 
ATOM      3  C   UNL     1      -7.365  23.722  35.706  1.00  0.00     0.238 A 
ATOM      4  O   UNL     1      -6.963  23.202  34.632  1.00  0.00    -0.285 OA
ATOM      5  C   UNL     1      -7.857  22.930  36.772  1.00  0.00     0.111 A 
ATOM      6  C   UNL     1      -8.016  21.511  36.725  1.00  0.00     0.134 A 
ATOM      7  C   UNL     1      -8.413  20.823  37.878  1.00  0.00     0.093 A 
ATOM      8  C   UNL     1      -8.717  21.503  39.056  1.00  0.00     0.123 A 
ATOM      9  C   UNL     1      -8.619  22.895  39.097  1.00  0.00     0.094 A 
ATOM     10  C   UNL     1      -8.189  23.607  37.975  1.00  0.00     0.146 A 
ATOM     11  O   UNL     1      -8.088  24.928  38.064  1.00  0.00    -0.452 OA
ENDROOT
BRANCH   1  12
ATOM     12  C   UNL     1      -7.598  27.160  37.299  1.00  0.00     0.025 A 
ATOM     13  C   UNL     1      -6.529  29.070  38.391  1.00  0.00     0.161 A 
ATOM     14  C   UNL     1      -7.401  29.935  37.715  1.00  0.00     0.157 A 
ATOM     15  C   UNL     1      -6.629  27.681  38.173  1.00  0.00     0.062 A 
ATOM     16  C   UNL     1      -8.353  29.420  36.827  1.00  0.00     0.051 A 
ATOM     17  C   UNL     1      -8.448  28.044  36.615  1.00  0.00     0.016 A 
BRANCH  13  18
ATOM     18  O   UNL     1      -5.582  29.624  39.267  1.00  0.00    -0.493 OA
ATOM     19  C   UNL     1      -4.634  28.868  40.013  1.00  0.00     0.278 C 
ENDBRANCH  13  18
BRANCH  14  20
ATOM     20  O   UNL     1      -7.309  31.310  37.927  1.00  0.00    -0.504 OA
ATOM     21  H   UNL     1      -7.605  31.976  37.224  1.00  0.00     0.293 HD
ENDBRANCH  14  20
ENDBRANCH   1  12
BRANCH   2  22
ATOM     22  O   UNL     1      -6.882  25.922  34.780  1.00  0.00    -0.502 OA
ATOM     23  H   UNL     1      -7.008  25.649  33.813  1.00  0.00     0.293 HD
ENDBRANCH   2  22
BRANCH   6  24
ATOM     24  O   UNL     1      -7.825  20.740  35.575  1.00  0.00    -0.507 OA
ATOM     25  H   UNL     1      -8.558  20.438  34.953  1.00  0.00     0.293 HD
ENDBRANCH   6  24
BRANCH   8  26
ATOM     26  O   UNL     1      -9.125  20.787  40.178  1.00  0.00    -0.508 OA
ATOM     27  H   UNL     1     -10.104  20.601  40.363  1.00  0.00     0.293 HD
ENDBRANCH   8  26
TORSDOF 6
ENDMDL
MODEL 6
REMARK VINA RESULT:    -4.173     19.179     20.578
REMARK INTER + INTRA:          -5.332
REMARK INTER:                  -5.055
REMARK INTRA:                  -0.277
REMARK UNBOUND:                -0.182
REMARK SMILES COc1cc(-c2oc3cc(O)cc(O)c3c(=O)c2O)ccc1O
REMARK SMILES IDX 6 1 18 2 16 3 17 4 15 5 13 6 12 7 10 8 9 9 8 10 7 11 5 12
REMARK SMILES IDX 3 13 22 14 4 15 21 16 20 17 2 18 1 19 23 20 19 22 14 24
REMARK SMILES IDX 11 26
REMARK H PARENT 23 21 19 23 14 25 11 27
REMARK Flexibility Score: inf
ROOT
ATOM      1  C   UNL     1       7.863  20.703  26.674  1.00  0.00     0.180 A 
ATOM      2  C   UNL     1       9.266  20.691  26.759  1.00  0.00     0.208 A 
ATOM      3  C   UNL     1       9.870  20.510  28.013  1.00  0.00     0.238 A 
ATOM      4  O   UNL     1      11.124  20.575  28.093  1.00  0.00    -0.285 OA
ATOM      5  C   UNL     1       9.066  20.287  29.158  1.00  0.00     0.111 A 
ATOM      6  C   UNL     1       9.572  20.046  30.472  1.00  0.00     0.134 A 
ATOM      7  C   UNL     1       8.681  19.944  31.547  1.00  0.00     0.093 A 
ATOM      8  C   UNL     1       7.302  20.010  31.349  1.00  0.00     0.123 A 
ATOM      9  C   UNL     1       6.795  20.189  30.061  1.00  0.00     0.094 A 
ATOM     10  C   UNL     1       7.659  20.332  28.974  1.00  0.00     0.146 A 
ATOM     11  O   UNL     1       7.136  20.524  27.769  1.00  0.00    -0.452 OA
ENDROOT
BRANCH   1  12
ATOM     12  C   UNL     1       7.154  20.903  25.389  1.00  0.00     0.025 A 
ATOM     13  C   UNL     1       5.834  22.349  23.924  1.00  0.00     0.161 A 
ATOM     14  C   UNL     1       5.846  21.351  22.939  1.00  0.00     0.157 A 
ATOM     15  C   UNL     1       6.496  22.121  25.146  1.00  0.00     0.062 A 
ATOM     16  C   UNL     1       6.519  20.144  23.170  1.00  0.00     0.051 A 
ATOM     17  C   UNL     1       7.174  19.923  24.383  1.00  0.00     0.016 A 
BRANCH  13  18
ATOM     18  O   UNL     1       5.156  23.548  23.652  1.00  0.00    -0.493 OA
ATOM     19  C   UNL     1       4.912  24.571  24.611  1.00  0.00     0.278 C 
ENDBRANCH  13  18
BRANCH  14  20
ATOM     20  O   UNL     1       5.191  21.569  21.728  1.00  0.00    -0.504 OA
ATOM     21  H   UNL     1       4.695  22.432  21.542  1.00  0.00     0.293 HD
ENDBRANCH  14  20
ENDBRANCH   1  12
BRANCH   2  22
ATOM     22  O   UNL     1      10.042  20.837  25.605  1.00  0.00    -0.502 OA
ATOM     23  H   UNL     1       9.940  21.626  24.979  1.00  0.00     0.293 HD
ENDBRANCH   2  22
BRANCH   6  24
ATOM     24  O   UNL     1      10.928  19.875  30.769  1.00  0.00    -0.507 OA
ATOM     25  H   UNL     1      11.401  20.279  31.561  1.00  0.00     0.293 HD
ENDBRANCH   6  24
BRANCH   8  26
ATOM     26  O   UNL     1       6.445  19.887  32.439  1.00  0.00    -0.508 OA
ATOM     27  H   UNL     1       6.711  19.369  33.268  1.00  0.00     0.293 HD
ENDBRANCH   8  26
TORSDOF 6
ENDMDL
MODEL 7
REMARK VINA RESULT:    -4.054      2.956      8.164
REMARK INTER + INTRA:          -5.185
REMARK INTER:                  -4.929
REMARK INTRA:                  -0.255
REMARK UNBOUND:                -0.182
REMARK SMILES COc1cc(-c2oc3cc(O)cc(O)c3c(=O)c2O)ccc1O
REMARK SMILES IDX 6 1 18 2 16 3 17 4 15 5 13 6 12 7 10 8 9 9 8 10 7 11 5 12
REMARK SMILES IDX 3 13 22 14 4 15 21 16 20 17 2 18 1 19 23 20 19 22 14 24
REMARK SMILES IDX 11 26
REMARK H PARENT 23 21 19 23 14 25 11 27
REMARK Flexibility Score: inf
ROOT
ATOM      1  C   UNL     1      -7.022  25.368  37.224  1.00  0.00     0.180 A 
ATOM      2  C   UNL     1      -8.075  26.226  36.858  1.00  0.00     0.208 A 
ATOM      3  C   UNL     1      -8.042  27.563  37.283  1.00  0.00     0.238 A 
ATOM      4  O   UNL     1      -9.023  28.305  37.016  1.00  0.00    -0.285 OA
ATOM      5  C   UNL     1      -6.931  28.042  38.021  1.00  0.00     0.111 A 
ATOM      6  C   UNL     1      -6.771  29.390  38.465  1.00  0.00     0.134 A 
ATOM      7  C   UNL     1      -5.681  29.724  39.279  1.00  0.00     0.093 A 
ATOM      8  C   UNL     1      -4.714  28.777  39.612  1.00  0.00     0.123 A 
ATOM      9  C   UNL     1      -4.831  27.470  39.138  1.00  0.00     0.094 A 
ATOM     10  C   UNL     1      -5.926  27.096  38.356  1.00  0.00     0.146 A 
ATOM     11  O   UNL     1      -6.011  25.838  37.944  1.00  0.00    -0.452 OA
ENDROOT
BRANCH   1  12
ATOM     12  C   UNL     1      -6.994  23.942  36.825  1.00  0.00     0.025 A 
ATOM     13  C   UNL     1      -7.140  21.584  37.456  1.00  0.00     0.161 A 
ATOM     14  C   UNL     1      -7.008  21.223  36.108  1.00  0.00     0.157 A 
ATOM     15  C   UNL     1      -7.139  22.948  37.808  1.00  0.00     0.062 A 
ATOM     16  C   UNL     1      -6.885  22.212  35.124  1.00  0.00     0.051 A 
ATOM     17  C   UNL     1      -6.884  23.562  35.478  1.00  0.00     0.016 A 
BRANCH  13  18
ATOM     18  O   UNL     1      -7.270  20.564  38.412  1.00  0.00    -0.493 OA
ATOM     19  C   UNL     1      -6.248  20.183  39.327  1.00  0.00     0.278 C 
ENDBRANCH  13  18
BRANCH  14  20
ATOM     20  O   UNL     1      -7.007  19.875  35.753  1.00  0.00    -0.504 OA
ATOM     21  H   UNL     1      -7.852  19.317  35.784  1.00  0.00     0.293 HD
ENDBRANCH  14  20
ENDBRANCH   1  12
BRANCH   2  22
ATOM     22  O   UNL     1      -9.124  25.753  36.065  1.00  0.00    -0.502 OA
ATOM     23  H   UNL     1      -9.266  26.064  35.111  1.00  0.00     0.293 HD
ENDBRANCH   2  22
BRANCH   6  24
ATOM     24  O   UNL     1      -7.631  30.436  38.118  1.00  0.00    -0.507 OA
ATOM     25  H   UNL     1      -8.570  30.553  38.464  1.00  0.00     0.293 HD
ENDBRANCH   6  24
BRANCH   8  26
ATOM     26  O   UNL     1      -3.634  29.148  40.409  1.00  0.00    -0.508 OA
ATOM     27  H   UNL     1      -2.874  29.711  40.045  1.00  0.00     0.293 HD
ENDBRANCH   8  26
TORSDOF 6
ENDMDL
MODEL 8
REMARK VINA RESULT:    -4.026      1.900      7.323
REMARK INTER + INTRA:          -5.150
REMARK INTER:                  -4.779
REMARK INTRA:                  -0.370
REMARK UNBOUND:                -0.182
REMARK SMILES COc1cc(-c2oc3cc(O)cc(O)c3c(=O)c2O)ccc1O
REMARK SMILES IDX 6 1 18 2 16 3 17 4 15 5 13 6 12 7 10 8 9 9 8 10 7 11 5 12
REMARK SMILES IDX 3 13 22 14 4 15 21 16 20 17 2 18 1 19 23 20 19 22 14 24
REMARK SMILES IDX 11 26
REMARK H PARENT 23 21 19 23 14 25 11 27
REMARK Flexibility Score: inf
ROOT
ATOM      1  C   UNL     1      -7.986  27.260  37.343  1.00  0.00     0.180 A 
ATOM      2  C   UNL     1      -8.548  27.777  38.523  1.00  0.00     0.208 A 
ATOM      3  C   UNL     1      -8.691  29.167  38.657  1.00  0.00     0.238 A 
ATOM      4  O   UNL     1      -9.125  29.626  39.745  1.00  0.00    -0.285 OA
ATOM      5  C   UNL     1      -8.322  30.020  37.588  1.00  0.00     0.111 A 
ATOM      6  C   UNL     1      -8.465  31.441  37.597  1.00  0.00     0.134 A 
ATOM      7  C   UNL     1      -7.969  32.191  36.524  1.00  0.00     0.093 A 
ATOM      8  C   UNL     1      -7.392  31.572  35.416  1.00  0.00     0.123 A 
ATOM      9  C   UNL     1      -7.298  30.180  35.372  1.00  0.00     0.094 A 
ATOM     10  C   UNL     1      -7.750  29.406  36.444  1.00  0.00     0.146 A 
ATOM     11  O   UNL     1      -7.620  28.087  36.371  1.00  0.00    -0.452 OA
ENDROOT
BRANCH   1  12
ATOM     12  C   UNL     1      -7.791  25.807  37.134  1.00  0.00     0.025 A 
ATOM     13  C   UNL     1      -6.474  23.787  37.542  1.00  0.00     0.161 A 
ATOM     14  C   UNL     1      -7.411  23.038  36.816  1.00  0.00     0.157 A 
ATOM     15  C   UNL     1      -6.673  25.172  37.703  1.00  0.00     0.062 A 
ATOM     16  C   UNL     1      -8.537  23.664  36.267  1.00  0.00     0.051 A 
ATOM     17  C   UNL     1      -8.729  25.037  36.429  1.00  0.00     0.016 A 
BRANCH  13  18
ATOM     18  O   UNL     1      -5.362  23.122  38.085  1.00  0.00    -0.493 OA
ATOM     19  C   UNL     1      -5.286  22.640  39.422  1.00  0.00     0.278 C 
ENDBRANCH  13  18
BRANCH  14  20
ATOM     20  O   UNL     1      -7.219  21.667  36.652  1.00  0.00    -0.504 OA
ATOM     21  H   UNL     1      -7.898  21.090  36.170  1.00  0.00     0.293 HD
ENDBRANCH  14  20
ENDBRANCH   1  12
BRANCH   2  22
ATOM     22  O   UNL     1      -8.976  26.913  39.535  1.00  0.00    -0.502 OA
ATOM     23  H   UNL     1      -9.892  26.481  39.529  1.00  0.00     0.293 HD
ENDBRANCH   2  22
BRANCH   6  24
ATOM     24  O   UNL     1      -9.105  32.158  38.613  1.00  0.00    -0.507 OA
ATOM     25  H   UNL     1     -10.101  32.176  38.769  1.00  0.00     0.293 HD
ENDBRANCH   6  24
BRANCH   8  26
ATOM     26  O   UNL     1      -6.924  32.348  34.359  1.00  0.00    -0.508 OA
ATOM     27  H   UNL     1      -6.120  32.956  34.463  1.00  0.00     0.293 HD
ENDBRANCH   8  26
TORSDOF 6
ENDMDL
MODEL 9
REMARK VINA RESULT:    -3.915     19.969     21.630
REMARK INTER + INTRA:          -5.013
REMARK INTER:                  -5.205
REMARK INTRA:                   0.193
REMARK UNBOUND:                -0.182
REMARK SMILES COc1cc(-c2oc3cc(O)cc(O)c3c(=O)c2O)ccc1O
REMARK SMILES IDX 6 1 18 2 16 3 17 4 15 5 13 6 12 7 10 8 9 9 8 10 7 11 5 12
REMARK SMILES IDX 3 13 22 14 4 15 21 16 20 17 2 18 1 19 23 20 19 22 14 24
REMARK SMILES IDX 11 26
REMARK H PARENT 23 21 19 23 14 25 11 27
REMARK Flexibility Score: inf
ROOT
ATOM      1  C   UNL     1       8.841  21.191  26.645  1.00  0.00     0.180 A 
ATOM      2  C   UNL     1       9.641  21.996  25.815  1.00  0.00     0.208 A 
ATOM      3  C   UNL     1       9.221  22.244  24.498  1.00  0.00     0.238 A 
ATOM      4  O   UNL     1       9.977  22.902  23.738  1.00  0.00    -0.285 OA
ATOM      5  C   UNL     1       7.980  21.732  24.045  1.00  0.00     0.111 A 
ATOM      6  C   UNL     1       7.434  21.959  22.745  1.00  0.00     0.134 A 
ATOM      7  C   UNL     1       6.248  21.315  22.373  1.00  0.00     0.093 A 
ATOM      8  C   UNL     1       5.555  20.504  23.271  1.00  0.00     0.123 A 
ATOM      9  C   UNL     1       6.051  20.319  24.563  1.00  0.00     0.094 A 
ATOM     10  C   UNL     1       7.252  20.918  24.952  1.00  0.00     0.146 A 
ATOM     11  O   UNL     1       7.699  20.699  26.182  1.00  0.00    -0.452 OA
ENDROOT
BRANCH   1  12
ATOM     12  C   UNL     1       9.225  20.874  28.040  1.00  0.00     0.025 A 
ATOM     13  C   UNL     1       8.560  20.242  30.307  1.00  0.00     0.161 A 
ATOM     14  C   UNL     1       9.910  20.203  30.684  1.00  0.00     0.157 A 
ATOM     15  C   UNL     1       8.224  20.572  28.979  1.00  0.00     0.062 A 
ATOM     16  C   UNL     1      10.910  20.482  29.744  1.00  0.00     0.051 A 
ATOM     17  C   UNL     1      10.572  20.808  28.430  1.00  0.00     0.016 A 
BRANCH  13  18
ATOM     18  O   UNL     1       7.586  19.948  31.275  1.00  0.00    -0.493 OA
ATOM     19  C   UNL     1       6.350  20.641  31.410  1.00  0.00     0.278 C 
ENDBRANCH  13  18
BRANCH  14  20
ATOM     20  O   UNL     1      10.249  19.879  31.996  1.00  0.00    -0.504 OA
ATOM     21  H   UNL     1      10.685  18.994  32.228  1.00  0.00     0.293 HD
ENDBRANCH  14  20
ENDBRANCH   1  12
BRANCH   2  22
ATOM     22  O   UNL     1      10.824  22.555  26.305  1.00  0.00    -0.502 OA
ATOM     23  H   UNL     1      11.173  23.452  25.989  1.00  0.00     0.293 HD
ENDBRANCH   2  22
BRANCH   6  24
ATOM     24  O   UNL     1       7.996  22.821  21.799  1.00  0.00    -0.507 OA
ATOM     25  H   UNL     1       8.063  22.632  20.812  1.00  0.00     0.293 HD
ENDBRANCH   6  24
BRANCH   8  26
ATOM     26  O   UNL     1       4.370  19.892  22.872  1.00  0.00    -0.508 OA
ATOM     27  H   UNL     1       4.057  19.021  23.286  1.00  0.00     0.293 HD
ENDBRANCH   8  26
TORSDOF 6
ENDMDL
