MODEL 1
REMARK VINA RESULT:    -5.330      0.000      0.000
REMARK INTER + INTRA:          -7.839
REMARK INTER:                  -7.199
REMARK INTRA:                  -0.640
REMARK UNBOUND:                -0.640
REMARK SMILES COc1ccc(-c2cc(=O)c3c(OC)c(OC)c(OC)c(OC)c3o2)cc1
REMARK SMILES IDX 7 1 8 2 9 3 10 4 11 5 24 6 25 7 21 8 18 9 15 10 12 11 6 12
REMARK SMILES IDX 3 13 4 14 27 15 5 16 26 17 2 18 1 19 22 20 23 21 13 22 14 23
REMARK SMILES IDX 19 24 20 25 16 26 17 27
REMARK H PARENT
REMARK Flexibility Score: inf
ROOT
ATOM      1  C   UNL     1      23.579   7.996 -11.850  1.00  0.00     0.138 A 
ATOM      2  C   UNL     1      22.231   8.346 -11.951  1.00  0.00     0.100 A 
ATOM      3  C   UNL     1      21.722   8.750 -13.182  1.00  0.00     0.197 A 
ATOM      4  O   UNL     1      20.503   9.064 -13.251  1.00  0.00    -0.289 OA
ATOM      5  C   UNL     1      22.569   8.798 -14.316  1.00  0.00     0.115 A 
ATOM      6  C   UNL     1      23.926   8.438 -14.134  1.00  0.00     0.188 A 
ATOM      7  O   UNL     1      24.353   8.065 -12.928  1.00  0.00    -0.452 OA
ATOM      8  C   UNL     1      24.824   8.453 -15.225  1.00  0.00     0.209 A 
ATOM      9  C   UNL     1      24.347   8.790 -16.518  1.00  0.00     0.211 A 
ATOM     10  C   UNL     1      22.999   9.191 -16.693  1.00  0.00     0.208 A 
ATOM     11  C   UNL     1      22.110   9.203 -15.590  1.00  0.00     0.179 A 
ENDROOT
BRANCH   1  12
ATOM     12  C   UNL     1      24.171   7.557 -10.563  1.00  0.00     0.018 A 
ATOM     13  C   UNL     1      25.284   6.670  -8.124  1.00  0.00     0.118 A 
ATOM     14  C   UNL     1      25.247   5.824  -9.237  1.00  0.00     0.047 A 
ATOM     15  C   UNL     1      24.753   7.967  -8.233  1.00  0.00     0.047 A 
ATOM     16  C   UNL     1      24.694   6.260 -10.444  1.00  0.00     0.016 A 
ATOM     17  C   UNL     1      24.198   8.403  -9.440  1.00  0.00     0.016 A 
BRANCH  13  18
ATOM     18  O   UNL     1      25.852   6.186  -6.937  1.00  0.00    -0.497 OA
ATOM     19  C   UNL     1      25.969   4.806  -6.606  1.00  0.00     0.278 C 
ENDBRANCH  13  18
ENDBRANCH   1  12
BRANCH   8  20
ATOM     20  O   UNL     1      26.187   8.135 -15.077  1.00  0.00    -0.490 OA
ATOM     21  C   UNL     1      26.779   6.842 -15.113  1.00  0.00     0.278 C 
ENDBRANCH   8  20
BRANCH  11  22
ATOM     22  O   UNL     1      20.763   9.610 -15.708  1.00  0.00    -0.492 OA
ATOM     23  C   UNL     1      19.728   8.965 -16.441  1.00  0.00     0.278 C 
ENDBRANCH  11  22
BRANCH   9  24
ATOM     24  O   UNL     1      25.164   8.727 -17.664  1.00  0.00    -0.490 OA
ATOM     25  C   UNL     1      25.380   7.612 -18.523  1.00  0.00     0.279 C 
ENDBRANCH   9  24
BRANCH  10  26
ATOM     26  O   UNL     1      22.493   9.553 -17.955  1.00  0.00    -0.490 OA
ATOM     27  C   UNL     1      22.499  10.854 -18.532  1.00  0.00     0.278 C 
ENDBRANCH  10  26
TORSDOF 6
ENDMDL
MODEL 2
REMARK VINA RESULT:    -5.269      3.000      4.354
REMARK INTER + INTRA:          -7.756
REMARK INTER:                  -7.258
REMARK INTRA:                  -0.499
REMARK UNBOUND:                -0.640
REMARK SMILES COc1ccc(-c2cc(=O)c3c(OC)c(OC)c(OC)c(OC)c3o2)cc1
REMARK SMILES IDX 7 1 8 2 9 3 10 4 11 5 24 6 25 7 21 8 18 9 15 10 12 11 6 12
REMARK SMILES IDX 3 13 4 14 27 15 5 16 26 17 2 18 1 19 22 20 23 21 13 22 14 23
REMARK SMILES IDX 19 24 20 25 16 26 17 27
REMARK H PARENT
REMARK Flexibility Score: inf
ROOT
ATOM      1  C   UNL     1      25.529   6.821 -13.865  1.00  0.00     0.138 A 
ATOM      2  C   UNL     1      25.870   8.050 -14.435  1.00  0.00     0.100 A 
ATOM      3  C   UNL     1      26.060   8.133 -15.811  1.00  0.00     0.197 A 
ATOM      4  O   UNL     1      26.370   9.251 -16.305  1.00  0.00    -0.289 OA
ATOM      5  C   UNL     1      25.902   6.980 -16.618  1.00  0.00     0.115 A 
ATOM      6  C   UNL     1      25.565   5.769 -15.968  1.00  0.00     0.188 A 
ATOM      7  O   UNL     1      25.402   5.753 -14.646  1.00  0.00    -0.452 OA
ATOM      8  C   UNL     1      25.382   4.583 -16.714  1.00  0.00     0.209 A 
ATOM      9  C   UNL     1      25.495   4.621 -18.127  1.00  0.00     0.211 A 
ATOM     10  C   UNL     1      25.874   5.823 -18.774  1.00  0.00     0.208 A 
ATOM     11  C   UNL     1      26.086   7.003 -18.020  1.00  0.00     0.179 A 
ENDROOT
BRANCH   1  12
ATOM     12  C   UNL     1      25.312   6.678 -12.405  1.00  0.00     0.018 A 
ATOM     13  C   UNL     1      24.903   6.354  -9.630  1.00  0.00     0.118 A 
ATOM     14  C   UNL     1      25.646   5.415 -10.352  1.00  0.00     0.047 A 
ATOM     15  C   UNL     1      24.355   7.458 -10.304  1.00  0.00     0.047 A 
ATOM     16  C   UNL     1      25.848   5.573 -11.726  1.00  0.00     0.016 A 
ATOM     17  C   UNL     1      24.555   7.616 -11.680  1.00  0.00     0.016 A 
BRANCH  13  18
ATOM     18  O   UNL     1      24.733   6.152  -8.252  1.00  0.00    -0.497 OA
ATOM     19  C   UNL     1      25.361   5.113  -7.508  1.00  0.00     0.278 C 
ENDBRANCH  13  18
ENDBRANCH   1  12
BRANCH   8  20
ATOM     20  O   UNL     1      25.080   3.352 -16.100  1.00  0.00    -0.490 OA
ATOM     21  C   UNL     1      25.956   2.246 -15.912  1.00  0.00     0.278 C 
ENDBRANCH   8  20
BRANCH  11  22
ATOM     22  O   UNL     1      26.481   8.221 -18.614  1.00  0.00    -0.492 OA
ATOM     23  C   UNL     1      25.675   9.107 -19.382  1.00  0.00     0.278 C 
ENDBRANCH  11  22
BRANCH   9  24
ATOM     24  O   UNL     1      25.227   3.500 -18.938  1.00  0.00    -0.490 OA
ATOM     25  C   UNL     1      23.958   3.012 -19.361  1.00  0.00     0.279 C 
ENDBRANCH   9  24
BRANCH  10  26
ATOM     26  O   UNL     1      26.018   5.897 -20.172  1.00  0.00    -0.490 OA
ATOM     27  C   UNL     1      24.978   6.090 -21.125  1.00  0.00     0.278 C 
ENDBRANCH  10  26
TORSDOF 6
ENDMDL
MODEL 3
REMARK VINA RESULT:    -5.242      2.885      4.662
REMARK INTER + INTRA:          -7.721
REMARK INTER:                  -7.049
REMARK INTRA:                  -0.672
REMARK UNBOUND:                -0.640
REMARK SMILES COc1ccc(-c2cc(=O)c3c(OC)c(OC)c(OC)c(OC)c3o2)cc1
REMARK SMILES IDX 7 1 8 2 9 3 10 4 11 5 24 6 25 7 21 8 18 9 15 10 12 11 6 12
REMARK SMILES IDX 3 13 4 14 27 15 5 16 26 17 2 18 1 19 22 20 23 21 13 22 14 23
REMARK SMILES IDX 19 24 20 25 16 26 17 27
REMARK H PARENT
REMARK Flexibility Score: inf
ROOT
ATOM      1  C   UNL     1      24.932   7.760 -14.347  1.00  0.00     0.138 A 
ATOM      2  C   UNL     1      25.203   8.796 -15.244  1.00  0.00     0.100 A 
ATOM      3  C   UNL     1      25.432   8.495 -16.583  1.00  0.00     0.197 A 
ATOM      4  O   UNL     1      25.676   9.445 -17.376  1.00  0.00    -0.289 OA
ATOM      5  C   UNL     1      25.384   7.150 -17.024  1.00  0.00     0.115 A 
ATOM      6  C   UNL     1      25.114   6.154 -16.056  1.00  0.00     0.188 A 
ATOM      7  O   UNL     1      24.909   6.506 -14.787  1.00  0.00    -0.452 OA
ATOM      8  C   UNL     1      25.042   4.793 -16.428  1.00  0.00     0.209 A 
ATOM      9  C   UNL     1      25.199   4.432 -17.791  1.00  0.00     0.211 A 
ATOM     10  C   UNL     1      25.511   5.424 -18.754  1.00  0.00     0.208 A 
ATOM     11  C   UNL     1      25.612   6.783 -18.370  1.00  0.00     0.179 A 
ENDROOT
BRANCH   1  12
ATOM     12  C   UNL     1      24.679   8.026 -12.910  1.00  0.00     0.018 A 
ATOM     13  C   UNL     1      24.178   8.484 -10.169  1.00  0.00     0.118 A 
ATOM     14  C   UNL     1      24.486   7.200 -10.630  1.00  0.00     0.047 A 
ATOM     15  C   UNL     1      24.114   9.544 -11.090  1.00  0.00     0.047 A 
ATOM     16  C   UNL     1      24.732   6.972 -11.986  1.00  0.00     0.016 A 
ATOM     17  C   UNL     1      24.357   9.315 -12.448  1.00  0.00     0.016 A 
BRANCH  13  18
ATOM     18  O   UNL     1      23.943   8.662  -8.798  1.00  0.00    -0.497 OA
ATOM     19  C   UNL     1      24.852   9.294  -7.902  1.00  0.00     0.278 C 
ENDBRANCH  13  18
ENDBRANCH   1  12
BRANCH   8  20
ATOM     20  O   UNL     1      24.810   3.771 -15.488  1.00  0.00    -0.490 OA
ATOM     21  C   UNL     1      25.770   3.140 -14.648  1.00  0.00     0.278 C 
ENDBRANCH   8  20
BRANCH  11  22
ATOM     22  O   UNL     1      25.937   7.807 -19.287  1.00  0.00    -0.492 OA
ATOM     23  C   UNL     1      27.153   7.963 -20.010  1.00  0.00     0.278 C 
ENDBRANCH  11  22
BRANCH   9  24
ATOM     24  O   UNL     1      25.039   3.108 -18.246  1.00  0.00    -0.490 OA
ATOM     25  C   UNL     1      23.823   2.416 -18.511  1.00  0.00     0.279 C 
ENDBRANCH   9  24
BRANCH  10  26
ATOM     26  O   UNL     1      25.695   5.104 -20.112  1.00  0.00    -0.490 OA
ATOM     27  C   UNL     1      24.689   5.055 -21.118  1.00  0.00     0.278 C 
ENDBRANCH  10  26
TORSDOF 6
ENDMDL
MODEL 4
REMARK VINA RESULT:    -5.090      2.084      2.629
REMARK INTER + INTRA:          -7.515
REMARK INTER:                  -6.863
REMARK INTRA:                  -0.652
REMARK UNBOUND:                -0.640
REMARK SMILES COc1ccc(-c2cc(=O)c3c(OC)c(OC)c(OC)c(OC)c3o2)cc1
REMARK SMILES IDX 7 1 8 2 9 3 10 4 11 5 24 6 25 7 21 8 18 9 15 10 12 11 6 12
REMARK SMILES IDX 3 13 4 14 27 15 5 16 26 17 2 18 1 19 22 20 23 21 13 22 14 23
REMARK SMILES IDX 19 24 20 25 16 26 17 27
REMARK H PARENT
REMARK Flexibility Score: inf
ROOT
ATOM      1  C   UNL     1      23.523   9.306 -10.550  1.00  0.00     0.138 A 
ATOM      2  C   UNL     1      22.167   9.616 -10.417  1.00  0.00     0.100 A 
ATOM      3  C   UNL     1      21.330   9.505 -11.523  1.00  0.00     0.197 A 
ATOM      4  O   UNL     1      20.110   9.790 -11.382  1.00  0.00    -0.289 OA
ATOM      5  C   UNL     1      21.856   9.078 -12.767  1.00  0.00     0.115 A 
ATOM      6  C   UNL     1      23.241   8.792 -12.827  1.00  0.00     0.188 A 
ATOM      7  O   UNL     1      23.990   8.923 -11.733  1.00  0.00    -0.452 OA
ATOM      8  C   UNL     1      23.830   8.351 -14.034  1.00  0.00     0.209 A 
ATOM      9  C   UNL     1      23.015   8.154 -15.178  1.00  0.00     0.211 A 
ATOM     10  C   UNL     1      21.636   8.480 -15.130  1.00  0.00     0.208 A 
ATOM     11  C   UNL     1      21.057   8.950 -13.926  1.00  0.00     0.179 A 
ENDROOT
BRANCH   1  12
ATOM     12  C   UNL     1      24.456   9.405  -9.402  1.00  0.00     0.018 A 
ATOM     13  C   UNL     1      26.205   9.556  -7.190  1.00  0.00     0.118 A 
ATOM     14  C   UNL     1      25.523   8.370  -7.476  1.00  0.00     0.047 A 
ATOM     15  C   UNL     1      26.003  10.677  -8.014  1.00  0.00     0.047 A 
ATOM     16  C   UNL     1      24.655   8.294  -8.569  1.00  0.00     0.016 A 
ATOM     17  C   UNL     1      25.133  10.602  -9.107  1.00  0.00     0.016 A 
BRANCH  13  18
ATOM     18  O   UNL     1      27.067   9.580  -6.084  1.00  0.00    -0.497 OA
ATOM     19  C   UNL     1      28.484   9.462  -6.166  1.00  0.00     0.278 C 
ENDBRANCH  13  18
ENDBRANCH   1  12
BRANCH   8  20
ATOM     20  O   UNL     1      25.209   8.090 -14.143  1.00  0.00    -0.490 OA
ATOM     21  C   UNL     1      25.904   6.931 -13.696  1.00  0.00     0.278 C 
ENDBRANCH   8  20
BRANCH  11  22
ATOM     22  O   UNL     1      19.693   9.304 -13.830  1.00  0.00    -0.492 OA
ATOM     23  C   UNL     1      19.039  10.396 -14.466  1.00  0.00     0.278 C 
ENDBRANCH  11  22
BRANCH   9  24
ATOM     24  O   UNL     1      23.517   7.621 -16.382  1.00  0.00    -0.490 OA
ATOM     25  C   UNL     1      23.730   6.252 -16.710  1.00  0.00     0.279 C 
ENDBRANCH   9  24
BRANCH  10  26
ATOM     26  O   UNL     1      20.799   8.318 -16.248  1.00  0.00    -0.490 OA
ATOM     27  C   UNL     1      20.069   7.148 -16.603  1.00  0.00     0.278 C 
ENDBRANCH  10  26
TORSDOF 6
ENDMDL
MODEL 5
REMARK VINA RESULT:    -4.981      2.756      4.576
REMARK INTER + INTRA:          -7.369
REMARK INTER:                  -6.996
REMARK INTRA:                  -0.372
REMARK UNBOUND:                -0.640
REMARK SMILES COc1ccc(-c2cc(=O)c3c(OC)c(OC)c(OC)c(OC)c3o2)cc1
REMARK SMILES IDX 7 1 8 2 9 3 10 4 11 5 24 6 25 7 21 8 18 9 15 10 12 11 6 12
REMARK SMILES IDX 3 13 4 14 27 15 5 16 26 17 2 18 1 19 22 20 23 21 13 22 14 23
REMARK SMILES IDX 19 24 20 25 16 26 17 27
REMARK H PARENT
REMARK Flexibility Score: inf
ROOT
ATOM      1  C   UNL     1      24.581   8.378 -14.082  1.00  0.00     0.138 A 
ATOM      2  C   UNL     1      24.485   9.246 -15.173  1.00  0.00     0.100 A 
ATOM      3  C   UNL     1      24.723   8.758 -16.454  1.00  0.00     0.197 A 
ATOM      4  O   UNL     1      24.633   9.557 -17.425  1.00  0.00    -0.289 OA
ATOM      5  C   UNL     1      25.054   7.393 -16.640  1.00  0.00     0.115 A 
ATOM      6  C   UNL     1      25.142   6.578 -15.487  1.00  0.00     0.188 A 
ATOM      7  O   UNL     1      24.908   7.107 -14.287  1.00  0.00    -0.452 OA
ATOM      8  C   UNL     1      25.458   5.206 -15.602  1.00  0.00     0.209 A 
ATOM      9  C   UNL     1      25.645   4.637 -16.887  1.00  0.00     0.211 A 
ATOM     10  C   UNL     1      25.598   5.460 -18.039  1.00  0.00     0.208 A 
ATOM     11  C   UNL     1      25.310   6.842 -17.917  1.00  0.00     0.179 A 
ENDROOT
BRANCH   1  12
ATOM     12  C   UNL     1      24.334   8.847 -12.696  1.00  0.00     0.018 A 
ATOM     13  C   UNL     1      23.896   9.780 -10.067  1.00  0.00     0.118 A 
ATOM     14  C   UNL     1      24.187  10.677 -11.100  1.00  0.00     0.047 A 
ATOM     15  C   UNL     1      23.833   8.406 -10.353  1.00  0.00     0.047 A 
ATOM     16  C   UNL     1      24.406  10.217 -12.401  1.00  0.00     0.016 A 
ATOM     17  C   UNL     1      24.054   7.944 -11.654  1.00  0.00     0.016 A 
BRANCH  13  18
ATOM     18  O   UNL     1      23.681  10.293  -8.780  1.00  0.00    -0.497 OA
ATOM     19  C   UNL     1      23.875   9.555  -7.578  1.00  0.00     0.278 C 
ENDBRANCH  13  18
ENDBRANCH   1  12
BRANCH   8  20
ATOM     20  O   UNL     1      25.590   4.371 -14.475  1.00  0.00    -0.490 OA
ATOM     21  C   UNL     1      26.285   4.659 -13.268  1.00  0.00     0.278 C 
ENDBRANCH   8  20
BRANCH  11  22
ATOM     22  O   UNL     1      25.269   7.708 -19.031  1.00  0.00    -0.492 OA
ATOM     23  C   UNL     1      26.365   8.137 -19.831  1.00  0.00     0.278 C 
ENDBRANCH  11  22
BRANCH   9  24
ATOM     24  O   UNL     1      25.862   3.257 -17.079  1.00  0.00    -0.490 OA
ATOM     25  C   UNL     1      24.887   2.239 -17.278  1.00  0.00     0.279 C 
ENDBRANCH   9  24
BRANCH  10  26
ATOM     26  O   UNL     1      25.798   4.938 -19.330  1.00  0.00    -0.490 OA
ATOM     27  C   UNL     1      24.790   4.510 -20.241  1.00  0.00     0.278 C 
ENDBRANCH  10  26
TORSDOF 6
ENDMDL
MODEL 6
REMARK VINA RESULT:    -4.842      2.537      7.631
REMARK INTER + INTRA:          -7.181
REMARK INTER:                  -6.811
REMARK INTRA:                  -0.370
REMARK UNBOUND:                -0.640
REMARK SMILES COc1ccc(-c2cc(=O)c3c(OC)c(OC)c(OC)c(OC)c3o2)cc1
REMARK SMILES IDX 7 1 8 2 9 3 10 4 11 5 24 6 25 7 21 8 18 9 15 10 12 11 6 12
REMARK SMILES IDX 3 13 4 14 27 15 5 16 26 17 2 18 1 19 22 20 23 21 13 22 14 23
REMARK SMILES IDX 19 24 20 25 16 26 17 27
REMARK H PARENT
REMARK Flexibility Score: inf
ROOT
ATOM      1  C   UNL     1      25.777   6.701 -14.146  1.00  0.00     0.138 A 
ATOM      2  C   UNL     1      26.009   5.766 -13.134  1.00  0.00     0.100 A 
ATOM      3  C   UNL     1      25.598   6.051 -11.836  1.00  0.00     0.197 A 
ATOM      4  O   UNL     1      25.819   5.195 -10.937  1.00  0.00    -0.289 OA
ATOM      5  C   UNL     1      24.947   7.277 -11.554  1.00  0.00     0.115 A 
ATOM      6  C   UNL     1      24.754   8.177 -12.628  1.00  0.00     0.188 A 
ATOM      7  O   UNL     1      25.177   7.848 -13.848  1.00  0.00    -0.452 OA
ATOM      8  C   UNL     1      24.102   9.414 -12.419  1.00  0.00     0.209 A 
ATOM      9  C   UNL     1      23.600   9.730 -11.131  1.00  0.00     0.211 A 
ATOM     10  C   UNL     1      23.829   8.848 -10.046  1.00  0.00     0.208 A 
ATOM     11  C   UNL     1      24.510   7.623 -10.254  1.00  0.00     0.179 A 
ENDROOT
BRANCH   1  12
ATOM     12  C   UNL     1      26.192   6.445 -15.547  1.00  0.00     0.018 A 
ATOM     13  C   UNL     1      26.995   6.009 -18.219  1.00  0.00     0.118 A 
ATOM     14  C   UNL     1      27.554   7.050 -17.470  1.00  0.00     0.047 A 
ATOM     15  C   UNL     1      26.022   5.187 -17.626  1.00  0.00     0.047 A 
ATOM     16  C   UNL     1      27.156   7.268 -16.148  1.00  0.00     0.016 A 
ATOM     17  C   UNL     1      25.622   5.406 -16.304  1.00  0.00     0.016 A 
BRANCH  13  18
ATOM     18  O   UNL     1      27.431   5.830 -19.540  1.00  0.00    -0.497 OA
ATOM     19  C   UNL     1      26.971   6.595 -20.649  1.00  0.00     0.278 C 
ENDBRANCH  13  18
ENDBRANCH   1  12
BRANCH   8  20
ATOM     20  O   UNL     1      23.924  10.350 -13.455  1.00  0.00    -0.490 OA
ATOM     21  C   UNL     1      22.870  10.387 -14.411  1.00  0.00     0.278 C 
ENDBRANCH   8  20
BRANCH  11  22
ATOM     22  O   UNL     1      24.778   6.718  -9.205  1.00  0.00    -0.492 OA
ATOM     23  C   UNL     1      25.383   7.007  -7.949  1.00  0.00     0.278 C 
ENDBRANCH  11  22
BRANCH   9  24
ATOM     24  O   UNL     1      22.853  10.898 -10.876  1.00  0.00    -0.490 OA
ATOM     25  C   UNL     1      21.450  11.087 -11.028  1.00  0.00     0.279 C 
ENDBRANCH   9  24
BRANCH  10  26
ATOM     26  O   UNL     1      23.366   9.135  -8.749  1.00  0.00    -0.490 OA
ATOM     27  C   UNL     1      23.759  10.230  -7.928  1.00  0.00     0.278 C 
ENDBRANCH  10  26
TORSDOF 6
ENDMDL
MODEL 7
REMARK VINA RESULT:    -4.776      1.774      2.179
REMARK INTER + INTRA:          -7.092
REMARK INTER:                  -6.509
REMARK INTRA:                  -0.583
REMARK UNBOUND:                -0.640
REMARK SMILES COc1ccc(-c2cc(=O)c3c(OC)c(OC)c(OC)c(OC)c3o2)cc1
REMARK SMILES IDX 7 1 8 2 9 3 10 4 11 5 24 6 25 7 21 8 18 9 15 10 12 11 6 12
REMARK SMILES IDX 3 13 4 14 27 15 5 16 26 17 2 18 1 19 22 20 23 21 13 22 14 23
REMARK SMILES IDX 19 24 20 25 16 26 17 27
REMARK H PARENT
REMARK Flexibility Score: inf
ROOT
ATOM      1  C   UNL     1      23.548   8.741 -11.983  1.00  0.00     0.138 A 
ATOM      2  C   UNL     1      22.178   8.818 -12.247  1.00  0.00     0.100 A 
ATOM      3  C   UNL     1      21.713   8.530 -13.526  1.00  0.00     0.197 A 
ATOM      4  O   UNL     1      20.473   8.608 -13.744  1.00  0.00    -0.289 OA
ATOM      5  C   UNL     1      22.626   8.159 -14.543  1.00  0.00     0.115 A 
ATOM      6  C   UNL     1      23.999   8.112 -14.204  1.00  0.00     0.188 A 
ATOM      7  O   UNL     1      24.381   8.404 -12.962  1.00  0.00    -0.452 OA
ATOM      8  C   UNL     1      24.963   7.739 -15.167  1.00  0.00     0.209 A 
ATOM      9  C   UNL     1      24.542   7.368 -16.470  1.00  0.00     0.211 A 
ATOM     10  C   UNL     1      23.172   7.455 -16.823  1.00  0.00     0.208 A 
ATOM     11  C   UNL     1      22.213   7.859 -15.862  1.00  0.00     0.179 A 
ENDROOT
BRANCH   1  12
ATOM     12  C   UNL     1      24.095   9.035 -10.636  1.00  0.00     0.018 A 
ATOM     13  C   UNL     1      25.167   9.631  -8.093  1.00  0.00     0.118 A 
ATOM     14  C   UNL     1      25.100  10.616  -9.084  1.00  0.00     0.047 A 
ATOM     15  C   UNL     1      24.702   8.337  -8.382  1.00  0.00     0.047 A 
ATOM     16  C   UNL     1      24.571  10.321 -10.344  1.00  0.00     0.016 A 
ATOM     17  C   UNL     1      24.174   8.041  -9.643  1.00  0.00     0.016 A 
BRANCH  13  18
ATOM     18  O   UNL     1      25.703   9.978  -6.845  1.00  0.00    -0.497 OA
ATOM     19  C   UNL     1      27.007   9.616  -6.400  1.00  0.00     0.278 C 
ENDBRANCH  13  18
ENDBRANCH   1  12
BRANCH   8  20
ATOM     20  O   UNL     1      26.340   7.714 -14.878  1.00  0.00    -0.490 OA
ATOM     21  C   UNL     1      27.064   6.678 -14.223  1.00  0.00     0.278 C 
ENDBRANCH   8  20
BRANCH  11  22
ATOM     22  O   UNL     1      20.839   7.978 -16.167  1.00  0.00    -0.492 OA
ATOM     23  C   UNL     1      20.215   8.989 -16.950  1.00  0.00     0.278 C 
ENDBRANCH  11  22
BRANCH   9  24
ATOM     24  O   UNL     1      25.438   6.890 -17.447  1.00  0.00    -0.490 OA
ATOM     25  C   UNL     1      25.895   5.555 -17.635  1.00  0.00     0.279 C 
ENDBRANCH   9  24
BRANCH  10  26
ATOM     26  O   UNL     1      22.717   7.117 -18.110  1.00  0.00    -0.490 OA
ATOM     27  C   UNL     1      22.906   7.869 -19.304  1.00  0.00     0.278 C 
ENDBRANCH  10  26
TORSDOF 6
ENDMDL
MODEL 8
REMARK VINA RESULT:    -4.769      1.727      2.298
REMARK INTER + INTRA:          -7.082
REMARK INTER:                  -6.595
REMARK INTRA:                  -0.487
REMARK UNBOUND:                -0.640
REMARK SMILES COc1ccc(-c2cc(=O)c3c(OC)c(OC)c(OC)c(OC)c3o2)cc1
REMARK SMILES IDX 7 1 8 2 9 3 10 4 11 5 24 6 25 7 21 8 18 9 15 10 12 11 6 12
REMARK SMILES IDX 3 13 4 14 27 15 5 16 26 17 2 18 1 19 22 20 23 21 13 22 14 23
REMARK SMILES IDX 19 24 20 25 16 26 17 27
REMARK H PARENT
REMARK Flexibility Score: inf
ROOT
ATOM      1  C   UNL     1      24.584   7.723 -12.616  1.00  0.00     0.138 A 
ATOM      2  C   UNL     1      24.041   8.970 -12.935  1.00  0.00     0.100 A 
ATOM      3  C   UNL     1      23.937   9.347 -14.270  1.00  0.00     0.197 A 
ATOM      4  O   UNL     1      23.446  10.477 -14.537  1.00  0.00    -0.289 OA
ATOM      5  C   UNL     1      24.376   8.467 -15.290  1.00  0.00     0.115 A 
ATOM      6  C   UNL     1      24.923   7.225 -14.889  1.00  0.00     0.188 A 
ATOM      7  O   UNL     1      25.001   6.925 -13.594  1.00  0.00    -0.452 OA
ATOM      8  C   UNL     1      25.371   6.295 -15.855  1.00  0.00     0.209 A 
ATOM      9  C   UNL     1      25.228   6.595 -17.233  1.00  0.00     0.211 A 
ATOM     10  C   UNL     1      24.718   7.855 -17.634  1.00  0.00     0.208 A 
ATOM     11  C   UNL     1      24.299   8.796 -16.663  1.00  0.00     0.179 A 
ENDROOT
BRANCH   1  12
ATOM     12  C   UNL     1      24.715   7.272 -11.209  1.00  0.00     0.018 A 
ATOM     13  C   UNL     1      24.953   6.365  -8.546  1.00  0.00     0.118 A 
ATOM     14  C   UNL     1      25.224   5.506  -9.616  1.00  0.00     0.047 A 
ATOM     15  C   UNL     1      24.552   7.685  -8.814  1.00  0.00     0.047 A 
ATOM     16  C   UNL     1      25.105   5.953 -10.935  1.00  0.00     0.016 A 
ATOM     17  C   UNL     1      24.430   8.132 -10.133  1.00  0.00     0.016 A 
BRANCH  13  18
ATOM     18  O   UNL     1      25.091   5.869  -7.242  1.00  0.00    -0.497 OA
ATOM     19  C   UNL     1      26.279   5.278  -6.727  1.00  0.00     0.278 C 
ENDBRANCH  13  18
ENDBRANCH   1  12
BRANCH   8  20
ATOM     20  O   UNL     1      25.954   5.065 -15.495  1.00  0.00    -0.490 OA
ATOM     21  C   UNL     1      25.298   3.809 -15.358  1.00  0.00     0.278 C 
ENDBRANCH   8  20
BRANCH  11  22
ATOM     22  O   UNL     1      23.800  10.071 -17.009  1.00  0.00    -0.492 OA
ATOM     23  C   UNL     1      22.514  10.380 -17.534  1.00  0.00     0.278 C 
ENDBRANCH  11  22
BRANCH   9  24
ATOM     24  O   UNL     1      25.559   5.672 -18.246  1.00  0.00    -0.490 OA
ATOM     25  C   UNL     1      24.730   4.664 -18.814  1.00  0.00     0.279 C 
ENDBRANCH   9  24
BRANCH  10  26
ATOM     26  O   UNL     1      24.580   8.198 -18.992  1.00  0.00    -0.490 OA
ATOM     27  C   UNL     1      23.460   7.928 -19.828  1.00  0.00     0.278 C 
ENDBRANCH  10  26
TORSDOF 6
ENDMDL
MODEL 9
REMARK VINA RESULT:    -4.717      2.605      4.613
REMARK INTER + INTRA:          -7.012
REMARK INTER:                  -6.391
REMARK INTRA:                  -0.621
REMARK UNBOUND:                -0.640
REMARK SMILES COc1ccc(-c2cc(=O)c3c(OC)c(OC)c(OC)c(OC)c3o2)cc1
REMARK SMILES IDX 7 1 8 2 9 3 10 4 11 5 24 6 25 7 21 8 18 9 15 10 12 11 6 12
REMARK SMILES IDX 3 13 4 14 27 15 5 16 26 17 2 18 1 19 22 20 23 21 13 22 14 23
REMARK SMILES IDX 19 24 20 25 16 26 17 27
REMARK H PARENT
REMARK Flexibility Score: inf
ROOT
ATOM      1  C   UNL     1      24.782   7.770 -13.202  1.00  0.00     0.138 A 
ATOM      2  C   UNL     1      25.336   6.501 -13.018  1.00  0.00     0.100 A 
ATOM      3  C   UNL     1      25.584   5.699 -14.128  1.00  0.00     0.197 A 
ATOM      4  O   UNL     1      26.082   4.556 -13.941  1.00  0.00    -0.289 OA
ATOM      5  C   UNL     1      25.279   6.176 -15.427  1.00  0.00     0.115 A 
ATOM      6  C   UNL     1      24.711   7.467 -15.532  1.00  0.00     0.188 A 
ATOM      7  O   UNL     1      24.493   8.184 -14.431  1.00  0.00    -0.452 OA
ATOM      8  C   UNL     1      24.392   8.009 -16.798  1.00  0.00     0.209 A 
ATOM      9  C   UNL     1      24.685   7.265 -17.970  1.00  0.00     0.211 A 
ATOM     10  C   UNL     1      25.215   5.955 -17.863  1.00  0.00     0.208 A 
ATOM     11  C   UNL     1      25.505   5.405 -16.591  1.00  0.00     0.179 A 
ENDROOT
BRANCH   1  12
ATOM     12  C   UNL     1      24.501   8.666 -12.053  1.00  0.00     0.018 A 
ATOM     13  C   UNL     1      23.932  10.334  -9.847  1.00  0.00     0.118 A 
ATOM     14  C   UNL     1      23.828   8.944  -9.731  1.00  0.00     0.047 A 
ATOM     15  C   UNL     1      24.316  10.891 -11.079  1.00  0.00     0.047 A 
ATOM     16  C   UNL     1      24.107   8.117 -10.823  1.00  0.00     0.016 A 
ATOM     17  C   UNL     1      24.594  10.064 -12.172  1.00  0.00     0.016 A 
BRANCH  13  18
ATOM     18  O   UNL     1      23.645  11.120  -8.721  1.00  0.00    -0.497 OA
ATOM     19  C   UNL     1      22.394  11.122  -8.041  1.00  0.00     0.278 C 
ENDBRANCH  13  18
ENDBRANCH   1  12
BRANCH   8  20
ATOM     20  O   UNL     1      23.794   9.275 -16.942  1.00  0.00    -0.490 OA
ATOM     21  C   UNL     1      22.403   9.576 -16.938  1.00  0.00     0.278 C 
ENDBRANCH   8  20
BRANCH  11  22
ATOM     22  O   UNL     1      26.017   4.100 -16.429  1.00  0.00    -0.492 OA
ATOM     23  C   UNL     1      25.304   2.873 -16.542  1.00  0.00     0.278 C 
ENDBRANCH  11  22
BRANCH   9  24
ATOM     24  O   UNL     1      24.486   7.786 -19.265  1.00  0.00    -0.490 OA
ATOM     25  C   UNL     1      23.305   7.728 -20.058  1.00  0.00     0.279 C 
ENDBRANCH   9  24
BRANCH  10  26
ATOM     26  O   UNL     1      25.499   5.178 -19.001  1.00  0.00    -0.490 OA
ATOM     27  C   UNL     1      24.604   4.305 -19.680  1.00  0.00     0.278 C 
ENDBRANCH  10  26
TORSDOF 6
ENDMDL
