MODEL 1
REMARK VINA RESULT:    -3.544      0.000      0.000
REMARK INTER + INTRA:          -8.389
REMARK INTER:                  -6.237
REMARK INTRA:                  -2.152
REMARK UNBOUND:                -2.152
REMARK SMILES CCCCCCCCCCCCCCC(=O)[O-]
REMARK SMILES IDX 9 1 10 2 11 3 12 4 13 5 14 6 15 7 16 8 17 9 8 10 7 11 6 12
REMARK SMILES IDX 5 13 4 14 3 15 2 16 1 17
REMARK H PARENT
REMARK Flexibility Score: inf
ROOT
ATOM      1  C   UNL     1      -7.841  31.242  45.327  1.00  0.00     0.000 C 
ENDROOT
BRANCH   1   2
ATOM      2  C   UNL     1      -8.692  32.504  45.120  1.00  0.00     0.000 C 
BRANCH   2   3
ATOM      3  C   UNL     1      -8.189  33.697  45.953  1.00  0.00     0.000 C 
BRANCH   3   4
ATOM      4  C   UNL     1      -6.751  34.114  45.595  1.00  0.00     0.000 C 
BRANCH   4   5
ATOM      5  C   UNL     1      -5.898  34.587  46.786  1.00  0.00     0.006 C 
BRANCH   5   6
ATOM      6  C   UNL     1      -6.520  34.237  48.143  1.00  0.00     0.053 C 
BRANCH   6   7
ATOM      7  C   UNL     1      -5.469  33.739  49.086  1.00  0.00     0.041 C 
ATOM      8  O   UNL     1      -5.762  33.484  50.283  1.00  0.00    -0.550 OA
ATOM      9  O   UNL     1      -4.177  33.513  48.629  1.00  0.00    -0.550 OA
ENDBRANCH   6   7
ENDBRANCH   5   6
ENDBRANCH   4   5
ENDBRANCH   3   4
ENDBRANCH   2   3
ENDBRANCH   1   2
BRANCH   1  10
ATOM     10  C   UNL     1      -7.878  30.739  46.781  1.00  0.00     0.000 C 
BRANCH  10  11
ATOM     11  C   UNL     1      -6.474  30.503  47.366  1.00  0.00    -0.000 C 
BRANCH  11  12
ATOM     12  C   UNL     1      -5.312  30.854  46.419  1.00  0.00    -0.000 C 
BRANCH  12  13
ATOM     13  C   UNL     1      -4.511  29.618  45.970  1.00  0.00    -0.000 C 
BRANCH  13  14
ATOM     14  C   UNL     1      -4.913  28.349  46.750  1.00  0.00    -0.000 C 
BRANCH  14  15
ATOM     15  C   UNL     1      -5.339  27.181  45.845  1.00  0.00    -0.000 C 
BRANCH  15  16
ATOM     16  C   UNL     1      -6.807  26.782  46.034  1.00  0.00    -0.003 C 
ATOM     17  C   UNL     1      -7.706  27.491  45.025  1.00  0.00     0.004 C 
ENDBRANCH  15  16
ENDBRANCH  14  15
ENDBRANCH  13  14
ENDBRANCH  12  13
ENDBRANCH  11  12
ENDBRANCH  10  11
ENDBRANCH   1  10
TORSDOF 13
ENDMDL
MODEL 2
REMARK VINA RESULT:    -3.434      3.057      5.749
REMARK INTER + INTRA:          -8.195
REMARK INTER:                  -6.295
REMARK INTRA:                  -1.900
REMARK UNBOUND:                -2.152
REMARK SMILES CCCCCCCCCCCCCCC(=O)[O-]
REMARK SMILES IDX 9 1 10 2 11 3 12 4 13 5 14 6 15 7 16 8 17 9 8 10 7 11 6 12
REMARK SMILES IDX 5 13 4 14 3 15 2 16 1 17
REMARK H PARENT
REMARK Flexibility Score: inf
ROOT
ATOM      1  C   UNL     1      -8.658  31.395  44.800  1.00  0.00     0.000 C 
ENDROOT
BRANCH   1   2
ATOM      2  C   UNL     1      -8.507  30.261  45.825  1.00  0.00     0.000 C 
BRANCH   2   3
ATOM      3  C   UNL     1      -7.762  30.710  47.095  1.00  0.00     0.000 C 
BRANCH   3   4
ATOM      4  C   UNL     1      -6.452  29.934  47.326  1.00  0.00     0.000 C 
BRANCH   4   5
ATOM      5  C   UNL     1      -5.941  29.148  46.104  1.00  0.00     0.006 C 
BRANCH   5   6
ATOM      6  C   UNL     1      -5.343  27.787  46.479  1.00  0.00     0.053 C 
BRANCH   6   7
ATOM      7  C   UNL     1      -6.313  26.688  46.175  1.00  0.00     0.041 C 
ATOM      8  O   UNL     1      -7.288  26.899  45.406  1.00  0.00    -0.550 OA
ATOM      9  O   UNL     1      -6.114  25.419  46.703  1.00  0.00    -0.550 OA
ENDBRANCH   6   7
ENDBRANCH   5   6
ENDBRANCH   4   5
ENDBRANCH   3   4
ENDBRANCH   2   3
ENDBRANCH   1   2
BRANCH   1  10
ATOM     10  C   UNL     1      -8.022  32.711  45.280  1.00  0.00     0.000 C 
BRANCH  10  11
ATOM     11  C   UNL     1      -6.946  33.240  44.315  1.00  0.00    -0.000 C 
BRANCH  11  12
ATOM     12  C   UNL     1      -5.691  33.812  44.998  1.00  0.00    -0.000 C 
BRANCH  12  13
ATOM     13  C   UNL     1      -4.905  32.753  45.791  1.00  0.00    -0.000 C 
BRANCH  13  14
ATOM     14  C   UNL     1      -4.510  33.253  47.197  1.00  0.00    -0.000 C 
BRANCH  14  15
ATOM     15  C   UNL     1      -5.557  34.180  47.835  1.00  0.00    -0.000 C 
BRANCH  15  16
ATOM     16  C   UNL     1      -6.378  33.490  48.932  1.00  0.00    -0.003 C 
ATOM     17  C   UNL     1      -5.865  33.861  50.321  1.00  0.00     0.004 C 
ENDBRANCH  15  16
ENDBRANCH  14  15
ENDBRANCH  13  14
ENDBRANCH  12  13
ENDBRANCH  11  12
ENDBRANCH  10  11
ENDBRANCH   1  10
TORSDOF 13
ENDMDL
MODEL 3
REMARK VINA RESULT:    -3.402      0.947      2.038
REMARK INTER + INTRA:          -8.139
REMARK INTER:                  -6.485
REMARK INTRA:                  -1.655
REMARK UNBOUND:                -2.152
REMARK SMILES CCCCCCCCCCCCCCC(=O)[O-]
REMARK SMILES IDX 9 1 10 2 11 3 12 4 13 5 14 6 15 7 16 8 17 9 8 10 7 11 6 12
REMARK SMILES IDX 5 13 4 14 3 15 2 16 1 17
REMARK H PARENT
REMARK Flexibility Score: inf
ROOT
ATOM      1  C   UNL     1      -7.607  30.833  47.137  1.00  0.00     0.000 C 
ENDROOT
BRANCH   1   2
ATOM      2  C   UNL     1      -7.814  31.581  45.811  1.00  0.00     0.000 C 
BRANCH   2   3
ATOM      3  C   UNL     1      -7.901  33.106  46.002  1.00  0.00     0.000 C 
BRANCH   3   4
ATOM      4  C   UNL     1      -6.547  33.812  45.809  1.00  0.00     0.000 C 
BRANCH   4   5
ATOM      5  C   UNL     1      -6.121  34.725  46.973  1.00  0.00     0.006 C 
BRANCH   5   6
ATOM      6  C   UNL     1      -6.677  34.265  48.326  1.00  0.00     0.053 C 
BRANCH   6   7
ATOM      7  C   UNL     1      -5.574  33.736  49.190  1.00  0.00     0.041 C 
ATOM      8  O   UNL     1      -4.440  33.503  48.698  1.00  0.00    -0.550 OA
ATOM      9  O   UNL     1      -5.788  33.545  50.549  1.00  0.00    -0.550 OA
ENDBRANCH   6   7
ENDBRANCH   5   6
ENDBRANCH   4   5
ENDBRANCH   3   4
ENDBRANCH   2   3
ENDBRANCH   1   2
BRANCH   1  10
ATOM     10  C   UNL     1      -6.127  30.504  47.402  1.00  0.00     0.000 C 
BRANCH  10  11
ATOM     11  C   UNL     1      -5.445  29.817  46.205  1.00  0.00    -0.000 C 
BRANCH  11  12
ATOM     12  C   UNL     1      -4.846  28.432  46.511  1.00  0.00    -0.000 C 
BRANCH  12  13
ATOM     13  C   UNL     1      -5.860  27.288  46.336  1.00  0.00    -0.000 C 
BRANCH  13  14
ATOM     14  C   UNL     1      -6.713  27.457  45.060  1.00  0.00    -0.000 C 
BRANCH  14  15
ATOM     15  C   UNL     1      -8.205  27.697  45.347  1.00  0.00    -0.000 C 
BRANCH  15  16
ATOM     16  C   UNL     1      -8.928  28.408  44.196  1.00  0.00    -0.003 C 
ATOM     17  C   UNL     1     -10.159  27.623  43.750  1.00  0.00     0.004 C 
ENDBRANCH  15  16
ENDBRANCH  14  15
ENDBRANCH  13  14
ENDBRANCH  12  13
ENDBRANCH  11  12
ENDBRANCH  10  11
ENDBRANCH   1  10
TORSDOF 13
ENDMDL
MODEL 4
REMARK VINA RESULT:    -3.313      3.962      7.094
REMARK INTER + INTRA:          -7.983
REMARK INTER:                  -6.504
REMARK INTRA:                  -1.479
REMARK UNBOUND:                -2.152
REMARK SMILES CCCCCCCCCCCCCCC(=O)[O-]
REMARK SMILES IDX 9 1 10 2 11 3 12 4 13 5 14 6 15 7 16 8 17 9 8 10 7 11 6 12
REMARK SMILES IDX 5 13 4 14 3 15 2 16 1 17
REMARK H PARENT
REMARK Flexibility Score: inf
ROOT
ATOM      1  C   UNL     1      -4.583  29.085  46.141  1.00  0.00     0.000 C 
ENDROOT
BRANCH   1   2
ATOM      2  C   UNL     1      -5.455  27.883  46.535  1.00  0.00     0.000 C 
BRANCH   2   3
ATOM      3  C   UNL     1      -6.135  27.226  45.320  1.00  0.00     0.000 C 
BRANCH   3   4
ATOM      4  C   UNL     1      -7.671  27.230  45.419  1.00  0.00     0.000 C 
BRANCH   4   5
ATOM      5  C   UNL     1      -8.376  28.243  44.498  1.00  0.00     0.006 C 
BRANCH   5   6
ATOM      6  C   UNL     1      -9.864  27.928  44.293  1.00  0.00     0.053 C 
BRANCH   6   7
ATOM      7  C   UNL     1     -10.065  27.164  43.022  1.00  0.00     0.041 C 
ATOM      8  O   UNL     1      -9.141  27.097  42.170  1.00  0.00    -0.550 OA
ATOM      9  O   UNL     1     -11.257  26.487  42.800  1.00  0.00    -0.550 OA
ENDBRANCH   6   7
ENDBRANCH   5   6
ENDBRANCH   4   5
ENDBRANCH   3   4
ENDBRANCH   2   3
ENDBRANCH   1   2
BRANCH   1  10
ATOM     10  C   UNL     1      -5.127  30.414  46.693  1.00  0.00     0.000 C 
BRANCH  10  11
ATOM     11  C   UNL     1      -6.468  30.248  47.430  1.00  0.00    -0.000 C 
BRANCH  11  12
ATOM     12  C   UNL     1      -7.623  31.098  46.870  1.00  0.00    -0.000 C 
BRANCH  12  13
ATOM     13  C   UNL     1      -7.147  32.434  46.269  1.00  0.00    -0.000 C 
BRANCH  13  14
ATOM     14  C   UNL     1      -7.226  33.591  47.287  1.00  0.00    -0.000 C 
BRANCH  14  15
ATOM     15  C   UNL     1      -5.852  34.156  47.683  1.00  0.00    -0.000 C 
BRANCH  15  16
ATOM     16  C   UNL     1      -5.313  33.558  48.989  1.00  0.00    -0.003 C 
ATOM     17  C   UNL     1      -6.192  33.943  50.175  1.00  0.00     0.004 C 
ENDBRANCH  15  16
ENDBRANCH  14  15
ENDBRANCH  13  14
ENDBRANCH  12  13
ENDBRANCH  11  12
ENDBRANCH  10  11
ENDBRANCH   1  10
TORSDOF 13
ENDMDL
MODEL 5
REMARK VINA RESULT:    -3.304      1.524      2.427
REMARK INTER + INTRA:          -7.967
REMARK INTER:                  -5.989
REMARK INTRA:                  -1.977
REMARK UNBOUND:                -2.152
REMARK SMILES CCCCCCCCCCCCCCC(=O)[O-]
REMARK SMILES IDX 9 1 10 2 11 3 12 4 13 5 14 6 15 7 16 8 17 9 8 10 7 11 6 12
REMARK SMILES IDX 5 13 4 14 3 15 2 16 1 17
REMARK H PARENT
REMARK Flexibility Score: inf
ROOT
ATOM      1  C   UNL     1      -8.415  29.650  43.850  1.00  0.00     0.000 C 
ENDROOT
BRANCH   1   2
ATOM      2  C   UNL     1      -8.889  29.916  45.287  1.00  0.00     0.000 C 
BRANCH   2   3
ATOM      3  C   UNL     1      -8.201  31.139  45.918  1.00  0.00     0.000 C 
BRANCH   3   4
ATOM      4  C   UNL     1      -7.440  30.796  47.211  1.00  0.00     0.000 C 
BRANCH   4   5
ATOM      5  C   UNL     1      -6.182  31.648  47.468  1.00  0.00     0.006 C 
BRANCH   5   6
ATOM      6  C   UNL     1      -6.508  33.048  48.001  1.00  0.00     0.053 C 
BRANCH   6   7
ATOM      7  C   UNL     1      -5.488  33.473  49.011  1.00  0.00     0.041 C 
ATOM      8  O   UNL     1      -5.810  33.599  50.221  1.00  0.00    -0.550 OA
ATOM      9  O   UNL     1      -4.171  33.681  48.623  1.00  0.00    -0.550 OA
ENDBRANCH   6   7
ENDBRANCH   5   6
ENDBRANCH   4   5
ENDBRANCH   3   4
ENDBRANCH   2   3
ENDBRANCH   1   2
BRANCH   1  10
ATOM     10  C   UNL     1      -7.267  30.583  43.428  1.00  0.00     0.000 C 
BRANCH  10  11
ATOM     11  C   UNL     1      -6.226  29.882  42.536  1.00  0.00    -0.000 C 
BRANCH  11  12
ATOM     12  C   UNL     1      -5.131  29.117  43.302  1.00  0.00    -0.000 C 
BRANCH  12  13
ATOM     13  C   UNL     1      -4.746  29.792  44.631  1.00  0.00    -0.000 C 
BRANCH  13  14
ATOM     14  C   UNL     1      -4.092  28.802  45.618  1.00  0.00    -0.000 C 
BRANCH  14  15
ATOM     15  C   UNL     1      -5.084  28.190  46.621  1.00  0.00    -0.000 C 
BRANCH  15  16
ATOM     16  C   UNL     1      -5.568  26.794  46.208  1.00  0.00    -0.003 C 
ATOM     17  C   UNL     1      -7.027  26.827  45.761  1.00  0.00     0.004 C 
ENDBRANCH  15  16
ENDBRANCH  14  15
ENDBRANCH  13  14
ENDBRANCH  12  13
ENDBRANCH  11  12
ENDBRANCH  10  11
ENDBRANCH   1  10
TORSDOF 13
ENDMDL
MODEL 6
REMARK VINA RESULT:    -3.283      1.572      2.554
REMARK INTER + INTRA:          -7.929
REMARK INTER:                  -5.564
REMARK INTRA:                  -2.365
REMARK UNBOUND:                -2.152
REMARK SMILES CCCCCCCCCCCCCCC(=O)[O-]
REMARK SMILES IDX 9 1 10 2 11 3 12 4 13 5 14 6 15 7 16 8 17 9 8 10 7 11 6 12
REMARK SMILES IDX 5 13 4 14 3 15 2 16 1 17
REMARK H PARENT
REMARK Flexibility Score: inf
ROOT
ATOM      1  C   UNL     1      -8.297  30.259  46.241  1.00  0.00     0.000 C 
ENDROOT
BRANCH   1   2
ATOM      2  C   UNL     1      -7.357  31.145  47.073  1.00  0.00     0.000 C 
BRANCH   2   3
ATOM      3  C   UNL     1      -6.018  30.454  47.384  1.00  0.00     0.000 C 
BRANCH   3   4
ATOM      4  C   UNL     1      -4.799  31.325  47.030  1.00  0.00     0.000 C 
BRANCH   4   5
ATOM      5  C   UNL     1      -5.035  32.843  47.134  1.00  0.00     0.006 C 
BRANCH   5   6
ATOM      6  C   UNL     1      -4.573  33.428  48.474  1.00  0.00     0.053 C 
BRANCH   6   7
ATOM      7  C   UNL     1      -5.754  33.780  49.325  1.00  0.00     0.041 C 
ATOM      8  O   UNL     1      -5.720  33.585  50.568  1.00  0.00    -0.550 OA
ATOM      9  O   UNL     1      -6.873  34.368  48.750  1.00  0.00    -0.550 OA
ENDBRANCH   6   7
ENDBRANCH   5   6
ENDBRANCH   4   5
ENDBRANCH   3   4
ENDBRANCH   2   3
ENDBRANCH   1   2
BRANCH   1  10
ATOM     10  C   UNL     1      -8.524  30.811  44.823  1.00  0.00     0.000 C 
BRANCH  10  11
ATOM     11  C   UNL     1      -7.559  31.956  44.467  1.00  0.00    -0.000 C 
BRANCH  11  12
ATOM     12  C   UNL     1      -6.400  31.557  43.536  1.00  0.00    -0.000 C 
BRANCH  12  13
ATOM     13  C   UNL     1      -6.310  30.037  43.307  1.00  0.00    -0.000 C 
BRANCH  13  14
ATOM     14  C   UNL     1      -4.956  29.458  43.770  1.00  0.00    -0.000 C 
BRANCH  14  15
ATOM     15  C   UNL     1      -5.093  28.205  44.650  1.00  0.00    -0.000 C 
BRANCH  15  16
ATOM     16  C   UNL     1      -6.453  27.511  44.496  1.00  0.00    -0.003 C 
ATOM     17  C   UNL     1      -6.895  26.867  45.807  1.00  0.00     0.004 C 
ENDBRANCH  15  16
ENDBRANCH  14  15
ENDBRANCH  13  14
ENDBRANCH  12  13
ENDBRANCH  11  12
ENDBRANCH  10  11
ENDBRANCH   1  10
TORSDOF 13
ENDMDL
MODEL 7
REMARK VINA RESULT:    -3.250      3.120      5.351
REMARK INTER + INTRA:          -7.871
REMARK INTER:                  -5.618
REMARK INTRA:                  -2.253
REMARK UNBOUND:                -2.152
REMARK SMILES CCCCCCCCCCCCCCC(=O)[O-]
REMARK SMILES IDX 9 1 10 2 11 3 12 4 13 5 14 6 15 7 16 8 17 9 8 10 7 11 6 12
REMARK SMILES IDX 5 13 4 14 3 15 2 16 1 17
REMARK H PARENT
REMARK Flexibility Score: inf
ROOT
ATOM      1  C   UNL     1      -8.653  32.523  45.376  1.00  0.00     0.000 C 
ENDROOT
BRANCH   1   2
ATOM      2  C   UNL     1      -7.812  31.240  45.457  1.00  0.00     0.000 C 
BRANCH   2   3
ATOM      3  C   UNL     1      -7.859  30.591  46.852  1.00  0.00     0.000 C 
BRANCH   3   4
ATOM      4  C   UNL     1      -6.496  30.032  47.298  1.00  0.00     0.000 C 
BRANCH   4   5
ATOM      5  C   UNL     1      -5.700  29.308  46.196  1.00  0.00     0.006 C 
BRANCH   5   6
ATOM      6  C   UNL     1      -5.309  27.877  46.584  1.00  0.00     0.053 C 
BRANCH   6   7
ATOM      7  C   UNL     1      -6.389  26.917  46.193  1.00  0.00     0.041 C 
ATOM      8  O   UNL     1      -6.394  25.747  46.656  1.00  0.00    -0.550 OA
ATOM      9  O   UNL     1      -7.416  27.330  45.354  1.00  0.00    -0.550 OA
ENDBRANCH   6   7
ENDBRANCH   5   6
ENDBRANCH   4   5
ENDBRANCH   3   4
ENDBRANCH   2   3
ENDBRANCH   1   2
BRANCH   1  10
ATOM     10  C   UNL     1      -7.791  33.796  45.439  1.00  0.00     0.000 C 
BRANCH  10  11
ATOM     11  C   UNL     1      -7.338  34.140  46.869  1.00  0.00    -0.000 C 
BRANCH  11  12
ATOM     12  C   UNL     1      -5.835  34.441  47.016  1.00  0.00    -0.000 C 
BRANCH  12  13
ATOM     13  C   UNL     1      -5.073  33.336  47.768  1.00  0.00    -0.000 C 
BRANCH  13  14
ATOM     14  C   UNL     1      -3.914  32.754  46.930  1.00  0.00    -0.000 C 
BRANCH  14  15
ATOM     15  C   UNL     1      -3.907  33.240  45.471  1.00  0.00    -0.000 C 
BRANCH  15  16
ATOM     16  C   UNL     1      -4.283  32.138  44.472  1.00  0.00    -0.003 C 
ATOM     17  C   UNL     1      -5.037  32.713  43.276  1.00  0.00     0.004 C 
ENDBRANCH  15  16
ENDBRANCH  14  15
ENDBRANCH  13  14
ENDBRANCH  12  13
ENDBRANCH  11  12
ENDBRANCH  10  11
ENDBRANCH   1  10
TORSDOF 13
ENDMDL
MODEL 8
REMARK VINA RESULT:    -3.224      3.428      5.518
REMARK INTER + INTRA:          -7.826
REMARK INTER:                  -5.251
REMARK INTRA:                  -2.575
REMARK UNBOUND:                -2.152
REMARK SMILES CCCCCCCCCCCCCCC(=O)[O-]
REMARK SMILES IDX 9 1 10 2 11 3 12 4 13 5 14 6 15 7 16 8 17 9 8 10 7 11 6 12
REMARK SMILES IDX 5 13 4 14 3 15 2 16 1 17
REMARK H PARENT
REMARK Flexibility Score: inf
ROOT
ATOM      1  C   UNL     1      -7.349  31.807  46.696  1.00  0.00     0.000 C 
ENDROOT
BRANCH   1   2
ATOM      2  C   UNL     1      -8.031  30.437  46.826  1.00  0.00     0.000 C 
BRANCH   2   3
ATOM      3  C   UNL     1      -8.657  29.963  45.503  1.00  0.00     0.000 C 
BRANCH   3   4
ATOM      4  C   UNL     1      -7.788  28.927  44.767  1.00  0.00     0.000 C 
BRANCH   4   5
ATOM      5  C   UNL     1      -7.920  27.484  45.287  1.00  0.00     0.006 C 
BRANCH   5   6
ATOM      6  C   UNL     1      -6.632  26.964  45.936  1.00  0.00     0.053 C 
BRANCH   6   7
ATOM      7  C   UNL     1      -5.728  26.371  44.900  1.00  0.00     0.041 C 
ATOM      8  O   UNL     1      -4.478  26.426  45.044  1.00  0.00    -0.550 OA
ATOM      9  O   UNL     1      -6.267  25.716  43.801  1.00  0.00    -0.550 OA
ENDBRANCH   6   7
ENDBRANCH   5   6
ENDBRANCH   4   5
ENDBRANCH   3   4
ENDBRANCH   2   3
ENDBRANCH   1   2
BRANCH   1  10
ATOM     10  C   UNL     1      -5.824  31.726  46.883  1.00  0.00     0.000 C 
BRANCH  10  11
ATOM     11  C   UNL     1      -5.335  30.296  47.178  1.00  0.00    -0.000 C 
BRANCH  11  12
ATOM     12  C   UNL     1      -4.241  29.779  46.227  1.00  0.00    -0.000 C 
BRANCH  12  13
ATOM     13  C   UNL     1      -4.092  30.640  44.959  1.00  0.00    -0.000 C 
BRANCH  13  14
ATOM     14  C   UNL     1      -4.404  29.843  43.674  1.00  0.00    -0.000 C 
BRANCH  14  15
ATOM     15  C   UNL     1      -5.196  30.647  42.630  1.00  0.00    -0.000 C 
BRANCH  15  16
ATOM     16  C   UNL     1      -5.568  32.054  43.115  1.00  0.00    -0.003 C 
ATOM     17  C   UNL     1      -7.074  32.287  43.028  1.00  0.00     0.004 C 
ENDBRANCH  15  16
ENDBRANCH  14  15
ENDBRANCH  13  14
ENDBRANCH  12  13
ENDBRANCH  11  12
ENDBRANCH  10  11
ENDBRANCH   1  10
TORSDOF 13
ENDMDL
MODEL 9
REMARK VINA RESULT:    -3.213      1.659      3.892
REMARK INTER + INTRA:          -7.807
REMARK INTER:                  -5.449
REMARK INTRA:                  -2.358
REMARK UNBOUND:                -2.152
REMARK SMILES CCCCCCCCCCCCCCC(=O)[O-]
REMARK SMILES IDX 9 1 10 2 11 3 12 4 13 5 14 6 15 7 16 8 17 9 8 10 7 11 6 12
REMARK SMILES IDX 5 13 4 14 3 15 2 16 1 17
REMARK H PARENT
REMARK Flexibility Score: inf
ROOT
ATOM      1  C   UNL     1      -5.294  27.831  46.167  1.00  0.00     0.000 C 
ENDROOT
BRANCH   1   2
ATOM      2  C   UNL     1      -5.190  29.233  46.786  1.00  0.00     0.000 C 
BRANCH   2   3
ATOM      3  C   UNL     1      -6.559  29.792  47.213  1.00  0.00     0.000 C 
BRANCH   3   4
ATOM      4  C   UNL     1      -6.587  31.329  47.268  1.00  0.00     0.000 C 
BRANCH   4   5
ATOM      5  C   UNL     1      -5.203  32.000  47.351  1.00  0.00     0.006 C 
BRANCH   5   6
ATOM      6  C   UNL     1      -5.285  33.529  47.435  1.00  0.00     0.053 C 
BRANCH   6   7
ATOM      7  C   UNL     1      -6.021  33.945  48.671  1.00  0.00     0.041 C 
ATOM      8  O   UNL     1      -7.064  34.643  48.582  1.00  0.00    -0.550 OA
ATOM      9  O   UNL     1      -5.580  33.521  49.918  1.00  0.00    -0.550 OA
ENDBRANCH   6   7
ENDBRANCH   5   6
ENDBRANCH   4   5
ENDBRANCH   3   4
ENDBRANCH   2   3
ENDBRANCH   1   2
BRANCH   1  10
ATOM     10  C   UNL     1      -6.739  27.305  46.141  1.00  0.00     0.000 C 
BRANCH  10  11
ATOM     11  C   UNL     1      -7.349  27.306  44.727  1.00  0.00    -0.000 C 
BRANCH  11  12
ATOM     12  C   UNL     1      -8.718  28.001  44.615  1.00  0.00    -0.000 C 
BRANCH  12  13
ATOM     13  C   UNL     1      -8.610  29.469  44.164  1.00  0.00    -0.000 C 
BRANCH  13  14
ATOM     14  C   UNL     1      -7.299  29.748  43.399  1.00  0.00    -0.000 C 
BRANCH  14  15
ATOM     15  C   UNL     1      -6.738  31.159  43.638  1.00  0.00    -0.000 C 
BRANCH  15  16
ATOM     16  C   UNL     1      -5.205  31.205  43.613  1.00  0.00    -0.003 C 
ATOM     17  C   UNL     1      -4.621  29.873  43.150  1.00  0.00     0.004 C 
ENDBRANCH  15  16
ENDBRANCH  14  15
ENDBRANCH  13  14
ENDBRANCH  12  13
ENDBRANCH  11  12
ENDBRANCH  10  11
ENDBRANCH   1  10
TORSDOF 13
ENDMDL
