MODEL 1
REMARK VINA RESULT:    -4.506      0.000      0.000
REMARK INTER + INTRA:          -7.478
REMARK INTER:                  -6.614
REMARK INTRA:                  -0.864
REMARK UNBOUND:                -0.864
REMARK SMILES O=C([O-])CCCCCCCC(=O)[O-]
REMARK SMILES IDX 7 1 6 2 5 3 4 4 2 5 1 6 3 7 8 8 9 9 10 10 11 11 12 12 13 13
REMARK H PARENT
REMARK Flexibility Score: inf
ROOT
ATOM      1  C   UNL     1      18.387  22.051   6.471  1.00  0.00     0.000 C 
ENDROOT
BRANCH   1   2
ATOM      2  C   UNL     1      17.393  23.225   6.518  1.00  0.00     0.000 C 
BRANCH   2   3
ATOM      3  C   UNL     1      17.353  23.916   7.893  1.00  0.00     0.006 C 
BRANCH   3   4
ATOM      4  C   UNL     1      18.036  25.293   7.931  1.00  0.00     0.053 C 
BRANCH   4   5
ATOM      5  C   UNL     1      18.451  25.676   9.318  1.00  0.00     0.041 C 
ATOM      6  O   UNL     1      18.118  24.961  10.299  1.00  0.00    -0.550 OA
ATOM      7  O   UNL     1      19.178  26.840   9.530  1.00  0.00    -0.550 OA
ENDBRANCH   4   5
ENDBRANCH   3   4
ENDBRANCH   2   3
ENDBRANCH   1   2
BRANCH   1   8
ATOM      8  C   UNL     1      19.819  22.502   6.137  1.00  0.00     0.000 C 
BRANCH   8   9
ATOM      9  C   UNL     1      20.854  21.996   7.158  1.00  0.00     0.006 C 
BRANCH   9  10
ATOM     10  C   UNL     1      21.280  23.094   8.141  1.00  0.00     0.053 C 
BRANCH  10  11
ATOM     11  C   UNL     1      20.785  22.822   9.528  1.00  0.00     0.041 C 
ATOM     12  O   UNL     1      21.306  23.406  10.514  1.00  0.00    -0.550 OA
ATOM     13  O   UNL     1      19.765  21.902   9.734  1.00  0.00    -0.550 OA
ENDBRANCH  10  11
ENDBRANCH   9  10
ENDBRANCH   8   9
ENDBRANCH   1   8
TORSDOF 8
ENDMDL
MODEL 2
REMARK VINA RESULT:    -4.478      0.715      3.722
REMARK INTER + INTRA:          -7.436
REMARK INTER:                  -6.541
REMARK INTRA:                  -0.895
REMARK UNBOUND:                -0.864
REMARK SMILES O=C([O-])CCCCCCCC(=O)[O-]
REMARK SMILES IDX 7 1 6 2 5 3 4 4 2 5 1 6 3 7 8 8 9 9 10 10 11 11 12 12 13 13
REMARK H PARENT
REMARK Flexibility Score: inf
ROOT
ATOM      1  C   UNL     1      18.671  23.166   6.118  1.00  0.00     0.000 C 
ENDROOT
BRANCH   1   2
ATOM      2  C   UNL     1      19.863  22.217   5.899  1.00  0.00     0.000 C 
BRANCH   2   3
ATOM      3  C   UNL     1      20.702  22.012   7.173  1.00  0.00     0.006 C 
BRANCH   3   4
ATOM      4  C   UNL     1      20.782  23.247   8.087  1.00  0.00     0.053 C 
BRANCH   4   5
ATOM      5  C   UNL     1      20.645  22.884   9.534  1.00  0.00     0.041 C 
ATOM      6  O   UNL     1      21.474  23.314  10.377  1.00  0.00    -0.550 OA
ATOM      7  O   UNL     1      19.619  22.043   9.945  1.00  0.00    -0.550 OA
ENDBRANCH   4   5
ENDBRANCH   3   4
ENDBRANCH   2   3
ENDBRANCH   1   2
BRANCH   1   8
ATOM      8  C   UNL     1      17.455  22.454   6.735  1.00  0.00     0.000 C 
BRANCH   8   9
ATOM      9  C   UNL     1      16.877  23.209   7.945  1.00  0.00     0.006 C 
BRANCH   9  10
ATOM     10  C   UNL     1      17.286  24.688   7.952  1.00  0.00     0.053 C 
BRANCH  10  11
ATOM     11  C   UNL     1      17.742  25.132   9.308  1.00  0.00     0.041 C 
ATOM     12  O   UNL     1      17.150  24.724  10.341  1.00  0.00    -0.550 OA
ATOM     13  O   UNL     1      18.803  26.021   9.429  1.00  0.00    -0.550 OA
ENDBRANCH  10  11
ENDBRANCH   9  10
ENDBRANCH   8   9
ENDBRANCH   1   8
TORSDOF 8
ENDMDL
MODEL 3
REMARK VINA RESULT:    -4.423      1.455      3.959
REMARK INTER + INTRA:          -7.355
REMARK INTER:                  -6.509
REMARK INTRA:                  -0.846
REMARK UNBOUND:                -0.864
REMARK SMILES O=C([O-])CCCCCCCC(=O)[O-]
REMARK SMILES IDX 7 1 6 2 5 3 4 4 2 5 1 6 3 7 8 8 9 9 10 10 11 11 12 12 13 13
REMARK H PARENT
REMARK Flexibility Score: inf
ROOT
ATOM      1  C   UNL     1      19.295  22.679   6.104  1.00  0.00     0.000 C 
ENDROOT
BRANCH   1   2
ATOM      2  C   UNL     1      20.353  22.804   7.214  1.00  0.00     0.000 C 
BRANCH   2   3
ATOM      3  C   UNL     1      20.149  21.783   8.348  1.00  0.00     0.006 C 
BRANCH   3   4
ATOM      4  C   UNL     1      20.032  22.407   9.749  1.00  0.00     0.053 C 
BRANCH   4   5
ATOM      5  C   UNL     1      18.895  21.823  10.530  1.00  0.00     0.041 C 
ATOM      6  O   UNL     1      18.851  21.953  11.781  1.00  0.00    -0.550 OA
ATOM      7  O   UNL     1      17.900  21.106   9.877  1.00  0.00    -0.550 OA
ENDBRANCH   4   5
ENDBRANCH   3   4
ENDBRANCH   2   3
ENDBRANCH   1   2
BRANCH   1   8
ATOM      8  C   UNL     1      17.859  22.666   6.656  1.00  0.00     0.000 C 
BRANCH   8   9
ATOM      9  C   UNL     1      17.301  24.082   6.890  1.00  0.00     0.006 C 
BRANCH   9  10
ATOM     10  C   UNL     1      17.165  24.410   8.383  1.00  0.00     0.053 C 
BRANCH  10  11
ATOM     11  C   UNL     1      17.871  25.682   8.738  1.00  0.00     0.041 C 
ATOM     12  O   UNL     1      19.128  25.742   8.702  1.00  0.00    -0.550 OA
ATOM     13  O   UNL     1      17.140  26.794   9.138  1.00  0.00    -0.550 OA
ENDBRANCH  10  11
ENDBRANCH   9  10
ENDBRANCH   8   9
ENDBRANCH   1   8
TORSDOF 8
ENDMDL
MODEL 4
REMARK VINA RESULT:    -4.411      1.338      4.103
REMARK INTER + INTRA:          -7.338
REMARK INTER:                  -6.736
REMARK INTRA:                  -0.601
REMARK UNBOUND:                -0.864
REMARK SMILES O=C([O-])CCCCCCCC(=O)[O-]
REMARK SMILES IDX 7 1 6 2 5 3 4 4 2 5 1 6 3 7 8 8 9 9 10 10 11 11 12 12 13 13
REMARK H PARENT
REMARK Flexibility Score: inf
ROOT
ATOM      1  C   UNL     1      17.589  22.902   6.576  1.00  0.00     0.000 C 
ENDROOT
BRANCH   1   2
ATOM      2  C   UNL     1      19.049  22.747   6.115  1.00  0.00     0.000 C 
BRANCH   2   3
ATOM      3  C   UNL     1      20.063  23.080   7.225  1.00  0.00     0.006 C 
BRANCH   3   4
ATOM      4  C   UNL     1      20.391  21.904   8.159  1.00  0.00     0.053 C 
BRANCH   4   5
ATOM      5  C   UNL     1      21.777  22.002   8.719  1.00  0.00     0.041 C 
ATOM      6  O   UNL     1      22.666  21.187   8.361  1.00  0.00    -0.550 OA
ATOM      7  O   UNL     1      22.077  22.977   9.662  1.00  0.00    -0.550 OA
ENDBRANCH   4   5
ENDBRANCH   3   4
ENDBRANCH   2   3
ENDBRANCH   1   2
BRANCH   1   8
ATOM      8  C   UNL     1      17.310  24.281   7.199  1.00  0.00     0.000 C 
BRANCH   8   9
ATOM      9  C   UNL     1      16.949  24.195   8.692  1.00  0.00     0.006 C 
BRANCH   9  10
ATOM     10  C   UNL     1      17.258  25.500   9.437  1.00  0.00     0.053 C 
BRANCH  10  11
ATOM     11  C   UNL     1      18.728  25.789   9.467  1.00  0.00     0.041 C 
ATOM     12  O   UNL     1      19.505  25.055  10.131  1.00  0.00    -0.550 OA
ATOM     13  O   UNL     1      19.235  26.887   8.782  1.00  0.00    -0.550 OA
ENDBRANCH  10  11
ENDBRANCH   9  10
ENDBRANCH   8   9
ENDBRANCH   1   8
TORSDOF 8
ENDMDL
MODEL 5
REMARK VINA RESULT:    -4.377      1.212      1.649
REMARK INTER + INTRA:          -7.288
REMARK INTER:                  -6.581
REMARK INTRA:                  -0.707
REMARK UNBOUND:                -0.864
REMARK SMILES O=C([O-])CCCCCCCC(=O)[O-]
REMARK SMILES IDX 7 1 6 2 5 3 4 4 2 5 1 6 3 7 8 8 9 9 10 10 11 11 12 12 13 13
REMARK H PARENT
REMARK Flexibility Score: inf
ROOT
ATOM      1  C   UNL     1      18.122  22.278   6.606  1.00  0.00     0.000 C 
ENDROOT
BRANCH   1   2
ATOM      2  C   UNL     1      17.256  23.546   6.522  1.00  0.00     0.000 C 
BRANCH   2   3
ATOM      3  C   UNL     1      17.032  24.207   7.895  1.00  0.00     0.006 C 
BRANCH   3   4
ATOM      4  C   UNL     1      18.174  25.132   8.348  1.00  0.00     0.053 C 
BRANCH   4   5
ATOM      5  C   UNL     1      18.575  24.874   9.768  1.00  0.00     0.041 C 
ATOM      6  O   UNL     1      19.505  25.538  10.295  1.00  0.00    -0.550 OA
ATOM      7  O   UNL     1      17.941  23.877  10.498  1.00  0.00    -0.550 OA
ENDBRANCH   4   5
ENDBRANCH   3   4
ENDBRANCH   2   3
ENDBRANCH   1   2
BRANCH   1   8
ATOM      8  C   UNL     1      19.370  22.355   5.709  1.00  0.00     0.000 C 
BRANCH   8   9
ATOM      9  C   UNL     1      20.679  22.416   6.518  1.00  0.00     0.006 C 
BRANCH   9  10
ATOM     10  C   UNL     1      20.451  22.128   8.008  1.00  0.00     0.053 C 
BRANCH  10  11
ATOM     11  C   UNL     1      21.728  22.192   8.788  1.00  0.00     0.041 C 
ATOM     12  O   UNL     1      22.654  21.371   8.558  1.00  0.00    -0.550 OA
ATOM     13  O   UNL     1      21.884  23.143   9.789  1.00  0.00    -0.550 OA
ENDBRANCH  10  11
ENDBRANCH   9  10
ENDBRANCH   8   9
ENDBRANCH   1   8
TORSDOF 8
ENDMDL
MODEL 6
REMARK VINA RESULT:    -4.345      1.682      3.698
REMARK INTER + INTRA:          -7.241
REMARK INTER:                  -6.398
REMARK INTRA:                  -0.842
REMARK UNBOUND:                -0.864
REMARK SMILES O=C([O-])CCCCCCCC(=O)[O-]
REMARK SMILES IDX 7 1 6 2 5 3 4 4 2 5 1 6 3 7 8 8 9 9 10 10 11 11 12 12 13 13
REMARK H PARENT
REMARK Flexibility Score: inf
ROOT
ATOM      1  C   UNL     1      17.467  23.287   7.524  1.00  0.00     0.000 C 
ENDROOT
BRANCH   1   2
ATOM      2  C   UNL     1      18.156  23.424   6.155  1.00  0.00     0.000 C 
BRANCH   2   3
ATOM      3  C   UNL     1      19.177  22.302   5.889  1.00  0.00     0.006 C 
BRANCH   3   4
ATOM      4  C   UNL     1      20.502  22.455   6.653  1.00  0.00     0.053 C 
BRANCH   4   5
ATOM      5  C   UNL     1      20.773  21.282   7.545  1.00  0.00     0.041 C 
ATOM      6  O   UNL     1      19.874  20.428   7.761  1.00  0.00    -0.550 OA
ATOM      7  O   UNL     1      22.010  21.150   8.163  1.00  0.00    -0.550 OA
ENDBRANCH   4   5
ENDBRANCH   3   4
ENDBRANCH   2   3
ENDBRANCH   1   2
BRANCH   1   8
ATOM      8  C   UNL     1      17.289  24.641   8.233  1.00  0.00     0.000 C 
BRANCH   8   9
ATOM      9  C   UNL     1      17.950  24.674   9.622  1.00  0.00     0.006 C 
BRANCH   9  10
ATOM     10  C   UNL     1      19.482  24.653   9.534  1.00  0.00     0.053 C 
BRANCH  10  11
ATOM     11  C   UNL     1      20.067  23.493  10.279  1.00  0.00     0.041 C 
ATOM     12  O   UNL     1      21.300  23.453  10.525  1.00  0.00    -0.550 OA
ATOM     13  O   UNL     1      19.251  22.441  10.678  1.00  0.00    -0.550 OA
ENDBRANCH  10  11
ENDBRANCH   9  10
ENDBRANCH   8   9
ENDBRANCH   1   8
TORSDOF 8
ENDMDL
MODEL 7
REMARK VINA RESULT:    -4.337      1.720      2.710
REMARK INTER + INTRA:          -7.229
REMARK INTER:                  -6.525
REMARK INTRA:                  -0.705
REMARK UNBOUND:                -0.864
REMARK SMILES O=C([O-])CCCCCCCC(=O)[O-]
REMARK SMILES IDX 7 1 6 2 5 3 4 4 2 5 1 6 3 7 8 8 9 9 10 10 11 11 12 12 13 13
REMARK H PARENT
REMARK Flexibility Score: inf
ROOT
ATOM      1  C   UNL     1      18.006  23.534   6.456  1.00  0.00     0.000 C 
ENDROOT
BRANCH   1   2
ATOM      2  C   UNL     1      17.620  24.303   7.732  1.00  0.00     0.000 C 
BRANCH   2   3
ATOM      3  C   UNL     1      18.826  24.986   8.403  1.00  0.00     0.006 C 
BRANCH   3   4
ATOM      4  C   UNL     1      18.921  24.759   9.921  1.00  0.00     0.053 C 
BRANCH   4   5
ATOM      5  C   UNL     1      19.695  23.521  10.255  1.00  0.00     0.041 C 
ATOM      6  O   UNL     1      19.119  22.402  10.288  1.00  0.00    -0.550 OA
ATOM      7  O   UNL     1      21.047  23.608  10.562  1.00  0.00    -0.550 OA
ENDBRANCH   4   5
ENDBRANCH   3   4
ENDBRANCH   2   3
ENDBRANCH   1   2
BRANCH   1   8
ATOM      8  C   UNL     1      18.849  22.282   6.754  1.00  0.00     0.000 C 
BRANCH   8   9
ATOM      9  C   UNL     1      20.257  22.355   6.136  1.00  0.00     0.006 C 
BRANCH   9  10
ATOM     10  C   UNL     1      21.357  22.386   7.206  1.00  0.00     0.053 C 
BRANCH  10  11
ATOM     11  C   UNL     1      21.972  21.035   7.410  1.00  0.00     0.041 C 
ATOM     12  O   UNL     1      21.572  20.048   6.740  1.00  0.00    -0.550 OA
ATOM     13  O   UNL     1      22.969  20.862   8.362  1.00  0.00    -0.550 OA
ENDBRANCH  10  11
ENDBRANCH   9  10
ENDBRANCH   8   9
ENDBRANCH   1   8
TORSDOF 8
ENDMDL
MODEL 8
REMARK VINA RESULT:    -4.292      2.108      2.802
REMARK INTER + INTRA:          -7.163
REMARK INTER:                  -6.673
REMARK INTRA:                  -0.490
REMARK UNBOUND:                -0.864
REMARK SMILES O=C([O-])CCCCCCCC(=O)[O-]
REMARK SMILES IDX 7 1 6 2 5 3 4 4 2 5 1 6 3 7 8 8 9 9 10 10 11 11 12 12 13 13
REMARK H PARENT
REMARK Flexibility Score: inf
ROOT
ATOM      1  C   UNL     1      19.277  22.764   6.282  1.00  0.00     0.000 C 
ENDROOT
BRANCH   1   2
ATOM      2  C   UNL     1      17.979  23.558   6.511  1.00  0.00     0.000 C 
BRANCH   2   3
ATOM      3  C   UNL     1      17.742  23.898   7.993  1.00  0.00     0.006 C 
BRANCH   3   4
ATOM      4  C   UNL     1      17.647  25.404   8.292  1.00  0.00     0.053 C 
BRANCH   4   5
ATOM      5  C   UNL     1      18.748  25.868   9.194  1.00  0.00     0.041 C 
ATOM      6  O   UNL     1      19.173  27.050   9.121  1.00  0.00    -0.550 OA
ATOM      7  O   UNL     1      19.327  24.983  10.095  1.00  0.00    -0.550 OA
ENDBRANCH   4   5
ENDBRANCH   3   4
ENDBRANCH   2   3
ENDBRANCH   1   2
BRANCH   1   8
ATOM      8  C   UNL     1      20.151  22.687   7.546  1.00  0.00     0.000 C 
BRANCH   8   9
ATOM      9  C   UNL     1      21.624  22.371   7.230  1.00  0.00     0.006 C 
BRANCH   9  10
ATOM     10  C   UNL     1      21.769  21.466   5.999  1.00  0.00     0.053 C 
BRANCH  10  11
ATOM     11  C   UNL     1      21.849  20.020   6.379  1.00  0.00     0.041 C 
ATOM     12  O   UNL     1      20.807  19.315   6.415  1.00  0.00    -0.550 OA
ATOM     13  O   UNL     1      23.072  19.457   6.723  1.00  0.00    -0.550 OA
ENDBRANCH  10  11
ENDBRANCH   9  10
ENDBRANCH   8   9
ENDBRANCH   1   8
TORSDOF 8
ENDMDL
MODEL 9
REMARK VINA RESULT:    -4.281      1.784      4.207
REMARK INTER + INTRA:          -7.147
REMARK INTER:                  -6.294
REMARK INTRA:                  -0.854
REMARK UNBOUND:                -0.864
REMARK SMILES O=C([O-])CCCCCCCC(=O)[O-]
REMARK SMILES IDX 7 1 6 2 5 3 4 4 2 5 1 6 3 7 8 8 9 9 10 10 11 11 12 12 13 13
REMARK H PARENT
REMARK Flexibility Score: inf
ROOT
ATOM      1  C   UNL     1      21.436  23.180   8.118  1.00  0.00     0.000 C 
ENDROOT
BRANCH   1   2
ATOM      2  C   UNL     1      21.418  21.927   7.226  1.00  0.00     0.000 C 
BRANCH   2   3
ATOM      3  C   UNL     1      20.557  22.108   5.962  1.00  0.00     0.006 C 
BRANCH   3   4
ATOM      4  C   UNL     1      19.212  22.812   6.205  1.00  0.00     0.053 C 
BRANCH   4   5
ATOM      5  C   UNL     1      18.150  21.855   6.652  1.00  0.00     0.041 C 
ATOM      6  O   UNL     1      17.417  21.280   5.806  1.00  0.00    -0.550 OA
ATOM      7  O   UNL     1      17.951  21.622   8.007  1.00  0.00    -0.550 OA
ENDBRANCH   4   5
ENDBRANCH   3   4
ENDBRANCH   2   3
ENDBRANCH   1   2
BRANCH   1   8
ATOM      8  C   UNL     1      21.199  22.852   9.602  1.00  0.00     0.000 C 
BRANCH   8   9
ATOM      9  C   UNL     1      19.991  23.603  10.190  1.00  0.00     0.006 C 
BRANCH   9  10
ATOM     10  C   UNL     1      19.514  24.737   9.273  1.00  0.00     0.053 C 
BRANCH  10  11
ATOM     11  C   UNL     1      18.027  24.911   9.331  1.00  0.00     0.041 C 
ATOM     12  O   UNL     1      17.393  25.298   8.315  1.00  0.00    -0.550 OA
ATOM     13  O   UNL     1      17.346  24.673  10.518  1.00  0.00    -0.550 OA
ENDBRANCH  10  11
ENDBRANCH   9  10
ENDBRANCH   8   9
ENDBRANCH   1   8
TORSDOF 8
ENDMDL
