MODEL 1
REMARK VINA RESULT:    -4.497      0.000      0.000
REMARK INTER + INTRA:          -9.389
REMARK INTER:                  -8.178
REMARK INTRA:                  -1.212
REMARK UNBOUND:                -1.212
REMARK SMILES CCCCCCCCCCCCCCCC(=O)[O-]
REMARK SMILES IDX 9 1 10 2 11 3 12 4 13 5 14 6 15 7 16 8 17 9 18 10 8 11 7 12
REMARK SMILES IDX 6 13 5 14 4 15 3 16 2 17 1 18
REMARK H PARENT
REMARK Flexibility Score: inf
ROOT
ATOM      1  C   UNL     1      47.658  -9.214 -58.279  1.00  0.00     0.000 C 
ENDROOT
BRANCH   1   2
ATOM      2  C   UNL     1      46.906 -10.239 -57.415  1.00  0.00     0.000 C 
BRANCH   2   3
ATOM      3  C   UNL     1      47.552 -11.634 -57.458  1.00  0.00     0.000 C 
BRANCH   3   4
ATOM      4  C   UNL     1      48.349 -11.964 -56.184  1.00  0.00     0.000 C 
BRANCH   4   5
ATOM      5  C   UNL     1      48.899 -13.404 -56.106  1.00  0.00     0.000 C 
BRANCH   5   6
ATOM      6  C   UNL     1      47.901 -14.456 -55.591  1.00  0.00     0.006 C 
BRANCH   6   7
ATOM      7  C   UNL     1      48.259 -15.881 -56.033  1.00  0.00     0.053 C 
BRANCH   7   8
ATOM      8  C   UNL     1      47.169 -16.453 -56.882  1.00  0.00     0.041 C 
ATOM      9  O   UNL     1      47.450 -17.198 -57.857  1.00  0.00    -0.550 OA
ATOM     10  O   UNL     1      45.843 -16.125 -56.626  1.00  0.00    -0.550 OA
ENDBRANCH   7   8
ENDBRANCH   6   7
ENDBRANCH   5   6
ENDBRANCH   4   5
ENDBRANCH   3   4
ENDBRANCH   2   3
ENDBRANCH   1   2
BRANCH   1  11
ATOM     11  C   UNL     1      48.339  -8.120 -57.442  1.00  0.00     0.000 C 
BRANCH  11  12
ATOM     12  C   UNL     1      47.316  -7.381 -56.570  1.00  0.00    -0.000 C 
BRANCH  12  13
ATOM     13  C   UNL     1      47.550  -7.669 -55.081  1.00  0.00    -0.000 C 
BRANCH  13  14
ATOM     14  C   UNL     1      48.904  -8.362 -54.863  1.00  0.00    -0.000 C 
BRANCH  14  15
ATOM     15  C   UNL     1      49.860  -7.536 -53.986  1.00  0.00    -0.000 C 
BRANCH  15  16
ATOM     16  C   UNL     1      50.231  -6.187 -54.625  1.00  0.00    -0.000 C 
BRANCH  16  17
ATOM     17  C   UNL     1      51.625  -6.207 -55.271  1.00  0.00    -0.003 C 
ATOM     18  C   UNL     1      51.624  -5.678 -56.705  1.00  0.00     0.004 C 
ENDBRANCH  16  17
ENDBRANCH  15  16
ENDBRANCH  14  15
ENDBRANCH  13  14
ENDBRANCH  12  13
ENDBRANCH  11  12
ENDBRANCH   1  11
TORSDOF 14
ENDMDL
MODEL 2
REMARK VINA RESULT:    -4.490      1.622      3.209
REMARK INTER + INTRA:          -9.377
REMARK INTER:                  -7.690
REMARK INTRA:                  -1.688
REMARK UNBOUND:                -1.212
REMARK SMILES CCCCCCCCCCCCCCCC(=O)[O-]
REMARK SMILES IDX 9 1 10 2 11 3 12 4 13 5 14 6 15 7 16 8 17 9 18 10 8 11 7 12
REMARK SMILES IDX 6 13 5 14 4 15 3 16 2 17 1 18
REMARK H PARENT
REMARK Flexibility Score: inf
ROOT
ATOM      1  C   UNL     1      47.385  -7.511 -54.624  1.00  0.00     0.000 C 
ENDROOT
BRANCH   1   2
ATOM      2  C   UNL     1      47.695  -8.293 -55.911  1.00  0.00     0.000 C 
BRANCH   2   3
ATOM      3  C   UNL     1      46.430  -8.858 -56.578  1.00  0.00     0.000 C 
BRANCH   3   4
ATOM      4  C   UNL     1      46.710 -10.110 -57.428  1.00  0.00     0.000 C 
BRANCH   4   5
ATOM      5  C   UNL     1      47.841 -11.021 -56.905  1.00  0.00     0.000 C 
BRANCH   5   6
ATOM      6  C   UNL     1      47.523 -12.527 -56.915  1.00  0.00     0.006 C 
BRANCH   6   7
ATOM      7  C   UNL     1      48.553 -13.357 -56.138  1.00  0.00     0.053 C 
BRANCH   7   8
ATOM      8  C   UNL     1      47.952 -14.655 -55.701  1.00  0.00     0.041 C 
ATOM      9  O   UNL     1      48.236 -15.721 -56.309  1.00  0.00    -0.550 OA
ATOM     10  O   UNL     1      47.041 -14.682 -54.652  1.00  0.00    -0.550 OA
ENDBRANCH   7   8
ENDBRANCH   6   7
ENDBRANCH   5   6
ENDBRANCH   4   5
ENDBRANCH   3   4
ENDBRANCH   2   3
ENDBRANCH   1   2
BRANCH   1  11
ATOM     11  C   UNL     1      48.647  -7.182 -53.811  1.00  0.00     0.000 C 
BRANCH  11  12
ATOM     12  C   UNL     1      49.913  -7.574 -54.584  1.00  0.00    -0.000 C 
BRANCH  12  13
ATOM     13  C   UNL     1      50.864  -6.379 -54.725  1.00  0.00    -0.000 C 
BRANCH  13  14
ATOM     14  C   UNL     1      51.302  -6.195 -56.186  1.00  0.00    -0.000 C 
BRANCH  14  15
ATOM     15  C   UNL     1      50.615  -4.999 -56.866  1.00  0.00    -0.000 C 
BRANCH  15  16
ATOM     16  C   UNL     1      49.327  -5.399 -57.605  1.00  0.00    -0.000 C 
BRANCH  16  17
ATOM     17  C   UNL     1      48.070  -4.786 -56.967  1.00  0.00    -0.003 C 
ATOM     18  C   UNL     1      48.391  -3.842 -55.809  1.00  0.00     0.004 C 
ENDBRANCH  16  17
ENDBRANCH  15  16
ENDBRANCH  14  15
ENDBRANCH  13  14
ENDBRANCH  12  13
ENDBRANCH  11  12
ENDBRANCH   1  11
TORSDOF 14
ENDMDL
MODEL 3
REMARK VINA RESULT:    -4.396      1.070      2.087
REMARK INTER + INTRA:          -9.205
REMARK INTER:                  -7.897
REMARK INTRA:                  -1.308
REMARK UNBOUND:                -1.212
REMARK SMILES CCCCCCCCCCCCCCCC(=O)[O-]
REMARK SMILES IDX 9 1 10 2 11 3 12 4 13 5 14 6 15 7 16 8 17 9 18 10 8 11 7 12
REMARK SMILES IDX 6 13 5 14 4 15 3 16 2 17 1 18
REMARK H PARENT
REMARK Flexibility Score: inf
ROOT
ATOM      1  C   UNL     1      47.525  -9.053 -56.768  1.00  0.00     0.000 C 
ENDROOT
BRANCH   1   2
ATOM      2  C   UNL     1      47.991 -10.489 -56.475  1.00  0.00     0.000 C 
BRANCH   2   3
ATOM      3  C   UNL     1      47.605 -11.474 -57.591  1.00  0.00     0.000 C 
BRANCH   3   4
ATOM      4  C   UNL     1      47.175 -12.849 -57.052  1.00  0.00     0.000 C 
BRANCH   4   5
ATOM      5  C   UNL     1      48.045 -13.409 -55.907  1.00  0.00     0.000 C 
BRANCH   5   6
ATOM      6  C   UNL     1      47.585 -14.763 -55.339  1.00  0.00     0.006 C 
BRANCH   6   7
ATOM      7  C   UNL     1      48.211 -15.958 -56.069  1.00  0.00     0.053 C 
BRANCH   7   8
ATOM      8  C   UNL     1      47.176 -16.680 -56.872  1.00  0.00     0.041 C 
ATOM      9  O   UNL     1      47.505 -17.306 -57.913  1.00  0.00    -0.550 OA
ATOM     10  O   UNL     1      45.840 -16.620 -56.497  1.00  0.00    -0.550 OA
ENDBRANCH   7   8
ENDBRANCH   6   7
ENDBRANCH   5   6
ENDBRANCH   4   5
ENDBRANCH   3   4
ENDBRANCH   2   3
ENDBRANCH   1   2
BRANCH   1  11
ATOM     11  C   UNL     1      48.183  -8.461 -58.024  1.00  0.00     0.000 C 
BRANCH  11  12
ATOM     12  C   UNL     1      48.529  -6.982 -57.815  1.00  0.00    -0.000 C 
BRANCH  12  13
ATOM     13  C   UNL     1      49.903  -6.647 -58.411  1.00  0.00    -0.000 C 
BRANCH  13  14
ATOM     14  C   UNL     1      50.890  -6.226 -57.311  1.00  0.00    -0.000 C 
BRANCH  14  15
ATOM     15  C   UNL     1      50.192  -5.886 -55.984  1.00  0.00    -0.000 C 
BRANCH  15  16
ATOM     16  C   UNL     1      50.819  -6.615 -54.783  1.00  0.00    -0.000 C 
BRANCH  16  17
ATOM     17  C   UNL     1      49.881  -7.674 -54.184  1.00  0.00    -0.003 C 
ATOM     18  C   UNL     1      48.504  -7.115 -53.827  1.00  0.00     0.004 C 
ENDBRANCH  16  17
ENDBRANCH  15  16
ENDBRANCH  14  15
ENDBRANCH  13  14
ENDBRANCH  12  13
ENDBRANCH  11  12
ENDBRANCH   1  11
TORSDOF 14
ENDMDL
MODEL 4
REMARK VINA RESULT:    -4.394      5.946      7.575
REMARK INTER + INTRA:          -9.202
REMARK INTER:                  -7.021
REMARK INTRA:                  -2.180
REMARK UNBOUND:                -1.212
REMARK SMILES CCCCCCCCCCCCCCCC(=O)[O-]
REMARK SMILES IDX 9 1 10 2 11 3 12 4 13 5 14 6 15 7 16 8 17 9 18 10 8 11 7 12
REMARK SMILES IDX 6 13 5 14 4 15 3 16 2 17 1 18
REMARK H PARENT
REMARK Flexibility Score: inf
ROOT
ATOM      1  C   UNL     1      48.280  -8.597 -55.854  1.00  0.00     0.000 C 
ENDROOT
BRANCH   1   2
ATOM      2  C   UNL     1      47.475  -8.567 -57.164  1.00  0.00     0.000 C 
BRANCH   2   3
ATOM      3  C   UNL     1      48.318  -8.103 -58.364  1.00  0.00     0.000 C 
BRANCH   3   4
ATOM      4  C   UNL     1      49.302  -6.976 -58.004  1.00  0.00     0.000 C 
BRANCH   4   5
ATOM      5  C   UNL     1      50.578  -6.915 -58.870  1.00  0.00     0.000 C 
BRANCH   5   6
ATOM      6  C   UNL     1      51.796  -6.264 -58.192  1.00  0.00     0.006 C 
BRANCH   6   7
ATOM      7  C   UNL     1      52.559  -5.314 -59.124  1.00  0.00     0.053 C 
BRANCH   7   8
ATOM      8  C   UNL     1      53.202  -4.217 -58.338  1.00  0.00     0.041 C 
ATOM      9  O   UNL     1      54.449  -4.211 -58.161  1.00  0.00    -0.550 OA
ATOM     10  O   UNL     1      52.419  -3.225 -57.760  1.00  0.00    -0.550 OA
ENDBRANCH   7   8
ENDBRANCH   6   7
ENDBRANCH   5   6
ENDBRANCH   4   5
ENDBRANCH   3   4
ENDBRANCH   2   3
ENDBRANCH   1   2
BRANCH   1  11
ATOM     11  C   UNL     1      47.635  -7.753 -54.743  1.00  0.00     0.000 C 
BRANCH  11  12
ATOM     12  C   UNL     1      48.701  -7.184 -53.799  1.00  0.00    -0.000 C 
BRANCH  12  13
ATOM     13  C   UNL     1      50.109  -7.591 -54.248  1.00  0.00    -0.000 C 
BRANCH  13  14
ATOM     14  C   UNL     1      50.894  -6.375 -54.764  1.00  0.00    -0.000 C 
BRANCH  14  15
ATOM     15  C   UNL     1      50.215  -5.040 -54.419  1.00  0.00    -0.000 C 
BRANCH  15  16
ATOM     16  C   UNL     1      49.724  -4.286 -55.666  1.00  0.00    -0.000 C 
BRANCH  16  17
ATOM     17  C   UNL     1      48.289  -3.760 -55.508  1.00  0.00    -0.003 C 
ATOM     18  C   UNL     1      47.277  -4.530 -56.354  1.00  0.00     0.004 C 
ENDBRANCH  16  17
ENDBRANCH  15  16
ENDBRANCH  14  15
ENDBRANCH  13  14
ENDBRANCH  12  13
ENDBRANCH  11  12
ENDBRANCH   1  11
TORSDOF 14
ENDMDL
MODEL 5
REMARK VINA RESULT:    -4.384      5.860      7.475
REMARK INTER + INTRA:          -9.184
REMARK INTER:                  -6.443
REMARK INTRA:                  -2.741
REMARK UNBOUND:                -1.212
REMARK SMILES CCCCCCCCCCCCCCCC(=O)[O-]
REMARK SMILES IDX 9 1 10 2 11 3 12 4 13 5 14 6 15 7 16 8 17 9 18 10 8 11 7 12
REMARK SMILES IDX 6 13 5 14 4 15 3 16 2 17 1 18
REMARK H PARENT
REMARK Flexibility Score: inf
ROOT
ATOM      1  C   UNL     1      48.498  -7.620 -54.459  1.00  0.00     0.000 C 
ENDROOT
BRANCH   1   2
ATOM      2  C   UNL     1      48.058  -8.100 -55.852  1.00  0.00     0.000 C 
BRANCH   2   3
ATOM      3  C   UNL     1      47.220  -7.049 -56.601  1.00  0.00     0.000 C 
BRANCH   3   4
ATOM      4  C   UNL     1      47.892  -6.562 -57.897  1.00  0.00     0.000 C 
BRANCH   4   5
ATOM      5  C   UNL     1      49.311  -7.113 -58.150  1.00  0.00     0.000 C 
BRANCH   5   6
ATOM      6  C   UNL     1      50.308  -6.101 -58.740  1.00  0.00     0.006 C 
BRANCH   6   7
ATOM      7  C   UNL     1      51.750  -6.626 -58.755  1.00  0.00     0.053 C 
BRANCH   7   8
ATOM      8  C   UNL     1      52.717  -5.497 -58.586  1.00  0.00     0.041 C 
ATOM      9  O   UNL     1      52.316  -4.375 -58.179  1.00  0.00    -0.550 OA
ATOM     10  O   UNL     1      54.053  -5.670 -58.924  1.00  0.00    -0.550 OA
ENDBRANCH   7   8
ENDBRANCH   6   7
ENDBRANCH   5   6
ENDBRANCH   4   5
ENDBRANCH   3   4
ENDBRANCH   2   3
ENDBRANCH   1   2
BRANCH   1  11
ATOM     11  C   UNL     1      50.011  -7.766 -54.233  1.00  0.00     0.000 C 
BRANCH  11  12
ATOM     12  C   UNL     1      50.774  -6.588 -54.851  1.00  0.00    -0.000 C 
BRANCH  12  13
ATOM     13  C   UNL     1      50.175  -5.249 -54.405  1.00  0.00    -0.000 C 
BRANCH  13  14
ATOM     14  C   UNL     1      49.896  -4.342 -55.614  1.00  0.00    -0.000 C 
BRANCH  14  15
ATOM     15  C   UNL     1      48.486  -3.730 -55.584  1.00  0.00    -0.000 C 
BRANCH  15  16
ATOM     16  C   UNL     1      47.825  -3.836 -54.200  1.00  0.00    -0.000 C 
BRANCH  16  17
ATOM     17  C   UNL     1      46.340  -4.221 -54.286  1.00  0.00    -0.003 C 
ATOM     18  C   UNL     1      45.954  -5.326 -53.303  1.00  0.00     0.004 C 
ENDBRANCH  16  17
ENDBRANCH  15  16
ENDBRANCH  14  15
ENDBRANCH  13  14
ENDBRANCH  12  13
ENDBRANCH  11  12
ENDBRANCH   1  11
TORSDOF 14
ENDMDL
MODEL 6
REMARK VINA RESULT:    -4.361      4.286      8.168
REMARK INTER + INTRA:          -9.141
REMARK INTER:                  -8.089
REMARK INTRA:                  -1.052
REMARK UNBOUND:                -1.212
REMARK SMILES CCCCCCCCCCCCCCCC(=O)[O-]
REMARK SMILES IDX 9 1 10 2 11 3 12 4 13 5 14 6 15 7 16 8 17 9 18 10 8 11 7 12
REMARK SMILES IDX 6 13 5 14 4 15 3 16 2 17 1 18
REMARK H PARENT
REMARK Flexibility Score: inf
ROOT
ATOM      1  C   UNL     1      47.971  -7.877 -56.945  1.00  0.00     0.000 C 
ENDROOT
BRANCH   1   2
ATOM      2  C   UNL     1      47.881  -8.132 -55.431  1.00  0.00     0.000 C 
BRANCH   2   3
ATOM      3  C   UNL     1      49.237  -8.515 -54.816  1.00  0.00     0.000 C 
BRANCH   3   4
ATOM      4  C   UNL     1      49.864  -7.376 -53.994  1.00  0.00     0.000 C 
BRANCH   4   5
ATOM      5  C   UNL     1      50.180  -6.090 -54.786  1.00  0.00     0.000 C 
BRANCH   5   6
ATOM      6  C   UNL     1      51.448  -6.153 -55.655  1.00  0.00     0.006 C 
BRANCH   6   7
ATOM      7  C   UNL     1      51.374  -5.237 -56.883  1.00  0.00     0.053 C 
BRANCH   7   8
ATOM      8  C   UNL     1      52.445  -5.593 -57.865  1.00  0.00     0.041 C 
ATOM      9  O   UNL     1      52.343  -6.635 -58.563  1.00  0.00    -0.550 OA
ATOM     10  O   UNL     1      53.580  -4.799 -57.974  1.00  0.00    -0.550 OA
ENDBRANCH   7   8
ENDBRANCH   6   7
ENDBRANCH   5   6
ENDBRANCH   4   5
ENDBRANCH   3   4
ENDBRANCH   2   3
ENDBRANCH   1   2
BRANCH   1  11
ATOM     11  C   UNL     1      47.963  -9.176 -57.766  1.00  0.00     0.000 C 
BRANCH  11  12
ATOM     12  C   UNL     1      46.898 -10.148 -57.245  1.00  0.00    -0.000 C 
BRANCH  12  13
ATOM     13  C   UNL     1      47.407 -11.595 -57.280  1.00  0.00    -0.000 C 
BRANCH  13  14
ATOM     14  C   UNL     1      48.366 -11.868 -56.111  1.00  0.00    -0.000 C 
BRANCH  14  15
ATOM     15  C   UNL     1      48.905 -13.308 -56.109  1.00  0.00    -0.000 C 
BRANCH  15  16
ATOM     16  C   UNL     1      47.783 -14.359 -56.057  1.00  0.00    -0.000 C 
BRANCH  16  17
ATOM     17  C   UNL     1      48.309 -15.789 -56.257  1.00  0.00    -0.003 C 
ATOM     18  C   UNL     1      47.188 -16.821 -56.385  1.00  0.00     0.004 C 
ENDBRANCH  16  17
ENDBRANCH  15  16
ENDBRANCH  14  15
ENDBRANCH  13  14
ENDBRANCH  12  13
ENDBRANCH  11  12
ENDBRANCH   1  11
TORSDOF 14
ENDMDL
MODEL 7
REMARK VINA RESULT:    -4.341      1.450      3.171
REMARK INTER + INTRA:          -9.105
REMARK INTER:                  -7.979
REMARK INTRA:                  -1.126
REMARK UNBOUND:                -1.212
REMARK SMILES CCCCCCCCCCCCCCCC(=O)[O-]
REMARK SMILES IDX 9 1 10 2 11 3 12 4 13 5 14 6 15 7 16 8 17 9 18 10 8 11 7 12
REMARK SMILES IDX 6 13 5 14 4 15 3 16 2 17 1 18
REMARK H PARENT
REMARK Flexibility Score: inf
ROOT
ATOM      1  C   UNL     1      47.919  -7.369 -55.101  1.00  0.00     0.000 C 
ENDROOT
BRANCH   1   2
ATOM      2  C   UNL     1      47.021  -8.348 -55.874  1.00  0.00     0.000 C 
BRANCH   2   3
ATOM      3  C   UNL     1      47.440  -8.497 -57.346  1.00  0.00     0.000 C 
BRANCH   3   4
ATOM      4  C   UNL     1      47.705  -9.958 -57.748  1.00  0.00     0.000 C 
BRANCH   4   5
ATOM      5  C   UNL     1      48.012 -10.917 -56.578  1.00  0.00     0.000 C 
BRANCH   5   6
ATOM      6  C   UNL     1      47.768 -12.407 -56.874  1.00  0.00     0.006 C 
BRANCH   6   7
ATOM      7  C   UNL     1      48.688 -13.332 -56.067  1.00  0.00     0.053 C 
BRANCH   7   8
ATOM      8  C   UNL     1      47.969 -14.591 -55.699  1.00  0.00     0.041 C 
ATOM      9  O   UNL     1      47.063 -14.570 -54.825  1.00  0.00    -0.550 OA
ATOM     10  O   UNL     1      48.333 -15.797 -56.285  1.00  0.00    -0.550 OA
ENDBRANCH   7   8
ENDBRANCH   6   7
ENDBRANCH   5   6
ENDBRANCH   4   5
ENDBRANCH   3   4
ENDBRANCH   2   3
ENDBRANCH   1   2
BRANCH   1  11
ATOM     11  C   UNL     1      49.144  -8.055 -54.475  1.00  0.00     0.000 C 
BRANCH  11  12
ATOM     12  C   UNL     1      50.344  -7.101 -54.435  1.00  0.00    -0.000 C 
BRANCH  12  13
ATOM     13  C   UNL     1      49.895  -5.642 -54.587  1.00  0.00    -0.000 C 
BRANCH  13  14
ATOM     14  C   UNL     1      50.725  -4.922 -55.661  1.00  0.00    -0.000 C 
BRANCH  14  15
ATOM     15  C   UNL     1      50.803  -5.709 -56.980  1.00  0.00    -0.000 C 
BRANCH  15  16
ATOM     16  C   UNL     1      52.250  -5.934 -57.449  1.00  0.00    -0.000 C 
BRANCH  16  17
ATOM     17  C   UNL     1      52.660  -4.970 -58.573  1.00  0.00    -0.003 C 
ATOM     18  C   UNL     1      53.562  -3.837 -58.085  1.00  0.00     0.004 C 
ENDBRANCH  16  17
ENDBRANCH  15  16
ENDBRANCH  14  15
ENDBRANCH  13  14
ENDBRANCH  12  13
ENDBRANCH  11  12
ENDBRANCH   1  11
TORSDOF 14
ENDMDL
MODEL 8
REMARK VINA RESULT:    -4.304      4.655      8.381
REMARK INTER + INTRA:          -9.038
REMARK INTER:                  -7.598
REMARK INTRA:                  -1.440
REMARK UNBOUND:                -1.212
REMARK SMILES CCCCCCCCCCCCCCCC(=O)[O-]
REMARK SMILES IDX 9 1 10 2 11 3 12 4 13 5 14 6 15 7 16 8 17 9 18 10 8 11 7 12
REMARK SMILES IDX 6 13 5 14 4 15 3 16 2 17 1 18
REMARK H PARENT
REMARK Flexibility Score: inf
ROOT
ATOM      1  C   UNL     1      48.750  -7.433 -54.253  1.00  0.00     0.000 C 
ENDROOT
BRANCH   1   2
ATOM      2  C   UNL     1      50.265  -7.435 -53.994  1.00  0.00     0.000 C 
BRANCH   2   3
ATOM      3  C   UNL     1      51.008  -6.384 -54.834  1.00  0.00     0.000 C 
BRANCH   3   4
ATOM      4  C   UNL     1      50.367  -4.988 -54.750  1.00  0.00     0.000 C 
BRANCH   4   5
ATOM      5  C   UNL     1      49.889  -4.400 -56.095  1.00  0.00     0.000 C 
BRANCH   5   6
ATOM      6  C   UNL     1      50.684  -4.864 -57.328  1.00  0.00     0.006 C 
BRANCH   6   7
ATOM      7  C   UNL     1      51.875  -3.950 -57.647  1.00  0.00     0.053 C 
BRANCH   7   8
ATOM      8  C   UNL     1      53.097  -4.765 -57.925  1.00  0.00     0.041 C 
ATOM      9  O   UNL     1      54.196  -4.198 -58.163  1.00  0.00    -0.550 OA
ATOM     10  O   UNL     1      53.014  -6.151 -57.969  1.00  0.00    -0.550 OA
ENDBRANCH   7   8
ENDBRANCH   6   7
ENDBRANCH   5   6
ENDBRANCH   4   5
ENDBRANCH   3   4
ENDBRANCH   2   3
ENDBRANCH   1   2
BRANCH   1  11
ATOM     11  C   UNL     1      48.339  -8.401 -55.374  1.00  0.00     0.000 C 
BRANCH  11  12
ATOM     12  C   UNL     1      47.926  -7.633 -56.636  1.00  0.00    -0.000 C 
BRANCH  12  13
ATOM     13  C   UNL     1      47.292  -8.572 -57.670  1.00  0.00    -0.000 C 
BRANCH  13  14
ATOM     14  C   UNL     1      46.498  -9.693 -56.980  1.00  0.00    -0.000 C 
BRANCH  14  15
ATOM     15  C   UNL     1      46.291 -10.918 -57.885  1.00  0.00    -0.000 C 
BRANCH  15  16
ATOM     16  C   UNL     1      47.476 -11.898 -57.832  1.00  0.00    -0.000 C 
BRANCH  16  17
ATOM     17  C   UNL     1      48.154 -11.925 -56.453  1.00  0.00    -0.003 C 
ATOM     18  C   UNL     1      48.570 -13.331 -56.023  1.00  0.00     0.004 C 
ENDBRANCH  16  17
ENDBRANCH  15  16
ENDBRANCH  14  15
ENDBRANCH  13  14
ENDBRANCH  12  13
ENDBRANCH  11  12
ENDBRANCH   1  11
TORSDOF 14
ENDMDL
MODEL 9
REMARK VINA RESULT:    -4.296      4.624      8.044
REMARK INTER + INTRA:          -9.025
REMARK INTER:                  -7.320
REMARK INTRA:                  -1.705
REMARK UNBOUND:                -1.212
REMARK SMILES CCCCCCCCCCCCCCCC(=O)[O-]
REMARK SMILES IDX 9 1 10 2 11 3 12 4 13 5 14 6 15 7 16 8 17 9 18 10 8 11 7 12
REMARK SMILES IDX 6 13 5 14 4 15 3 16 2 17 1 18
REMARK H PARENT
REMARK Flexibility Score: inf
ROOT
ATOM      1  C   UNL     1      46.820  -6.699 -55.778  1.00  0.00     0.000 C 
ENDROOT
BRANCH   1   2
ATOM      2  C   UNL     1      47.364  -7.757 -54.804  1.00  0.00     0.000 C 
BRANCH   2   3
ATOM      3  C   UNL     1      48.456  -7.199 -53.876  1.00  0.00     0.000 C 
BRANCH   3   4
ATOM      4  C   UNL     1      49.867  -7.681 -54.256  1.00  0.00     0.000 C 
BRANCH   4   5
ATOM      5  C   UNL     1      50.732  -6.651 -55.014  1.00  0.00     0.000 C 
BRANCH   5   6
ATOM      6  C   UNL     1      50.443  -5.179 -54.673  1.00  0.00     0.006 C 
BRANCH   6   7
ATOM      7  C   UNL     1      49.907  -4.385 -55.872  1.00  0.00     0.053 C 
BRANCH   7   8
ATOM      8  C   UNL     1      48.624  -3.705 -55.515  1.00  0.00     0.041 C 
ATOM      9  O   UNL     1      47.891  -3.222 -56.417  1.00  0.00    -0.550 OA
ATOM     10  O   UNL     1      48.260  -3.561 -54.181  1.00  0.00    -0.550 OA
ENDBRANCH   7   8
ENDBRANCH   6   7
ENDBRANCH   5   6
ENDBRANCH   4   5
ENDBRANCH   3   4
ENDBRANCH   2   3
ENDBRANCH   1   2
BRANCH   1  11
ATOM     11  C   UNL     1      46.847  -7.169 -57.241  1.00  0.00     0.000 C 
BRANCH  11  12
ATOM     12  C   UNL     1      48.190  -7.828 -57.580  1.00  0.00    -0.000 C 
BRANCH  12  13
ATOM     13  C   UNL     1      47.982  -9.139 -58.347  1.00  0.00    -0.000 C 
BRANCH  13  14
ATOM     14  C   UNL     1      47.136 -10.127 -57.529  1.00  0.00    -0.000 C 
BRANCH  14  15
ATOM     15  C   UNL     1      47.988 -11.030 -56.622  1.00  0.00    -0.000 C 
BRANCH  15  16
ATOM     16  C   UNL     1      47.728 -12.526 -56.868  1.00  0.00    -0.000 C 
BRANCH  16  17
ATOM     17  C   UNL     1      48.296 -13.412 -55.748  1.00  0.00    -0.003 C 
ATOM     18  C   UNL     1      47.844 -14.869 -55.856  1.00  0.00     0.004 C 
ENDBRANCH  16  17
ENDBRANCH  15  16
ENDBRANCH  14  15
ENDBRANCH  13  14
ENDBRANCH  12  13
ENDBRANCH  11  12
ENDBRANCH   1  11
TORSDOF 14
ENDMDL
