MODEL 1
REMARK VINA RESULT:    -5.524      0.000      0.000
REMARK INTER + INTRA:          -6.301
REMARK INTER:                  -6.170
REMARK INTRA:                  -0.131
REMARK UNBOUND:                -0.131
REMARK SMILES O=C([O-])C=Cc1ccccc1
REMARK SMILES IDX 4 1 5 2 2 3 1 4 3 5 6 6 7 7 11 8 8 9 10 10 9 11
REMARK H PARENT
REMARK Flexibility Score: inf
ROOT
ATOM      1  C   UNL     1      14.602  14.165  29.599  1.00  0.00     0.025 C 
ATOM      2  C   UNL     1      14.994  15.364  29.145  1.00  0.00     0.010 C 
ENDROOT
BRANCH   1   3
ATOM      3  C   UNL     1      14.927  13.706  30.960  1.00  0.00     0.064 C 
ATOM      4  O   UNL     1      14.414  14.288  31.951  1.00  0.00    -0.545 OA
ATOM      5  O   UNL     1      15.793  12.639  31.169  1.00  0.00    -0.545 OA
ENDBRANCH   1   3
BRANCH   2   6
ATOM      6  C   UNL     1      14.705  15.894  27.784  1.00  0.00    -0.026 A 
ATOM      7  C   UNL     1      13.591  15.491  27.015  1.00  0.00     0.008 A 
ATOM      8  C   UNL     1      15.589  16.845  27.241  1.00  0.00     0.008 A 
ATOM      9  C   UNL     1      13.377  16.030  25.742  1.00  0.00     0.001 A 
ATOM     10  C   UNL     1      15.369  17.379  25.969  1.00  0.00     0.001 A 
ATOM     11  C   UNL     1      14.264  16.973  25.220  1.00  0.00     0.000 A 
ENDBRANCH   2   6
TORSDOF 2
ENDMDL
MODEL 2
REMARK VINA RESULT:    -5.484      3.176      5.438
REMARK INTER + INTRA:          -6.256
REMARK INTER:                  -6.112
REMARK INTRA:                  -0.144
REMARK UNBOUND:                -0.131
REMARK SMILES O=C([O-])C=Cc1ccccc1
REMARK SMILES IDX 4 1 5 2 2 3 1 4 3 5 6 6 7 7 11 8 8 9 10 10 9 11
REMARK H PARENT
REMARK Flexibility Score: inf
ROOT
ATOM      1  C   UNL     1      14.052  15.621  27.275  1.00  0.00     0.025 C 
ATOM      2  C   UNL     1      13.592  15.516  28.529  1.00  0.00     0.010 C 
ENDROOT
BRANCH   1   3
ATOM      3  C   UNL     1      13.445  16.541  26.299  1.00  0.00     0.064 C 
ATOM      4  O   UNL     1      13.585  16.322  25.068  1.00  0.00    -0.545 OA
ATOM      5  O   UNL     1      12.718  17.651  26.715  1.00  0.00    -0.545 OA
ENDBRANCH   1   3
BRANCH   2   6
ATOM      6  C   UNL     1      14.154  14.610  29.568  1.00  0.00    -0.026 A 
ATOM      7  C   UNL     1      13.975  14.813  30.954  1.00  0.00     0.008 A 
ATOM      8  C   UNL     1      14.898  13.494  29.142  1.00  0.00     0.008 A 
ATOM      9  C   UNL     1      14.530  13.920  31.878  1.00  0.00     0.001 A 
ATOM     10  C   UNL     1      15.450  12.606  30.070  1.00  0.00     0.001 A 
ATOM     11  C   UNL     1      15.265  12.819  31.438  1.00  0.00     0.000 A 
ENDBRANCH   2   6
TORSDOF 2
ENDMDL
MODEL 3
REMARK VINA RESULT:    -5.133      2.171      2.959
REMARK INTER + INTRA:          -5.864
REMARK INTER:                  -5.735
REMARK INTRA:                  -0.129
REMARK UNBOUND:                -0.131
REMARK SMILES O=C([O-])C=Cc1ccccc1
REMARK SMILES IDX 4 1 5 2 2 3 1 4 3 5 6 6 7 7 11 8 8 9 10 10 9 11
REMARK H PARENT
REMARK Flexibility Score: inf
ROOT
ATOM      1  C   UNL     1      13.921  15.576  27.623  1.00  0.00     0.025 C 
ATOM      2  C   UNL     1      13.826  16.845  27.200  1.00  0.00     0.010 C 
ENDROOT
BRANCH   1   3
ATOM      3  C   UNL     1      14.670  15.217  28.839  1.00  0.00     0.064 C 
ATOM      4  O   UNL     1      15.707  15.861  29.143  1.00  0.00    -0.545 OA
ATOM      5  O   UNL     1      14.250  14.174  29.658  1.00  0.00    -0.545 OA
ENDBRANCH   1   3
BRANCH   2   6
ATOM      6  C   UNL     1      13.089  17.282  25.983  1.00  0.00    -0.026 A 
ATOM      7  C   UNL     1      11.706  17.569  25.974  1.00  0.00     0.008 A 
ATOM      8  C   UNL     1      13.811  17.416  24.782  1.00  0.00     0.008 A 
ATOM      9  C   UNL     1      11.075  17.977  24.794  1.00  0.00     0.001 A 
ATOM     10  C   UNL     1      13.175  17.824  23.607  1.00  0.00     0.001 A 
ATOM     11  C   UNL     1      11.807  18.104  23.613  1.00  0.00     0.000 A 
ENDBRANCH   2   6
TORSDOF 2
ENDMDL
MODEL 4
REMARK VINA RESULT:    -4.723      4.088      5.139
REMARK INTER + INTRA:          -5.406
REMARK INTER:                  -5.272
REMARK INTRA:                  -0.134
REMARK UNBOUND:                -0.131
REMARK SMILES O=C([O-])C=Cc1ccccc1
REMARK SMILES IDX 4 1 5 2 2 3 1 4 3 5 6 6 7 7 11 8 8 9 10 10 9 11
REMARK H PARENT
REMARK Flexibility Score: inf
ROOT
ATOM      1  C   UNL     1      15.782  17.334  25.913  1.00  0.00     0.025 C 
ATOM      2  C   UNL     1      15.061  17.786  24.877  1.00  0.00     0.010 C 
ENDROOT
BRANCH   1   3
ATOM      3  C   UNL     1      17.253  17.344  25.899  1.00  0.00     0.064 C 
ATOM      4  O   UNL     1      17.862  18.018  25.028  1.00  0.00    -0.545 OA
ATOM      5  O   UNL     1      17.985  16.618  26.832  1.00  0.00    -0.545 OA
ENDBRANCH   1   3
BRANCH   2   6
ATOM      6  C   UNL     1      13.573  17.806  24.820  1.00  0.00    -0.026 A 
ATOM      7  C   UNL     1      12.752  17.765  25.968  1.00  0.00     0.008 A 
ATOM      8  C   UNL     1      12.959  17.871  23.556  1.00  0.00     0.008 A 
ATOM      9  C   UNL     1      11.359  17.787  25.843  1.00  0.00     0.001 A 
ATOM     10  C   UNL     1      11.567  17.894  23.438  1.00  0.00     0.001 A 
ATOM     11  C   UNL     1      10.767  17.852  24.582  1.00  0.00     0.000 A 
ENDBRANCH   2   6
TORSDOF 2
ENDMDL
MODEL 5
REMARK VINA RESULT:    -4.705      4.327      5.736
REMARK INTER + INTRA:          -5.386
REMARK INTER:                  -5.253
REMARK INTRA:                  -0.133
REMARK UNBOUND:                -0.131
REMARK SMILES O=C([O-])C=Cc1ccccc1
REMARK SMILES IDX 4 1 5 2 2 3 1 4 3 5 6 6 7 7 11 8 8 9 10 10 9 11
REMARK H PARENT
REMARK Flexibility Score: inf
ROOT
ATOM      1  C   UNL     1      12.489  16.835  25.001  1.00  0.00     0.025 C 
ATOM      2  C   UNL     1      12.523  17.142  26.306  1.00  0.00     0.010 C 
ENDROOT
BRANCH   1   3
ATOM      3  C   UNL     1      11.551  17.489  24.074  1.00  0.00     0.064 C 
ATOM      4  O   UNL     1      10.495  18.006  24.520  1.00  0.00    -0.545 OA
ATOM      5  O   UNL     1      11.813  17.545  22.709  1.00  0.00    -0.545 OA
ENDBRANCH   1   3
BRANCH   2   6
ATOM      6  C   UNL     1      13.441  16.523  27.301  1.00  0.00    -0.026 A 
ATOM      7  C   UNL     1      13.008  15.630  28.306  1.00  0.00     0.008 A 
ATOM      8  C   UNL     1      14.809  16.847  27.233  1.00  0.00     0.008 A 
ATOM      9  C   UNL     1      13.925  15.083  29.210  1.00  0.00     0.001 A 
ATOM     10  C   UNL     1      15.720  16.297  28.139  1.00  0.00     0.001 A 
ATOM     11  C   UNL     1      15.278  15.415  29.127  1.00  0.00     0.000 A 
ENDBRANCH   2   6
TORSDOF 2
ENDMDL
MODEL 6
REMARK VINA RESULT:    -4.648      3.818      4.741
REMARK INTER + INTRA:          -5.322
REMARK INTER:                  -5.177
REMARK INTRA:                  -0.145
REMARK UNBOUND:                -0.131
REMARK SMILES O=C([O-])C=Cc1ccccc1
REMARK SMILES IDX 4 1 5 2 2 3 1 4 3 5 6 6 7 7 11 8 8 9 10 10 9 11
REMARK H PARENT
REMARK Flexibility Score: inf
ROOT
ATOM      1  C   UNL     1      17.603  16.816  26.661  1.00  0.00     0.025 C 
ATOM      2  C   UNL     1      16.690  17.404  25.876  1.00  0.00     0.010 C 
ENDROOT
BRANCH   1   3
ATOM      3  C   UNL     1      19.044  16.886  26.365  1.00  0.00     0.064 C 
ATOM      4  O   UNL     1      19.425  17.130  25.191  1.00  0.00    -0.545 OA
ATOM      5  O   UNL     1      19.992  16.685  27.362  1.00  0.00    -0.545 OA
ENDBRANCH   1   3
BRANCH   2   6
ATOM      6  C   UNL     1      15.220  17.375  26.111  1.00  0.00    -0.026 A 
ATOM      7  C   UNL     1      14.266  17.505  25.078  1.00  0.00     0.008 A 
ATOM      8  C   UNL     1      14.763  17.208  27.432  1.00  0.00     0.008 A 
ATOM      9  C   UNL     1      12.898  17.468  25.369  1.00  0.00     0.001 A 
ATOM     10  C   UNL     1      13.396  17.172  27.715  1.00  0.00     0.001 A 
ATOM     11  C   UNL     1      12.463  17.301  26.684  1.00  0.00     0.000 A 
ENDBRANCH   2   6
TORSDOF 2
ENDMDL
MODEL 7
REMARK VINA RESULT:    -4.611      4.347      6.009
REMARK INTER + INTRA:          -5.281
REMARK INTER:                  -5.150
REMARK INTRA:                  -0.131
REMARK UNBOUND:                -0.131
REMARK SMILES O=C([O-])C=Cc1ccccc1
REMARK SMILES IDX 4 1 5 2 2 3 1 4 3 5 6 6 7 7 11 8 8 9 10 10 9 11
REMARK H PARENT
REMARK Flexibility Score: inf
ROOT
ATOM      1  C   UNL     1      13.029  17.136  24.805  1.00  0.00     0.025 C 
ATOM      2  C   UNL     1      12.678  16.986  26.090  1.00  0.00     0.010 C 
ENDROOT
BRANCH   1   3
ATOM      3  C   UNL     1      12.096  17.680  23.804  1.00  0.00     0.064 C 
ATOM      4  O   UNL     1      12.463  17.783  22.604  1.00  0.00    -0.545 OA
ATOM      5  O   UNL     1      10.816  18.086  24.162  1.00  0.00    -0.545 OA
ENDBRANCH   1   3
BRANCH   2   6
ATOM      6  C   UNL     1      13.565  16.443  27.155  1.00  0.00    -0.026 A 
ATOM      7  C   UNL     1      14.956  16.681  27.203  1.00  0.00     0.008 A 
ATOM      8  C   UNL     1      12.983  15.653  28.164  1.00  0.00     0.008 A 
ATOM      9  C   UNL     1      15.732  16.140  28.234  1.00  0.00     0.001 A 
ATOM     10  C   UNL     1      13.763  15.116  29.191  1.00  0.00     0.001 A 
ATOM     11  C   UNL     1      15.138  15.359  29.226  1.00  0.00     0.000 A 
ENDBRANCH   2   6
TORSDOF 2
ENDMDL
MODEL 8
REMARK VINA RESULT:    -4.507      2.238      3.168
REMARK INTER + INTRA:          -5.165
REMARK INTER:                  -5.039
REMARK INTRA:                  -0.127
REMARK UNBOUND:                -0.131
REMARK SMILES O=C([O-])C=Cc1ccccc1
REMARK SMILES IDX 4 1 5 2 2 3 1 4 3 5 6 6 7 7 11 8 8 9 10 10 9 11
REMARK H PARENT
REMARK Flexibility Score: inf
ROOT
ATOM      1  C   UNL     1      14.539  15.759  27.646  1.00  0.00     0.025 C 
ATOM      2  C   UNL     1      15.608  16.560  27.760  1.00  0.00     0.010 C 
ENDROOT
BRANCH   1   3
ATOM      3  C   UNL     1      13.740  15.359  28.816  1.00  0.00     0.064 C 
ATOM      4  O   UNL     1      12.665  15.961  29.069  1.00  0.00    -0.545 OA
ATOM      5  O   UNL     1      14.154  14.326  29.649  1.00  0.00    -0.545 OA
ENDBRANCH   1   3
BRANCH   2   6
ATOM      6  C   UNL     1      16.462  17.004  26.624  1.00  0.00    -0.026 A 
ATOM      7  C   UNL     1      15.969  17.738  25.523  1.00  0.00     0.008 A 
ATOM      8  C   UNL     1      17.830  16.676  26.656  1.00  0.00     0.008 A 
ATOM      9  C   UNL     1      16.828  18.125  24.489  1.00  0.00     0.001 A 
ATOM     10  C   UNL     1      18.683  17.066  25.619  1.00  0.00     0.001 A 
ATOM     11  C   UNL     1      18.182  17.790  24.536  1.00  0.00     0.000 A 
ENDBRANCH   2   6
TORSDOF 2
ENDMDL
MODEL 9
REMARK VINA RESULT:    -4.498      3.891      5.035
REMARK INTER + INTRA:          -5.155
REMARK INTER:                  -5.024
REMARK INTRA:                  -0.132
REMARK UNBOUND:                -0.131
REMARK SMILES O=C([O-])C=Cc1ccccc1
REMARK SMILES IDX 4 1 5 2 2 3 1 4 3 5 6 6 7 7 11 8 8 9 10 10 9 11
REMARK H PARENT
REMARK Flexibility Score: inf
ROOT
ATOM      1  C   UNL     1      17.848  16.569  26.715  1.00  0.00     0.025 C 
ATOM      2  C   UNL     1      16.628  17.122  26.665  1.00  0.00     0.010 C 
ENDROOT
BRANCH   1   3
ATOM      3  C   UNL     1      18.984  17.123  25.960  1.00  0.00     0.064 C 
ATOM      4  O   UNL     1      19.895  17.738  26.571  1.00  0.00    -0.545 OA
ATOM      5  O   UNL     1      19.066  16.978  24.579  1.00  0.00    -0.545 OA
ENDBRANCH   1   3
BRANCH   2   6
ATOM      6  C   UNL     1      15.435  16.618  27.399  1.00  0.00    -0.026 A 
ATOM      7  C   UNL     1      15.492  15.574  28.348  1.00  0.00     0.008 A 
ATOM      8  C   UNL     1      14.190  17.216  27.130  1.00  0.00     0.008 A 
ATOM      9  C   UNL     1      14.331  15.148  29.003  1.00  0.00     0.001 A 
ATOM     10  C   UNL     1      13.034  16.786  27.788  1.00  0.00     0.001 A 
ATOM     11  C   UNL     1      13.105  15.753  28.724  1.00  0.00     0.000 A 
ENDBRANCH   2   6
TORSDOF 2
ENDMDL
