MODEL 1
REMARK VINA RESULT:     1.913      0.000      0.000
REMARK INTER + INTRA:           1.779
REMARK INTER:                   2.025
REMARK INTRA:                  -0.246
REMARK UNBOUND:                -0.246
REMARK SMILES CC1=CC[C@@]23[C@@H]([C@@H](C(C)C)CC[C@H]2C)[C@H]13
REMARK SMILES IDX 14 1 13 2 12 3 11 4 7 5 6 6 5 7 15 8 2 9 3 10 4 11 1 12 8 13
REMARK SMILES IDX 9 14 10 15
REMARK H PARENT
REMARK Flexibility Score: inf
ROOT
ATOM      1  C   UNL     1     -13.102  -2.476  15.075  1.00  0.00     0.008 C 
ATOM      2  C   UNL     1     -13.357  -2.192  16.560  1.00  0.00    -0.007 C 
ATOM      3  C   UNL     1     -12.716  -3.287  17.442  1.00  0.00     0.004 C 
ATOM      4  C   UNL     1     -13.085  -3.195  18.946  1.00  0.00     0.004 C 
ATOM      5  C   UNL     1     -13.916  -1.942  19.301  1.00  0.00    -0.004 C 
ATOM      6  C   UNL     1     -15.179  -1.908  18.409  1.00  0.00     0.007 C 
ATOM      7  C   UNL     1     -14.867  -2.035  16.910  1.00  0.00    -0.013 C 
ATOM      8  C   UNL     1     -15.324  -0.696  17.489  1.00  0.00     0.025 C 
ATOM      9  C   UNL     1     -16.683  -0.502  16.905  1.00  0.00    -0.073 C 
ATOM     10  C   UNL     1     -17.056  -1.503  16.115  1.00  0.00    -0.027 C 
ATOM     11  C   UNL     1     -16.011  -2.564  16.023  1.00  0.00     0.035 C 
ATOM     12  C   UNL     1     -17.548   0.683  17.201  1.00  0.00     0.039 C 
ENDROOT
BRANCH   5  13
ATOM     13  C   UNL     1     -14.239  -1.832  20.820  1.00  0.00    -0.014 C 
ATOM     14  C   UNL     1     -13.035  -2.081  21.748  1.00  0.00     0.007 C 
ATOM     15  C   UNL     1     -15.398  -2.765  21.202  1.00  0.00     0.007 C 
ENDBRANCH   5  13
TORSDOF 1
ENDMDL
MODEL 2
REMARK VINA RESULT:     2.374      1.035      4.204
REMARK INTER + INTRA:           2.267
REMARK INTER:                   2.565
REMARK INTRA:                  -0.298
REMARK UNBOUND:                -0.246
REMARK SMILES CC1=CC[C@@]23[C@@H]([C@@H](C(C)C)CC[C@H]2C)[C@H]13
REMARK SMILES IDX 14 1 13 2 12 3 11 4 7 5 6 6 5 7 15 8 2 9 3 10 4 11 1 12 8 13
REMARK SMILES IDX 9 14 10 15
REMARK H PARENT
REMARK Flexibility Score: inf
ROOT
ATOM      1  C   UNL     1     -15.156  -4.873  16.010  1.00  0.00     0.008 C 
ATOM      2  C   UNL     1     -15.736  -3.501  16.370  1.00  0.00    -0.007 C 
ATOM      3  C   UNL     1     -16.106  -2.714  15.092  1.00  0.00     0.004 C 
ATOM      4  C   UNL     1     -16.518  -1.239  15.346  1.00  0.00     0.004 C 
ATOM      5  C   UNL     1     -16.612  -0.875  16.843  1.00  0.00    -0.004 C 
ATOM      6  C   UNL     1     -15.265  -1.208  17.527  1.00  0.00     0.007 C 
ATOM      7  C   UNL     1     -14.795  -2.648  17.272  1.00  0.00    -0.013 C 
ATOM      8  C   UNL     1     -15.314  -2.242  18.651  1.00  0.00     0.025 C 
ATOM      9  C   UNL     1     -14.102  -2.295  19.519  1.00  0.00    -0.073 C 
ATOM     10  C   UNL     1     -13.007  -2.650  18.856  1.00  0.00    -0.027 C 
ATOM     11  C   UNL     1     -13.281  -2.900  17.411  1.00  0.00     0.035 C 
ATOM     12  C   UNL     1     -14.112  -1.956  20.976  1.00  0.00     0.039 C 
ENDROOT
BRANCH   5  13
ATOM     13  C   UNL     1     -17.074   0.591  17.088  1.00  0.00    -0.014 C 
ATOM     14  C   UNL     1     -15.951   1.550  17.526  1.00  0.00     0.007 C 
ATOM     15  C   UNL     1     -18.229   0.640  18.100  1.00  0.00     0.007 C 
ENDBRANCH   5  13
TORSDOF 1
ENDMDL
MODEL 3
REMARK VINA RESULT:     2.430      1.148      4.627
REMARK INTER + INTRA:           2.326
REMARK INTER:                   2.534
REMARK INTRA:                  -0.208
REMARK UNBOUND:                -0.246
REMARK SMILES CC1=CC[C@@]23[C@@H]([C@@H](C(C)C)CC[C@H]2C)[C@H]13
REMARK SMILES IDX 14 1 13 2 12 3 11 4 7 5 6 6 5 7 15 8 2 9 3 10 4 11 1 12 8 13
REMARK SMILES IDX 9 14 10 15
REMARK H PARENT
REMARK Flexibility Score: inf
ROOT
ATOM      1  C   UNL     1     -17.198   0.040  17.876  1.00  0.00     0.008 C 
ATOM      2  C   UNL     1     -16.057  -0.841  17.354  1.00  0.00    -0.007 C 
ATOM      3  C   UNL     1     -16.503  -1.618  16.093  1.00  0.00     0.004 C 
ATOM      4  C   UNL     1     -15.485  -2.683  15.605  1.00  0.00     0.004 C 
ATOM      5  C   UNL     1     -14.157  -2.671  16.392  1.00  0.00    -0.004 C 
ATOM      6  C   UNL     1     -14.463  -2.835  17.899  1.00  0.00     0.007 C 
ATOM      7  C   UNL     1     -15.496  -1.826  18.421  1.00  0.00    -0.013 C 
ATOM      8  C   UNL     1     -14.024  -1.688  18.808  1.00  0.00     0.025 C 
ATOM      9  C   UNL     1     -14.007  -2.004  20.266  1.00  0.00    -0.073 C 
ATOM     10  C   UNL     1     -15.209  -2.300  20.745  1.00  0.00    -0.027 C 
ATOM     11  C   UNL     1     -16.264  -2.241  19.692  1.00  0.00     0.035 C 
ATOM     12  C   UNL     1     -12.761  -2.014  21.095  1.00  0.00     0.039 C 
ENDROOT
BRANCH   5  13
ATOM     13  C   UNL     1     -13.123  -3.708  15.863  1.00  0.00    -0.014 C 
ATOM     14  C   UNL     1     -12.091  -3.134  14.875  1.00  0.00     0.007 C 
ATOM     15  C   UNL     1     -13.834  -4.918  15.235  1.00  0.00     0.007 C 
ENDBRANCH   5  13
TORSDOF 1
ENDMDL
