MODEL 1
REMARK VINA RESULT:     0.000      0.000      0.000
REMARK INTER + INTRA:          -2.834
REMARK INTER:                   0.000
REMARK INTRA:                  -2.834
REMARK UNBOUND:                -2.834
REMARK SMILES CCCCCCCCCCCCCCC(=O)[O-]
REMARK SMILES IDX 9 1 10 2 11 3 12 4 13 5 14 6 15 7 16 8 17 9 8 10 7 11 6 12
REMARK SMILES IDX 5 13 4 14 3 15 2 16 1 17
REMARK H PARENT
REMARK Flexibility Score: inf
ROOT
ATOM      1  C   UNL     1     179.894 181.535 182.752  1.00  0.00     0.000 C 
ENDROOT
BRANCH   1   2
ATOM      2  C   UNL     1     180.861 180.942 183.794  1.00  0.00     0.000 C 
BRANCH   2   3
ATOM      3  C   UNL     1     181.075 181.808 185.055  1.00  0.00     0.000 C 
BRANCH   3   4
ATOM      4  C   UNL     1     181.121 181.028 186.382  1.00  0.00     0.000 C 
BRANCH   4   5
ATOM      5  C   UNL     1     181.137 179.503 186.179  1.00  0.00     0.006 C 
BRANCH   5   6
ATOM      6  C   UNL     1     180.349 178.765 187.270  1.00  0.00     0.053 C 
BRANCH   6   7
ATOM      7  C   UNL     1     179.583 177.605 186.710  1.00  0.00     0.041 C 
ATOM      8  O   UNL     1     180.050 176.944 185.745  1.00  0.00    -0.550 OA
ATOM      9  O   UNL     1     178.333 177.286 187.225  1.00  0.00    -0.550 OA
ENDBRANCH   6   7
ENDBRANCH   5   6
ENDBRANCH   4   5
ENDBRANCH   3   4
ENDBRANCH   2   3
ENDBRANCH   1   2
BRANCH   1  10
ATOM     10  C   UNL     1     178.708 180.609 182.448  1.00  0.00     0.000 C 
BRANCH  10  11
ATOM     11  C   UNL     1     178.789 179.319 183.277  1.00  0.00    -0.000 C 
BRANCH  11  12
ATOM     12  C   UNL     1     177.495 179.032 184.060  1.00  0.00    -0.000 C 
BRANCH  12  13
ATOM     13  C   UNL     1     176.839 180.266 184.712  1.00  0.00    -0.000 C 
BRANCH  13  14
ATOM     14  C   UNL     1     177.384 180.636 186.103  1.00  0.00    -0.000 C 
BRANCH  14  15
ATOM     15  C   UNL     1     177.575 182.151 186.283  1.00  0.00    -0.000 C 
BRANCH  15  16
ATOM     16  C   UNL     1     177.241 182.940 185.007  1.00  0.00    -0.003 C 
ATOM     17  C   UNL     1     178.168 184.140 184.807  1.00  0.00     0.004 C 
ENDBRANCH  15  16
ENDBRANCH  14  15
ENDBRANCH  13  14
ENDBRANCH  12  13
ENDBRANCH  11  12
ENDBRANCH  10  11
ENDBRANCH   1  10
TORSDOF 13
ENDMDL
MODEL 2
REMARK VINA RESULT:     0.008      5.206      7.624
REMARK INTER + INTRA:          -2.819
REMARK INTER:                   0.000
REMARK INTRA:                  -2.819
REMARK UNBOUND:                -2.834
REMARK SMILES CCCCCCCCCCCCCCC(=O)[O-]
REMARK SMILES IDX 9 1 10 2 11 3 12 4 13 5 14 6 15 7 16 8 17 9 8 10 7 11 6 12
REMARK SMILES IDX 5 13 4 14 3 15 2 16 1 17
REMARK H PARENT
REMARK Flexibility Score: inf
ROOT
ATOM      1  C   UNL     1     181.150 176.066 187.665  1.00  0.00     0.000 C 
ENDROOT
BRANCH   1   2
ATOM      2  C   UNL     1     181.203 177.278 188.613  1.00  0.00     0.000 C 
BRANCH   2   3
ATOM      3  C   UNL     1     181.987 177.051 189.923  1.00  0.00     0.000 C 
BRANCH   3   4
ATOM      4  C   UNL     1     182.907 178.213 190.343  1.00  0.00     0.000 C 
BRANCH   4   5
ATOM      5  C   UNL     1     182.671 179.490 189.518  1.00  0.00     0.006 C 
BRANCH   5   6
ATOM      6  C   UNL     1     183.986 180.160 189.098  1.00  0.00     0.053 C 
BRANCH   6   7
ATOM      7  C   UNL     1     183.778 181.133 187.979  1.00  0.00     0.041 C 
ATOM      8  O   UNL     1     184.701 181.922 187.644  1.00  0.00    -0.550 OA
ATOM      9  O   UNL     1     182.547 181.200 187.338  1.00  0.00    -0.550 OA
ENDBRANCH   6   7
ENDBRANCH   5   6
ENDBRANCH   4   5
ENDBRANCH   3   4
ENDBRANCH   2   3
ENDBRANCH   1   2
BRANCH   1  10
ATOM     10  C   UNL     1     181.923 176.298 186.359  1.00  0.00     0.000 C 
BRANCH  10  11
ATOM     11  C   UNL     1     182.371 177.762 186.237  1.00  0.00    -0.000 C 
BRANCH  11  12
ATOM     12  C   UNL     1     183.898 177.908 186.103  1.00  0.00    -0.000 C 
BRANCH  12  13
ATOM     13  C   UNL     1     184.716 176.703 186.611  1.00  0.00    -0.000 C 
BRANCH  13  14
ATOM     14  C   UNL     1     185.440 176.926 187.950  1.00  0.00    -0.000 C 
BRANCH  14  15
ATOM     15  C   UNL     1     185.311 175.725 188.902  1.00  0.00    -0.000 C 
BRANCH  15  16
ATOM     16  C   UNL     1     184.584 174.537 188.252  1.00  0.00    -0.003 C 
ATOM     17  C   UNL     1     183.676 173.801 189.238  1.00  0.00     0.004 C 
ENDBRANCH  15  16
ENDBRANCH  14  15
ENDBRANCH  13  14
ENDBRANCH  12  13
ENDBRANCH  11  12
ENDBRANCH  10  11
ENDBRANCH   1  10
TORSDOF 13
ENDMDL
MODEL 3
REMARK VINA RESULT:     0.010      4.539      6.129
REMARK INTER + INTRA:          -2.817
REMARK INTER:                   0.000
REMARK INTRA:                  -2.817
REMARK UNBOUND:                -2.834
REMARK SMILES CCCCCCCCCCCCCCC(=O)[O-]
REMARK SMILES IDX 9 1 10 2 11 3 12 4 13 5 14 6 15 7 16 8 17 9 8 10 7 11 6 12
REMARK SMILES IDX 5 13 4 14 3 15 2 16 1 17
REMARK H PARENT
REMARK Flexibility Score: inf
ROOT
ATOM      1  C   UNL     1     181.103 180.379 183.948  1.00  0.00     0.000 C 
ENDROOT
BRANCH   1   2
ATOM      2  C   UNL     1     182.520 180.320 183.349  1.00  0.00     0.000 C 
BRANCH   2   3
ATOM      3  C   UNL     1     182.949 181.577 182.560  1.00  0.00     0.000 C 
BRANCH   3   4
ATOM      4  C   UNL     1     183.667 181.297 181.226  1.00  0.00     0.000 C 
BRANCH   4   5
ATOM      5  C   UNL     1     184.153 179.842 181.103  1.00  0.00     0.006 C 
BRANCH   5   6
ATOM      6  C   UNL     1     183.703 179.192 179.788  1.00  0.00     0.053 C 
BRANCH   6   7
ATOM      7  C   UNL     1     184.215 179.944 178.597  1.00  0.00     0.041 C 
ATOM      8  O   UNL     1     185.453 180.038 178.390  1.00  0.00    -0.550 OA
ATOM      9  O   UNL     1     183.322 180.581 177.743  1.00  0.00    -0.550 OA
ENDBRANCH   6   7
ENDBRANCH   5   6
ENDBRANCH   4   5
ENDBRANCH   3   4
ENDBRANCH   2   3
ENDBRANCH   1   2
BRANCH   1  10
ATOM     10  C   UNL     1     180.163 179.319 183.357  1.00  0.00     0.000 C 
BRANCH  10  11
ATOM     11  C   UNL     1     180.901 178.433 182.342  1.00  0.00    -0.000 C 
BRANCH  11  12
ATOM     12  C   UNL     1     180.228 178.425 180.957  1.00  0.00    -0.000 C 
BRANCH  12  13
ATOM     13  C   UNL     1     179.506 179.734 180.575  1.00  0.00    -0.000 C 
BRANCH  13  14
ATOM     14  C   UNL     1     180.322 180.692 179.689  1.00  0.00    -0.000 C 
BRANCH  14  15
ATOM     15  C   UNL     1     180.191 182.161 180.125  1.00  0.00    -0.000 C 
BRANCH  15  16
ATOM     16  C   UNL     1     179.258 182.333 181.334  1.00  0.00    -0.003 C 
ATOM     17  C   UNL     1     179.729 183.439 182.280  1.00  0.00     0.004 C 
ENDBRANCH  15  16
ENDBRANCH  14  15
ENDBRANCH  13  14
ENDBRANCH  12  13
ENDBRANCH  11  12
ENDBRANCH  10  11
ENDBRANCH   1  10
TORSDOF 13
ENDMDL
MODEL 4
REMARK VINA RESULT:     0.015      3.046      5.187
REMARK INTER + INTRA:          -2.808
REMARK INTER:                   0.000
REMARK INTRA:                  -2.808
REMARK UNBOUND:                -2.834
REMARK SMILES CCCCCCCCCCCCCCC(=O)[O-]
REMARK SMILES IDX 9 1 10 2 11 3 12 4 13 5 14 6 15 7 16 8 17 9 8 10 7 11 6 12
REMARK SMILES IDX 5 13 4 14 3 15 2 16 1 17
REMARK H PARENT
REMARK Flexibility Score: inf
ROOT
ATOM      1  C   UNL     1     184.039 183.023 185.397  1.00  0.00     0.000 C 
ENDROOT
BRANCH   1   2
ATOM      2  C   UNL     1     184.163 181.737 186.235  1.00  0.00     0.000 C 
BRANCH   2   3
ATOM      3  C   UNL     1     185.253 180.751 185.762  1.00  0.00     0.000 C 
BRANCH   3   4
ATOM      4  C   UNL     1     184.860 179.263 185.825  1.00  0.00     0.000 C 
BRANCH   4   5
ATOM      5  C   UNL     1     183.415 179.048 186.307  1.00  0.00     0.006 C 
BRANCH   5   6
ATOM      6  C   UNL     1     182.784 177.787 185.700  1.00  0.00     0.053 C 
BRANCH   6   7
ATOM      7  C   UNL     1     181.290 177.886 185.650  1.00  0.00     0.041 C 
ATOM      8  O   UNL     1     180.643 178.230 186.675  1.00  0.00    -0.550 OA
ATOM      9  O   UNL     1     180.611 177.551 184.485  1.00  0.00    -0.550 OA
ENDBRANCH   6   7
ENDBRANCH   5   6
ENDBRANCH   4   5
ENDBRANCH   3   4
ENDBRANCH   2   3
ENDBRANCH   1   2
BRANCH   1  10
ATOM     10  C   UNL     1     182.678 183.149 184.699  1.00  0.00     0.000 C 
BRANCH  10  11
ATOM     11  C   UNL     1     181.697 182.082 185.207  1.00  0.00    -0.000 C 
BRANCH  11  12
ATOM     12  C   UNL     1     181.184 181.161 184.085  1.00  0.00    -0.000 C 
BRANCH  12  13
ATOM     13  C   UNL     1     182.049 181.143 182.809  1.00  0.00    -0.000 C 
BRANCH  13  14
ATOM     14  C   UNL     1     182.860 179.853 182.590  1.00  0.00    -0.000 C 
BRANCH  14  15
ATOM     15  C   UNL     1     184.335 180.129 182.252  1.00  0.00    -0.000 C 
BRANCH  15  16
ATOM     16  C   UNL     1     184.592 181.605 181.909  1.00  0.00    -0.003 C 
ATOM     17  C   UNL     1     185.981 182.070 182.348  1.00  0.00     0.004 C 
ENDBRANCH  15  16
ENDBRANCH  14  15
ENDBRANCH  13  14
ENDBRANCH  12  13
ENDBRANCH  11  12
ENDBRANCH  10  11
ENDBRANCH   1  10
TORSDOF 13
ENDMDL
MODEL 5
REMARK VINA RESULT:     0.015      5.311      7.309
REMARK INTER + INTRA:          -2.807
REMARK INTER:                   0.000
REMARK INTRA:                  -2.807
REMARK UNBOUND:                -2.834
REMARK SMILES CCCCCCCCCCCCCCC(=O)[O-]
REMARK SMILES IDX 9 1 10 2 11 3 12 4 13 5 14 6 15 7 16 8 17 9 8 10 7 11 6 12
REMARK SMILES IDX 5 13 4 14 3 15 2 16 1 17
REMARK H PARENT
REMARK Flexibility Score: inf
ROOT
ATOM      1  C   UNL     1     183.272 177.381 179.256  1.00  0.00     0.000 C 
ENDROOT
BRANCH   1   2
ATOM      2  C   UNL     1     183.503 178.825 178.777  1.00  0.00     0.000 C 
BRANCH   2   3
ATOM      3  C   UNL     1     183.734 179.859 179.902  1.00  0.00     0.000 C 
BRANCH   3   4
ATOM      4  C   UNL     1     182.921 181.160 179.769  1.00  0.00     0.000 C 
BRANCH   4   5
ATOM      5  C   UNL     1     182.370 181.378 178.349  1.00  0.00     0.006 C 
BRANCH   5   6
ATOM      6  C   UNL     1     180.892 181.793 178.358  1.00  0.00     0.053 C 
BRANCH   6   7
ATOM      7  C   UNL     1     180.678 183.054 179.138  1.00  0.00     0.041 C 
ATOM      8  O   UNL     1     181.219 184.129 178.765  1.00  0.00    -0.550 OA
ATOM      9  O   UNL     1     179.919 183.030 180.302  1.00  0.00    -0.550 OA
ENDBRANCH   6   7
ENDBRANCH   5   6
ENDBRANCH   4   5
ENDBRANCH   3   4
ENDBRANCH   2   3
ENDBRANCH   1   2
BRANCH   1  10
ATOM     10  C   UNL     1     181.878 176.850 178.895  1.00  0.00     0.000 C 
BRANCH  10  11
ATOM     11  C   UNL     1     181.108 177.864 178.035  1.00  0.00    -0.000 C 
BRANCH  11  12
ATOM     12  C   UNL     1     179.791 178.321 178.688  1.00  0.00    -0.000 C 
BRANCH  12  13
ATOM     13  C   UNL     1     179.736 178.167 180.222  1.00  0.00    -0.000 C 
BRANCH  13  14
ATOM     14  C   UNL     1     179.810 179.486 181.012  1.00  0.00    -0.000 C 
BRANCH  14  15
ATOM     15  C   UNL     1     180.820 179.430 182.170  1.00  0.00    -0.000 C 
BRANCH  15  16
ATOM     16  C   UNL     1     181.331 178.004 182.433  1.00  0.00    -0.003 C 
ATOM     17  C   UNL     1     182.775 177.988 182.938  1.00  0.00     0.004 C 
ENDBRANCH  15  16
ENDBRANCH  14  15
ENDBRANCH  13  14
ENDBRANCH  12  13
ENDBRANCH  11  12
ENDBRANCH  10  11
ENDBRANCH   1  10
TORSDOF 13
ENDMDL
MODEL 6
REMARK VINA RESULT:     0.026      4.432      6.245
REMARK INTER + INTRA:          -2.788
REMARK INTER:                   0.000
REMARK INTRA:                  -2.788
REMARK UNBOUND:                -2.834
REMARK SMILES CCCCCCCCCCCCCCC(=O)[O-]
REMARK SMILES IDX 9 1 10 2 11 3 12 4 13 5 14 6 15 7 16 8 17 9 8 10 7 11 6 12
REMARK SMILES IDX 5 13 4 14 3 15 2 16 1 17
REMARK H PARENT
REMARK Flexibility Score: inf
ROOT
ATOM      1  C   UNL     1     185.427 175.476 185.172  1.00  0.00     0.000 C 
ENDROOT
BRANCH   1   2
ATOM      2  C   UNL     1     185.541 176.144 186.555  1.00  0.00     0.000 C 
BRANCH   2   3
ATOM      3  C   UNL     1     185.854 177.656 186.528  1.00  0.00     0.000 C 
BRANCH   3   4
ATOM      4  C   UNL     1     185.070 178.503 187.548  1.00  0.00     0.000 C 
BRANCH   4   5
ATOM      5  C   UNL     1     184.057 177.675 188.359  1.00  0.00     0.006 C 
BRANCH   5   6
ATOM      6  C   UNL     1     182.891 178.530 188.873  1.00  0.00     0.053 C 
BRANCH   6   7
ATOM      7  C   UNL     1     181.742 177.682 189.326  1.00  0.00     0.041 C 
ATOM      8  O   UNL     1     181.872 176.912 190.314  1.00  0.00    -0.550 OA
ATOM      9  O   UNL     1     180.542 177.708 188.625  1.00  0.00    -0.550 OA
ENDBRANCH   6   7
ENDBRANCH   5   6
ENDBRANCH   4   5
ENDBRANCH   3   4
ENDBRANCH   2   3
ENDBRANCH   1   2
BRANCH   1  10
ATOM     10  C   UNL     1     184.045 174.856 184.923  1.00  0.00     0.000 C 
BRANCH  10  11
ATOM     11  C   UNL     1     183.210 174.836 186.213  1.00  0.00    -0.000 C 
BRANCH  11  12
ATOM     12  C   UNL     1     181.897 175.629 186.084  1.00  0.00    -0.000 C 
BRANCH  12  13
ATOM     13  C   UNL     1     181.858 176.644 184.923  1.00  0.00    -0.000 C 
BRANCH  13  14
ATOM     14  C   UNL     1     181.893 178.122 185.348  1.00  0.00    -0.000 C 
BRANCH  14  15
ATOM     15  C   UNL     1     182.943 178.939 184.575  1.00  0.00    -0.000 C 
BRANCH  15  16
ATOM     16  C   UNL     1     183.494 178.181 183.357  1.00  0.00    -0.003 C 
ATOM     17  C   UNL     1     184.941 178.563 183.041  1.00  0.00     0.004 C 
ENDBRANCH  15  16
ENDBRANCH  14  15
ENDBRANCH  13  14
ENDBRANCH  12  13
ENDBRANCH  11  12
ENDBRANCH  10  11
ENDBRANCH   1  10
TORSDOF 13
ENDMDL
MODEL 7
REMARK VINA RESULT:     0.027      9.632     11.891
REMARK INTER + INTRA:          -2.786
REMARK INTER:                   0.000
REMARK INTRA:                  -2.786
REMARK UNBOUND:                -2.834
REMARK SMILES CCCCCCCCCCCCCCC(=O)[O-]
REMARK SMILES IDX 9 1 10 2 11 3 12 4 13 5 14 6 15 7 16 8 17 9 8 10 7 11 6 12
REMARK SMILES IDX 5 13 4 14 3 15 2 16 1 17
REMARK H PARENT
REMARK Flexibility Score: inf
ROOT
ATOM      1  C   UNL     1     181.570 180.476 175.168  1.00  0.00     0.000 C 
ENDROOT
BRANCH   1   2
ATOM      2  C   UNL     1     182.403 179.192 175.331  1.00  0.00     0.000 C 
BRANCH   2   3
ATOM      3  C   UNL     1     183.531 179.273 176.383  1.00  0.00     0.000 C 
BRANCH   3   4
ATOM      4  C   UNL     1     184.960 179.294 175.808  1.00  0.00     0.000 C 
BRANCH   4   5
ATOM      5  C   UNL     1     185.845 180.378 176.446  1.00  0.00     0.006 C 
BRANCH   5   6
ATOM      6  C   UNL     1     185.167 181.041 177.654  1.00  0.00     0.053 C 
BRANCH   6   7
ATOM      7  C   UNL     1     185.519 182.494 177.755  1.00  0.00     0.041 C 
ATOM      8  O   UNL     1     184.790 183.278 178.420  1.00  0.00    -0.550 OA
ATOM      9  O   UNL     1     186.625 182.989 177.076  1.00  0.00    -0.550 OA
ENDBRANCH   6   7
ENDBRANCH   5   6
ENDBRANCH   4   5
ENDBRANCH   3   4
ENDBRANCH   2   3
ENDBRANCH   1   2
BRANCH   1  10
ATOM     10  C   UNL     1     181.709 181.431 176.361  1.00  0.00     0.000 C 
BRANCH  10  11
ATOM     11  C   UNL     1     182.270 182.791 175.916  1.00  0.00    -0.000 C 
BRANCH  11  12
ATOM     12  C   UNL     1     182.757 182.785 174.456  1.00  0.00    -0.000 C 
BRANCH  12  13
ATOM     13  C   UNL     1     184.281 182.945 174.276  1.00  0.00    -0.000 C 
BRANCH  13  14
ATOM     14  C   UNL     1     184.913 182.018 173.223  1.00  0.00    -0.000 C 
BRANCH  14  15
ATOM     15  C   UNL     1     183.865 181.290 172.366  1.00  0.00    -0.000 C 
BRANCH  15  16
ATOM     16  C   UNL     1     184.209 179.807 172.152  1.00  0.00    -0.003 C 
ATOM     17  C   UNL     1     185.716 179.548 172.199  1.00  0.00     0.004 C 
ENDBRANCH  15  16
ENDBRANCH  14  15
ENDBRANCH  13  14
ENDBRANCH  12  13
ENDBRANCH  11  12
ENDBRANCH  10  11
ENDBRANCH   1  10
TORSDOF 13
ENDMDL
MODEL 8
REMARK VINA RESULT:     0.027      9.796     11.764
REMARK INTER + INTRA:          -2.786
REMARK INTER:                   0.000
REMARK INTRA:                  -2.786
REMARK UNBOUND:                -2.834
REMARK SMILES CCCCCCCCCCCCCCC(=O)[O-]
REMARK SMILES IDX 9 1 10 2 11 3 12 4 13 5 14 6 15 7 16 8 17 9 8 10 7 11 6 12
REMARK SMILES IDX 5 13 4 14 3 15 2 16 1 17
REMARK H PARENT
REMARK Flexibility Score: inf
ROOT
ATOM      1  C   UNL     1     183.609 189.249 175.727  1.00  0.00     0.000 C 
ENDROOT
BRANCH   1   2
ATOM      2  C   UNL     1     184.467 188.072 176.225  1.00  0.00     0.000 C 
BRANCH   2   3
ATOM      3  C   UNL     1     183.877 186.671 175.953  1.00  0.00     0.000 C 
BRANCH   3   4
ATOM      4  C   UNL     1     183.460 185.884 177.210  1.00  0.00     0.000 C 
BRANCH   4   5
ATOM      5  C   UNL     1     182.057 185.263 177.087  1.00  0.00     0.006 C 
BRANCH   5   6
ATOM      6  C   UNL     1     181.506 185.357 175.658  1.00  0.00     0.053 C 
BRANCH   6   7
ATOM      7  C   UNL     1     180.026 185.591 175.651  1.00  0.00     0.041 C 
ATOM      8  O   UNL     1     179.461 186.053 174.625  1.00  0.00    -0.550 OA
ATOM      9  O   UNL     1     179.279 185.343 176.797  1.00  0.00    -0.550 OA
ENDBRANCH   6   7
ENDBRANCH   5   6
ENDBRANCH   4   5
ENDBRANCH   3   4
ENDBRANCH   2   3
ENDBRANCH   1   2
BRANCH   1  10
ATOM     10  C   UNL     1     182.498 188.809 174.763  1.00  0.00     0.000 C 
BRANCH  10  11
ATOM     11  C   UNL     1     181.111 189.158 175.326  1.00  0.00    -0.000 C 
BRANCH  11  12
ATOM     12  C   UNL     1     181.158 189.580 176.806  1.00  0.00    -0.000 C 
BRANCH  12  13
ATOM     13  C   UNL     1     180.496 188.593 177.788  1.00  0.00    -0.000 C 
BRANCH  13  14
ATOM     14  C   UNL     1     181.298 188.315 179.072  1.00  0.00    -0.000 C 
BRANCH  14  15
ATOM     15  C   UNL     1     182.480 189.281 179.256  1.00  0.00    -0.000 C 
BRANCH  15  16
ATOM     16  C   UNL     1     183.719 188.586 179.842  1.00  0.00    -0.003 C 
ATOM     17  C   UNL     1     183.362 187.315 180.615  1.00  0.00     0.004 C 
ENDBRANCH  15  16
ENDBRANCH  14  15
ENDBRANCH  13  14
ENDBRANCH  12  13
ENDBRANCH  11  12
ENDBRANCH  10  11
ENDBRANCH   1  10
TORSDOF 13
ENDMDL
MODEL 9
REMARK VINA RESULT:     0.030      6.026      8.071
REMARK INTER + INTRA:          -2.781
REMARK INTER:                   0.000
REMARK INTRA:                  -2.781
REMARK UNBOUND:                -2.834
REMARK SMILES CCCCCCCCCCCCCCC(=O)[O-]
REMARK SMILES IDX 9 1 10 2 11 3 12 4 13 5 14 6 15 7 16 8 17 9 8 10 7 11 6 12
REMARK SMILES IDX 5 13 4 14 3 15 2 16 1 17
REMARK H PARENT
REMARK Flexibility Score: inf
ROOT
ATOM      1  C   UNL     1     181.139 180.117 180.718  1.00  0.00     0.000 C 
ENDROOT
BRANCH   1   2
ATOM      2  C   UNL     1     182.321 179.541 181.518  1.00  0.00     0.000 C 
BRANCH   2   3
ATOM      3  C   UNL     1     183.600 179.274 180.695  1.00  0.00     0.000 C 
BRANCH   3   4
ATOM      4  C   UNL     1     183.866 177.794 180.363  1.00  0.00     0.000 C 
BRANCH   4   5
ATOM      5  C   UNL     1     184.305 177.578 178.904  1.00  0.00     0.006 C 
BRANCH   5   6
ATOM      6  C   UNL     1     184.483 178.904 178.152  1.00  0.00     0.053 C 
BRANCH   6   7
ATOM      7  C   UNL     1     184.064 178.786 176.718  1.00  0.00     0.041 C 
ATOM      8  O   UNL     1     183.800 179.818 176.047  1.00  0.00    -0.550 OA
ATOM      9  O   UNL     1     183.920 177.530 176.139  1.00  0.00    -0.550 OA
ENDBRANCH   6   7
ENDBRANCH   5   6
ENDBRANCH   4   5
ENDBRANCH   3   4
ENDBRANCH   2   3
ENDBRANCH   1   2
BRANCH   1  10
ATOM     10  C   UNL     1     181.583 180.848 179.443  1.00  0.00     0.000 C 
BRANCH  10  11
ATOM     11  C   UNL     1     180.944 180.218 178.196  1.00  0.00    -0.000 C 
BRANCH  11  12
ATOM     12  C   UNL     1     180.156 178.934 178.515  1.00  0.00    -0.000 C 
BRANCH  12  13
ATOM     13  C   UNL     1     180.724 177.646 177.885  1.00  0.00    -0.000 C 
BRANCH  13  14
ATOM     14  C   UNL     1     180.762 176.425 178.821  1.00  0.00    -0.000 C 
BRANCH  14  15
ATOM     15  C   UNL     1     179.943 176.635 180.105  1.00  0.00    -0.000 C 
BRANCH  15  16
ATOM     16  C   UNL     1     180.693 176.166 181.362  1.00  0.00    -0.003 C 
ATOM     17  C   UNL     1     180.099 176.749 182.645  1.00  0.00     0.004 C 
ENDBRANCH  15  16
ENDBRANCH  14  15
ENDBRANCH  13  14
ENDBRANCH  12  13
ENDBRANCH  11  12
ENDBRANCH  10  11
ENDBRANCH   1  10
TORSDOF 13
ENDMDL
