MODEL 1
REMARK VINA RESULT:    -3.810      0.000      0.000
REMARK INTER + INTRA:          -4.459
REMARK INTER:                  -4.256
REMARK INTRA:                  -0.203
REMARK UNBOUND:                -0.203
REMARK SMILES O=C([O-])c1ccccc1C(=O)[O-]
REMARK SMILES IDX 4 1 9 2 5 3 8 4 6 5 7 6 2 7 1 8 3 9 10 10 11 11 12 12
REMARK H PARENT
REMARK Flexibility Score: inf
ROOT
ATOM      1  C   UNL     1      40.751  20.997  22.115  1.00  0.00     0.006 A 
ATOM      2  C   UNL     1      39.678  21.356  22.978  1.00  0.00     0.006 A 
ATOM      3  C   UNL     1      40.477  20.238  20.962  1.00  0.00     0.010 A 
ATOM      4  C   UNL     1      38.364  20.998  22.622  1.00  0.00     0.010 A 
ATOM      5  C   UNL     1      39.169  19.876  20.640  1.00  0.00     0.001 A 
ATOM      6  C   UNL     1      38.114  20.264  21.462  1.00  0.00     0.001 A 
ENDROOT
BRANCH   1   7
ATOM      7  C   UNL     1      42.146  21.445  22.333  1.00  0.00     0.072 C 
ATOM      8  O   UNL     1      42.637  22.381  21.649  1.00  0.00    -0.545 OA
ATOM      9  O   UNL     1      42.953  20.789  23.256  1.00  0.00    -0.545 OA
ENDBRANCH   1   7
BRANCH   2  10
ATOM     10  C   UNL     1      39.890  22.030  24.280  1.00  0.00     0.072 C 
ATOM     11  O   UNL     1      40.140  21.352  25.312  1.00  0.00    -0.545 OA
ATOM     12  O   UNL     1      39.880  23.417  24.371  1.00  0.00    -0.545 OA
ENDBRANCH   2  10
TORSDOF 2
ENDMDL
MODEL 2
REMARK VINA RESULT:    -3.782      0.094      3.144
REMARK INTER + INTRA:          -4.427
REMARK INTER:                  -4.246
REMARK INTRA:                  -0.181
REMARK UNBOUND:                -0.203
REMARK SMILES O=C([O-])c1ccccc1C(=O)[O-]
REMARK SMILES IDX 4 1 9 2 5 3 8 4 6 5 7 6 2 7 1 8 3 9 10 10 11 11 12 12
REMARK H PARENT
REMARK Flexibility Score: inf
ROOT
ATOM      1  C   UNL     1      39.757  21.348  23.020  1.00  0.00     0.006 A 
ATOM      2  C   UNL     1      40.802  20.994  22.121  1.00  0.00     0.006 A 
ATOM      3  C   UNL     1      38.434  20.990  22.704  1.00  0.00     0.010 A 
ATOM      4  C   UNL     1      40.492  20.240  20.974  1.00  0.00     0.010 A 
ATOM      5  C   UNL     1      38.147  20.261  21.550  1.00  0.00     0.001 A 
ATOM      6  C   UNL     1      39.174  19.877  20.693  1.00  0.00     0.001 A 
ENDROOT
BRANCH   1   7
ATOM      7  C   UNL     1      40.002  22.020  24.317  1.00  0.00     0.072 C 
ATOM      8  O   UNL     1      40.321  21.354  25.338  1.00  0.00    -0.545 OA
ATOM      9  O   UNL     1      39.819  23.392  24.438  1.00  0.00    -0.545 OA
ENDBRANCH   1   7
BRANCH   2  10
ATOM     10  C   UNL     1      42.200  21.449  22.301  1.00  0.00     0.072 C 
ATOM     11  O   UNL     1      42.643  22.418  21.630  1.00  0.00    -0.545 OA
ATOM     12  O   UNL     1      43.022  20.859  23.255  1.00  0.00    -0.545 OA
ENDBRANCH   2  10
TORSDOF 2
ENDMDL
MODEL 3
REMARK VINA RESULT:    -3.696      2.144      4.194
REMARK INTER + INTRA:          -4.331
REMARK INTER:                  -4.141
REMARK INTRA:                  -0.190
REMARK UNBOUND:                -0.203
REMARK SMILES O=C([O-])c1ccccc1C(=O)[O-]
REMARK SMILES IDX 4 1 9 2 5 3 8 4 6 5 7 6 2 7 1 8 3 9 10 10 11 11 12 12
REMARK H PARENT
REMARK Flexibility Score: inf
ROOT
ATOM      1  C   UNL     1      41.649  21.931  23.557  1.00  0.00     0.006 A 
ATOM      2  C   UNL     1      41.532  22.167  22.158  1.00  0.00     0.006 A 
ATOM      3  C   UNL     1      42.922  21.698  24.106  1.00  0.00     0.010 A 
ATOM      4  C   UNL     1      42.699  22.223  21.373  1.00  0.00     0.010 A 
ATOM      5  C   UNL     1      44.064  21.737  23.306  1.00  0.00     0.001 A 
ATOM      6  C   UNL     1      43.954  22.010  21.945  1.00  0.00     0.001 A 
ENDROOT
BRANCH   1   7
ATOM      7  C   UNL     1      40.494  21.989  24.483  1.00  0.00     0.072 C 
ATOM      8  O   UNL     1      39.985  20.935  24.946  1.00  0.00    -0.545 OA
ATOM      9  O   UNL     1      39.916  23.213  24.800  1.00  0.00    -0.545 OA
ENDBRANCH   1   7
BRANCH   2  10
ATOM     10  C   UNL     1      40.224  22.283  21.472  1.00  0.00     0.072 C 
ATOM     11  O   UNL     1      39.857  23.388  20.990  1.00  0.00    -0.545 OA
ATOM     12  O   UNL     1      39.414  21.168  21.294  1.00  0.00    -0.545 OA
ENDBRANCH   2  10
TORSDOF 2
ENDMDL
MODEL 4
REMARK VINA RESULT:    -3.677      2.108      3.445
REMARK INTER + INTRA:          -4.310
REMARK INTER:                  -4.117
REMARK INTRA:                  -0.193
REMARK UNBOUND:                -0.203
REMARK SMILES O=C([O-])c1ccccc1C(=O)[O-]
REMARK SMILES IDX 4 1 9 2 5 3 8 4 6 5 7 6 2 7 1 8 3 9 10 10 11 11 12 12
REMARK H PARENT
REMARK Flexibility Score: inf
ROOT
ATOM      1  C   UNL     1      41.585  22.109  22.178  1.00  0.00     0.006 A 
ATOM      2  C   UNL     1      41.660  21.874  23.579  1.00  0.00     0.006 A 
ATOM      3  C   UNL     1      42.776  22.229  21.440  1.00  0.00     0.010 A 
ATOM      4  C   UNL     1      42.923  21.703  24.177  1.00  0.00     0.010 A 
ATOM      5  C   UNL     1      44.018  22.079  22.058  1.00  0.00     0.001 A 
ATOM      6  C   UNL     1      44.091  21.805  23.421  1.00  0.00     0.001 A 
ENDROOT
BRANCH   1   7
ATOM      7  C   UNL     1      40.303  22.165  21.438  1.00  0.00     0.072 C 
ATOM      8  O   UNL     1      39.846  23.262  21.021  1.00  0.00    -0.545 OA
ATOM      9  O   UNL     1      39.553  21.009  21.254  1.00  0.00    -0.545 OA
ENDBRANCH   1   7
BRANCH   2  10
ATOM     10  C   UNL     1      40.467  21.872  24.456  1.00  0.00     0.072 C 
ATOM     11  O   UNL     1      40.036  20.791  24.939  1.00  0.00    -0.545 OA
ATOM     12  O   UNL     1      39.845  23.064  24.811  1.00  0.00    -0.545 OA
ENDBRANCH   2  10
TORSDOF 2
ENDMDL
MODEL 5
REMARK VINA RESULT:    -3.666      1.941      3.549
REMARK INTER + INTRA:          -4.298
REMARK INTER:                  -4.108
REMARK INTRA:                  -0.189
REMARK UNBOUND:                -0.203
REMARK SMILES O=C([O-])c1ccccc1C(=O)[O-]
REMARK SMILES IDX 4 1 9 2 5 3 8 4 6 5 7 6 2 7 1 8 3 9 10 10 11 11 12 12
REMARK H PARENT
REMARK Flexibility Score: inf
ROOT
ATOM      1  C   UNL     1      40.935  22.175  22.971  1.00  0.00     0.006 A 
ATOM      2  C   UNL     1      42.234  21.692  22.647  1.00  0.00     0.006 A 
ATOM      3  C   UNL     1      40.091  22.613  21.934  1.00  0.00     0.010 A 
ATOM      4  C   UNL     1      42.616  21.606  21.295  1.00  0.00     0.010 A 
ATOM      5  C   UNL     1      40.499  22.540  20.602  1.00  0.00     0.001 A 
ATOM      6  C   UNL     1      41.753  22.027  20.282  1.00  0.00     0.001 A 
ENDROOT
BRANCH   1   7
ATOM      7  C   UNL     1      40.395  22.173  24.350  1.00  0.00     0.072 C 
ATOM      8  O   UNL     1      40.339  23.237  25.022  1.00  0.00    -0.545 OA
ATOM      9  O   UNL     1      40.003  20.979  24.944  1.00  0.00    -0.545 OA
ENDBRANCH   1   7
BRANCH   2  10
ATOM     10  C   UNL     1      43.237  21.342  23.680  1.00  0.00     0.072 C 
ATOM     11  O   UNL     1      44.125  22.173  24.009  1.00  0.00    -0.545 OA
ATOM     12  O   UNL     1      43.176  20.122  24.345  1.00  0.00    -0.545 OA
ENDBRANCH   2  10
TORSDOF 2
ENDMDL
MODEL 6
REMARK VINA RESULT:    -3.659      1.926      2.261
REMARK INTER + INTRA:          -4.290
REMARK INTER:                  -4.106
REMARK INTRA:                  -0.184
REMARK UNBOUND:                -0.203
REMARK SMILES O=C([O-])c1ccccc1C(=O)[O-]
REMARK SMILES IDX 4 1 9 2 5 3 8 4 6 5 7 6 2 7 1 8 3 9 10 10 11 11 12 12
REMARK H PARENT
REMARK Flexibility Score: inf
ROOT
ATOM      1  C   UNL     1      42.148  21.737  22.598  1.00  0.00     0.006 A 
ATOM      2  C   UNL     1      40.864  22.231  22.962  1.00  0.00     0.006 A 
ATOM      3  C   UNL     1      42.494  21.672  21.236  1.00  0.00     0.010 A 
ATOM      4  C   UNL     1      40.001  22.702  21.955  1.00  0.00     0.010 A 
ATOM      5  C   UNL     1      41.614  22.124  20.253  1.00  0.00     0.001 A 
ATOM      6  C   UNL     1      40.375  22.648  20.612  1.00  0.00     0.001 A 
ENDROOT
BRANCH   1   7
ATOM      7  C   UNL     1      43.174  21.348  23.593  1.00  0.00     0.072 C 
ATOM      8  O   UNL     1      44.125  22.125  23.875  1.00  0.00    -0.545 OA
ATOM      9  O   UNL     1      43.136  20.089  24.180  1.00  0.00    -0.545 OA
ENDBRANCH   1   7
BRANCH   2  10
ATOM     10  C   UNL     1      40.363  22.205  24.356  1.00  0.00     0.072 C 
ATOM     11  O   UNL     1      40.204  23.280  24.993  1.00  0.00    -0.545 OA
ATOM     12  O   UNL     1      40.000  21.005  24.958  1.00  0.00    -0.545 OA
ENDBRANCH   2  10
TORSDOF 2
ENDMDL
MODEL 7
REMARK VINA RESULT:    -3.645      2.326      3.364
REMARK INTER + INTRA:          -4.275
REMARK INTER:                  -4.044
REMARK INTRA:                  -0.231
REMARK UNBOUND:                -0.203
REMARK SMILES O=C([O-])c1ccccc1C(=O)[O-]
REMARK SMILES IDX 4 1 9 2 5 3 8 4 6 5 7 6 2 7 1 8 3 9 10 10 11 11 12 12
REMARK H PARENT
REMARK Flexibility Score: inf
ROOT
ATOM      1  C   UNL     1      41.946  21.780  22.940  1.00  0.00     0.006 A 
ATOM      2  C   UNL     1      40.561  21.901  22.634  1.00  0.00     0.006 A 
ATOM      3  C   UNL     1      42.352  21.795  24.287  1.00  0.00     0.010 A 
ATOM      4  C   UNL     1      39.631  21.967  23.687  1.00  0.00     0.010 A 
ATOM      5  C   UNL     1      41.413  21.883  25.315  1.00  0.00     0.001 A 
ATOM      6  C   UNL     1      40.055  21.958  25.016  1.00  0.00     0.001 A 
ENDROOT
BRANCH   1   7
ATOM      7  C   UNL     1      42.985  21.566  21.906  1.00  0.00     0.072 C 
ATOM      8  O   UNL     1      43.673  22.529  21.475  1.00  0.00    -0.545 OA
ATOM      9  O   UNL     1      43.166  20.306  21.349  1.00  0.00    -0.545 OA
ENDBRANCH   1   7
BRANCH   2  10
ATOM     10  C   UNL     1      40.057  22.034  21.247  1.00  0.00     0.072 C 
ATOM     11  O   UNL     1      39.993  23.168  20.702  1.00  0.00    -0.545 OA
ATOM     12  O   UNL     1      39.712  20.910  20.506  1.00  0.00    -0.545 OA
ENDBRANCH   2  10
TORSDOF 2
ENDMDL
MODEL 8
REMARK VINA RESULT:    -3.622      2.321      4.119
REMARK INTER + INTRA:          -4.248
REMARK INTER:                  -4.027
REMARK INTRA:                  -0.221
REMARK UNBOUND:                -0.203
REMARK SMILES O=C([O-])c1ccccc1C(=O)[O-]
REMARK SMILES IDX 4 1 9 2 5 3 8 4 6 5 7 6 2 7 1 8 3 9 10 10 11 11 12 12
REMARK H PARENT
REMARK Flexibility Score: inf
ROOT
ATOM      1  C   UNL     1      40.596  21.864  22.601  1.00  0.00     0.006 A 
ATOM      2  C   UNL     1      41.987  21.776  22.888  1.00  0.00     0.006 A 
ATOM      3  C   UNL     1      39.679  21.904  23.667  1.00  0.00     0.010 A 
ATOM      4  C   UNL     1      42.411  21.795  24.230  1.00  0.00     0.010 A 
ATOM      5  C   UNL     1      40.121  21.900  24.990  1.00  0.00     0.001 A 
ATOM      6  C   UNL     1      41.484  21.857  25.271  1.00  0.00     0.001 A 
ENDROOT
BRANCH   1   7
ATOM      7  C   UNL     1      40.064  21.989  21.224  1.00  0.00     0.072 C 
ATOM      8  O   UNL     1      39.691  20.971  20.582  1.00  0.00    -0.545 OA
ATOM      9  O   UNL     1      40.032  23.229  20.598  1.00  0.00    -0.545 OA
ENDBRANCH   1   7
BRANCH   2  10
ATOM     10  C   UNL     1      43.011  21.589  21.834  1.00  0.00     0.072 C 
ATOM     11  O   UNL     1      43.759  22.547  21.501  1.00  0.00    -0.545 OA
ATOM     12  O   UNL     1      43.207  20.345  21.246  1.00  0.00    -0.545 OA
ENDBRANCH   2  10
TORSDOF 2
ENDMDL
MODEL 9
REMARK VINA RESULT:    -3.488      2.424      4.149
REMARK INTER + INTRA:          -4.099
REMARK INTER:                  -4.001
REMARK INTRA:                  -0.098
REMARK UNBOUND:                -0.203
REMARK SMILES O=C([O-])c1ccccc1C(=O)[O-]
REMARK SMILES IDX 4 1 9 2 5 3 8 4 6 5 7 6 2 7 1 8 3 9 10 10 11 11 12 12
REMARK H PARENT
REMARK Flexibility Score: inf
ROOT
ATOM      1  C   UNL     1      39.796  20.810  22.735  1.00  0.00     0.006 A 
ATOM      2  C   UNL     1      40.696  21.760  22.176  1.00  0.00     0.006 A 
ATOM      3  C   UNL     1      40.127  20.189  23.953  1.00  0.00     0.010 A 
ATOM      4  C   UNL     1      41.862  22.099  22.887  1.00  0.00     0.010 A 
ATOM      5  C   UNL     1      41.300  20.525  24.630  1.00  0.00     0.001 A 
ATOM      6  C   UNL     1      42.159  21.486  24.105  1.00  0.00     0.001 A 
ENDROOT
BRANCH   1   7
ATOM      7  C   UNL     1      38.482  20.491  22.130  1.00  0.00     0.072 C 
ATOM      8  O   UNL     1      38.409  19.878  21.032  1.00  0.00    -0.545 OA
ATOM      9  O   UNL     1      37.310  20.925  22.739  1.00  0.00    -0.545 OA
ENDBRANCH   1   7
BRANCH   2  10
ATOM     10  C   UNL     1      40.497  22.357  20.835  1.00  0.00     0.072 C 
ATOM     11  O   UNL     1      39.985  23.503  20.721  1.00  0.00    -0.545 OA
ATOM     12  O   UNL     1      40.929  21.696  19.691  1.00  0.00    -0.545 OA
ENDBRANCH   2  10
TORSDOF 2
ENDMDL
