MODEL 1
REMARK VINA RESULT:    -5.588      0.000      0.000
REMARK INTER + INTRA:         -11.524
REMARK INTER:                 -10.162
REMARK INTRA:                  -1.362
REMARK UNBOUND:                -1.362
REMARK SMILES CCCCCCCCCCCCCCCC(=O)[O-]
REMARK SMILES IDX 9 1 10 2 11 3 12 4 13 5 14 6 15 7 16 8 17 9 18 10 8 11 7 12
REMARK SMILES IDX 6 13 5 14 4 15 3 16 2 17 1 18
REMARK H PARENT
REMARK Flexibility Score: inf
ROOT
ATOM      1  C   UNL     1       3.845  10.656  19.014  1.00  0.00     0.000 C 
ENDROOT
BRANCH   1   2
ATOM      2  C   UNL     1       3.082  10.204  17.760  1.00  0.00     0.000 C 
BRANCH   2   3
ATOM      3  C   UNL     1       2.332   8.892  18.017  1.00  0.00     0.000 C 
BRANCH   3   4
ATOM      4  C   UNL     1       2.545   7.901  16.867  1.00  0.00     0.000 C 
BRANCH   4   5
ATOM      5  C   UNL     1       2.276   6.462  17.322  1.00  0.00     0.000 C 
BRANCH   5   6
ATOM      6  C   UNL     1       1.494   6.439  18.642  1.00  0.00     0.006 C 
BRANCH   6   7
ATOM      7  C   UNL     1       0.816   5.083  18.855  1.00  0.00     0.053 C 
BRANCH   7   8
ATOM      8  C   UNL     1       1.834   4.030  19.163  1.00  0.00     0.041 C 
ATOM      9  O   UNL     1       2.589   4.152  20.164  1.00  0.00    -0.550 OA
ATOM     10  O   UNL     1       1.919   2.891  18.373  1.00  0.00    -0.550 OA
ENDBRANCH   7   8
ENDBRANCH   6   7
ENDBRANCH   5   6
ENDBRANCH   4   5
ENDBRANCH   3   4
ENDBRANCH   2   3
ENDBRANCH   1   2
BRANCH   1  11
ATOM     11  C   UNL     1       5.160  11.378  18.677  1.00  0.00     0.000 C 
BRANCH  11  12
ATOM     12  C   UNL     1       5.610  11.141  17.225  1.00  0.00    -0.000 C 
BRANCH  12  13
ATOM     13  C   UNL     1       5.614  12.430  16.386  1.00  0.00    -0.000 C 
BRANCH  13  14
ATOM     14  C   UNL     1       4.197  12.887  15.997  1.00  0.00    -0.000 C 
BRANCH  14  15
ATOM     15  C   UNL     1       3.914  12.714  14.496  1.00  0.00    -0.000 C 
BRANCH  15  16
ATOM     16  C   UNL     1       3.114  11.437  14.189  1.00  0.00    -0.000 C 
BRANCH  16  17
ATOM     17  C   UNL     1       4.002  10.183  14.143  1.00  0.00    -0.003 C 
ATOM     18  C   UNL     1       3.367   9.036  13.357  1.00  0.00     0.004 C 
ENDBRANCH  16  17
ENDBRANCH  15  16
ENDBRANCH  14  15
ENDBRANCH  13  14
ENDBRANCH  12  13
ENDBRANCH  11  12
ENDBRANCH   1  11
TORSDOF 14
ENDMDL
MODEL 2
REMARK VINA RESULT:    -5.578      3.591      6.947
REMARK INTER + INTRA:         -11.505
REMARK INTER:                 -10.188
REMARK INTRA:                  -1.317
REMARK UNBOUND:                -1.362
REMARK SMILES CCCCCCCCCCCCCCCC(=O)[O-]
REMARK SMILES IDX 9 1 10 2 11 3 12 4 13 5 14 6 15 7 16 8 17 9 18 10 8 11 7 12
REMARK SMILES IDX 6 13 5 14 4 15 3 16 2 17 1 18
REMARK H PARENT
REMARK Flexibility Score: inf
ROOT
ATOM      1  C   UNL     1       3.398  11.175  18.570  1.00  0.00     0.000 C 
ENDROOT
BRANCH   1   2
ATOM      2  C   UNL     1       4.656  11.533  19.374  1.00  0.00     0.000 C 
BRANCH   2   3
ATOM      3  C   UNL     1       5.926  11.194  18.586  1.00  0.00     0.000 C 
BRANCH   3   4
ATOM      4  C   UNL     1       5.831  11.702  17.143  1.00  0.00     0.000 C 
BRANCH   4   5
ATOM      5  C   UNL     1       5.624  10.542  16.163  1.00  0.00     0.000 C 
BRANCH   5   6
ATOM      6  C   UNL     1       4.460  10.831  15.205  1.00  0.00     0.006 C 
BRANCH   6   7
ATOM      7  C   UNL     1       4.284  12.338  14.995  1.00  0.00     0.053 C 
BRANCH   7   8
ATOM      8  C   UNL     1       2.892  12.644  14.538  1.00  0.00     0.041 C 
ATOM      9  O   UNL     1       2.289  11.849  13.770  1.00  0.00    -0.550 OA
ATOM     10  O   UNL     1       2.245  13.784  14.996  1.00  0.00    -0.550 OA
ENDBRANCH   7   8
ENDBRANCH   6   7
ENDBRANCH   5   6
ENDBRANCH   4   5
ENDBRANCH   3   4
ENDBRANCH   2   3
ENDBRANCH   1   2
BRANCH   1  11
ATOM     11  C   UNL     1       3.026   9.688  18.687  1.00  0.00     0.000 C 
BRANCH  11  12
ATOM     12  C   UNL     1       2.102   9.218  17.549  1.00  0.00    -0.000 C 
BRANCH  12  13
ATOM     13  C   UNL     1       2.728   8.102  16.698  1.00  0.00    -0.000 C 
BRANCH  13  14
ATOM     14  C   UNL     1       2.320   6.696  17.175  1.00  0.00    -0.000 C 
BRANCH  14  15
ATOM     15  C   UNL     1       0.905   6.666  17.775  1.00  0.00    -0.000 C 
BRANCH  15  16
ATOM     16  C   UNL     1       0.858   5.953  19.138  1.00  0.00    -0.000 C 
BRANCH  16  17
ATOM     17  C   UNL     1       1.198   4.458  19.032  1.00  0.00    -0.003 C 
ATOM     18  C   UNL     1       2.459   4.080  19.809  1.00  0.00     0.004 C 
ENDBRANCH  16  17
ENDBRANCH  15  16
ENDBRANCH  14  15
ENDBRANCH  13  14
ENDBRANCH  12  13
ENDBRANCH  11  12
ENDBRANCH   1  11
TORSDOF 14
ENDMDL
MODEL 3
REMARK VINA RESULT:    -5.521      2.896      6.432
REMARK INTER + INTRA:         -11.401
REMARK INTER:                 -10.150
REMARK INTRA:                  -1.251
REMARK UNBOUND:                -1.362
REMARK SMILES CCCCCCCCCCCCCCCC(=O)[O-]
REMARK SMILES IDX 9 1 10 2 11 3 12 4 13 5 14 6 15 7 16 8 17 9 18 10 8 11 7 12
REMARK SMILES IDX 6 13 5 14 4 15 3 16 2 17 1 18
REMARK H PARENT
REMARK Flexibility Score: inf
ROOT
ATOM      1  C   UNL     1       4.524  11.159  19.205  1.00  0.00     0.000 C 
ENDROOT
BRANCH   1   2
ATOM      2  C   UNL     1       5.806  11.200  18.360  1.00  0.00     0.000 C 
BRANCH   2   3
ATOM      3  C   UNL     1       5.477  11.156  16.862  1.00  0.00     0.000 C 
BRANCH   3   4
ATOM      4  C   UNL     1       5.419  12.569  16.270  1.00  0.00     0.000 C 
BRANCH   4   5
ATOM      5  C   UNL     1       4.041  12.855  15.662  1.00  0.00     0.000 C 
BRANCH   5   6
ATOM      6  C   UNL     1       3.947  12.314  14.229  1.00  0.00     0.006 C 
BRANCH   6   7
ATOM      7  C   UNL     1       3.047  11.076  14.168  1.00  0.00     0.053 C 
BRANCH   7   8
ATOM      8  C   UNL     1       3.825   9.883  13.707  1.00  0.00     0.041 C 
ATOM      9  O   UNL     1       5.057   9.986  13.466  1.00  0.00    -0.550 OA
ATOM     10  O   UNL     1       3.201   8.649  13.588  1.00  0.00    -0.550 OA
ENDBRANCH   7   8
ENDBRANCH   6   7
ENDBRANCH   5   6
ENDBRANCH   4   5
ENDBRANCH   3   4
ENDBRANCH   2   3
ENDBRANCH   1   2
BRANCH   1  11
ATOM     11  C   UNL     1       3.266  10.912  18.358  1.00  0.00     0.000 C 
BRANCH  11  12
ATOM     12  C   UNL     1       2.748   9.467  18.475  1.00  0.00    -0.000 C 
BRANCH  12  13
ATOM     13  C   UNL     1       2.548   8.795  17.107  1.00  0.00    -0.000 C 
BRANCH  13  14
ATOM     14  C   UNL     1       2.189   7.302  17.229  1.00  0.00    -0.000 C 
BRANCH  14  15
ATOM     15  C   UNL     1       0.896   7.072  18.029  1.00  0.00    -0.000 C 
BRANCH  15  16
ATOM     16  C   UNL     1       0.875   5.705  18.734  1.00  0.00    -0.000 C 
BRANCH  16  17
ATOM     17  C   UNL     1       2.260   5.039  18.771  1.00  0.00    -0.003 C 
ATOM     18  C   UNL     1       2.387   3.997  19.882  1.00  0.00     0.004 C 
ENDBRANCH  16  17
ENDBRANCH  15  16
ENDBRANCH  14  15
ENDBRANCH  13  14
ENDBRANCH  12  13
ENDBRANCH  11  12
ENDBRANCH   1  11
TORSDOF 14
ENDMDL
MODEL 4
REMARK VINA RESULT:    -5.389      2.663      6.616
REMARK INTER + INTRA:         -11.163
REMARK INTER:                  -9.902
REMARK INTRA:                  -1.260
REMARK UNBOUND:                -1.362
REMARK SMILES CCCCCCCCCCCCCCCC(=O)[O-]
REMARK SMILES IDX 9 1 10 2 11 3 12 4 13 5 14 6 15 7 16 8 17 9 18 10 8 11 7 12
REMARK SMILES IDX 6 13 5 14 4 15 3 16 2 17 1 18
REMARK H PARENT
REMARK Flexibility Score: inf
ROOT
ATOM      1  C   UNL     1       3.867  10.003  14.283  1.00  0.00     0.000 C 
ENDROOT
BRANCH   1   2
ATOM      2  C   UNL     1       3.108  11.334  14.374  1.00  0.00     0.000 C 
BRANCH   2   3
ATOM      3  C   UNL     1       4.081  12.513  14.497  1.00  0.00     0.000 C 
BRANCH   3   4
ATOM      4  C   UNL     1       4.364  12.843  15.967  1.00  0.00     0.000 C 
BRANCH   4   5
ATOM      5  C   UNL     1       5.802  12.472  16.347  1.00  0.00     0.000 C 
BRANCH   5   6
ATOM      6  C   UNL     1       5.838  11.182  17.177  1.00  0.00     0.006 C 
BRANCH   6   7
ATOM      7  C   UNL     1       6.088  11.489  18.657  1.00  0.00     0.053 C 
BRANCH   7   8
ATOM      8  C   UNL     1       4.819  11.367  19.440  1.00  0.00     0.041 C 
ATOM      9  O   UNL     1       3.775  11.953  19.049  1.00  0.00    -0.550 OA
ATOM     10  O   UNL     1       4.776  10.568  20.576  1.00  0.00    -0.550 OA
ENDBRANCH   7   8
ENDBRANCH   6   7
ENDBRANCH   5   6
ENDBRANCH   4   5
ENDBRANCH   3   4
ENDBRANCH   2   3
ENDBRANCH   1   2
BRANCH   1  11
ATOM     11  C   UNL     1       3.460   9.014  15.386  1.00  0.00     0.000 C 
BRANCH  11  12
ATOM     12  C   UNL     1       2.799   9.709  16.590  1.00  0.00    -0.000 C 
BRANCH  12  13
ATOM     13  C   UNL     1       2.329   8.715  17.665  1.00  0.00    -0.000 C 
BRANCH  13  14
ATOM     14  C   UNL     1       2.183   7.282  17.123  1.00  0.00    -0.000 C 
BRANCH  14  15
ATOM     15  C   UNL     1       0.907   6.589  17.628  1.00  0.00    -0.000 C 
BRANCH  15  16
ATOM     16  C   UNL     1       1.033   6.112  19.086  1.00  0.00    -0.000 C 
BRANCH  16  17
ATOM     17  C   UNL     1       1.153   4.584  19.197  1.00  0.00    -0.003 C 
ATOM     18  C   UNL     1       2.538   4.130  19.656  1.00  0.00     0.004 C 
ENDBRANCH  16  17
ENDBRANCH  15  16
ENDBRANCH  14  15
ENDBRANCH  13  14
ENDBRANCH  12  13
ENDBRANCH  11  12
ENDBRANCH   1  11
TORSDOF 14
ENDMDL
MODEL 5
REMARK VINA RESULT:    -5.275      1.122      1.796
REMARK INTER + INTRA:         -10.954
REMARK INTER:                  -9.551
REMARK INTRA:                  -1.404
REMARK UNBOUND:                -1.362
REMARK SMILES CCCCCCCCCCCCCCCC(=O)[O-]
REMARK SMILES IDX 9 1 10 2 11 3 12 4 13 5 14 6 15 7 16 8 17 9 18 10 8 11 7 12
REMARK SMILES IDX 6 13 5 14 4 15 3 16 2 17 1 18
REMARK H PARENT
REMARK Flexibility Score: inf
ROOT
ATOM      1  C   UNL     1       3.445  11.123  18.671  1.00  0.00     0.000 C 
ENDROOT
BRANCH   1   2
ATOM      2  C   UNL     1       2.678   9.808  18.466  1.00  0.00     0.000 C 
BRANCH   2   3
ATOM      3  C   UNL     1       3.036   9.169  17.119  1.00  0.00     0.000 C 
BRANCH   3   4
ATOM      4  C   UNL     1       2.318   7.826  16.939  1.00  0.00     0.000 C 
BRANCH   4   5
ATOM      5  C   UNL     1       1.088   7.733  17.849  1.00  0.00     0.000 C 
BRANCH   5   6
ATOM      6  C   UNL     1       0.917   6.312  18.401  1.00  0.00     0.006 C 
BRANCH   6   7
ATOM      7  C   UNL     1       2.219   5.514  18.276  1.00  0.00     0.053 C 
BRANCH   7   8
ATOM      8  C   UNL     1       2.115   4.220  19.021  1.00  0.00     0.041 C 
ATOM      9  O   UNL     1       1.608   3.209  18.466  1.00  0.00    -0.550 OA
ATOM     10  O   UNL     1       2.618   4.118  20.311  1.00  0.00    -0.550 OA
ENDBRANCH   7   8
ENDBRANCH   6   7
ENDBRANCH   5   6
ENDBRANCH   4   5
ENDBRANCH   3   4
ENDBRANCH   2   3
ENDBRANCH   1   2
BRANCH   1  11
ATOM     11  C   UNL     1       4.649  10.963  19.613  1.00  0.00     0.000 C 
BRANCH  11  12
ATOM     12  C   UNL     1       5.959  11.477  18.991  1.00  0.00    -0.000 C 
BRANCH  12  13
ATOM     13  C   UNL     1       6.122  11.059  17.520  1.00  0.00    -0.000 C 
BRANCH  13  14
ATOM     14  C   UNL     1       6.011  12.252  16.552  1.00  0.00    -0.000 C 
BRANCH  14  15
ATOM     15  C   UNL     1       4.861  12.087  15.546  1.00  0.00    -0.000 C 
BRANCH  15  16
ATOM     16  C   UNL     1       3.785  13.177  15.696  1.00  0.00    -0.000 C 
BRANCH  16  17
ATOM     17  C   UNL     1       2.685  13.069  14.628  1.00  0.00    -0.003 C 
ATOM     18  C   UNL     1       2.651  11.702  13.946  1.00  0.00     0.004 C 
ENDBRANCH  16  17
ENDBRANCH  15  16
ENDBRANCH  14  15
ENDBRANCH  13  14
ENDBRANCH  12  13
ENDBRANCH  11  12
ENDBRANCH   1  11
TORSDOF 14
ENDMDL
MODEL 6
REMARK VINA RESULT:    -5.143      0.910      3.060
REMARK INTER + INTRA:         -10.715
REMARK INTER:                  -9.262
REMARK INTRA:                  -1.453
REMARK UNBOUND:                -1.362
REMARK SMILES CCCCCCCCCCCCCCCC(=O)[O-]
REMARK SMILES IDX 9 1 10 2 11 3 12 4 13 5 14 6 15 7 16 8 17 9 18 10 8 11 7 12
REMARK SMILES IDX 6 13 5 14 4 15 3 16 2 17 1 18
REMARK H PARENT
REMARK Flexibility Score: inf
ROOT
ATOM      1  C   UNL     1       4.085   9.898  15.198  1.00  0.00     0.000 C 
ENDROOT
BRANCH   1   2
ATOM      2  C   UNL     1       3.123   8.919  15.888  1.00  0.00     0.000 C 
BRANCH   2   3
ATOM      3  C   UNL     1       2.729   9.426  17.280  1.00  0.00     0.000 C 
BRANCH   3   4
ATOM      4  C   UNL     1       1.973   8.348  18.065  1.00  0.00     0.000 C 
BRANCH   4   5
ATOM      5  C   UNL     1       2.103   6.979  17.386  1.00  0.00     0.000 C 
BRANCH   5   6
ATOM      6  C   UNL     1       0.989   6.029  17.844  1.00  0.00     0.006 C 
BRANCH   6   7
ATOM      7  C   UNL     1       1.179   5.625  19.309  1.00  0.00     0.053 C 
BRANCH   7   8
ATOM      8  C   UNL     1       1.908   4.321  19.403  1.00  0.00     0.041 C 
ATOM      9  O   UNL     1       2.720   4.116  20.344  1.00  0.00    -0.550 OA
ATOM     10  O   UNL     1       1.656   3.316  18.479  1.00  0.00    -0.550 OA
ENDBRANCH   7   8
ENDBRANCH   6   7
ENDBRANCH   5   6
ENDBRANCH   4   5
ENDBRANCH   3   4
ENDBRANCH   2   3
ENDBRANCH   1   2
BRANCH   1  11
ATOM     11  C   UNL     1       3.471  10.546  13.947  1.00  0.00     0.000 C 
BRANCH  11  12
ATOM     12  C   UNL     1       2.954  11.971  14.212  1.00  0.00    -0.000 C 
BRANCH  12  13
ATOM     13  C   UNL     1       3.921  12.804  15.069  1.00  0.00    -0.000 C 
BRANCH  13  14
ATOM     14  C   UNL     1       3.293  13.255  16.400  1.00  0.00    -0.000 C 
BRANCH  14  15
ATOM     15  C   UNL     1       4.008  12.653  17.621  1.00  0.00    -0.000 C 
BRANCH  15  16
ATOM     16  C   UNL     1       5.370  12.036  17.262  1.00  0.00    -0.000 C 
BRANCH  16  17
ATOM     17  C   UNL     1       5.931  11.151  18.387  1.00  0.00    -0.003 C 
ATOM     18  C   UNL     1       5.055  11.155  19.639  1.00  0.00     0.004 C 
ENDBRANCH  16  17
ENDBRANCH  15  16
ENDBRANCH  14  15
ENDBRANCH  13  14
ENDBRANCH  12  13
ENDBRANCH  11  12
ENDBRANCH   1  11
TORSDOF 14
ENDMDL
MODEL 7
REMARK VINA RESULT:    -5.032      1.125      3.335
REMARK INTER + INTRA:         -10.513
REMARK INTER:                  -9.434
REMARK INTRA:                  -1.079
REMARK UNBOUND:                -1.362
REMARK SMILES CCCCCCCCCCCCCCCC(=O)[O-]
REMARK SMILES IDX 9 1 10 2 11 3 12 4 13 5 14 6 15 7 16 8 17 9 18 10 8 11 7 12
REMARK SMILES IDX 6 13 5 14 4 15 3 16 2 17 1 18
REMARK H PARENT
REMARK Flexibility Score: inf
ROOT
ATOM      1  C   UNL     1       3.498  10.790  14.194  1.00  0.00     0.000 C 
ENDROOT
BRANCH   1   2
ATOM      2  C   UNL     1       3.907  10.198  15.551  1.00  0.00     0.000 C 
BRANCH   2   3
ATOM      3  C   UNL     1       3.078   8.951  15.878  1.00  0.00     0.000 C 
BRANCH   3   4
ATOM      4  C   UNL     1       2.749   8.885  17.374  1.00  0.00     0.000 C 
BRANCH   4   5
ATOM      5  C   UNL     1       1.548   7.969  17.634  1.00  0.00     0.000 C 
BRANCH   5   6
ATOM      6  C   UNL     1       1.998   6.518  17.853  1.00  0.00     0.006 C 
BRANCH   6   7
ATOM      7  C   UNL     1       1.066   5.796  18.831  1.00  0.00     0.053 C 
BRANCH   7   8
ATOM      8  C   UNL     1       1.627   4.458  19.198  1.00  0.00     0.041 C 
ATOM      9  O   UNL     1       1.641   3.523  18.354  1.00  0.00    -0.550 OA
ATOM     10  O   UNL     1       2.177   4.257  20.457  1.00  0.00    -0.550 OA
ENDBRANCH   7   8
ENDBRANCH   6   7
ENDBRANCH   5   6
ENDBRANCH   4   5
ENDBRANCH   3   4
ENDBRANCH   2   3
ENDBRANCH   1   2
BRANCH   1  11
ATOM     11  C   UNL     1       3.254  12.306  14.260  1.00  0.00     0.000 C 
BRANCH  11  12
ATOM     12  C   UNL     1       3.888  12.954  15.503  1.00  0.00    -0.000 C 
BRANCH  12  13
ATOM     13  C   UNL     1       2.860  13.680  16.385  1.00  0.00    -0.000 C 
BRANCH  13  14
ATOM     14  C   UNL     1       3.096  13.441  17.888  1.00  0.00    -0.000 C 
BRANCH  14  15
ATOM     15  C   UNL     1       3.454  11.979  18.201  1.00  0.00    -0.000 C 
BRANCH  15  16
ATOM     16  C   UNL     1       4.555  11.857  19.269  1.00  0.00    -0.000 C 
BRANCH  16  17
ATOM     17  C   UNL     1       5.800  11.120  18.751  1.00  0.00    -0.003 C 
ATOM     18  C   UNL     1       6.407  11.779  17.513  1.00  0.00     0.004 C 
ENDBRANCH  16  17
ENDBRANCH  15  16
ENDBRANCH  14  15
ENDBRANCH  13  14
ENDBRANCH  12  13
ENDBRANCH  11  12
ENDBRANCH   1  11
TORSDOF 14
ENDMDL
MODEL 8
REMARK VINA RESULT:    -4.875      3.081      6.216
REMARK INTER + INTRA:         -10.227
REMARK INTER:                  -9.011
REMARK INTRA:                  -1.217
REMARK UNBOUND:                -1.362
REMARK SMILES CCCCCCCCCCCCCCCC(=O)[O-]
REMARK SMILES IDX 9 1 10 2 11 3 12 4 13 5 14 6 15 7 16 8 17 9 18 10 8 11 7 12
REMARK SMILES IDX 6 13 5 14 4 15 3 16 2 17 1 18
REMARK H PARENT
REMARK Flexibility Score: inf
ROOT
ATOM      1  C   UNL     1       2.802  11.490  14.243  1.00  0.00     0.000 C 
ENDROOT
BRANCH   1   2
ATOM      2  C   UNL     1       3.293  12.898  14.609  1.00  0.00     0.000 C 
BRANCH   2   3
ATOM      3  C   UNL     1       3.976  12.901  15.982  1.00  0.00     0.000 C 
BRANCH   3   4
ATOM      4  C   UNL     1       3.043  13.464  17.060  1.00  0.00     0.000 C 
BRANCH   4   5
ATOM      5  C   UNL     1       3.363  12.865  18.434  1.00  0.00     0.000 C 
BRANCH   5   6
ATOM      6  C   UNL     1       3.278  11.334  18.401  1.00  0.00     0.006 C 
BRANCH   6   7
ATOM      7  C   UNL     1       4.218  10.709  19.437  1.00  0.00     0.053 C 
BRANCH   7   8
ATOM      8  C   UNL     1       5.627  11.158  19.206  1.00  0.00     0.041 C 
ATOM      9  O   UNL     1       6.348  11.507  20.178  1.00  0.00    -0.550 OA
ATOM     10  O   UNL     1       6.158  11.148  17.923  1.00  0.00    -0.550 OA
ENDBRANCH   7   8
ENDBRANCH   6   7
ENDBRANCH   5   6
ENDBRANCH   4   5
ENDBRANCH   3   4
ENDBRANCH   2   3
ENDBRANCH   1   2
BRANCH   1  11
ATOM     11  C   UNL     1       3.958  10.511  13.980  1.00  0.00     0.000 C 
BRANCH  11  12
ATOM     12  C   UNL     1       3.715   9.127  14.606  1.00  0.00    -0.000 C 
BRANCH  12  13
ATOM     13  C   UNL     1       3.080   9.210  16.004  1.00  0.00    -0.000 C 
BRANCH  13  14
ATOM     14  C   UNL     1       2.808   7.822  16.613  1.00  0.00    -0.000 C 
BRANCH  14  15
ATOM     15  C   UNL     1       1.879   7.889  17.836  1.00  0.00    -0.000 C 
BRANCH  15  16
ATOM     16  C   UNL     1       0.876   6.723  17.881  1.00  0.00    -0.000 C 
BRANCH  16  17
ATOM     17  C   UNL     1       1.083   5.814  19.103  1.00  0.00    -0.003 C 
ATOM     18  C   UNL     1       2.137   4.733  18.867  1.00  0.00     0.004 C 
ENDBRANCH  16  17
ENDBRANCH  15  16
ENDBRANCH  14  15
ENDBRANCH  13  14
ENDBRANCH  12  13
ENDBRANCH  11  12
ENDBRANCH   1  11
TORSDOF 14
ENDMDL
MODEL 9
REMARK VINA RESULT:    -4.550      1.117      2.152
REMARK INTER + INTRA:          -9.637
REMARK INTER:                  -8.191
REMARK INTRA:                  -1.446
REMARK UNBOUND:                -1.362
REMARK SMILES CCCCCCCCCCCCCCCC(=O)[O-]
REMARK SMILES IDX 9 1 10 2 11 3 12 4 13 5 14 6 15 7 16 8 17 9 18 10 8 11 7 12
REMARK SMILES IDX 6 13 5 14 4 15 3 16 2 17 1 18
REMARK H PARENT
REMARK Flexibility Score: inf
ROOT
ATOM      1  C   UNL     1       5.718  11.060  17.572  1.00  0.00     0.000 C 
ENDROOT
BRANCH   1   2
ATOM      2  C   UNL     1       4.814  11.514  18.727  1.00  0.00     0.000 C 
BRANCH   2   3
ATOM      3  C   UNL     1       3.341  11.216  18.421  1.00  0.00     0.000 C 
BRANCH   3   4
ATOM      4  C   UNL     1       3.061   9.710  18.480  1.00  0.00     0.000 C 
BRANCH   4   5
ATOM      5  C   UNL     1       2.383   9.226  17.192  1.00  0.00     0.000 C 
BRANCH   5   6
ATOM      6  C   UNL     1       2.366   7.693  17.122  1.00  0.00     0.006 C 
BRANCH   6   7
ATOM      7  C   UNL     1       1.483   7.103  18.226  1.00  0.00     0.053 C 
BRANCH   7   8
ATOM      8  C   UNL     1       1.724   5.632  18.360  1.00  0.00     0.041 C 
ATOM      9  O   UNL     1       2.785   5.121  17.914  1.00  0.00    -0.550 OA
ATOM     10  O   UNL     1       0.798   4.833  19.019  1.00  0.00    -0.550 OA
ENDBRANCH   7   8
ENDBRANCH   6   7
ENDBRANCH   5   6
ENDBRANCH   4   5
ENDBRANCH   3   4
ENDBRANCH   2   3
ENDBRANCH   1   2
BRANCH   1  11
ATOM     11  C   UNL     1       6.145  12.224  16.663  1.00  0.00     0.000 C 
BRANCH  11  12
ATOM     12  C   UNL     1       4.952  13.076  16.194  1.00  0.00    -0.000 C 
BRANCH  12  13
ATOM     13  C   UNL     1       4.618  12.864  14.708  1.00  0.00    -0.000 C 
BRANCH  13  14
ATOM     14  C   UNL     1       3.109  12.687  14.461  1.00  0.00    -0.000 C 
BRANCH  14  15
ATOM     15  C   UNL     1       2.755  11.273  13.972  1.00  0.00    -0.000 C 
BRANCH  15  16
ATOM     16  C   UNL     1       3.833  10.237  14.333  1.00  0.00    -0.000 C 
BRANCH  16  17
ATOM     17  C   UNL     1       4.045   9.195  13.222  1.00  0.00    -0.003 C 
ATOM     18  C   UNL     1       3.208   7.933  13.425  1.00  0.00     0.004 C 
ENDBRANCH  16  17
ENDBRANCH  15  16
ENDBRANCH  14  15
ENDBRANCH  13  14
ENDBRANCH  12  13
ENDBRANCH  11  12
ENDBRANCH   1  11
TORSDOF 14
ENDMDL
