MODEL 1
REMARK VINA RESULT:     2.059      0.000      0.000
REMARK INTER + INTRA:           3.638
REMARK INTER:                   3.023
REMARK INTRA:                   0.615
REMARK UNBOUND:                 0.615
REMARK SMILES O=c1c(O[C@@H]2O[C@@H](CO)[C@@H](O)[C@@H](O)[C@@H]2O)c(-c2ccc(O)c(O)c2)oc2cc(O)cc(O)c12
REMARK SMILES IDX 4 1 3 2 16 3 25 4 2 5 26 6 1 7 33 8 27 9 31 10 28 11 30 12
REMARK SMILES IDX 17 13 18 14 19 15 20 16 24 17 22 18 21 19 23 21 32 23 29 25
REMARK SMILES IDX 5 27 14 28 6 29 12 30 7 31 10 32 15 33 13 35 8 37 9 38 11 40
REMARK H PARENT 21 20 23 22 32 24 29 26 15 34 13 36 9 39 11 41
REMARK Flexibility Score: inf
ROOT
ATOM      1  O   UNL     1      13.909 -11.203  30.111  1.00  0.00    -0.454 OA
ENDROOT
BRANCH   1   2
ATOM      2  C   UNL     1      14.390 -12.170  29.213  1.00  0.00     0.214 A 
ATOM      3  C   UNL     1      14.623 -11.821  27.869  1.00  0.00     0.180 A 
ATOM      4  O   UNL     1      15.028 -12.743  27.001  1.00  0.00    -0.452 OA
ATOM      5  C   UNL     1      14.674 -13.484  29.626  1.00  0.00     0.239 A 
ATOM      6  C   UNL     1      15.275 -14.004  27.341  1.00  0.00     0.146 A 
ATOM      7  O   UNL     1      14.563 -13.794  30.842  1.00  0.00    -0.285 OA
ATOM      8  C   UNL     1      15.111 -14.434  28.678  1.00  0.00     0.111 A 
ATOM      9  C   UNL     1      15.709 -14.900  26.360  1.00  0.00     0.094 A 
ATOM     10  C   UNL     1      15.392 -15.782  29.007  1.00  0.00     0.134 A 
ATOM     11  C   UNL     1      15.994 -16.230  26.693  1.00  0.00     0.123 A 
ATOM     12  C   UNL     1      15.829 -16.665  28.010  1.00  0.00     0.093 A 
BRANCH   3  13
ATOM     13  C   UNL     1      14.412 -10.446  27.378  1.00  0.00     0.025 A 
ATOM     14  C   UNL     1      13.168  -9.811  27.526  1.00  0.00     0.016 A 
ATOM     15  C   UNL     1      12.985  -8.505  27.057  1.00  0.00     0.051 A 
ATOM     16  C   UNL     1      14.041  -7.820  26.445  1.00  0.00     0.157 A 
ATOM     17  C   UNL     1      15.475  -9.748  26.786  1.00  0.00     0.062 A 
ATOM     18  C   UNL     1      15.294  -8.442  26.316  1.00  0.00     0.158 A 
BRANCH  16  19
ATOM     19  O   UNL     1      13.852  -6.523  25.967  1.00  0.00    -0.504 OA
ATOM     20  H   UNL     1      12.986  -6.019  26.123  1.00  0.00     0.293 HD
ENDBRANCH  16  19
BRANCH  18  21
ATOM     21  O   UNL     1      16.366  -7.782  25.716  1.00  0.00    -0.504 OA
ATOM     22  H   UNL     1      16.318  -6.807  25.447  1.00  0.00     0.293 HD
ENDBRANCH  18  21
ENDBRANCH   3  13
BRANCH  10  23
ATOM     23  O   UNL     1      15.229 -16.253  30.312  1.00  0.00    -0.507 OA
ATOM     24  H   UNL     1      14.320 -16.525  30.672  1.00  0.00     0.293 HD
ENDBRANCH  10  23
BRANCH  11  25
ATOM     25  O   UNL     1      16.441 -17.124  25.724  1.00  0.00    -0.508 OA
ATOM     26  H   UNL     1      15.984 -18.017  25.574  1.00  0.00     0.293 HD
ENDBRANCH  11  25
ENDBRANCH   1   2
BRANCH   1  27
ATOM     27  C   UNL     1      12.750 -11.384  30.933  1.00  0.00     0.339 C 
ATOM     28  C   UNL     1      12.130 -10.018  31.300  1.00  0.00     0.214 C 
ATOM     29  O   UNL     1      11.806 -12.241  30.306  1.00  0.00    -0.332 OA
ATOM     30  C   UNL     1      11.486  -9.366  30.065  1.00  0.00     0.180 C 
ATOM     31  C   UNL     1      11.298 -11.675  29.106  1.00  0.00     0.179 C 
ATOM     32  C   UNL     1      10.536 -10.357  29.384  1.00  0.00     0.177 C 
BRANCH  28  33
ATOM     33  O   UNL     1      13.118  -9.165  31.822  1.00  0.00    -0.384 OA
ATOM     34  H   UNL     1      12.653  -8.341  32.126  1.00  0.00     0.211 HD
ENDBRANCH  28  33
BRANCH  30  35
ATOM     35  O   UNL     1      10.771  -8.216  30.442  1.00  0.00    -0.387 OA
ATOM     36  H   UNL     1      10.649  -7.667  29.624  1.00  0.00     0.211 HD
ENDBRANCH  30  35
BRANCH  31  37
ATOM     37  C   UNL     1      10.418 -12.711  28.393  1.00  0.00     0.191 C 
BRANCH  37  38
ATOM     38  O   UNL     1      11.174 -13.457  27.478  1.00  0.00    -0.394 OA
ATOM     39  H   UNL     1      11.587 -12.799  26.860  1.00  0.00     0.210 HD
ENDBRANCH  37  38
ENDBRANCH  31  37
BRANCH  32  40
ATOM     40  O   UNL     1       9.426 -10.592  30.216  1.00  0.00    -0.387 OA
ATOM     41  H   UNL     1       9.279 -11.574  30.239  1.00  0.00     0.211 HD
ENDBRANCH  32  40
ENDBRANCH   1  27
TORSDOF 12
ENDMDL
