MODEL 1
REMARK VINA RESULT:    -4.403      0.000      0.000
REMARK INTER + INTRA:          -5.909
REMARK INTER:                  -5.432
REMARK INTRA:                  -0.477
REMARK UNBOUND:                -0.477
REMARK SMILES C=CC[C@@H](C)C(=O)CC
REMARK SMILES IDX 4 1 5 2 6 3 7 4 8 5 9 6 3 7 2 8 1 9
REMARK H PARENT
REMARK Flexibility Score: inf
ROOT
ATOM      1  C   UNL     1       5.540  13.790  -7.650  1.00  0.00     0.057 C 
ATOM      2  C   UNL     1       5.843  14.152  -9.112  1.00  0.00     0.016 C 
ENDROOT
BRANCH   1   3
ATOM      3  C   UNL     1       4.494  14.732  -7.094  1.00  0.00     0.135 C 
ATOM      4  O   UNL     1       4.494  15.001  -5.901  1.00  0.00    -0.299 OA
BRANCH   3   5
ATOM      5  C   UNL     1       3.455  15.358  -7.987  1.00  0.00     0.072 C 
ATOM      6  C   UNL     1       2.168  14.540  -7.972  1.00  0.00     0.012 C 
ENDBRANCH   3   5
ENDBRANCH   1   3
BRANCH   1   7
ATOM      7  C   UNL     1       5.061  12.329  -7.512  1.00  0.00     0.038 C 
BRANCH   7   8
ATOM      8  C   UNL     1       4.730  11.706  -8.842  1.00  0.00    -0.034 C 
ATOM      9  C   UNL     1       3.527  11.184  -9.096  1.00  0.00     0.004 C 
ENDBRANCH   7   8
ENDBRANCH   1   7
TORSDOF 4
ENDMDL
MODEL 2
REMARK VINA RESULT:    -4.330      1.325      1.933
REMARK INTER + INTRA:          -5.819
REMARK INTER:                  -5.498
REMARK INTRA:                  -0.322
REMARK UNBOUND:                -0.477
REMARK SMILES C=CC[C@@H](C)C(=O)CC
REMARK SMILES IDX 4 1 5 2 6 3 7 4 8 5 9 6 3 7 2 8 1 9
REMARK H PARENT
REMARK Flexibility Score: inf
ROOT
ATOM      1  C   UNL     1       4.512  14.870  -8.318  1.00  0.00     0.057 C 
ATOM      2  C   UNL     1       3.106  14.744  -8.924  1.00  0.00     0.016 C 
ENDROOT
BRANCH   1   3
ATOM      3  C   UNL     1       4.417  14.931  -6.809  1.00  0.00     0.135 C 
ATOM      4  O   UNL     1       5.299  14.431  -6.126  1.00  0.00    -0.299 OA
BRANCH   3   5
ATOM      5  C   UNL     1       3.257  15.609  -6.128  1.00  0.00     0.072 C 
ATOM      6  C   UNL     1       3.505  17.109  -6.008  1.00  0.00     0.012 C 
ENDBRANCH   3   5
ENDBRANCH   1   3
BRANCH   1   7
ATOM      7  C   UNL     1       5.422  13.698  -8.743  1.00  0.00     0.038 C 
BRANCH   7   8
ATOM      8  C   UNL     1       4.641  12.452  -9.065  1.00  0.00    -0.034 C 
ATOM      9  C   UNL     1       4.633  11.394  -8.250  1.00  0.00     0.004 C 
ENDBRANCH   7   8
ENDBRANCH   1   7
TORSDOF 4
ENDMDL
MODEL 3
REMARK VINA RESULT:    -4.206      1.351      3.189
REMARK INTER + INTRA:          -5.666
REMARK INTER:                  -5.338
REMARK INTRA:                  -0.329
REMARK UNBOUND:                -0.477
REMARK SMILES C=CC[C@@H](C)C(=O)CC
REMARK SMILES IDX 4 1 5 2 6 3 7 4 8 5 9 6 3 7 2 8 1 9
REMARK H PARENT
REMARK Flexibility Score: inf
ROOT
ATOM      1  C   UNL     1       3.689  15.757  -7.455  1.00  0.00     0.057 C 
ATOM      2  C   UNL     1       3.449  16.481  -6.122  1.00  0.00     0.016 C 
ENDROOT
BRANCH   1   3
ATOM      3  C   UNL     1       4.955  14.931  -7.370  1.00  0.00     0.135 C 
ATOM      4  O   UNL     1       5.470  14.723  -6.280  1.00  0.00    -0.299 OA
BRANCH   3   5
ATOM      5  C   UNL     1       5.590  14.348  -8.605  1.00  0.00     0.072 C 
ATOM      6  C   UNL     1       5.499  12.826  -8.592  1.00  0.00     0.012 C 
ENDBRANCH   3   5
ENDBRANCH   1   3
BRANCH   1   7
ATOM      7  C   UNL     1       2.496  14.856  -7.838  1.00  0.00     0.038 C 
BRANCH   7   8
ATOM      8  C   UNL     1       1.983  14.056  -6.670  1.00  0.00    -0.034 C 
ATOM      9  C   UNL     1       2.483  12.856  -6.363  1.00  0.00     0.004 C 
ENDBRANCH   7   8
ENDBRANCH   1   7
TORSDOF 4
ENDMDL
MODEL 4
REMARK VINA RESULT:    -4.135      1.020      3.047
REMARK INTER + INTRA:          -5.579
REMARK INTER:                  -5.156
REMARK INTRA:                  -0.424
REMARK UNBOUND:                -0.477
REMARK SMILES C=CC[C@@H](C)C(=O)CC
REMARK SMILES IDX 4 1 5 2 6 3 7 4 8 5 9 6 3 7 2 8 1 9
REMARK H PARENT
REMARK Flexibility Score: inf
ROOT
ATOM      1  C   UNL     1       4.728  14.121  -8.628  1.00  0.00     0.057 C 
ATOM      2  C   UNL     1       6.041  14.744  -9.125  1.00  0.00     0.016 C 
ENDROOT
BRANCH   1   3
ATOM      3  C   UNL     1       5.027  12.977  -7.685  1.00  0.00     0.135 C 
ATOM      4  O   UNL     1       5.364  13.213  -6.533  1.00  0.00    -0.299 OA
BRANCH   3   5
ATOM      5  C   UNL     1       4.905  11.544  -8.134  1.00  0.00     0.072 C 
ATOM      6  C   UNL     1       3.747  11.382  -9.113  1.00  0.00     0.012 C 
ENDBRANCH   3   5
ENDBRANCH   1   3
BRANCH   1   7
ATOM      7  C   UNL     1       3.832  15.164  -7.926  1.00  0.00     0.038 C 
BRANCH   7   8
ATOM      8  C   UNL     1       2.396  14.722  -7.841  1.00  0.00    -0.034 C 
ATOM      9  C   UNL     1       1.876  14.227  -6.714  1.00  0.00     0.004 C 
ENDBRANCH   7   8
ENDBRANCH   1   7
TORSDOF 4
ENDMDL
MODEL 5
REMARK VINA RESULT:    -4.118      1.653      3.921
REMARK INTER + INTRA:          -5.558
REMARK INTER:                  -5.255
REMARK INTRA:                  -0.303
REMARK UNBOUND:                -0.477
REMARK SMILES C=CC[C@@H](C)C(=O)CC
REMARK SMILES IDX 4 1 5 2 6 3 7 4 8 5 9 6 3 7 2 8 1 9
REMARK H PARENT
REMARK Flexibility Score: inf
ROOT
ATOM      1  C   UNL     1       3.025  13.817  -6.906  1.00  0.00     0.057 C 
ATOM      2  C   UNL     1       2.507  14.424  -8.219  1.00  0.00     0.016 C 
ENDROOT
BRANCH   1   3
ATOM      3  C   UNL     1       4.500  13.505  -7.032  1.00  0.00     0.135 C 
ATOM      4  O   UNL     1       5.248  13.718  -6.089  1.00  0.00    -0.299 OA
BRANCH   3   5
ATOM      5  C   UNL     1       5.068  12.922  -8.301  1.00  0.00     0.072 C 
ATOM      6  C   UNL     1       4.668  11.458  -8.448  1.00  0.00     0.012 C 
ENDBRANCH   3   5
ENDBRANCH   1   3
BRANCH   1   7
ATOM      7  C   UNL     1       2.786  14.761  -5.708  1.00  0.00     0.038 C 
BRANCH   7   8
ATOM      8  C   UNL     1       2.702  16.205  -6.124  1.00  0.00    -0.034 C 
ATOM      9  C   UNL     1       3.689  17.070  -5.873  1.00  0.00     0.004 C 
ENDBRANCH   7   8
ENDBRANCH   1   7
TORSDOF 4
ENDMDL
MODEL 6
REMARK VINA RESULT:    -4.069      1.975      3.786
REMARK INTER + INTRA:          -5.498
REMARK INTER:                  -5.027
REMARK INTRA:                  -0.470
REMARK UNBOUND:                -0.477
REMARK SMILES C=CC[C@@H](C)C(=O)CC
REMARK SMILES IDX 4 1 5 2 6 3 7 4 8 5 9 6 3 7 2 8 1 9
REMARK H PARENT
REMARK Flexibility Score: inf
ROOT
ATOM      1  C   UNL     1       3.183  14.389  -8.808  1.00  0.00     0.057 C 
ATOM      2  C   UNL     1       4.219  15.521  -8.884  1.00  0.00     0.016 C 
ENDROOT
BRANCH   1   3
ATOM      3  C   UNL     1       3.887  13.058  -8.659  1.00  0.00     0.135 C 
ATOM      4  O   UNL     1       3.271  12.021  -8.857  1.00  0.00    -0.299 OA
BRANCH   3   5
ATOM      5  C   UNL     1       5.344  12.985  -8.281  1.00  0.00     0.072 C 
ATOM      6  C   UNL     1       5.503  12.854  -6.770  1.00  0.00     0.012 C 
ENDBRANCH   3   5
ENDBRANCH   1   3
BRANCH   1   7
ATOM      7  C   UNL     1       2.196  14.598  -7.640  1.00  0.00     0.038 C 
BRANCH   7   8
ATOM      8  C   UNL     1       2.719  15.566  -6.613  1.00  0.00    -0.034 C 
ATOM      9  C   UNL     1       2.958  15.196  -5.352  1.00  0.00     0.004 C 
ENDBRANCH   7   8
ENDBRANCH   1   7
TORSDOF 4
ENDMDL
MODEL 7
REMARK VINA RESULT:    -3.763      1.215      2.485
REMARK INTER + INTRA:          -5.121
REMARK INTER:                  -4.704
REMARK INTRA:                  -0.417
REMARK UNBOUND:                -0.477
REMARK SMILES C=CC[C@@H](C)C(=O)CC
REMARK SMILES IDX 4 1 5 2 6 3 7 4 8 5 9 6 3 7 2 8 1 9
REMARK H PARENT
REMARK Flexibility Score: inf
ROOT
ATOM      1  C   UNL     1       2.915  14.143  -7.420  1.00  0.00     0.057 C 
ATOM      2  C   UNL     1       2.725  13.381  -6.100  1.00  0.00     0.016 C 
ENDROOT
BRANCH   1   3
ATOM      3  C   UNL     1       4.224  14.901  -7.391  1.00  0.00     0.135 C 
ATOM      4  O   UNL     1       4.847  14.995  -6.343  1.00  0.00    -0.299 OA
BRANCH   3   5
ATOM      5  C   UNL     1       4.785  15.537  -8.637  1.00  0.00     0.072 C 
ATOM      6  C   UNL     1       6.021  14.784  -9.118  1.00  0.00     0.012 C 
ENDBRANCH   3   5
ENDBRANCH   1   3
BRANCH   1   7
ATOM      7  C   UNL     1       2.882  13.194  -8.637  1.00  0.00     0.038 C 
BRANCH   7   8
ATOM      8  C   UNL     1       3.393  11.817  -8.305  1.00  0.00    -0.034 C 
ATOM      9  C   UNL     1       4.591  11.391  -8.714  1.00  0.00     0.004 C 
ENDBRANCH   7   8
ENDBRANCH   1   7
TORSDOF 4
ENDMDL
MODEL 8
REMARK VINA RESULT:    -3.754      1.557      1.757
REMARK INTER + INTRA:          -5.109
REMARK INTER:                  -4.825
REMARK INTRA:                  -0.285
REMARK UNBOUND:                -0.477
REMARK SMILES C=CC[C@@H](C)C(=O)CC
REMARK SMILES IDX 4 1 5 2 6 3 7 4 8 5 9 6 3 7 2 8 1 9
REMARK H PARENT
REMARK Flexibility Score: inf
ROOT
ATOM      1  C   UNL     1       4.590  13.390  -7.588  1.00  0.00     0.057 C 
ATOM      2  C   UNL     1       5.615  13.179  -6.463  1.00  0.00     0.016 C 
ENDROOT
BRANCH   1   3
ATOM      3  C   UNL     1       4.498  14.862  -7.928  1.00  0.00     0.135 C 
ATOM      4  O   UNL     1       4.914  15.262  -9.006  1.00  0.00    -0.299 OA
BRANCH   3   5
ATOM      5  C   UNL     1       3.889  15.848  -6.965  1.00  0.00     0.072 C 
ATOM      6  C   UNL     1       2.570  15.319  -6.413  1.00  0.00     0.012 C 
ENDBRANCH   3   5
ENDBRANCH   1   3
BRANCH   1   7
ATOM      7  C   UNL     1       4.953  12.578  -8.849  1.00  0.00     0.038 C 
BRANCH   7   8
ATOM      8  C   UNL     1       4.149  11.311  -8.967  1.00  0.00    -0.034 C 
ATOM      9  C   UNL     1       3.111  11.058  -8.166  1.00  0.00     0.004 C 
ENDBRANCH   7   8
ENDBRANCH   1   7
TORSDOF 4
ENDMDL
MODEL 9
REMARK VINA RESULT:    -3.732      1.854      3.439
REMARK INTER + INTRA:          -5.081
REMARK INTER:                  -4.790
REMARK INTRA:                  -0.292
REMARK UNBOUND:                -0.477
REMARK SMILES C=CC[C@@H](C)C(=O)CC
REMARK SMILES IDX 4 1 5 2 6 3 7 4 8 5 9 6 3 7 2 8 1 9
REMARK H PARENT
REMARK Flexibility Score: inf
ROOT
ATOM      1  C   UNL     1       4.505  14.841  -8.396  1.00  0.00     0.057 C 
ATOM      2  C   UNL     1       5.829  14.547  -9.116  1.00  0.00     0.016 C 
ENDROOT
BRANCH   1   3
ATOM      3  C   UNL     1       3.444  13.863  -8.851  1.00  0.00     0.135 C 
ATOM      4  O   UNL     1       2.294  14.247  -9.011  1.00  0.00    -0.299 OA
BRANCH   3   5
ATOM      5  C   UNL     1       3.780  12.420  -9.125  1.00  0.00     0.072 C 
ATOM      6  C   UNL     1       3.486  11.557  -7.903  1.00  0.00     0.012 C 
ENDBRANCH   3   5
ENDBRANCH   1   3
BRANCH   1   7
ATOM      7  C   UNL     1       4.663  14.772  -6.862  1.00  0.00     0.038 C 
BRANCH   7   8
ATOM      8  C   UNL     1       3.845  15.819  -6.153  1.00  0.00    -0.034 C 
ATOM      9  C   UNL     1       2.582  15.595  -5.781  1.00  0.00     0.004 C 
ENDBRANCH   7   8
ENDBRANCH   1   7
TORSDOF 4
ENDMDL
