MODEL 1
REMARK VINA RESULT:    -5.307      0.000      0.000
REMARK INTER + INTRA:          -5.462
REMARK INTER:                  -5.462
REMARK INTRA:                   0.000
REMARK UNBOUND:                 0.000
REMARK SMILES Nc1ncnc2nc[nH]c12
REMARK SMILES IDX 8 1 7 2 6 3 5 4 4 5 3 6 2 7 10 8 9 9 1 11
REMARK H PARENT 9 10 1 12 1 13
REMARK Flexibility Score: inf
ROOT
ATOM      1  C   UNL     1     -24.031 -15.244 -16.116  1.00  0.00     0.199 A 
ATOM      2  N   UNL     1     -22.965 -15.334 -15.273  1.00  0.00    -0.217 NA
ATOM      3  C   UNL     1     -23.338 -16.324 -14.446  1.00  0.00     0.182 A 
ATOM      4  N   UNL     1     -22.626 -16.819 -13.405  1.00  0.00    -0.215 NA
ATOM      5  C   UNL     1     -23.174 -17.835 -12.672  1.00  0.00     0.226 A 
ATOM      6  N   UNL     1     -24.412 -18.332 -12.990  1.00  0.00    -0.217 NA
ATOM      7  C   UNL     1     -25.132 -17.834 -14.039  1.00  0.00     0.152 A 
ATOM      8  C   UNL     1     -24.560 -16.801 -14.776  1.00  0.00     0.127 A 
ATOM      9  N   UNL     1     -25.022 -16.128 -15.837  1.00  0.00    -0.340 N 
ATOM     10  H   UNL     1     -25.929 -16.246 -16.340  1.00  0.00     0.168 HD
ENDROOT
BRANCH   7  11
ATOM     11  N   UNL     1     -26.419 -18.369 -14.351  1.00  0.00    -0.382 N 
ATOM     12  H   UNL     1     -27.295 -17.906 -14.023  1.00  0.00     0.158 HD
ATOM     13  H   UNL     1     -26.499 -19.241 -14.919  1.00  0.00     0.158 HD
ENDBRANCH   7  11
TORSDOF 1
ENDMDL
MODEL 2
REMARK VINA RESULT:    -5.286      1.674      3.011
REMARK INTER + INTRA:          -5.440
REMARK INTER:                  -5.440
REMARK INTRA:                   0.000
REMARK UNBOUND:                 0.000
REMARK SMILES Nc1ncnc2nc[nH]c12
REMARK SMILES IDX 8 1 7 2 6 3 5 4 4 5 3 6 2 7 10 8 9 9 1 11
REMARK H PARENT 9 10 1 12 1 13
REMARK Flexibility Score: inf
ROOT
ATOM      1  C   UNL     1     -21.232 -14.081 -14.156  1.00  0.00     0.199 A 
ATOM      2  N   UNL     1     -22.040 -13.875 -15.234  1.00  0.00    -0.217 NA
ATOM      3  C   UNL     1     -22.971 -14.830 -15.077  1.00  0.00     0.182 A 
ATOM      4  N   UNL     1     -24.027 -15.070 -15.891  1.00  0.00    -0.215 NA
ATOM      5  C   UNL     1     -24.874 -16.094 -15.567  1.00  0.00     0.226 A 
ATOM      6  N   UNL     1     -24.651 -16.852 -14.446  1.00  0.00    -0.217 NA
ATOM      7  C   UNL     1     -23.586 -16.613 -13.624  1.00  0.00     0.152 A 
ATOM      8  C   UNL     1     -22.733 -15.567 -13.967  1.00  0.00     0.127 A 
ATOM      9  N   UNL     1     -21.630 -15.108 -13.364  1.00  0.00    -0.340 N 
ATOM     10  H   UNL     1     -21.174 -15.451 -12.490  1.00  0.00     0.168 HD
ENDROOT
BRANCH   7  11
ATOM     11  N   UNL     1     -23.374 -17.416 -12.462  1.00  0.00    -0.382 N 
ATOM     12  H   UNL     1     -23.963 -18.255 -12.266  1.00  0.00     0.158 HD
ATOM     13  H   UNL     1     -22.618 -17.168 -11.787  1.00  0.00     0.158 HD
ENDBRANCH   7  11
TORSDOF 1
ENDMDL
MODEL 3
REMARK VINA RESULT:    -5.282      1.148      3.948
REMARK INTER + INTRA:          -5.436
REMARK INTER:                  -5.436
REMARK INTRA:                   0.000
REMARK UNBOUND:                 0.000
REMARK SMILES Nc1ncnc2nc[nH]c12
REMARK SMILES IDX 8 1 7 2 6 3 5 4 4 5 3 6 2 7 10 8 9 9 1 11
REMARK H PARENT 9 10 1 12 1 13
REMARK Flexibility Score: inf
ROOT
ATOM      1  C   UNL     1     -24.036 -17.875 -13.125  1.00  0.00     0.199 A 
ATOM      2  N   UNL     1     -24.786 -17.724 -14.251  1.00  0.00    -0.217 NA
ATOM      3  C   UNL     1     -24.267 -16.610 -14.792  1.00  0.00     0.182 A 
ATOM      4  N   UNL     1     -24.660 -16.011 -15.942  1.00  0.00    -0.215 NA
ATOM      5  C   UNL     1     -24.007 -14.876 -16.336  1.00  0.00     0.226 A 
ATOM      6  N   UNL     1     -22.984 -14.365 -15.579  1.00  0.00    -0.217 NA
ATOM      7  C   UNL     1     -22.587 -14.965 -14.418  1.00  0.00     0.152 A 
ATOM      8  C   UNL     1     -23.261 -16.121 -14.031  1.00  0.00     0.127 A 
ATOM      9  N   UNL     1     -23.095 -16.910 -12.963  1.00  0.00    -0.340 N 
ATOM     10  H   UNL     1     -22.407 -16.816 -12.183  1.00  0.00     0.168 HD
ENDROOT
BRANCH   7  11
ATOM     11  N   UNL     1     -21.519 -14.414 -13.646  1.00  0.00    -0.382 N 
ATOM     12  H   UNL     1     -20.652 -14.961 -13.449  1.00  0.00     0.158 HD
ATOM     13  H   UNL     1     -21.595 -13.445 -13.266  1.00  0.00     0.158 HD
ENDBRANCH   7  11
TORSDOF 1
ENDMDL
MODEL 4
REMARK VINA RESULT:    -5.161      1.059      3.064
REMARK INTER + INTRA:          -5.312
REMARK INTER:                  -5.312
REMARK INTRA:                   0.000
REMARK UNBOUND:                 0.000
REMARK SMILES Nc1ncnc2nc[nH]c12
REMARK SMILES IDX 8 1 7 2 6 3 5 4 4 5 3 6 2 7 10 8 9 9 1 11
REMARK H PARENT 9 10 1 12 1 13
REMARK Flexibility Score: inf
ROOT
ATOM      1  C   UNL     1     -25.500 -17.928 -14.479  1.00  0.00     0.199 A 
ATOM      2  N   UNL     1     -24.387 -18.057 -13.706  1.00  0.00    -0.217 NA
ATOM      3  C   UNL     1     -23.617 -17.048 -14.145  1.00  0.00     0.182 A 
ATOM      4  N   UNL     1     -22.379 -16.724 -13.701  1.00  0.00    -0.215 NA
ATOM      5  C   UNL     1     -21.746 -15.654 -14.273  1.00  0.00     0.226 A 
ATOM      6  N   UNL     1     -22.358 -14.937 -15.269  1.00  0.00    -0.217 NA
ATOM      7  C   UNL     1     -23.606 -15.262 -15.719  1.00  0.00     0.152 A 
ATOM      8  C   UNL     1     -24.237 -16.352 -15.126  1.00  0.00     0.127 A 
ATOM      9  N   UNL     1     -25.439 -16.895 -15.357  1.00  0.00    -0.340 N 
ATOM     10  H   UNL     1     -26.166 -16.602 -16.046  1.00  0.00     0.168 HD
ENDROOT
BRANCH   7  11
ATOM     11  N   UNL     1     -24.222 -14.500 -16.757  1.00  0.00    -0.382 N 
ATOM     12  H   UNL     1     -25.204 -14.685 -17.059  1.00  0.00     0.158 HD
ATOM     13  H   UNL     1     -23.690 -13.738 -17.233  1.00  0.00     0.158 HD
ENDBRANCH   7  11
TORSDOF 1
ENDMDL
MODEL 5
REMARK VINA RESULT:    -5.036      1.288      2.542
REMARK INTER + INTRA:          -5.183
REMARK INTER:                  -5.183
REMARK INTRA:                   0.000
REMARK UNBOUND:                 0.000
REMARK SMILES Nc1ncnc2nc[nH]c12
REMARK SMILES IDX 8 1 7 2 6 3 5 4 4 5 3 6 2 7 10 8 9 9 1 11
REMARK H PARENT 9 10 1 12 1 13
REMARK Flexibility Score: inf
ROOT
ATOM      1  C   UNL     1     -23.225 -14.378 -16.017  1.00  0.00     0.199 A 
ATOM      2  N   UNL     1     -24.566 -14.613 -16.000  1.00  0.00    -0.217 NA
ATOM      3  C   UNL     1     -24.635 -15.823 -15.419  1.00  0.00     0.182 A 
ATOM      4  N   UNL     1     -25.761 -16.531 -15.159  1.00  0.00    -0.215 NA
ATOM      5  C   UNL     1     -25.631 -17.752 -14.558  1.00  0.00     0.226 A 
ATOM      6  N   UNL     1     -24.391 -18.239 -14.232  1.00  0.00    -0.217 NA
ATOM      7  C   UNL     1     -23.254 -17.527 -14.495  1.00  0.00     0.152 A 
ATOM      8  C   UNL     1     -23.403 -16.285 -15.106  1.00  0.00     0.127 A 
ATOM      9  N   UNL     1     -22.488 -15.381 -15.478  1.00  0.00    -0.340 N 
ATOM     10  H   UNL     1     -21.450 -15.427 -15.381  1.00  0.00     0.168 HD
ENDROOT
BRANCH   7  11
ATOM     11  N   UNL     1     -21.974 -18.054 -14.146  1.00  0.00    -0.382 N 
ATOM     12  H   UNL     1     -21.097 -17.515 -14.321  1.00  0.00     0.158 HD
ATOM     13  H   UNL     1     -21.899 -18.998 -13.707  1.00  0.00     0.158 HD
ENDBRANCH   7  11
TORSDOF 1
ENDMDL
MODEL 6
REMARK VINA RESULT:    -4.960      1.503      2.933
REMARK INTER + INTRA:          -5.105
REMARK INTER:                  -5.105
REMARK INTRA:                   0.000
REMARK UNBOUND:                 0.000
REMARK SMILES Nc1ncnc2nc[nH]c12
REMARK SMILES IDX 8 1 7 2 6 3 5 4 4 5 3 6 2 7 10 8 9 9 1 11
REMARK H PARENT 9 10 1 12 1 13
REMARK Flexibility Score: inf
ROOT
ATOM      1  C   UNL     1     -25.122 -14.710 -15.125  1.00  0.00     0.199 A 
ATOM      2  N   UNL     1     -25.380 -16.037 -15.288  1.00  0.00    -0.217 NA
ATOM      3  C   UNL     1     -24.248 -16.604 -14.840  1.00  0.00     0.182 A 
ATOM      4  N   UNL     1     -23.976 -17.930 -14.783  1.00  0.00    -0.215 NA
ATOM      5  C   UNL     1     -22.760 -18.320 -14.294  1.00  0.00     0.226 A 
ATOM      6  N   UNL     1     -21.847 -17.387 -13.876  1.00  0.00    -0.217 NA
ATOM      7  C   UNL     1     -22.118 -16.048 -13.933  1.00  0.00     0.152 A 
ATOM      8  C   UNL     1     -23.361 -15.667 -14.433  1.00  0.00     0.127 A 
ATOM      9  N   UNL     1     -23.895 -14.452 -14.605  1.00  0.00    -0.340 N 
ATOM     10  H   UNL     1     -23.477 -13.520 -14.393  1.00  0.00     0.168 HD
ENDROOT
BRANCH   7  11
ATOM     11  N   UNL     1     -21.152 -15.095 -13.492  1.00  0.00    -0.382 N 
ATOM     12  H   UNL     1     -21.112 -14.781 -12.497  1.00  0.00     0.158 HD
ATOM     13  H   UNL     1     -20.465 -14.694 -14.169  1.00  0.00     0.158 HD
ENDBRANCH   7  11
TORSDOF 1
ENDMDL
MODEL 7
REMARK VINA RESULT:    -4.813      1.802      2.941
REMARK INTER + INTRA:          -4.954
REMARK INTER:                  -4.954
REMARK INTRA:                   0.000
REMARK UNBOUND:                 0.000
REMARK SMILES Nc1ncnc2nc[nH]c12
REMARK SMILES IDX 8 1 7 2 6 3 5 4 4 5 3 6 2 7 10 8 9 9 1 11
REMARK H PARENT 9 10 1 12 1 13
REMARK Flexibility Score: inf
ROOT
ATOM      1  C   UNL     1     -25.525 -15.889 -15.253  1.00  0.00     0.199 A 
ATOM      2  N   UNL     1     -25.028 -14.629 -15.108  1.00  0.00    -0.217 NA
ATOM      3  C   UNL     1     -23.763 -14.865 -14.720  1.00  0.00     0.182 A 
ATOM      4  N   UNL     1     -22.819 -13.937 -14.435  1.00  0.00    -0.215 NA
ATOM      5  C   UNL     1     -21.579 -14.371 -14.055  1.00  0.00     0.226 A 
ATOM      6  N   UNL     1     -21.310 -15.713 -13.967  1.00  0.00    -0.217 NA
ATOM      7  C   UNL     1     -22.262 -16.652 -14.252  1.00  0.00     0.152 A 
ATOM      8  C   UNL     1     -23.518 -16.194 -14.639  1.00  0.00     0.127 A 
ATOM      9  N   UNL     1     -24.626 -16.866 -14.973  1.00  0.00    -0.340 N 
ATOM     10  H   UNL     1     -24.775 -17.898 -15.014  1.00  0.00     0.168 HD
ENDROOT
BRANCH   7  11
ATOM     11  N   UNL     1     -21.958 -18.043 -14.153  1.00  0.00    -0.382 N 
ATOM     12  H   UNL     1     -22.710 -18.758 -14.041  1.00  0.00     0.158 HD
ATOM     13  H   UNL     1     -20.965 -18.366 -14.191  1.00  0.00     0.158 HD
ENDBRANCH   7  11
TORSDOF 1
ENDMDL
MODEL 8
REMARK VINA RESULT:    -4.748      1.473      2.848
REMARK INTER + INTRA:          -4.887
REMARK INTER:                  -4.887
REMARK INTRA:                   0.000
REMARK UNBOUND:                 0.000
REMARK SMILES Nc1ncnc2nc[nH]c12
REMARK SMILES IDX 8 1 7 2 6 3 5 4 4 5 3 6 2 7 10 8 9 9 1 11
REMARK H PARENT 9 10 1 12 1 13
REMARK Flexibility Score: inf
ROOT
ATOM      1  C   UNL     1     -22.136 -17.877 -14.075  1.00  0.00     0.199 A 
ATOM      2  N   UNL     1     -21.642 -16.610 -14.011  1.00  0.00    -0.217 NA
ATOM      3  C   UNL     1     -22.703 -15.872 -14.380  1.00  0.00     0.182 A 
ATOM      4  N   UNL     1     -22.751 -14.523 -14.486  1.00  0.00    -0.215 NA
ATOM      5  C   UNL     1     -23.928 -13.947 -14.878  1.00  0.00     0.226 A 
ATOM      6  N   UNL     1     -25.023 -14.724 -15.156  1.00  0.00    -0.217 NA
ATOM      7  C   UNL     1     -24.977 -16.085 -15.051  1.00  0.00     0.152 A 
ATOM      8  C   UNL     1     -23.772 -16.657 -14.650  1.00  0.00     0.127 A 
ATOM      9  N   UNL     1     -23.435 -17.938 -14.463  1.00  0.00    -0.340 N 
ATOM     10  H   UNL     1     -24.024 -18.792 -14.583  1.00  0.00     0.168 HD
ENDROOT
BRANCH   7  11
ATOM     11  N   UNL     1     -26.131 -16.873 -15.346  1.00  0.00    -0.382 N 
ATOM     12  H   UNL     1     -26.147 -17.902 -15.166  1.00  0.00     0.158 HD
ATOM     13  H   UNL     1     -26.982 -16.424 -15.750  1.00  0.00     0.158 HD
ENDBRANCH   7  11
TORSDOF 1
ENDMDL
MODEL 9
REMARK VINA RESULT:    -4.465      1.326      3.035
REMARK INTER + INTRA:          -4.596
REMARK INTER:                  -4.596
REMARK INTRA:                   0.000
REMARK UNBOUND:                 0.000
REMARK SMILES Nc1ncnc2nc[nH]c12
REMARK SMILES IDX 8 1 7 2 6 3 5 4 4 5 3 6 2 7 10 8 9 9 1 11
REMARK H PARENT 9 10 1 12 1 13
REMARK Flexibility Score: inf
ROOT
ATOM      1  C   UNL     1     -21.375 -15.675 -13.762  1.00  0.00     0.199 A 
ATOM      2  N   UNL     1     -21.890 -16.927 -13.615  1.00  0.00    -0.217 NA
ATOM      3  C   UNL     1     -23.110 -16.799 -14.165  1.00  0.00     0.182 A 
ATOM      4  N   UNL     1     -24.050 -17.767 -14.278  1.00  0.00    -0.215 NA
ATOM      5  C   UNL     1     -25.240 -17.446 -14.871  1.00  0.00     0.226 A 
ATOM      6  N   UNL     1     -25.465 -16.175 -15.335  1.00  0.00    -0.217 NA
ATOM      7  C   UNL     1     -24.518 -15.196 -15.221  1.00  0.00     0.152 A 
ATOM      8  C   UNL     1     -23.312 -15.539 -14.615  1.00  0.00     0.127 A 
ATOM      9  N   UNL     1     -22.221 -14.804 -14.370  1.00  0.00    -0.340 N 
ATOM     10  H   UNL     1     -22.048 -13.798 -14.589  1.00  0.00     0.168 HD
ENDROOT
BRANCH   7  11
ATOM     11  N   UNL     1     -24.775 -13.881 -15.711  1.00  0.00    -0.382 N 
ATOM     12  H   UNL     1     -24.012 -13.288 -16.106  1.00  0.00     0.158 HD
ATOM     13  H   UNL     1     -25.743 -13.490 -15.679  1.00  0.00     0.158 HD
ENDBRANCH   7  11
TORSDOF 1
ENDMDL
