MODEL 1
REMARK VINA RESULT:    -4.702      0.000      0.000
REMARK INTER + INTRA:          -5.456
REMARK INTER:                  -5.389
REMARK INTRA:                  -0.067
REMARK UNBOUND:                -0.067
REMARK SMILES O=C1C[C@H](c2ccc(O)cc2)Oc2cc(O)cc(O)c21
REMARK SMILES IDX 3 1 4 2 12 3 13 4 14 5 15 6 17 7 18 8 20 9 2 10 1 11 5 12
REMARK SMILES IDX 6 13 11 14 7 15 10 16 8 17 9 18 19 20 16 22
REMARK H PARENT 9 19 19 21 16 23
REMARK Flexibility Score: inf
ROOT
ATOM      1  C   UNL     1       8.008   0.916   4.459  1.00  0.00     0.131 C 
ATOM      2  C   UNL     1       8.722   1.007   5.820  1.00  0.00     0.211 C 
ATOM      3  O   UNL     1       9.092   2.357   6.130  1.00  0.00    -0.484 OA
ATOM      4  C   UNL     1       8.381   3.487   5.692  1.00  0.00     0.138 A 
ATOM      5  C   UNL     1       8.740   4.743   6.185  1.00  0.00     0.093 A 
ATOM      6  C   UNL     1       8.039   5.883   5.791  1.00  0.00     0.123 A 
ATOM      7  C   UNL     1       6.986   5.770   4.876  1.00  0.00     0.093 A 
ATOM      8  C   UNL     1       6.631   4.524   4.343  1.00  0.00     0.133 A 
ATOM      9  C   UNL     1       7.315   3.359   4.777  1.00  0.00     0.102 A 
ATOM     10  C   UNL     1       6.968   1.988   4.343  1.00  0.00     0.174 C 
ATOM     11  O   UNL     1       5.814   1.692   3.938  1.00  0.00    -0.294 OA
ENDROOT
BRANCH   2  12
ATOM     12  C   UNL     1       7.883   0.397   6.927  1.00  0.00    -0.007 A 
ATOM     13  C   UNL     1       6.940   1.196   7.598  1.00  0.00     0.011 A 
ATOM     14  C   UNL     1       8.067  -0.934   7.346  1.00  0.00     0.011 A 
ATOM     15  C   UNL     1       6.179   0.669   8.645  1.00  0.00     0.046 A 
ATOM     16  C   UNL     1       7.304  -1.459   8.395  1.00  0.00     0.046 A 
ATOM     17  C   UNL     1       6.358  -0.662   9.045  1.00  0.00     0.115 A 
BRANCH  17  18
ATOM     18  O   UNL     1       5.605  -1.199  10.087  1.00  0.00    -0.508 OA
ATOM     19  H   UNL     1       5.897  -2.039  10.572  1.00  0.00     0.293 HD
ENDBRANCH  17  18
ENDBRANCH   2  12
BRANCH   8  20
ATOM     20  O   UNL     1       5.628   4.501   3.371  1.00  0.00    -0.507 OA
ATOM     21  H   UNL     1       5.339   3.665   2.883  1.00  0.00     0.293 HD
ENDBRANCH   8  20
BRANCH   6  22
ATOM     22  O   UNL     1       8.399   7.125   6.309  1.00  0.00    -0.508 OA
ATOM     23  H   UNL     1       9.367   7.420   6.353  1.00  0.00     0.293 HD
ENDBRANCH   6  22
TORSDOF 4
ENDMDL
MODEL 2
REMARK VINA RESULT:    -4.460      2.824      4.911
REMARK INTER + INTRA:          -5.179
REMARK INTER:                  -4.808
REMARK INTRA:                  -0.370
REMARK UNBOUND:                -0.067
REMARK SMILES O=C1C[C@H](c2ccc(O)cc2)Oc2cc(O)cc(O)c21
REMARK SMILES IDX 3 1 4 2 12 3 13 4 14 5 15 6 17 7 18 8 20 9 2 10 1 11 5 12
REMARK SMILES IDX 6 13 11 14 7 15 10 16 8 17 9 18 19 20 16 22
REMARK H PARENT 9 19 19 21 16 23
REMARK Flexibility Score: inf
ROOT
ATOM      1  C   UNL     1       7.215   3.776   8.838  1.00  0.00     0.131 C 
ATOM      2  C   UNL     1       6.026   3.862   7.865  1.00  0.00     0.211 C 
ATOM      3  O   UNL     1       6.376   3.376   6.562  1.00  0.00    -0.484 OA
ATOM      4  C   UNL     1       7.338   2.379   6.328  1.00  0.00     0.138 A 
ATOM      5  C   UNL     1       7.484   1.874   5.034  1.00  0.00     0.093 A 
ATOM      6  C   UNL     1       8.411   0.865   4.771  1.00  0.00     0.123 A 
ATOM      7  C   UNL     1       9.218   0.375   5.805  1.00  0.00     0.093 A 
ATOM      8  C   UNL     1       9.111   0.892   7.102  1.00  0.00     0.133 A 
ATOM      9  C   UNL     1       8.138   1.886   7.380  1.00  0.00     0.102 A 
ATOM     10  C   UNL     1       7.885   2.441   8.728  1.00  0.00     0.174 C 
ATOM     11  O   UNL     1       8.162   1.796   9.773  1.00  0.00    -0.294 OA
ENDROOT
BRANCH   2  12
ATOM     12  C   UNL     1       4.810   3.139   8.413  1.00  0.00    -0.007 A 
ATOM     13  C   UNL     1       4.181   3.628   9.573  1.00  0.00     0.011 A 
ATOM     14  C   UNL     1       4.328   1.952   7.829  1.00  0.00     0.011 A 
ATOM     15  C   UNL     1       3.081   2.961  10.119  1.00  0.00     0.046 A 
ATOM     16  C   UNL     1       3.227   1.287   8.378  1.00  0.00     0.046 A 
ATOM     17  C   UNL     1       2.599   1.789   9.521  1.00  0.00     0.115 A 
BRANCH  17  18
ATOM     18  O   UNL     1       1.503   1.116  10.056  1.00  0.00    -0.508 OA
ATOM     19  H   UNL     1       1.374   0.121   9.916  1.00  0.00     0.293 HD
ENDBRANCH  17  18
ENDBRANCH   2  12
BRANCH   8  20
ATOM     20  O   UNL     1      10.008   0.415   8.061  1.00  0.00    -0.507 OA
ATOM     21  H   UNL     1       9.839   0.454   9.057  1.00  0.00     0.293 HD
ENDBRANCH   8  20
BRANCH   6  22
ATOM     22  O   UNL     1       8.529   0.359   3.478  1.00  0.00    -0.508 OA
ATOM     23  H   UNL     1       8.129   0.841   2.683  1.00  0.00     0.293 HD
ENDBRANCH   6  22
TORSDOF 4
ENDMDL
MODEL 3
REMARK VINA RESULT:    -4.426     16.569     19.584
REMARK INTER + INTRA:          -5.140
REMARK INTER:                  -4.769
REMARK INTRA:                  -0.371
REMARK UNBOUND:                -0.067
REMARK SMILES O=C1C[C@H](c2ccc(O)cc2)Oc2cc(O)cc(O)c21
REMARK SMILES IDX 3 1 4 2 12 3 13 4 14 5 15 6 17 7 18 8 20 9 2 10 1 11 5 12
REMARK SMILES IDX 6 13 11 14 7 15 10 16 8 17 9 18 19 20 16 22
REMARK H PARENT 9 19 19 21 16 23
REMARK Flexibility Score: inf
ROOT
ATOM      1  C   UNL     1      -6.725 -11.632   8.745  1.00  0.00     0.131 C 
ATOM      2  C   UNL     1      -5.521 -10.888   8.139  1.00  0.00     0.211 C 
ATOM      3  O   UNL     1      -5.358 -11.197   6.748  1.00  0.00    -0.484 OA
ATOM      4  C   UNL     1      -6.417 -11.528   5.887  1.00  0.00     0.138 A 
ATOM      5  C   UNL     1      -6.162 -11.655   4.520  1.00  0.00     0.093 A 
ATOM      6  C   UNL     1      -7.196 -11.957   3.634  1.00  0.00     0.123 A 
ATOM      7  C   UNL     1      -8.492 -12.162   4.121  1.00  0.00     0.093 A 
ATOM      8  C   UNL     1      -8.764 -12.073   5.492  1.00  0.00     0.133 A 
ATOM      9  C   UNL     1      -7.722 -11.721   6.388  1.00  0.00     0.102 A 
ATOM     10  C   UNL     1      -7.915 -11.520   7.842  1.00  0.00     0.174 C 
ATOM     11  O   UNL     1      -9.033 -11.202   8.324  1.00  0.00    -0.294 OA
ENDROOT
BRANCH   2  12
ATOM     12  C   UNL     1      -5.626  -9.392   8.362  1.00  0.00    -0.007 A 
ATOM     13  C   UNL     1      -4.815  -8.523   7.609  1.00  0.00     0.011 A 
ATOM     14  C   UNL     1      -6.468  -8.849   9.351  1.00  0.00     0.011 A 
ATOM     15  C   UNL     1      -4.866  -7.142   7.820  1.00  0.00     0.046 A 
ATOM     16  C   UNL     1      -6.517  -7.466   9.560  1.00  0.00     0.046 A 
ATOM     17  C   UNL     1      -5.719  -6.610   8.795  1.00  0.00     0.115 A 
BRANCH  17  18
ATOM     18  O   UNL     1      -5.779  -5.235   9.015  1.00  0.00    -0.508 OA
ATOM     19  H   UNL     1      -5.520  -4.573   8.294  1.00  0.00     0.293 HD
ENDBRANCH  17  18
ENDBRANCH   2  12
BRANCH   8  20
ATOM     20  O   UNL     1     -10.061 -12.374   5.913  1.00  0.00    -0.507 OA
ATOM     21  H   UNL     1     -10.273 -12.992   6.682  1.00  0.00     0.293 HD
ENDBRANCH   8  20
BRANCH   6  22
ATOM     22  O   UNL     1      -6.925 -12.060   2.271  1.00  0.00    -0.508 OA
ATOM     23  H   UNL     1      -7.482 -12.648   1.663  1.00  0.00     0.293 HD
ENDBRANCH   6  22
TORSDOF 4
ENDMDL
MODEL 4
REMARK VINA RESULT:    -4.362      8.395     11.334
REMARK INTER + INTRA:          -5.067
REMARK INTER:                  -4.610
REMARK INTRA:                  -0.456
REMARK UNBOUND:                -0.067
REMARK SMILES O=C1C[C@H](c2ccc(O)cc2)Oc2cc(O)cc(O)c21
REMARK SMILES IDX 3 1 4 2 12 3 13 4 14 5 15 6 17 7 18 8 20 9 2 10 1 11 5 12
REMARK SMILES IDX 6 13 11 14 7 15 10 16 8 17 9 18 19 20 16 22
REMARK H PARENT 9 19 19 21 16 23
REMARK Flexibility Score: inf
ROOT
ATOM      1  C   UNL     1       8.036 -10.404   7.332  1.00  0.00     0.131 C 
ATOM      2  C   UNL     1       7.017  -9.611   8.170  1.00  0.00     0.211 C 
ATOM      3  O   UNL     1       7.289  -8.203   8.135  1.00  0.00    -0.484 OA
ATOM      4  C   UNL     1       7.889  -7.546   7.048  1.00  0.00     0.138 A 
ATOM      5  C   UNL     1       7.961  -6.152   7.059  1.00  0.00     0.093 A 
ATOM      6  C   UNL     1       8.526  -5.465   5.984  1.00  0.00     0.123 A 
ATOM      7  C   UNL     1       9.049  -6.180   4.900  1.00  0.00     0.093 A 
ATOM      8  C   UNL     1       9.017  -7.580   4.884  1.00  0.00     0.133 A 
ATOM      9  C   UNL     1       8.402  -8.277   5.956  1.00  0.00     0.102 A 
ATOM     10  C   UNL     1       8.241  -9.747   6.002  1.00  0.00     0.174 C 
ATOM     11  O   UNL     1       8.213 -10.444   4.953  1.00  0.00    -0.294 OA
ENDROOT
BRANCH   2  12
ATOM     12  C   UNL     1       5.594  -9.908   7.737  1.00  0.00    -0.007 A 
ATOM     13  C   UNL     1       4.602  -8.925   7.905  1.00  0.00     0.011 A 
ATOM     14  C   UNL     1       5.223 -11.167   7.229  1.00  0.00     0.011 A 
ATOM     15  C   UNL     1       3.276  -9.185   7.547  1.00  0.00     0.046 A 
ATOM     16  C   UNL     1       3.895 -11.425   6.871  1.00  0.00     0.046 A 
ATOM     17  C   UNL     1       2.920 -10.436   7.027  1.00  0.00     0.115 A 
BRANCH  17  18
ATOM     18  O   UNL     1       1.602 -10.707   6.666  1.00  0.00    -0.508 OA
ATOM     19  H   UNL     1       0.827 -10.195   7.070  1.00  0.00     0.293 HD
ENDBRANCH  17  18
ENDBRANCH   2  12
BRANCH   8  20
ATOM     20  O   UNL     1       9.633  -8.226   3.810  1.00  0.00    -0.507 OA
ATOM     21  H   UNL     1      10.598  -8.082   3.546  1.00  0.00     0.293 HD
ENDBRANCH   8  20
BRANCH   6  22
ATOM     22  O   UNL     1       8.572  -4.073   6.005  1.00  0.00    -0.508 OA
ATOM     23  H   UNL     1       9.443  -3.570   5.893  1.00  0.00     0.293 HD
ENDBRANCH   6  22
TORSDOF 4
ENDMDL
MODEL 5
REMARK VINA RESULT:    -4.163      1.990      6.293
REMARK INTER + INTRA:          -4.838
REMARK INTER:                  -4.462
REMARK INTRA:                  -0.376
REMARK UNBOUND:                -0.067
REMARK SMILES O=C1C[C@H](c2ccc(O)cc2)Oc2cc(O)cc(O)c21
REMARK SMILES IDX 3 1 4 2 12 3 13 4 14 5 15 6 17 7 18 8 20 9 2 10 1 11 5 12
REMARK SMILES IDX 6 13 11 14 7 15 10 16 8 17 9 18 19 20 16 22
REMARK H PARENT 9 19 19 21 16 23
REMARK Flexibility Score: inf
ROOT
ATOM      1  C   UNL     1       9.397   2.087   7.705  1.00  0.00     0.131 C 
ATOM      2  C   UNL     1       9.618   1.921   6.191  1.00  0.00     0.211 C 
ATOM      3  O   UNL     1       9.762   0.541   5.829  1.00  0.00    -0.484 OA
ATOM      4  C   UNL     1       9.151  -0.520   6.516  1.00  0.00     0.138 A 
ATOM      5  C   UNL     1       9.233  -1.807   5.981  1.00  0.00     0.093 A 
ATOM      6  C   UNL     1       8.614  -2.879   6.625  1.00  0.00     0.123 A 
ATOM      7  C   UNL     1       7.930  -2.669   7.827  1.00  0.00     0.093 A 
ATOM      8  C   UNL     1       7.864  -1.391   8.399  1.00  0.00     0.133 A 
ATOM      9  C   UNL     1       8.454  -0.293   7.723  1.00  0.00     0.102 A 
ATOM     10  C   UNL     1       8.374   1.107   8.193  1.00  0.00     0.174 C 
ATOM     11  O   UNL     1       7.441   1.503   8.939  1.00  0.00    -0.294 OA
ENDROOT
BRANCH   2  12
ATOM     12  C   UNL     1       8.512   2.587   5.394  1.00  0.00    -0.007 A 
ATOM     13  C   UNL     1       8.363   3.984   5.454  1.00  0.00     0.011 A 
ATOM     14  C   UNL     1       7.587   1.837   4.644  1.00  0.00     0.011 A 
ATOM     15  C   UNL     1       7.331   4.619   4.758  1.00  0.00     0.046 A 
ATOM     16  C   UNL     1       6.555   2.476   3.948  1.00  0.00     0.046 A 
ATOM     17  C   UNL     1       6.425   3.866   4.001  1.00  0.00     0.115 A 
BRANCH  17  18
ATOM     18  O   UNL     1       5.391   4.487   3.303  1.00  0.00    -0.508 OA
ATOM     19  H   UNL     1       4.499   4.029   3.160  1.00  0.00     0.293 HD
ENDBRANCH  17  18
ENDBRANCH   2  12
BRANCH   8  20
ATOM     20  O   UNL     1       7.239  -1.273   9.642  1.00  0.00    -0.507 OA
ATOM     21  H   UNL     1       6.512  -0.601   9.844  1.00  0.00     0.293 HD
ENDBRANCH   8  20
BRANCH   6  22
ATOM     22  O   UNL     1       8.691  -4.153   6.066  1.00  0.00    -0.508 OA
ATOM     23  H   UNL     1       7.967  -4.844   6.222  1.00  0.00     0.293 HD
ENDBRANCH   6  22
TORSDOF 4
ENDMDL
MODEL 6
REMARK VINA RESULT:    -4.066      1.793      6.232
REMARK INTER + INTRA:          -4.727
REMARK INTER:                  -4.437
REMARK INTRA:                  -0.290
REMARK UNBOUND:                -0.067
REMARK SMILES O=C1C[C@H](c2ccc(O)cc2)Oc2cc(O)cc(O)c21
REMARK SMILES IDX 3 1 4 2 12 3 13 4 14 5 15 6 17 7 18 8 20 9 2 10 1 11 5 12
REMARK SMILES IDX 6 13 11 14 7 15 10 16 8 17 9 18 19 20 16 22
REMARK H PARENT 9 19 19 21 16 23
REMARK Flexibility Score: inf
ROOT
ATOM      1  C   UNL     1       7.057   3.168   9.098  1.00  0.00     0.131 C 
ATOM      2  C   UNL     1       8.075   3.023   7.953  1.00  0.00     0.211 C 
ATOM      3  O   UNL     1       8.647   1.708   7.921  1.00  0.00    -0.484 OA
ATOM      4  C   UNL     1       7.976   0.549   8.345  1.00  0.00     0.138 A 
ATOM      5  C   UNL     1       8.570  -0.695   8.122  1.00  0.00     0.093 A 
ATOM      6  C   UNL     1       7.920  -1.867   8.507  1.00  0.00     0.123 A 
ATOM      7  C   UNL     1       6.676  -1.796   9.145  1.00  0.00     0.093 A 
ATOM      8  C   UNL     1       6.077  -0.557   9.409  1.00  0.00     0.133 A 
ATOM      9  C   UNL     1       6.717   0.633   8.978  1.00  0.00     0.102 A 
ATOM     10  C   UNL     1       6.137   1.986   9.131  1.00  0.00     0.174 C 
ATOM     11  O   UNL     1       4.895   2.167   9.228  1.00  0.00    -0.294 OA
ENDROOT
BRANCH   2  12
ATOM     12  C   UNL     1       7.460   3.388   6.615  1.00  0.00    -0.007 A 
ATOM     13  C   UNL     1       7.253   4.743   6.298  1.00  0.00     0.011 A 
ATOM     14  C   UNL     1       7.029   2.404   5.706  1.00  0.00     0.011 A 
ATOM     15  C   UNL     1       6.655   5.105   5.087  1.00  0.00     0.046 A 
ATOM     16  C   UNL     1       6.431   2.770   4.495  1.00  0.00     0.046 A 
ATOM     17  C   UNL     1       6.244   4.119   4.182  1.00  0.00     0.115 A 
BRANCH  17  18
ATOM     18  O   UNL     1       5.647   4.468   2.972  1.00  0.00    -0.508 OA
ATOM     19  H   UNL     1       4.805   5.030   2.941  1.00  0.00     0.293 HD
ENDBRANCH  17  18
ENDBRANCH   2  12
BRANCH   8  20
ATOM     20  O   UNL     1       4.878  -0.560  10.124  1.00  0.00    -0.507 OA
ATOM     21  H   UNL     1       4.219   0.205  10.119  1.00  0.00     0.293 HD
ENDBRANCH   8  20
BRANCH   6  22
ATOM     22  O   UNL     1       8.519  -3.100   8.258  1.00  0.00    -0.508 OA
ATOM     23  H   UNL     1       8.992  -3.616   8.989  1.00  0.00     0.293 HD
ENDBRANCH   6  22
TORSDOF 4
ENDMDL
MODEL 7
REMARK VINA RESULT:    -4.056      6.681      9.247
REMARK INTER + INTRA:          -4.715
REMARK INTER:                  -4.266
REMARK INTRA:                  -0.450
REMARK UNBOUND:                -0.067
REMARK SMILES O=C1C[C@H](c2ccc(O)cc2)Oc2cc(O)cc(O)c21
REMARK SMILES IDX 3 1 4 2 12 3 13 4 14 5 15 6 17 7 18 8 20 9 2 10 1 11 5 12
REMARK SMILES IDX 6 13 11 14 7 15 10 16 8 17 9 18 19 20 16 22
REMARK H PARENT 9 19 19 21 16 23
REMARK Flexibility Score: inf
ROOT
ATOM      1  C   UNL     1       9.301  -8.499   6.395  1.00  0.00     0.131 C 
ATOM      2  C   UNL     1       8.586  -7.962   7.648  1.00  0.00     0.211 C 
ATOM      3  O   UNL     1       8.929  -6.593   7.903  1.00  0.00    -0.484 OA
ATOM      4  C   UNL     1       9.268  -5.669   6.902  1.00  0.00     0.138 A 
ATOM      5  C   UNL     1       9.429  -4.326   7.249  1.00  0.00     0.093 A 
ATOM      6  C   UNL     1       9.740  -3.377   6.276  1.00  0.00     0.123 A 
ATOM      7  C   UNL     1       9.917  -3.777   4.946  1.00  0.00     0.093 A 
ATOM      8  C   UNL     1       9.794  -5.123   4.581  1.00  0.00     0.133 A 
ATOM      9  C   UNL     1       9.434  -6.082   5.563  1.00  0.00     0.102 A 
ATOM     10  C   UNL     1       9.196  -7.513   5.272  1.00  0.00     0.174 C 
ATOM     11  O   UNL     1       8.854  -7.909   4.127  1.00  0.00    -0.294 OA
ENDROOT
BRANCH   2  12
ATOM     12  C   UNL     1       7.083  -8.144   7.548  1.00  0.00    -0.007 A 
ATOM     13  C   UNL     1       6.234  -7.092   7.934  1.00  0.00     0.011 A 
ATOM     14  C   UNL     1       6.512  -9.364   7.139  1.00  0.00     0.011 A 
ATOM     15  C   UNL     1       4.845  -7.246   7.885  1.00  0.00     0.046 A 
ATOM     16  C   UNL     1       5.122  -9.515   7.091  1.00  0.00     0.046 A 
ATOM     17  C   UNL     1       4.286  -8.458   7.462  1.00  0.00     0.115 A 
BRANCH  17  18
ATOM     18  O   UNL     1       2.903  -8.624   7.409  1.00  0.00    -0.508 OA
ATOM     19  H   UNL     1       2.271  -7.879   7.675  1.00  0.00     0.293 HD
ENDBRANCH  17  18
ENDBRANCH   2  12
BRANCH   8  20
ATOM     20  O   UNL     1      10.069  -5.459   3.254  1.00  0.00    -0.507 OA
ATOM     21  H   UNL     1       9.512  -6.103   2.710  1.00  0.00     0.293 HD
ENDBRANCH   8  20
BRANCH   6  22
ATOM     22  O   UNL     1       9.877  -2.038   6.639  1.00  0.00    -0.508 OA
ATOM     23  H   UNL     1       9.783  -1.738   7.601  1.00  0.00     0.293 HD
ENDBRANCH   6  22
TORSDOF 4
ENDMDL
MODEL 8
REMARK VINA RESULT:    -4.039      4.755      7.359
REMARK INTER + INTRA:          -4.696
REMARK INTER:                  -4.296
REMARK INTRA:                  -0.401
REMARK UNBOUND:                -0.067
REMARK SMILES O=C1C[C@H](c2ccc(O)cc2)Oc2cc(O)cc(O)c21
REMARK SMILES IDX 3 1 4 2 12 3 13 4 14 5 15 6 17 7 18 8 20 9 2 10 1 11 5 12
REMARK SMILES IDX 6 13 11 14 7 15 10 16 8 17 9 18 19 20 16 22
REMARK H PARENT 9 19 19 21 16 23
REMARK Flexibility Score: inf
ROOT
ATOM      1  C   UNL     1       9.384  -5.734   7.358  1.00  0.00     0.131 C 
ATOM      2  C   UNL     1       8.467  -5.817   8.591  1.00  0.00     0.211 C 
ATOM      3  O   UNL     1       8.234  -4.522   9.161  1.00  0.00    -0.484 OA
ATOM      4  C   UNL     1       8.222  -3.328   8.421  1.00  0.00     0.138 A 
ATOM      5  C   UNL     1       7.829  -2.146   9.052  1.00  0.00     0.093 A 
ATOM      6  C   UNL     1       7.780  -0.948   8.340  1.00  0.00     0.123 A 
ATOM      7  C   UNL     1       8.153  -0.925   6.991  1.00  0.00     0.093 A 
ATOM      8  C   UNL     1       8.582  -2.092   6.347  1.00  0.00     0.133 A 
ATOM      9  C   UNL     1       8.589  -3.319   7.058  1.00  0.00     0.102 A 
ATOM     10  C   UNL     1       8.945  -4.623   6.455  1.00  0.00     0.174 C 
ATOM     11  O   UNL     1       8.830  -4.834   5.219  1.00  0.00    -0.294 OA
ENDROOT
BRANCH   2  12
ATOM     12  C   UNL     1       7.161  -6.517   8.264  1.00  0.00    -0.007 A 
ATOM     13  C   UNL     1       6.051  -6.338   9.109  1.00  0.00     0.011 A 
ATOM     14  C   UNL     1       7.047  -7.396   7.170  1.00  0.00     0.011 A 
ATOM     15  C   UNL     1       4.847  -7.000   8.850  1.00  0.00     0.046 A 
ATOM     16  C   UNL     1       5.841  -8.056   6.914  1.00  0.00     0.046 A 
ATOM     17  C   UNL     1       4.739  -7.859   7.750  1.00  0.00     0.115 A 
BRANCH  17  18
ATOM     18  O   UNL     1       3.544  -8.524   7.482  1.00  0.00    -0.508 OA
ATOM     19  H   UNL     1       3.171  -8.582   6.542  1.00  0.00     0.293 HD
ENDBRANCH  17  18
ENDBRANCH   2  12
BRANCH   8  20
ATOM     20  O   UNL     1       9.019  -1.976   5.025  1.00  0.00    -0.507 OA
ATOM     21  H   UNL     1       8.421  -1.708   4.257  1.00  0.00     0.293 HD
ENDBRANCH   8  20
BRANCH   6  22
ATOM     22  O   UNL     1       7.367   0.217   8.982  1.00  0.00    -0.508 OA
ATOM     23  H   UNL     1       7.107   1.046   8.461  1.00  0.00     0.293 HD
ENDBRANCH   6  22
TORSDOF 4
ENDMDL
MODEL 9
REMARK VINA RESULT:    -4.013      7.215     11.650
REMARK INTER + INTRA:          -4.666
REMARK INTER:                  -4.202
REMARK INTRA:                  -0.464
REMARK UNBOUND:                -0.067
REMARK SMILES O=C1C[C@H](c2ccc(O)cc2)Oc2cc(O)cc(O)c21
REMARK SMILES IDX 3 1 4 2 12 3 13 4 14 5 15 6 17 7 18 8 20 9 2 10 1 11 5 12
REMARK SMILES IDX 6 13 11 14 7 15 10 16 8 17 9 18 19 20 16 22
REMARK H PARENT 9 19 19 21 16 23
REMARK Flexibility Score: inf
ROOT
ATOM      1  C   UNL     1       6.883  -7.567  10.125  1.00  0.00     0.131 C 
ATOM      2  C   UNL     1       7.782  -7.895   8.919  1.00  0.00     0.211 C 
ATOM      3  O   UNL     1       7.232  -8.957   8.127  1.00  0.00    -0.484 OA
ATOM      4  C   UNL     1       5.857  -9.213   8.001  1.00  0.00     0.138 A 
ATOM      5  C   UNL     1       5.430 -10.172   7.080  1.00  0.00     0.093 A 
ATOM      6  C   UNL     1       4.070 -10.432   6.911  1.00  0.00     0.123 A 
ATOM      7  C   UNL     1       3.129  -9.747   7.688  1.00  0.00     0.093 A 
ATOM      8  C   UNL     1       3.537  -8.805   8.641  1.00  0.00     0.133 A 
ATOM      9  C   UNL     1       4.916  -8.508   8.782  1.00  0.00     0.102 A 
ATOM     10  C   UNL     1       5.450  -7.475   9.697  1.00  0.00     0.174 C 
ATOM     11  O   UNL     1       4.751  -6.498  10.073  1.00  0.00    -0.294 OA
ENDROOT
BRANCH   2  12
ATOM     12  C   UNL     1       8.049  -6.662   8.077  1.00  0.00    -0.007 A 
ATOM     13  C   UNL     1       8.127  -6.785   6.678  1.00  0.00     0.011 A 
ATOM     14  C   UNL     1       8.286  -5.404   8.662  1.00  0.00     0.011 A 
ATOM     15  C   UNL     1       8.408  -5.671   5.881  1.00  0.00     0.046 A 
ATOM     16  C   UNL     1       8.566  -4.291   7.862  1.00  0.00     0.046 A 
ATOM     17  C   UNL     1       8.626  -4.420   6.472  1.00  0.00     0.115 A 
BRANCH  17  18
ATOM     18  O   UNL     1       8.906  -3.303   5.689  1.00  0.00    -0.508 OA
ATOM     19  H   UNL     1       9.489  -3.368   4.863  1.00  0.00     0.293 HD
ENDBRANCH  17  18
ENDBRANCH   2  12
BRANCH   8  20
ATOM     20  O   UNL     1       2.547  -8.225   9.438  1.00  0.00    -0.507 OA
ATOM     21  H   UNL     1       1.601  -8.058   9.126  1.00  0.00     0.293 HD
ENDBRANCH   8  20
BRANCH   6  22
ATOM     22  O   UNL     1       3.663 -11.379   5.973  1.00  0.00    -0.508 OA
ATOM     23  H   UNL     1       2.685 -11.606   5.840  1.00  0.00     0.293 HD
ENDBRANCH   6  22
TORSDOF 4
ENDMDL
