MODEL 1
REMARK VINA RESULT:    -4.303      0.000      0.000
REMARK INTER + INTRA:          -9.954
REMARK INTER:                  -7.824
REMARK INTRA:                  -2.130
REMARK UNBOUND:                -2.130
REMARK SMILES CCCCCCCCCCCCCCCC(=O)[O-]
REMARK SMILES IDX 9 1 10 2 11 3 12 4 13 5 14 6 15 7 16 8 17 9 18 10 8 11 7 12
REMARK SMILES IDX 6 13 5 14 4 15 3 16 2 17 1 18
REMARK H PARENT
REMARK Flexibility Score: inf
ROOT
ATOM      1  C   UNL     1      27.153  -3.105  -5.029  1.00  0.00     0.000 C 
ENDROOT
BRANCH   1   2
ATOM      2  C   UNL     1      26.279  -4.368  -4.870  1.00  0.00     0.000 C 
BRANCH   2   3
ATOM      3  C   UNL     1      26.578  -5.169  -3.591  1.00  0.00     0.000 C 
BRANCH   3   4
ATOM      4  C   UNL     1      26.868  -6.652  -3.869  1.00  0.00     0.000 C 
BRANCH   4   5
ATOM      5  C   UNL     1      28.361  -6.997  -3.750  1.00  0.00     0.000 C 
BRANCH   5   6
ATOM      6  C   UNL     1      29.092  -7.068  -5.111  1.00  0.00     0.006 C 
BRANCH   6   7
ATOM      7  C   UNL     1      28.601  -8.221  -6.000  1.00  0.00     0.053 C 
BRANCH   7   8
ATOM      8  C   UNL     1      28.015  -7.719  -7.286  1.00  0.00     0.041 C 
ATOM      9  O   UNL     1      28.484  -8.106  -8.390  1.00  0.00    -0.550 OA
ATOM     10  O   UNL     1      26.972  -6.803  -7.265  1.00  0.00    -0.550 OA
ENDBRANCH   7   8
ENDBRANCH   6   7
ENDBRANCH   5   6
ENDBRANCH   4   5
ENDBRANCH   3   4
ENDBRANCH   2   3
ENDBRANCH   1   2
BRANCH   1  11
ATOM     11  C   UNL     1      28.454  -3.396  -5.797  1.00  0.00     0.000 C 
BRANCH  11  12
ATOM     12  C   UNL     1      29.704  -2.911  -5.044  1.00  0.00    -0.000 C 
BRANCH  12  13
ATOM     13  C   UNL     1      29.931  -3.674  -3.728  1.00  0.00    -0.000 C 
BRANCH  13  14
ATOM     14  C   UNL     1      30.068  -2.727  -2.515  1.00  0.00    -0.000 C 
BRANCH  14  15
ATOM     15  C   UNL     1      29.522  -1.308  -2.773  1.00  0.00    -0.000 C 
BRANCH  15  16
ATOM     16  C   UNL     1      28.114  -1.041  -2.208  1.00  0.00    -0.000 C 
BRANCH  16  17
ATOM     17  C   UNL     1      27.806  -1.754  -0.879  1.00  0.00    -0.003 C 
ATOM     18  C   UNL     1      26.810  -2.903  -1.035  1.00  0.00     0.004 C 
ENDBRANCH  16  17
ENDBRANCH  15  16
ENDBRANCH  14  15
ENDBRANCH  13  14
ENDBRANCH  12  13
ENDBRANCH  11  12
ENDBRANCH   1  11
TORSDOF 14
ENDMDL
MODEL 2
REMARK VINA RESULT:    -4.071      3.546      6.363
REMARK INTER + INTRA:          -9.534
REMARK INTER:                  -7.441
REMARK INTRA:                  -2.093
REMARK UNBOUND:                -2.130
REMARK SMILES CCCCCCCCCCCCCCCC(=O)[O-]
REMARK SMILES IDX 9 1 10 2 11 3 12 4 13 5 14 6 15 7 16 8 17 9 18 10 8 11 7 12
REMARK SMILES IDX 6 13 5 14 4 15 3 16 2 17 1 18
REMARK H PARENT
REMARK Flexibility Score: inf
ROOT
ATOM      1  C   UNL     1      29.539  -5.567  -3.327  1.00  0.00     0.000 C 
ENDROOT
BRANCH   1   2
ATOM      2  C   UNL     1      30.101  -4.806  -4.547  1.00  0.00     0.000 C 
BRANCH   2   3
ATOM      3  C   UNL     1      29.751  -3.308  -4.554  1.00  0.00     0.000 C 
BRANCH   3   4
ATOM      4  C   UNL     1      29.230  -2.822  -5.916  1.00  0.00     0.000 C 
BRANCH   4   5
ATOM      5  C   UNL     1      27.871  -2.112  -5.811  1.00  0.00     0.000 C 
BRANCH   5   6
ATOM      6  C   UNL     1      27.504  -1.682  -4.371  1.00  0.00     0.006 C 
BRANCH   6   7
ATOM      7  C   UNL     1      27.803  -0.201  -4.089  1.00  0.00     0.053 C 
BRANCH   7   8
ATOM      8  C   UNL     1      27.860   0.082  -2.618  1.00  0.00     0.041 C 
ATOM      9  O   UNL     1      26.828   0.472  -2.008  1.00  0.00    -0.550 OA
ATOM     10  O   UNL     1      29.057  -0.057  -1.927  1.00  0.00    -0.550 OA
ENDBRANCH   7   8
ENDBRANCH   6   7
ENDBRANCH   5   6
ENDBRANCH   4   5
ENDBRANCH   3   4
ENDBRANCH   2   3
ENDBRANCH   1   2
BRANCH   1  11
ATOM     11  C   UNL     1      29.797  -7.081  -3.422  1.00  0.00     0.000 C 
BRANCH  11  12
ATOM     12  C   UNL     1      30.051  -7.548  -4.865  1.00  0.00    -0.000 C 
BRANCH  12  13
ATOM     13  C   UNL     1      28.844  -8.290  -5.464  1.00  0.00    -0.000 C 
BRANCH  13  14
ATOM     14  C   UNL     1      28.180  -7.501  -6.614  1.00  0.00    -0.000 C 
BRANCH  14  15
ATOM     15  C   UNL     1      26.705  -7.143  -6.349  1.00  0.00    -0.000 C 
BRANCH  15  16
ATOM     16  C   UNL     1      26.427  -5.641  -6.145  1.00  0.00    -0.000 C 
BRANCH  16  17
ATOM     17  C   UNL     1      26.383  -5.188  -4.675  1.00  0.00    -0.003 C 
ATOM     18  C   UNL     1      26.025  -6.319  -3.710  1.00  0.00     0.004 C 
ENDBRANCH  16  17
ENDBRANCH  15  16
ENDBRANCH  14  15
ENDBRANCH  13  14
ENDBRANCH  12  13
ENDBRANCH  11  12
ENDBRANCH   1  11
TORSDOF 14
ENDMDL
MODEL 3
REMARK VINA RESULT:    -3.900      3.753      6.826
REMARK INTER + INTRA:          -9.222
REMARK INTER:                  -7.626
REMARK INTRA:                  -1.596
REMARK UNBOUND:                -2.130
REMARK SMILES CCCCCCCCCCCCCCCC(=O)[O-]
REMARK SMILES IDX 9 1 10 2 11 3 12 4 13 5 14 6 15 7 16 8 17 9 18 10 8 11 7 12
REMARK SMILES IDX 6 13 5 14 4 15 3 16 2 17 1 18
REMARK H PARENT
REMARK Flexibility Score: inf
ROOT
ATOM      1  C   UNL     1      26.906  -3.845  -3.712  1.00  0.00     0.000 C 
ENDROOT
BRANCH   1   2
ATOM      2  C   UNL     1      27.191  -2.512  -4.437  1.00  0.00     0.000 C 
BRANCH   2   3
ATOM      3  C   UNL     1      27.992  -1.507  -3.591  1.00  0.00     0.000 C 
BRANCH   3   4
ATOM      4  C   UNL     1      29.389  -2.024  -3.213  1.00  0.00     0.000 C 
BRANCH   4   5
ATOM      5  C   UNL     1      29.782  -1.668  -1.770  1.00  0.00     0.000 C 
BRANCH   5   6
ATOM      6  C   UNL     1      29.322  -2.713  -0.727  1.00  0.00     0.006 C 
BRANCH   6   7
ATOM      7  C   UNL     1      28.110  -2.250   0.097  1.00  0.00     0.053 C 
BRANCH   7   8
ATOM      8  C   UNL     1      28.283  -2.552   1.555  1.00  0.00     0.041 C 
ATOM      9  O   UNL     1      28.669  -3.694   1.924  1.00  0.00    -0.550 OA
ATOM     10  O   UNL     1      27.990  -1.584   2.506  1.00  0.00    -0.550 OA
ENDBRANCH   7   8
ENDBRANCH   6   7
ENDBRANCH   5   6
ENDBRANCH   4   5
ENDBRANCH   3   4
ENDBRANCH   2   3
ENDBRANCH   1   2
BRANCH   1  11
ATOM     11  C   UNL     1      26.263  -4.884  -4.646  1.00  0.00     0.000 C 
BRANCH  11  12
ATOM     12  C   UNL     1      26.987  -4.993  -5.997  1.00  0.00    -0.000 C 
BRANCH  12  13
ATOM     13  C   UNL     1      26.517  -6.205  -6.821  1.00  0.00    -0.000 C 
BRANCH  13  14
ATOM     14  C   UNL     1      26.968  -7.546  -6.201  1.00  0.00    -0.000 C 
BRANCH  14  15
ATOM     15  C   UNL     1      28.462  -7.859  -6.419  1.00  0.00    -0.000 C 
BRANCH  15  16
ATOM     16  C   UNL     1      29.219  -8.324  -5.161  1.00  0.00    -0.000 C 
BRANCH  16  17
ATOM     17  C   UNL     1      29.155  -7.348  -3.972  1.00  0.00    -0.003 C 
ATOM     18  C   UNL     1      29.982  -6.082  -4.193  1.00  0.00     0.004 C 
ENDBRANCH  16  17
ENDBRANCH  15  16
ENDBRANCH  14  15
ENDBRANCH  13  14
ENDBRANCH  12  13
ENDBRANCH  11  12
ENDBRANCH   1  11
TORSDOF 14
ENDMDL
MODEL 4
REMARK VINA RESULT:    -3.891      2.941      6.250
REMARK INTER + INTRA:          -9.206
REMARK INTER:                  -6.938
REMARK INTRA:                  -2.267
REMARK UNBOUND:                -2.130
REMARK SMILES CCCCCCCCCCCCCCCC(=O)[O-]
REMARK SMILES IDX 9 1 10 2 11 3 12 4 13 5 14 6 15 7 16 8 17 9 18 10 8 11 7 12
REMARK SMILES IDX 6 13 5 14 4 15 3 16 2 17 1 18
REMARK H PARENT
REMARK Flexibility Score: inf
ROOT
ATOM      1  C   UNL     1      27.725  -3.456  -5.758  1.00  0.00     0.000 C 
ENDROOT
BRANCH   1   2
ATOM      2  C   UNL     1      27.870  -1.920  -5.773  1.00  0.00     0.000 C 
BRANCH   2   3
ATOM      3  C   UNL     1      27.185  -1.223  -4.584  1.00  0.00     0.000 C 
BRANCH   3   4
ATOM      4  C   UNL     1      28.173  -0.460  -3.689  1.00  0.00     0.000 C 
BRANCH   4   5
ATOM      5  C   UNL     1      29.448  -1.266  -3.393  1.00  0.00     0.000 C 
BRANCH   5   6
ATOM      6  C   UNL     1      29.467  -1.904  -1.984  1.00  0.00     0.006 C 
BRANCH   6   7
ATOM      7  C   UNL     1      28.325  -1.408  -1.082  1.00  0.00     0.053 C 
BRANCH   7   8
ATOM      8  C   UNL     1      27.572  -2.547  -0.465  1.00  0.00     0.041 C 
ATOM      9  O   UNL     1      26.596  -3.064  -1.072  1.00  0.00    -0.550 OA
ATOM     10  O   UNL     1      27.928  -3.018   0.792  1.00  0.00    -0.550 OA
ENDBRANCH   7   8
ENDBRANCH   6   7
ENDBRANCH   5   6
ENDBRANCH   4   5
ENDBRANCH   3   4
ENDBRANCH   2   3
ENDBRANCH   1   2
BRANCH   1  11
ATOM     11  C   UNL     1      26.970  -3.953  -4.513  1.00  0.00     0.000 C 
BRANCH  11  12
ATOM     12  C   UNL     1      27.740  -5.045  -3.752  1.00  0.00    -0.000 C 
BRANCH  12  13
ATOM     13  C   UNL     1      29.252  -5.002  -4.032  1.00  0.00    -0.000 C 
BRANCH  13  14
ATOM     14  C   UNL     1      29.847  -6.408  -4.265  1.00  0.00    -0.000 C 
BRANCH  14  15
ATOM     15  C   UNL     1      28.784  -7.515  -4.406  1.00  0.00    -0.000 C 
BRANCH  15  16
ATOM     16  C   UNL     1      28.800  -8.264  -5.753  1.00  0.00    -0.000 C 
BRANCH  16  17
ATOM     17  C   UNL     1      28.042  -7.559  -6.892  1.00  0.00    -0.003 C 
ATOM     18  C   UNL     1      26.613  -7.172  -6.509  1.00  0.00     0.004 C 
ENDBRANCH  16  17
ENDBRANCH  15  16
ENDBRANCH  14  15
ENDBRANCH  13  14
ENDBRANCH  12  13
ENDBRANCH  11  12
ENDBRANCH   1  11
TORSDOF 14
ENDMDL
MODEL 5
REMARK VINA RESULT:    -3.857      1.187      2.260
REMARK INTER + INTRA:          -9.144
REMARK INTER:                  -7.095
REMARK INTRA:                  -2.049
REMARK UNBOUND:                -2.130
REMARK SMILES CCCCCCCCCCCCCCCC(=O)[O-]
REMARK SMILES IDX 9 1 10 2 11 3 12 4 13 5 14 6 15 7 16 8 17 9 18 10 8 11 7 12
REMARK SMILES IDX 6 13 5 14 4 15 3 16 2 17 1 18
REMARK H PARENT
REMARK Flexibility Score: inf
ROOT
ATOM      1  C   UNL     1      27.459  -3.750  -5.033  1.00  0.00     0.000 C 
ENDROOT
BRANCH   1   2
ATOM      2  C   UNL     1      28.930  -3.547  -5.454  1.00  0.00     0.000 C 
BRANCH   2   3
ATOM      3  C   UNL     1      29.936  -4.306  -4.572  1.00  0.00     0.000 C 
BRANCH   3   4
ATOM      4  C   UNL     1      29.325  -5.547  -3.901  1.00  0.00     0.000 C 
BRANCH   4   5
ATOM      5  C   UNL     1      30.100  -6.835  -4.221  1.00  0.00     0.000 C 
BRANCH   5   6
ATOM      6  C   UNL     1      29.307  -7.835  -5.094  1.00  0.00     0.006 C 
BRANCH   6   7
ATOM      7  C   UNL     1      27.892  -7.344  -5.441  1.00  0.00     0.053 C 
BRANCH   7   8
ATOM      8  C   UNL     1      27.666  -7.307  -6.923  1.00  0.00     0.041 C 
ATOM      9  O   UNL     1      26.775  -6.560  -7.409  1.00  0.00    -0.550 OA
ATOM     10  O   UNL     1      28.418  -8.118  -7.762  1.00  0.00    -0.550 OA
ENDBRANCH   7   8
ENDBRANCH   6   7
ENDBRANCH   5   6
ENDBRANCH   4   5
ENDBRANCH   3   4
ENDBRANCH   2   3
ENDBRANCH   1   2
BRANCH   1  11
ATOM     11  C   UNL     1      26.735  -2.413  -4.799  1.00  0.00     0.000 C 
BRANCH  11  12
ATOM     12  C   UNL     1      27.635  -1.198  -5.078  1.00  0.00    -0.000 C 
BRANCH  12  13
ATOM     13  C   UNL     1      27.298   0.003  -4.177  1.00  0.00    -0.000 C 
BRANCH  13  14
ATOM     14  C   UNL     1      28.347   0.214  -3.063  1.00  0.00    -0.000 C 
BRANCH  14  15
ATOM     15  C   UNL     1      29.210  -1.032  -2.780  1.00  0.00    -0.000 C 
BRANCH  15  16
ATOM     16  C   UNL     1      28.934  -1.720  -1.429  1.00  0.00    -0.000 C 
BRANCH  16  17
ATOM     17  C   UNL     1      27.450  -1.775  -1.024  1.00  0.00    -0.003 C 
ATOM     18  C   UNL     1      26.805  -3.133  -1.302  1.00  0.00     0.004 C 
ENDBRANCH  16  17
ENDBRANCH  15  16
ENDBRANCH  14  15
ENDBRANCH  13  14
ENDBRANCH  12  13
ENDBRANCH  11  12
ENDBRANCH   1  11
TORSDOF 14
ENDMDL
MODEL 6
REMARK VINA RESULT:    -3.850      3.953      6.932
REMARK INTER + INTRA:          -9.131
REMARK INTER:                  -7.283
REMARK INTRA:                  -1.849
REMARK UNBOUND:                -2.130
REMARK SMILES CCCCCCCCCCCCCCCC(=O)[O-]
REMARK SMILES IDX 9 1 10 2 11 3 12 4 13 5 14 6 15 7 16 8 17 9 18 10 8 11 7 12
REMARK SMILES IDX 6 13 5 14 4 15 3 16 2 17 1 18
REMARK H PARENT
REMARK Flexibility Score: inf
ROOT
ATOM      1  C   UNL     1      27.232  -4.167  -3.335  1.00  0.00     0.000 C 
ENDROOT
BRANCH   1   2
ATOM      2  C   UNL     1      27.123  -3.070  -2.255  1.00  0.00     0.000 C 
BRANCH   2   3
ATOM      3  C   UNL     1      27.865  -1.772  -2.616  1.00  0.00     0.000 C 
BRANCH   3   4
ATOM      4  C   UNL     1      28.943  -1.393  -1.588  1.00  0.00     0.000 C 
BRANCH   4   5
ATOM      5  C   UNL     1      29.809  -2.592  -1.169  1.00  0.00     0.000 C 
BRANCH   5   6
ATOM      6  C   UNL     1      29.885  -2.798   0.361  1.00  0.00     0.006 C 
BRANCH   6   7
ATOM      7  C   UNL     1      28.844  -1.973   1.134  1.00  0.00     0.053 C 
BRANCH   7   8
ATOM      8  C   UNL     1      28.294  -2.730   2.305  1.00  0.00     0.041 C 
ATOM      9  O   UNL     1      27.935  -3.931   2.171  1.00  0.00    -0.550 OA
ATOM     10  O   UNL     1      28.150  -2.102   3.535  1.00  0.00    -0.550 OA
ENDBRANCH   7   8
ENDBRANCH   6   7
ENDBRANCH   5   6
ENDBRANCH   4   5
ENDBRANCH   3   4
ENDBRANCH   2   3
ENDBRANCH   1   2
BRANCH   1  11
ATOM     11  C   UNL     1      27.924  -3.656  -4.611  1.00  0.00     0.000 C 
BRANCH  11  12
ATOM     12  C   UNL     1      29.292  -4.316  -4.846  1.00  0.00    -0.000 C 
BRANCH  12  13
ATOM     13  C   UNL     1      29.677  -5.289  -3.718  1.00  0.00    -0.000 C 
BRANCH  13  14
ATOM     14  C   UNL     1      30.081  -6.680  -4.256  1.00  0.00    -0.000 C 
BRANCH  14  15
ATOM     15  C   UNL     1      28.890  -7.640  -4.448  1.00  0.00    -0.000 C 
BRANCH  15  16
ATOM     16  C   UNL     1      28.818  -8.318  -5.829  1.00  0.00    -0.000 C 
BRANCH  16  17
ATOM     17  C   UNL     1      27.833  -7.666  -6.817  1.00  0.00    -0.003 C 
ATOM     18  C   UNL     1      26.713  -6.892  -6.121  1.00  0.00     0.004 C 
ENDBRANCH  16  17
ENDBRANCH  15  16
ENDBRANCH  14  15
ENDBRANCH  13  14
ENDBRANCH  12  13
ENDBRANCH  11  12
ENDBRANCH   1  11
TORSDOF 14
ENDMDL
MODEL 7
REMARK VINA RESULT:    -3.812      2.982      6.479
REMARK INTER + INTRA:          -9.062
REMARK INTER:                  -7.093
REMARK INTRA:                  -1.969
REMARK UNBOUND:                -2.130
REMARK SMILES CCCCCCCCCCCCCCCC(=O)[O-]
REMARK SMILES IDX 9 1 10 2 11 3 12 4 13 5 14 6 15 7 16 8 17 9 18 10 8 11 7 12
REMARK SMILES IDX 6 13 5 14 4 15 3 16 2 17 1 18
REMARK H PARENT
REMARK Flexibility Score: inf
ROOT
ATOM      1  C   UNL     1      29.835  -2.879  -5.377  1.00  0.00     0.000 C 
ENDROOT
BRANCH   1   2
ATOM      2  C   UNL     1      29.021  -2.191  -6.493  1.00  0.00     0.000 C 
BRANCH   2   3
ATOM      3  C   UNL     1      27.960  -1.208  -5.969  1.00  0.00     0.000 C 
BRANCH   3   4
ATOM      4  C   UNL     1      28.410  -0.463  -4.702  1.00  0.00     0.000 C 
BRANCH   4   5
ATOM      5  C   UNL     1      27.454  -0.677  -3.518  1.00  0.00     0.000 C 
BRANCH   5   6
ATOM      6  C   UNL     1      28.155  -0.640  -2.140  1.00  0.00     0.006 C 
BRANCH   6   7
ATOM      7  C   UNL     1      27.205  -0.949  -0.972  1.00  0.00     0.053 C 
BRANCH   7   8
ATOM      8  C   UNL     1      27.279  -2.390  -0.564  1.00  0.00     0.041 C 
ATOM      9  O   UNL     1      26.489  -3.232  -1.069  1.00  0.00    -0.550 OA
ATOM     10  O   UNL     1      28.198  -2.796   0.394  1.00  0.00    -0.550 OA
ENDBRANCH   7   8
ENDBRANCH   6   7
ENDBRANCH   5   6
ENDBRANCH   4   5
ENDBRANCH   3   4
ENDBRANCH   2   3
ENDBRANCH   1   2
BRANCH   1  11
ATOM     11  C   UNL     1      29.270  -4.265  -5.021  1.00  0.00     0.000 C 
BRANCH  11  12
ATOM     12  C   UNL     1      28.236  -4.208  -3.885  1.00  0.00    -0.000 C 
BRANCH  12  13
ATOM     13  C   UNL     1      26.798  -4.424  -4.388  1.00  0.00    -0.000 C 
BRANCH  13  14
ATOM     14  C   UNL     1      26.756  -5.097  -5.778  1.00  0.00    -0.000 C 
BRANCH  14  15
ATOM     15  C   UNL     1      26.653  -6.633  -5.720  1.00  0.00    -0.000 C 
BRANCH  15  16
ATOM     16  C   UNL     1      27.514  -7.383  -6.754  1.00  0.00    -0.000 C 
BRANCH  16  17
ATOM     17  C   UNL     1      28.649  -8.232  -6.155  1.00  0.00    -0.003 C 
ATOM     18  C   UNL     1      29.000  -7.835  -4.721  1.00  0.00     0.004 C 
ENDBRANCH  16  17
ENDBRANCH  15  16
ENDBRANCH  14  15
ENDBRANCH  13  14
ENDBRANCH  12  13
ENDBRANCH  11  12
ENDBRANCH   1  11
TORSDOF 14
ENDMDL
MODEL 8
REMARK VINA RESULT:    -3.808      1.452      2.398
REMARK INTER + INTRA:          -9.055
REMARK INTER:                  -7.330
REMARK INTRA:                  -1.725
REMARK UNBOUND:                -2.130
REMARK SMILES CCCCCCCCCCCCCCCC(=O)[O-]
REMARK SMILES IDX 9 1 10 2 11 3 12 4 13 5 14 6 15 7 16 8 17 9 18 10 8 11 7 12
REMARK SMILES IDX 6 13 5 14 4 15 3 16 2 17 1 18
REMARK H PARENT
REMARK Flexibility Score: inf
ROOT
ATOM      1  C   UNL     1      26.792  -4.010  -4.834  1.00  0.00     0.000 C 
ENDROOT
BRANCH   1   2
ATOM      2  C   UNL     1      28.070  -4.192  -5.680  1.00  0.00     0.000 C 
BRANCH   2   3
ATOM      3  C   UNL     1      29.371  -4.075  -4.868  1.00  0.00     0.000 C 
BRANCH   3   4
ATOM      4  C   UNL     1      29.998  -5.439  -4.543  1.00  0.00     0.000 C 
BRANCH   4   5
ATOM      5  C   UNL     1      29.221  -6.207  -3.463  1.00  0.00     0.000 C 
BRANCH   5   6
ATOM      6  C   UNL     1      28.481  -7.455  -3.998  1.00  0.00     0.006 C 
BRANCH   6   7
ATOM      7  C   UNL     1      29.055  -7.973  -5.326  1.00  0.00     0.053 C 
BRANCH   7   8
ATOM      8  C   UNL     1      28.065  -7.845  -6.445  1.00  0.00     0.041 C 
ATOM      9  O   UNL     1      28.406  -8.118  -7.627  1.00  0.00    -0.550 OA
ATOM     10  O   UNL     1      26.777  -7.395  -6.187  1.00  0.00    -0.550 OA
ENDBRANCH   7   8
ENDBRANCH   6   7
ENDBRANCH   5   6
ENDBRANCH   4   5
ENDBRANCH   3   4
ENDBRANCH   2   3
ENDBRANCH   1   2
BRANCH   1  11
ATOM     11  C   UNL     1      26.940  -2.881  -3.799  1.00  0.00     0.000 C 
BRANCH  11  12
ATOM     12  C   UNL     1      26.925  -3.400  -2.352  1.00  0.00    -0.000 C 
BRANCH  12  13
ATOM     13  C   UNL     1      27.961  -2.690  -1.462  1.00  0.00    -0.000 C 
BRANCH  13  14
ATOM     14  C   UNL     1      28.444  -1.357  -2.073  1.00  0.00    -0.000 C 
BRANCH  14  15
ATOM     15  C   UNL     1      28.119  -0.124  -1.207  1.00  0.00    -0.000 C 
BRANCH  15  16
ATOM     16  C   UNL     1      27.110  -0.376  -0.071  1.00  0.00    -0.000 C 
BRANCH  16  17
ATOM     17  C   UNL     1      27.656  -0.122   1.346  1.00  0.00    -0.003 C 
ATOM     18  C   UNL     1      28.188  -1.388   2.017  1.00  0.00     0.004 C 
ENDBRANCH  16  17
ENDBRANCH  15  16
ENDBRANCH  14  15
ENDBRANCH  13  14
ENDBRANCH  12  13
ENDBRANCH  11  12
ENDBRANCH   1  11
TORSDOF 14
ENDMDL
MODEL 9
REMARK VINA RESULT:    -3.794      1.804      3.457
REMARK INTER + INTRA:          -9.030
REMARK INTER:                  -7.132
REMARK INTRA:                  -1.898
REMARK UNBOUND:                -2.130
REMARK SMILES CCCCCCCCCCCCCCCC(=O)[O-]
REMARK SMILES IDX 9 1 10 2 11 3 12 4 13 5 14 6 15 7 16 8 17 9 18 10 8 11 7 12
REMARK SMILES IDX 6 13 5 14 4 15 3 16 2 17 1 18
REMARK H PARENT
REMARK Flexibility Score: inf
ROOT
ATOM      1  C   UNL     1      26.998  -3.379  -4.359  1.00  0.00     0.000 C 
ENDROOT
BRANCH   1   2
ATOM      2  C   UNL     1      28.066  -4.095  -5.213  1.00  0.00     0.000 C 
BRANCH   2   3
ATOM      3  C   UNL     1      29.445  -4.177  -4.536  1.00  0.00     0.000 C 
BRANCH   3   4
ATOM      4  C   UNL     1      30.032  -5.597  -4.545  1.00  0.00     0.000 C 
BRANCH   4   5
ATOM      5  C   UNL     1      29.427  -6.495  -3.455  1.00  0.00     0.000 C 
BRANCH   5   6
ATOM      6  C   UNL     1      28.517  -7.616  -4.008  1.00  0.00     0.006 C 
BRANCH   6   7
ATOM      7  C   UNL     1      29.005  -8.181  -5.351  1.00  0.00     0.053 C 
BRANCH   7   8
ATOM      8  C   UNL     1      28.061  -7.848  -6.468  1.00  0.00     0.041 C 
ATOM      9  O   UNL     1      26.925  -7.365  -6.215  1.00  0.00    -0.550 OA
ATOM     10  O   UNL     1      28.425  -8.099  -7.784  1.00  0.00    -0.550 OA
ENDBRANCH   7   8
ENDBRANCH   6   7
ENDBRANCH   5   6
ENDBRANCH   4   5
ENDBRANCH   3   4
ENDBRANCH   2   3
ENDBRANCH   1   2
BRANCH   1  11
ATOM     11  C   UNL     1      27.314  -3.455  -2.855  1.00  0.00     0.000 C 
BRANCH  11  12
ATOM     12  C   UNL     1      27.315  -2.073  -2.181  1.00  0.00    -0.000 C 
BRANCH  12  13
ATOM     13  C   UNL     1      28.159  -1.043  -2.952  1.00  0.00    -0.000 C 
BRANCH  13  14
ATOM     14  C   UNL     1      27.314   0.144  -3.464  1.00  0.00    -0.000 C 
BRANCH  14  15
ATOM     15  C   UNL     1      27.703   0.618  -4.878  1.00  0.00    -0.000 C 
BRANCH  15  16
ATOM     16  C   UNL     1      28.647  -0.328  -5.644  1.00  0.00    -0.000 C 
BRANCH  16  17
ATOM     17  C   UNL     1      28.126  -0.787  -7.018  1.00  0.00    -0.003 C 
ATOM     18  C   UNL     1      29.245  -1.027  -8.032  1.00  0.00     0.004 C 
ENDBRANCH  16  17
ENDBRANCH  15  16
ENDBRANCH  14  15
ENDBRANCH  13  14
ENDBRANCH  12  13
ENDBRANCH  11  12
ENDBRANCH   1  11
TORSDOF 14
ENDMDL
