MODEL 1
REMARK VINA RESULT:    -5.456      0.000      0.000
REMARK INTER + INTRA:          -5.868
REMARK INTER:                  -5.775
REMARK INTRA:                  -0.093
REMARK UNBOUND:                -0.093
REMARK SMILES C=C(C)[C@H]1CC=C(C)C(=O)C1
REMARK SMILES IDX 8 1 7 2 6 3 5 4 4 5 11 6 9 7 10 8 2 9 1 10 3 11
REMARK H PARENT
REMARK Flexibility Score: inf
ROOT
ATOM      1  C   UNL     1      15.360 -33.886  21.603  1.00  0.00     0.048 C 
ATOM      2  C   UNL     1      14.472 -32.781  22.103  1.00  0.00    -0.012 C 
ATOM      3  C   UNL     1      14.571 -32.369  23.378  1.00  0.00    -0.019 C 
ATOM      4  C   UNL     1      13.694 -31.279  23.935  1.00  0.00     0.036 C 
ATOM      5  C   UNL     1      13.345 -30.239  22.852  1.00  0.00     0.025 C 
ATOM      6  C   UNL     1      12.710 -30.933  21.632  1.00  0.00     0.089 C 
ATOM      7  C   UNL     1      13.577 -32.067  21.158  1.00  0.00     0.158 C 
ATOM      8  O   UNL     1      13.509 -32.429  19.952  1.00  0.00    -0.295 OA
ENDROOT
BRANCH   5   9
ATOM      9  C   UNL     1      12.449 -29.136  23.399  1.00  0.00    -0.077 C 
ATOM     10  C   UNL     1      12.848 -28.349  24.414  1.00  0.00     0.008 C 
ATOM     11  C   UNL     1      11.085 -28.905  22.803  1.00  0.00     0.039 C 
ENDBRANCH   5   9
TORSDOF 1
ENDMDL
MODEL 2
REMARK VINA RESULT:    -5.250      1.424      4.249
REMARK INTER + INTRA:          -5.650
REMARK INTER:                  -5.552
REMARK INTRA:                  -0.097
REMARK UNBOUND:                -0.093
REMARK SMILES C=C(C)[C@H]1CC=C(C)C(=O)C1
REMARK SMILES IDX 8 1 7 2 6 3 5 4 4 5 11 6 9 7 10 8 2 9 1 10 3 11
REMARK H PARENT
REMARK Flexibility Score: inf
ROOT
ATOM      1  C   UNL     1      10.875 -28.371  23.125  1.00  0.00     0.048 C 
ATOM      2  C   UNL     1      12.050 -29.307  23.036  1.00  0.00    -0.012 C 
ATOM      3  C   UNL     1      13.086 -29.160  23.877  1.00  0.00    -0.019 C 
ATOM      4  C   UNL     1      14.295 -30.056  23.820  1.00  0.00     0.036 C 
ATOM      5  C   UNL     1      13.909 -31.480  23.372  1.00  0.00     0.025 C 
ATOM      6  C   UNL     1      13.155 -31.430  22.030  1.00  0.00     0.089 C 
ATOM      7  C   UNL     1      12.005 -30.462  22.104  1.00  0.00     0.158 C 
ATOM      8  O   UNL     1      11.017 -30.622  21.339  1.00  0.00    -0.295 OA
ENDROOT
BRANCH   5   9
ATOM      9  C   UNL     1      15.123 -32.395  23.299  1.00  0.00    -0.077 C 
ATOM     10  C   UNL     1      15.048 -33.616  22.741  1.00  0.00     0.008 C 
ATOM     11  C   UNL     1      16.447 -31.940  23.857  1.00  0.00     0.039 C 
ENDBRANCH   5   9
TORSDOF 1
ENDMDL
MODEL 3
REMARK VINA RESULT:    -5.244      1.502      2.363
REMARK INTER + INTRA:          -5.643
REMARK INTER:                  -5.551
REMARK INTRA:                  -0.092
REMARK UNBOUND:                -0.093
REMARK SMILES C=C(C)[C@H]1CC=C(C)C(=O)C1
REMARK SMILES IDX 8 1 7 2 6 3 5 4 4 5 11 6 9 7 10 8 2 9 1 10 3 11
REMARK H PARENT
REMARK Flexibility Score: inf
ROOT
ATOM      1  C   UNL     1      15.313 -34.250  21.639  1.00  0.00     0.048 C 
ATOM      2  C   UNL     1      14.626 -32.950  21.959  1.00  0.00    -0.012 C 
ATOM      3  C   UNL     1      13.907 -32.324  21.013  1.00  0.00    -0.019 C 
ATOM      4  C   UNL     1      13.214 -31.013  21.275  1.00  0.00     0.036 C 
ATOM      5  C   UNL     1      12.743 -30.916  22.739  1.00  0.00     0.025 C 
ATOM      6  C   UNL     1      13.927 -31.151  23.696  1.00  0.00     0.089 C 
ATOM      7  C   UNL     1      14.642 -32.429  23.349  1.00  0.00     0.158 C 
ATOM      8  O   UNL     1      15.287 -33.035  24.246  1.00  0.00    -0.295 OA
ENDROOT
BRANCH   5   9
ATOM      9  C   UNL     1      12.050 -29.590  23.020  1.00  0.00    -0.077 C 
ATOM     10  C   UNL     1      10.900 -29.257  22.408  1.00  0.00     0.008 C 
ATOM     11  C   UNL     1      12.649 -28.617  24.004  1.00  0.00     0.039 C 
ENDBRANCH   5   9
TORSDOF 1
ENDMDL
MODEL 4
REMARK VINA RESULT:    -5.169      1.261      1.862
REMARK INTER + INTRA:          -5.563
REMARK INTER:                  -5.468
REMARK INTRA:                  -0.096
REMARK UNBOUND:                -0.093
REMARK SMILES C=C(C)[C@H]1CC=C(C)C(=O)C1
REMARK SMILES IDX 8 1 7 2 6 3 5 4 4 5 11 6 9 7 10 8 2 9 1 10 3 11
REMARK H PARENT
REMARK Flexibility Score: inf
ROOT
ATOM      1  C   UNL     1      16.596 -34.650  22.954  1.00  0.00     0.048 C 
ATOM      2  C   UNL     1      15.462 -33.662  22.924  1.00  0.00    -0.012 C 
ATOM      3  C   UNL     1      14.995 -33.145  24.072  1.00  0.00    -0.019 C 
ATOM      4  C   UNL     1      13.852 -32.166  24.100  1.00  0.00     0.036 C 
ATOM      5  C   UNL     1      13.851 -31.277  22.841  1.00  0.00     0.025 C 
ATOM      6  C   UNL     1      13.841 -32.149  21.572  1.00  0.00     0.089 C 
ATOM      7  C   UNL     1      14.948 -33.168  21.622  1.00  0.00     0.158 C 
ATOM      8  O   UNL     1      15.410 -33.625  20.542  1.00  0.00    -0.295 OA
ENDROOT
BRANCH   5   9
ATOM      9  C   UNL     1      12.693 -30.288  22.852  1.00  0.00    -0.077 C 
ATOM     10  C   UNL     1      11.659 -30.412  22.000  1.00  0.00     0.008 C 
ATOM     11  C   UNL     1      12.687 -29.142  23.830  1.00  0.00     0.039 C 
ENDBRANCH   5   9
TORSDOF 1
ENDMDL
MODEL 5
REMARK VINA RESULT:    -5.072      1.430      4.433
REMARK INTER + INTRA:          -5.461
REMARK INTER:                  -5.364
REMARK INTRA:                  -0.096
REMARK UNBOUND:                -0.093
REMARK SMILES C=C(C)[C@H]1CC=C(C)C(=O)C1
REMARK SMILES IDX 8 1 7 2 6 3 5 4 4 5 11 6 9 7 10 8 2 9 1 10 3 11
REMARK H PARENT
REMARK Flexibility Score: inf
ROOT
ATOM      1  C   UNL     1      12.556 -28.820  24.016  1.00  0.00     0.048 C 
ATOM      2  C   UNL     1      13.237 -29.899  23.219  1.00  0.00    -0.012 C 
ATOM      3  C   UNL     1      14.468 -30.309  23.565  1.00  0.00    -0.019 C 
ATOM      4  C   UNL     1      15.202 -31.372  22.792  1.00  0.00     0.036 C 
ATOM      5  C   UNL     1      14.222 -32.406  22.203  1.00  0.00     0.025 C 
ATOM      6  C   UNL     1      13.151 -31.700  21.352  1.00  0.00     0.089 C 
ATOM      7  C   UNL     1      12.499 -30.592  22.133  1.00  0.00     0.158 C 
ATOM      8  O   UNL     1      11.330 -30.232  21.831  1.00  0.00    -0.295 OA
ENDROOT
BRANCH   5   9
ATOM      9  C   UNL     1      14.951 -33.482  21.410  1.00  0.00    -0.077 C 
ATOM     10  C   UNL     1      14.704 -33.676  20.102  1.00  0.00     0.008 C 
ATOM     11  C   UNL     1      15.974 -34.358  22.086  1.00  0.00     0.039 C 
ENDBRANCH   5   9
TORSDOF 1
ENDMDL
MODEL 6
REMARK VINA RESULT:    -4.923      2.528      4.302
REMARK INTER + INTRA:          -5.304
REMARK INTER:                  -5.208
REMARK INTRA:                  -0.096
REMARK UNBOUND:                -0.093
REMARK SMILES C=C(C)[C@H]1CC=C(C)C(=O)C1
REMARK SMILES IDX 8 1 7 2 6 3 5 4 4 5 11 6 9 7 10 8 2 9 1 10 3 11
REMARK H PARENT
REMARK Flexibility Score: inf
ROOT
ATOM      1  C   UNL     1      10.881 -30.279  21.739  1.00  0.00     0.048 C 
ATOM      2  C   UNL     1      12.335 -30.548  22.011  1.00  0.00    -0.012 C 
ATOM      3  C   UNL     1      13.040 -31.322  21.169  1.00  0.00    -0.019 C 
ATOM      4  C   UNL     1      14.494 -31.638  21.403  1.00  0.00     0.036 C 
ATOM      5  C   UNL     1      15.212 -30.464  22.097  1.00  0.00     0.025 C 
ATOM      6  C   UNL     1      14.481 -30.085  23.398  1.00  0.00     0.089 C 
ATOM      7  C   UNL     1      13.016 -29.859  23.135  1.00  0.00     0.158 C 
ATOM      8  O   UNL     1      12.364 -29.103  23.904  1.00  0.00    -0.295 OA
ENDROOT
BRANCH   5   9
ATOM      9  C   UNL     1      16.682 -30.774  22.349  1.00  0.00    -0.077 C 
ATOM     10  C   UNL     1      17.154 -30.961  23.594  1.00  0.00     0.008 C 
ATOM     11  C   UNL     1      17.641 -30.877  21.192  1.00  0.00     0.039 C 
ENDBRANCH   5   9
TORSDOF 1
ENDMDL
MODEL 7
REMARK VINA RESULT:    -4.902      2.106      2.839
REMARK INTER + INTRA:          -5.281
REMARK INTER:                  -5.188
REMARK INTRA:                  -0.092
REMARK UNBOUND:                -0.093
REMARK SMILES C=C(C)[C@H]1CC=C(C)C(=O)C1
REMARK SMILES IDX 8 1 7 2 6 3 5 4 4 5 11 6 9 7 10 8 2 9 1 10 3 11
REMARK H PARENT
REMARK Flexibility Score: inf
ROOT
ATOM      1  C   UNL     1      17.451 -31.555  23.759  1.00  0.00     0.048 C 
ATOM      2  C   UNL     1      16.037 -31.063  23.611  1.00  0.00    -0.012 C 
ATOM      3  C   UNL     1      15.806 -29.826  23.143  1.00  0.00    -0.019 C 
ATOM      4  C   UNL     1      14.412 -29.277  22.991  1.00  0.00     0.036 C 
ATOM      5  C   UNL     1      13.411 -30.395  22.638  1.00  0.00     0.025 C 
ATOM      6  C   UNL     1      13.483 -31.525  23.682  1.00  0.00     0.089 C 
ATOM      7  C   UNL     1      14.903 -31.988  23.863  1.00  0.00     0.158 C 
ATOM      8  O   UNL     1      15.120 -33.161  24.268  1.00  0.00    -0.295 OA
ENDROOT
BRANCH   5   9
ATOM      9  C   UNL     1      11.994 -29.856  22.492  1.00  0.00    -0.077 C 
ATOM     10  C   UNL     1      11.100 -30.448  21.681  1.00  0.00     0.008 C 
ATOM     11  C   UNL     1      11.567 -28.635  23.266  1.00  0.00     0.039 C 
ENDBRANCH   5   9
TORSDOF 1
ENDMDL
MODEL 8
REMARK VINA RESULT:    -4.851      9.197      9.801
REMARK INTER + INTRA:          -5.227
REMARK INTER:                  -5.133
REMARK INTRA:                  -0.094
REMARK UNBOUND:                -0.093
REMARK SMILES C=C(C)[C@H]1CC=C(C)C(=O)C1
REMARK SMILES IDX 8 1 7 2 6 3 5 4 4 5 11 6 9 7 10 8 2 9 1 10 3 11
REMARK H PARENT
REMARK Flexibility Score: inf
ROOT
ATOM      1  C   UNL     1      23.526 -24.777  19.393  1.00  0.00     0.048 C 
ATOM      2  C   UNL     1      22.560 -25.671  20.119  1.00  0.00    -0.012 C 
ATOM      3  C   UNL     1      21.245 -25.398  20.089  1.00  0.00    -0.019 C 
ATOM      4  C   UNL     1      20.236 -26.250  20.813  1.00  0.00     0.036 C 
ATOM      5  C   UNL     1      20.679 -27.726  20.849  1.00  0.00     0.025 C 
ATOM      6  C   UNL     1      22.088 -27.845  21.459  1.00  0.00     0.089 C 
ATOM      7  C   UNL     1      23.047 -26.918  20.762  1.00  0.00     0.158 C 
ATOM      8  O   UNL     1      24.276 -27.194  20.759  1.00  0.00    -0.295 OA
ENDROOT
BRANCH   5   9
ATOM      9  C   UNL     1      19.672 -28.597  21.588  1.00  0.00    -0.077 C 
ATOM     10  C   UNL     1      18.372 -28.610  21.245  1.00  0.00     0.008 C 
ATOM     11  C   UNL     1      20.124 -29.471  22.730  1.00  0.00     0.039 C 
ENDBRANCH   5   9
TORSDOF 1
ENDMDL
MODEL 9
REMARK VINA RESULT:    -4.826      1.967      4.454
REMARK INTER + INTRA:          -5.200
REMARK INTER:                  -5.106
REMARK INTRA:                  -0.094
REMARK UNBOUND:                -0.093
REMARK SMILES C=C(C)[C@H]1CC=C(C)C(=O)C1
REMARK SMILES IDX 8 1 7 2 6 3 5 4 4 5 11 6 9 7 10 8 2 9 1 10 3 11
REMARK H PARENT
REMARK Flexibility Score: inf
ROOT
ATOM      1  C   UNL     1      13.417 -28.031  23.934  1.00  0.00     0.048 C 
ATOM      2  C   UNL     1      13.909 -29.363  23.440  1.00  0.00    -0.012 C 
ATOM      3  C   UNL     1      13.371 -30.495  23.923  1.00  0.00    -0.019 C 
ATOM      4  C   UNL     1      13.838 -31.855  23.477  1.00  0.00     0.036 C 
ATOM      5  C   UNL     1      14.296 -31.829  22.005  1.00  0.00     0.025 C 
ATOM      6  C   UNL     1      15.371 -30.746  21.800  1.00  0.00     0.089 C 
ATOM      7  C   UNL     1      14.897 -29.422  22.334  1.00  0.00     0.158 C 
ATOM      8  O   UNL     1      15.376 -28.359  21.854  1.00  0.00    -0.295 OA
ENDROOT
BRANCH   5   9
ATOM      9  C   UNL     1      14.781 -33.196  21.543  1.00  0.00    -0.077 C 
ATOM     10  C   UNL     1      15.411 -34.037  22.383  1.00  0.00     0.008 C 
ATOM     11  C   UNL     1      14.559 -33.635  20.118  1.00  0.00     0.039 C 
ENDBRANCH   5   9
TORSDOF 1
ENDMDL
