MODEL 1
REMARK VINA RESULT:    -4.294      0.000      0.000
REMARK INTER + INTRA:         -16.164
REMARK INTER:                 -11.321
REMARK INTRA:                  -4.843
REMARK UNBOUND:                -4.843
REMARK SMILES CCCCCCCCCCCCCCCCCCCCCCCCCCCCCC(=O)[O-]
REMARK SMILES IDX 16 1 17 2 18 3 19 4 20 5 21 6 22 7 23 8 24 9 25 10 26 11
REMARK SMILES IDX 27 12 28 13 29 14 30 15 31 16 32 17 15 18 14 19 13 20 12 21
REMARK SMILES IDX 11 22 10 23 9 24 8 25 7 26 6 27 5 28 4 29 3 30 2 31 1 32
REMARK H PARENT
REMARK Flexibility Score: inf
ROOT
ATOM      1  C   UNL     1      -9.388 -14.370  17.724  1.00  0.00     0.000 C 
ENDROOT
BRANCH   1   2
ATOM      2  C   UNL     1      -8.094 -14.136  16.929  1.00  0.00     0.000 C 
BRANCH   2   3
ATOM      3  C   UNL     1      -6.918 -13.693  17.818  1.00  0.00     0.000 C 
BRANCH   3   4
ATOM      4  C   UNL     1      -6.553 -12.210  17.597  1.00  0.00     0.000 C 
BRANCH   4   5
ATOM      5  C   UNL     1      -5.899 -11.542  18.819  1.00  0.00     0.000 C 
BRANCH   5   6
ATOM      6  C   UNL     1      -6.563 -10.208  19.196  1.00  0.00     0.000 C 
BRANCH   6   7
ATOM      7  C   UNL     1      -8.064 -10.344  19.512  1.00  0.00     0.000 C 
BRANCH   7   8
ATOM      8  C   UNL     1      -8.828  -9.020  19.706  1.00  0.00     0.000 C 
BRANCH   8   9
ATOM      9  C   UNL     1      -7.902  -7.797  19.828  1.00  0.00     0.000 C 
BRANCH   9  10
ATOM     10  C   UNL     1      -8.380  -6.599  18.986  1.00  0.00     0.000 C 
BRANCH  10  11
ATOM     11  C   UNL     1      -8.916  -5.400  19.793  1.00  0.00     0.000 C 
BRANCH  11  12
ATOM     12  C   UNL     1      -8.289  -5.216  21.189  1.00  0.00     0.000 C 
BRANCH  12  13
ATOM     13  C   UNL     1      -9.280  -5.307  22.367  1.00  0.00     0.006 C 
BRANCH  13  14
ATOM     14  C   UNL     1      -8.715  -5.990  23.621  1.00  0.00     0.053 C 
BRANCH  14  15
ATOM     15  C   UNL     1      -8.691  -7.481  23.483  1.00  0.00     0.041 C 
ATOM     16  O   UNL     1      -7.656  -8.130  23.785  1.00  0.00    -0.550 OA
ATOM     17  O   UNL     1      -9.807  -8.152  22.998  1.00  0.00    -0.550 OA
ENDBRANCH  14  15
ENDBRANCH  13  14
ENDBRANCH  12  13
ENDBRANCH  11  12
ENDBRANCH  10  11
ENDBRANCH   9  10
ENDBRANCH   8   9
ENDBRANCH   7   8
ENDBRANCH   6   7
ENDBRANCH   5   6
ENDBRANCH   4   5
ENDBRANCH   3   4
ENDBRANCH   2   3
ENDBRANCH   1   2
BRANCH   1  18
ATOM     18  C   UNL     1     -10.123 -13.058  18.054  1.00  0.00     0.000 C 
BRANCH  18  19
ATOM     19  C   UNL     1     -11.601 -13.082  17.631  1.00  0.00     0.000 C 
BRANCH  19  20
ATOM     20  C   UNL     1     -11.900 -14.170  16.582  1.00  0.00     0.000 C 
BRANCH  20  21
ATOM     21  C   UNL     1     -12.204 -13.584  15.190  1.00  0.00     0.000 C 
BRANCH  21  22
ATOM     22  C   UNL     1     -11.205 -13.997  14.092  1.00  0.00     0.000 C 
BRANCH  22  23
ATOM     23  C   UNL     1      -9.991 -13.053  14.006  1.00  0.00     0.000 C 
BRANCH  23  24
ATOM     24  C   UNL     1     -10.249 -11.683  14.658  1.00  0.00    -0.000 C 
BRANCH  24  25
ATOM     25  C   UNL     1      -9.013 -11.011  15.287  1.00  0.00    -0.000 C 
BRANCH  25  26
ATOM     26  C   UNL     1      -9.367  -9.755  16.101  1.00  0.00    -0.000 C 
BRANCH  26  27
ATOM     27  C   UNL     1      -8.238  -8.706  16.117  1.00  0.00    -0.000 C 
BRANCH  27  28
ATOM     28  C   UNL     1      -6.918  -9.145  15.456  1.00  0.00    -0.000 C 
BRANCH  28  29
ATOM     29  C   UNL     1      -6.139  -7.976  14.830  1.00  0.00    -0.000 C 
BRANCH  29  30
ATOM     30  C   UNL     1      -6.913  -7.299  13.686  1.00  0.00    -0.000 C 
BRANCH  30  31
ATOM     31  C   UNL     1      -7.283  -5.844  14.004  1.00  0.00    -0.003 C 
ATOM     32  C   UNL     1      -6.124  -5.117  14.681  1.00  0.00     0.004 C 
ENDBRANCH  30  31
ENDBRANCH  29  30
ENDBRANCH  28  29
ENDBRANCH  27  28
ENDBRANCH  26  27
ENDBRANCH  25  26
ENDBRANCH  24  25
ENDBRANCH  23  24
ENDBRANCH  22  23
ENDBRANCH  21  22
ENDBRANCH  20  21
ENDBRANCH  19  20
ENDBRANCH  18  19
ENDBRANCH   1  18
TORSDOF 28
ENDMDL
MODEL 2
REMARK VINA RESULT:    -4.138      1.668      5.179
REMARK INTER + INTRA:         -15.755
REMARK INTER:                  -9.817
REMARK INTRA:                  -5.938
REMARK UNBOUND:                -4.843
REMARK SMILES CCCCCCCCCCCCCCCCCCCCCCCCCCCCCC(=O)[O-]
REMARK SMILES IDX 16 1 17 2 18 3 19 4 20 5 21 6 22 7 23 8 24 9 25 10 26 11
REMARK SMILES IDX 27 12 28 13 29 14 30 15 31 16 32 17 15 18 14 19 13 20 12 21
REMARK SMILES IDX 11 22 10 23 9 24 8 25 7 26 6 27 5 28 4 29 3 30 2 31 1 32
REMARK H PARENT
REMARK Flexibility Score: inf
ROOT
ATOM      1  C   UNL     1      -9.543  -8.962  18.654  1.00  0.00     0.000 C 
ENDROOT
BRANCH   1   2
ATOM      2  C   UNL     1      -9.392  -7.436  18.544  1.00  0.00     0.000 C 
BRANCH   2   3
ATOM      3  C   UNL     1      -8.152  -6.904  19.285  1.00  0.00     0.000 C 
BRANCH   3   4
ATOM      4  C   UNL     1      -7.309  -5.961  18.401  1.00  0.00     0.000 C 
BRANCH   4   5
ATOM      5  C   UNL     1      -6.135  -6.657  17.692  1.00  0.00     0.000 C 
BRANCH   5   6
ATOM      6  C   UNL     1      -5.313  -7.550  18.636  1.00  0.00     0.000 C 
BRANCH   6   7
ATOM      7  C   UNL     1      -5.217  -9.011  18.160  1.00  0.00     0.000 C 
BRANCH   7   8
ATOM      8  C   UNL     1      -6.047 -10.030  18.963  1.00  0.00     0.000 C 
BRANCH   8   9
ATOM      9  C   UNL     1      -5.845  -9.914  20.484  1.00  0.00     0.000 C 
BRANCH   9  10
ATOM     10  C   UNL     1      -7.170  -9.966  21.269  1.00  0.00     0.000 C 
BRANCH  10  11
ATOM     11  C   UNL     1      -7.184  -9.170  22.589  1.00  0.00     0.000 C 
BRANCH  11  12
ATOM     12  C   UNL     1      -6.641  -7.730  22.493  1.00  0.00     0.000 C 
BRANCH  12  13
ATOM     13  C   UNL     1      -7.667  -6.623  22.813  1.00  0.00     0.006 C 
BRANCH  13  14
ATOM     14  C   UNL     1      -9.131  -7.081  22.760  1.00  0.00     0.053 C 
BRANCH  14  15
ATOM     15  C   UNL     1      -9.972  -6.390  23.788  1.00  0.00     0.041 C 
ATOM     16  O   UNL     1     -10.032  -6.836  24.964  1.00  0.00    -0.550 OA
ATOM     17  O   UNL     1     -10.709  -5.264  23.441  1.00  0.00    -0.550 OA
ENDBRANCH  14  15
ENDBRANCH  13  14
ENDBRANCH  12  13
ENDBRANCH  11  12
ENDBRANCH  10  11
ENDBRANCH   9  10
ENDBRANCH   8   9
ENDBRANCH   7   8
ENDBRANCH   6   7
ENDBRANCH   5   6
ENDBRANCH   4   5
ENDBRANCH   3   4
ENDBRANCH   2   3
ENDBRANCH   1   2
BRANCH   1  18
ATOM     18  C   UNL     1      -9.384  -9.669  17.295  1.00  0.00     0.000 C 
BRANCH  18  19
ATOM     19  C   UNL     1      -8.823  -8.742  16.205  1.00  0.00     0.000 C 
BRANCH  19  20
ATOM     20  C   UNL     1      -7.676  -9.390  15.407  1.00  0.00     0.000 C 
BRANCH  20  21
ATOM     21  C   UNL     1      -7.665 -10.927  15.529  1.00  0.00     0.000 C 
BRANCH  21  22
ATOM     22  C   UNL     1      -6.258 -11.552  15.585  1.00  0.00     0.000 C 
BRANCH  22  23
ATOM     23  C   UNL     1      -6.211 -12.836  16.434  1.00  0.00     0.000 C 
BRANCH  23  24
ATOM     24  C   UNL     1      -7.267 -12.854  17.554  1.00  0.00    -0.000 C 
BRANCH  24  25
ATOM     25  C   UNL     1      -7.854 -14.241  17.880  1.00  0.00    -0.000 C 
BRANCH  25  26
ATOM     26  C   UNL     1      -9.357 -14.341  17.568  1.00  0.00    -0.000 C 
BRANCH  26  27
ATOM     27  C   UNL     1     -10.105 -13.007  17.754  1.00  0.00    -0.000 C 
BRANCH  27  28
ATOM     28  C   UNL     1     -11.561 -12.989  17.252  1.00  0.00    -0.000 C 
BRANCH  28  29
ATOM     29  C   UNL     1     -11.699 -13.434  15.786  1.00  0.00    -0.000 C 
BRANCH  29  30
ATOM     30  C   UNL     1     -10.867 -12.565  14.828  1.00  0.00    -0.000 C 
BRANCH  30  31
ATOM     31  C   UNL     1     -10.259 -13.375  13.674  1.00  0.00    -0.003 C 
ATOM     32  C   UNL     1      -8.817 -13.772  13.982  1.00  0.00     0.004 C 
ENDBRANCH  30  31
ENDBRANCH  29  30
ENDBRANCH  28  29
ENDBRANCH  27  28
ENDBRANCH  26  27
ENDBRANCH  25  26
ENDBRANCH  24  25
ENDBRANCH  23  24
ENDBRANCH  22  23
ENDBRANCH  21  22
ENDBRANCH  20  21
ENDBRANCH  19  20
ENDBRANCH  18  19
ENDBRANCH   1  18
TORSDOF 28
ENDMDL
MODEL 3
REMARK VINA RESULT:    -4.106      5.154      8.773
REMARK INTER + INTRA:         -15.670
REMARK INTER:                 -11.930
REMARK INTRA:                  -3.740
REMARK UNBOUND:                -4.843
REMARK SMILES CCCCCCCCCCCCCCCCCCCCCCCCCCCCCC(=O)[O-]
REMARK SMILES IDX 16 1 17 2 18 3 19 4 20 5 21 6 22 7 23 8 24 9 25 10 26 11
REMARK SMILES IDX 27 12 28 13 29 14 30 15 31 16 32 17 15 18 14 19 13 20 12 21
REMARK SMILES IDX 11 22 10 23 9 24 8 25 7 26 6 27 5 28 4 29 3 30 2 31 1 32
REMARK H PARENT
REMARK Flexibility Score: inf
ROOT
ATOM      1  C   UNL     1     -11.221 -13.885  14.157  1.00  0.00     0.000 C 
ENDROOT
BRANCH   1   2
ATOM      2  C   UNL     1     -11.980 -13.238  15.326  1.00  0.00     0.000 C 
BRANCH   2   3
ATOM      3  C   UNL     1     -11.705 -13.931  16.673  1.00  0.00     0.000 C 
BRANCH   3   4
ATOM      4  C   UNL     1     -10.499 -14.890  16.594  1.00  0.00     0.000 C 
BRANCH   4   5
ATOM      5  C   UNL     1      -9.389 -14.576  17.611  1.00  0.00     0.000 C 
BRANCH   5   6
ATOM      6  C   UNL     1      -8.094 -14.079  16.948  1.00  0.00     0.000 C 
BRANCH   6   7
ATOM      7  C   UNL     1      -8.027 -12.545  16.823  1.00  0.00     0.000 C 
BRANCH   7   8
ATOM      8  C   UNL     1      -8.770 -11.754  17.917  1.00  0.00     0.000 C 
BRANCH   8   9
ATOM      9  C   UNL     1      -9.745 -10.706  17.351  1.00  0.00     0.000 C 
BRANCH   9  10
ATOM     10  C   UNL     1      -9.547 -10.459  15.843  1.00  0.00     0.000 C 
BRANCH  10  11
ATOM     11  C   UNL     1      -8.470  -9.417  15.482  1.00  0.00     0.000 C 
BRANCH  11  12
ATOM     12  C   UNL     1      -8.462  -8.151  16.362  1.00  0.00     0.000 C 
BRANCH  12  13
ATOM     13  C   UNL     1      -7.355  -7.130  16.027  1.00  0.00     0.006 C 
BRANCH  13  14
ATOM     14  C   UNL     1      -6.430  -7.552  14.876  1.00  0.00     0.053 C 
BRANCH  14  15
ATOM     15  C   UNL     1      -6.708  -6.781  13.623  1.00  0.00     0.041 C 
ATOM     16  O   UNL     1      -5.839  -6.710  12.715  1.00  0.00    -0.550 OA
ATOM     17  O   UNL     1      -7.921  -6.121  13.468  1.00  0.00    -0.550 OA
ENDBRANCH  14  15
ENDBRANCH  13  14
ENDBRANCH  12  13
ENDBRANCH  11  12
ENDBRANCH  10  11
ENDBRANCH   9  10
ENDBRANCH   8   9
ENDBRANCH   7   8
ENDBRANCH   6   7
ENDBRANCH   5   6
ENDBRANCH   4   5
ENDBRANCH   3   4
ENDBRANCH   2   3
ENDBRANCH   1   2
BRANCH   1  18
ATOM     18  C   UNL     1     -10.009 -13.049  13.706  1.00  0.00     0.000 C 
BRANCH  18  19
ATOM     19  C   UNL     1      -8.929 -13.895  13.011  1.00  0.00     0.000 C 
BRANCH  19  20
ATOM     20  C   UNL     1      -9.217 -14.109  11.513  1.00  0.00     0.000 C 
BRANCH  20  21
ATOM     21  C   UNL     1      -8.091 -14.882  10.798  1.00  0.00     0.000 C 
BRANCH  21  22
ATOM     22  C   UNL     1      -8.571 -16.098   9.982  1.00  0.00     0.000 C 
BRANCH  22  23
ATOM     23  C   UNL     1     -10.107 -16.206   9.924  1.00  0.00     0.000 C 
BRANCH  23  24
ATOM     24  C   UNL     1     -10.644 -16.355   8.489  1.00  0.00    -0.000 C 
BRANCH  24  25
ATOM     25  C   UNL     1      -9.811 -17.265   7.566  1.00  0.00    -0.000 C 
BRANCH  25  26
ATOM     26  C   UNL     1     -10.541 -18.568   7.196  1.00  0.00    -0.000 C 
BRANCH  26  27
ATOM     27  C   UNL     1     -10.035 -19.790   7.985  1.00  0.00    -0.000 C 
BRANCH  27  28
ATOM     28  C   UNL     1      -8.696 -19.595   8.721  1.00  0.00    -0.000 C 
BRANCH  28  29
ATOM     29  C   UNL     1      -8.823 -19.719  10.248  1.00  0.00    -0.000 C 
BRANCH  29  30
ATOM     30  C   UNL     1     -10.287 -19.796  10.712  1.00  0.00    -0.000 C 
BRANCH  30  31
ATOM     31  C   UNL     1     -10.651 -21.168  11.296  1.00  0.00    -0.003 C 
ATOM     32  C   UNL     1      -9.397 -21.972  11.632  1.00  0.00     0.004 C 
ENDBRANCH  30  31
ENDBRANCH  29  30
ENDBRANCH  28  29
ENDBRANCH  27  28
ENDBRANCH  26  27
ENDBRANCH  25  26
ENDBRANCH  24  25
ENDBRANCH  23  24
ENDBRANCH  22  23
ENDBRANCH  21  22
ENDBRANCH  20  21
ENDBRANCH  19  20
ENDBRANCH  18  19
ENDBRANCH   1  18
TORSDOF 28
ENDMDL
MODEL 4
REMARK VINA RESULT:    -4.076      5.653     10.489
REMARK INTER + INTRA:         -15.591
REMARK INTER:                 -11.760
REMARK INTRA:                  -3.831
REMARK UNBOUND:                -4.843
REMARK SMILES CCCCCCCCCCCCCCCCCCCCCCCCCCCCCC(=O)[O-]
REMARK SMILES IDX 16 1 17 2 18 3 19 4 20 5 21 6 22 7 23 8 24 9 25 10 26 11
REMARK SMILES IDX 27 12 28 13 29 14 30 15 31 16 32 17 15 18 14 19 13 20 12 21
REMARK SMILES IDX 11 22 10 23 9 24 8 25 7 26 6 27 5 28 4 29 3 30 2 31 1 32
REMARK H PARENT
REMARK Flexibility Score: inf
ROOT
ATOM      1  C   UNL     1     -10.187 -11.509  16.786  1.00  0.00     0.000 C 
ENDROOT
BRANCH   1   2
ATOM      2  C   UNL     1     -10.438 -11.852  15.309  1.00  0.00     0.000 C 
BRANCH   2   3
ATOM      3  C   UNL     1     -11.452 -12.994  15.125  1.00  0.00     0.000 C 
BRANCH   3   4
ATOM      4  C   UNL     1     -11.142 -13.847  13.877  1.00  0.00     0.000 C 
BRANCH   4   5
ATOM      5  C   UNL     1      -9.817 -13.481  13.187  1.00  0.00     0.000 C 
BRANCH   5   6
ATOM      6  C   UNL     1      -9.703 -14.060  11.767  1.00  0.00     0.000 C 
BRANCH   6   7
ATOM      7  C   UNL     1      -8.278 -14.520  11.412  1.00  0.00     0.000 C 
BRANCH   7   8
ATOM      8  C   UNL     1      -8.171 -15.515  10.240  1.00  0.00     0.000 C 
BRANCH   8   9
ATOM      9  C   UNL     1      -9.538 -15.926   9.666  1.00  0.00     0.000 C 
BRANCH   9  10
ATOM     10  C   UNL     1      -9.831 -17.429   9.837  1.00  0.00     0.000 C 
BRANCH  10  11
ATOM     11  C   UNL     1     -10.072 -18.205   8.528  1.00  0.00     0.000 C 
BRANCH  11  12
ATOM     12  C   UNL     1     -11.353 -19.063   8.499  1.00  0.00     0.000 C 
BRANCH  12  13
ATOM     13  C   UNL     1     -12.540 -18.438   7.736  1.00  0.00     0.006 C 
BRANCH  13  14
ATOM     14  C   UNL     1     -12.346 -16.962   7.360  1.00  0.00     0.053 C 
BRANCH  14  15
ATOM     15  C   UNL     1     -13.543 -16.133   7.708  1.00  0.00     0.041 C 
ATOM     16  O   UNL     1     -14.219 -16.395   8.738  1.00  0.00    -0.550 OA
ATOM     17  O   UNL     1     -13.927 -15.085   6.881  1.00  0.00    -0.550 OA
ENDBRANCH  14  15
ENDBRANCH  13  14
ENDBRANCH  12  13
ENDBRANCH  11  12
ENDBRANCH  10  11
ENDBRANCH   9  10
ENDBRANCH   8   9
ENDBRANCH   7   8
ENDBRANCH   6   7
ENDBRANCH   5   6
ENDBRANCH   4   5
ENDBRANCH   3   4
ENDBRANCH   2   3
ENDBRANCH   1   2
BRANCH   1  18
ATOM     18  C   UNL     1     -10.313 -12.738  17.706  1.00  0.00     0.000 C 
BRANCH  18  19
ATOM     19  C   UNL     1      -9.011 -13.048  18.463  1.00  0.00     0.000 C 
BRANCH  19  20
ATOM     20  C   UNL     1      -8.240 -14.236  17.856  1.00  0.00     0.000 C 
BRANCH  20  21
ATOM     21  C   UNL     1      -6.930 -13.803  17.169  1.00  0.00     0.000 C 
BRANCH  21  22
ATOM     22  C   UNL     1      -7.051 -13.577  15.650  1.00  0.00     0.000 C 
BRANCH  22  23
ATOM     23  C   UNL     1      -6.791 -12.114  15.244  1.00  0.00     0.000 C 
BRANCH  23  24
ATOM     24  C   UNL     1      -6.539 -11.192  16.450  1.00  0.00    -0.000 C 
BRANCH  24  25
ATOM     25  C   UNL     1      -6.468  -9.688  16.124  1.00  0.00    -0.000 C 
BRANCH  25  26
ATOM     26  C   UNL     1      -7.700  -9.185  15.354  1.00  0.00    -0.000 C 
BRANCH  26  27
ATOM     27  C   UNL     1      -7.917  -7.665  15.484  1.00  0.00    -0.000 C 
BRANCH  27  28
ATOM     28  C   UNL     1      -7.132  -6.979  16.617  1.00  0.00    -0.000 C 
BRANCH  28  29
ATOM     29  C   UNL     1      -8.005  -6.643  17.838  1.00  0.00    -0.000 C 
BRANCH  29  30
ATOM     30  C   UNL     1      -7.598  -7.440  19.089  1.00  0.00    -0.000 C 
BRANCH  30  31
ATOM     31  C   UNL     1      -8.786  -8.156  19.746  1.00  0.00    -0.003 C 
ATOM     32  C   UNL     1      -9.753  -8.693  18.694  1.00  0.00     0.004 C 
ENDBRANCH  30  31
ENDBRANCH  29  30
ENDBRANCH  28  29
ENDBRANCH  27  28
ENDBRANCH  26  27
ENDBRANCH  25  26
ENDBRANCH  24  25
ENDBRANCH  23  24
ENDBRANCH  22  23
ENDBRANCH  21  22
ENDBRANCH  20  21
ENDBRANCH  19  20
ENDBRANCH  18  19
ENDBRANCH   1  18
TORSDOF 28
ENDMDL
MODEL 5
REMARK VINA RESULT:    -4.006      2.785      7.965
REMARK INTER + INTRA:         -15.406
REMARK INTER:                  -9.551
REMARK INTRA:                  -5.854
REMARK UNBOUND:                -4.843
REMARK SMILES CCCCCCCCCCCCCCCCCCCCCCCCCCCCCC(=O)[O-]
REMARK SMILES IDX 16 1 17 2 18 3 19 4 20 5 21 6 22 7 23 8 24 9 25 10 26 11
REMARK SMILES IDX 27 12 28 13 29 14 30 15 31 16 32 17 15 18 14 19 13 20 12 21
REMARK SMILES IDX 11 22 10 23 9 24 8 25 7 26 6 27 5 28 4 29 3 30 2 31 1 32
REMARK H PARENT
REMARK Flexibility Score: inf
ROOT
ATOM      1  C   UNL     1      -9.388  -9.784  16.011  1.00  0.00     0.000 C 
ENDROOT
BRANCH   1   2
ATOM      2  C   UNL     1      -7.956  -9.798  15.454  1.00  0.00     0.000 C 
BRANCH   2   3
ATOM      3  C   UNL     1      -7.218  -8.465  15.668  1.00  0.00     0.000 C 
BRANCH   3   4
ATOM      4  C   UNL     1      -5.924  -8.645  16.489  1.00  0.00     0.000 C 
BRANCH   4   5
ATOM      5  C   UNL     1      -5.584 -10.113  16.800  1.00  0.00     0.000 C 
BRANCH   5   6
ATOM      6  C   UNL     1      -5.615 -10.428  18.304  1.00  0.00     0.000 C 
BRANCH   6   7
ATOM      7  C   UNL     1      -6.469 -11.662  18.648  1.00  0.00     0.000 C 
BRANCH   7   8
ATOM      8  C   UNL     1      -5.940 -13.008  18.117  1.00  0.00     0.000 C 
BRANCH   8   9
ATOM      9  C   UNL     1      -7.012 -13.838  17.390  1.00  0.00     0.000 C 
BRANCH   9  10
ATOM     10  C   UNL     1      -7.317 -13.312  15.974  1.00  0.00     0.000 C 
BRANCH  10  11
ATOM     11  C   UNL     1      -8.466 -14.030  15.239  1.00  0.00     0.000 C 
BRANCH  11  12
ATOM     12  C   UNL     1      -9.344 -13.124  14.352  1.00  0.00     0.000 C 
BRANCH  12  13
ATOM     13  C   UNL     1     -10.763 -13.661  14.075  1.00  0.00     0.006 C 
BRANCH  13  14
ATOM     14  C   UNL     1     -11.842 -13.122  15.026  1.00  0.00     0.053 C 
BRANCH  14  15
ATOM     15  C   UNL     1     -11.974 -13.965  16.257  1.00  0.00     0.041 C 
ATOM     16  O   UNL     1     -11.350 -13.660  17.307  1.00  0.00    -0.550 OA
ATOM     17  O   UNL     1     -12.771 -15.104  16.237  1.00  0.00    -0.550 OA
ENDBRANCH  14  15
ENDBRANCH  13  14
ENDBRANCH  12  13
ENDBRANCH  11  12
ENDBRANCH  10  11
ENDBRANCH   9  10
ENDBRANCH   8   9
ENDBRANCH   7   8
ENDBRANCH   6   7
ENDBRANCH   5   6
ENDBRANCH   4   5
ENDBRANCH   3   4
ENDBRANCH   2   3
ENDBRANCH   1   2
BRANCH   1  18
ATOM     18  C   UNL     1      -9.528 -10.614  17.300  1.00  0.00     0.000 C 
BRANCH  18  19
ATOM     19  C   UNL     1     -10.071  -9.792  18.480  1.00  0.00     0.000 C 
BRANCH  19  20
ATOM     20  C   UNL     1      -8.991  -8.908  19.133  1.00  0.00     0.000 C 
BRANCH  20  21
ATOM     21  C   UNL     1      -9.144  -7.418  18.767  1.00  0.00     0.000 C 
BRANCH  21  22
ATOM     22  C   UNL     1      -7.908  -6.554  19.084  1.00  0.00     0.000 C 
BRANCH  22  23
ATOM     23  C   UNL     1      -6.788  -7.350  19.779  1.00  0.00     0.000 C 
BRANCH  23  24
ATOM     24  C   UNL     1      -5.646  -6.455  20.294  1.00  0.00    -0.000 C 
BRANCH  24  25
ATOM     25  C   UNL     1      -6.082  -5.291  21.204  1.00  0.00    -0.000 C 
BRANCH  25  26
ATOM     26  C   UNL     1      -5.374  -5.304  22.569  1.00  0.00    -0.000 C 
BRANCH  26  27
ATOM     27  C   UNL     1      -5.279  -6.711  23.189  1.00  0.00    -0.000 C 
BRANCH  27  28
ATOM     28  C   UNL     1      -5.940  -6.871  24.571  1.00  0.00    -0.000 C 
BRANCH  28  29
ATOM     29  C   UNL     1      -7.107  -7.872  24.569  1.00  0.00    -0.000 C 
BRANCH  29  30
ATOM     30  C   UNL     1      -7.472  -8.346  23.152  1.00  0.00    -0.000 C 
BRANCH  30  31
ATOM     31  C   UNL     1      -8.933  -8.047  22.787  1.00  0.00    -0.003 C 
ATOM     32  C   UNL     1      -9.192  -6.543  22.750  1.00  0.00     0.004 C 
ENDBRANCH  30  31
ENDBRANCH  29  30
ENDBRANCH  28  29
ENDBRANCH  27  28
ENDBRANCH  26  27
ENDBRANCH  25  26
ENDBRANCH  24  25
ENDBRANCH  23  24
ENDBRANCH  22  23
ENDBRANCH  21  22
ENDBRANCH  20  21
ENDBRANCH  19  20
ENDBRANCH  18  19
ENDBRANCH   1  18
TORSDOF 28
ENDMDL
MODEL 6
REMARK VINA RESULT:    -4.000      2.621      7.332
REMARK INTER + INTRA:         -15.391
REMARK INTER:                  -9.725
REMARK INTRA:                  -5.666
REMARK UNBOUND:                -4.843
REMARK SMILES CCCCCCCCCCCCCCCCCCCCCCCCCCCCCC(=O)[O-]
REMARK SMILES IDX 16 1 17 2 18 3 19 4 20 5 21 6 22 7 23 8 24 9 25 10 26 11
REMARK SMILES IDX 27 12 28 13 29 14 30 15 31 16 32 17 15 18 14 19 13 20 12 21
REMARK SMILES IDX 11 22 10 23 9 24 8 25 7 26 6 27 5 28 4 29 3 30 2 31 1 32
REMARK H PARENT
REMARK Flexibility Score: inf
ROOT
ATOM      1  C   UNL     1     -10.090  -9.802  18.867  1.00  0.00     0.000 C 
ENDROOT
BRANCH   1   2
ATOM      2  C   UNL     1      -9.039  -8.869  19.489  1.00  0.00     0.000 C 
BRANCH   2   3
ATOM      3  C   UNL     1      -8.298  -9.511  20.676  1.00  0.00     0.000 C 
BRANCH   3   4
ATOM      4  C   UNL     1      -6.861  -9.932  20.301  1.00  0.00     0.000 C 
BRANCH   4   5
ATOM      5  C   UNL     1      -6.250  -9.105  19.158  1.00  0.00     0.000 C 
BRANCH   5   6
ATOM      6  C   UNL     1      -5.603  -9.977  18.070  1.00  0.00     0.000 C 
BRANCH   6   7
ATOM      7  C   UNL     1      -6.272 -11.356  17.920  1.00  0.00     0.000 C 
BRANCH   7   8
ATOM      8  C   UNL     1      -5.312 -12.561  17.872  1.00  0.00     0.000 C 
BRANCH   8   9
ATOM      9  C   UNL     1      -5.594 -13.515  16.698  1.00  0.00     0.000 C 
BRANCH   9  10
ATOM     10  C   UNL     1      -6.052 -12.777  15.425  1.00  0.00     0.000 C 
BRANCH  10  11
ATOM     11  C   UNL     1      -7.269 -13.396  14.709  1.00  0.00     0.000 C 
BRANCH  11  12
ATOM     12  C   UNL     1      -8.627 -13.156  15.397  1.00  0.00     0.000 C 
BRANCH  12  13
ATOM     13  C   UNL     1      -9.828 -13.010  14.440  1.00  0.00     0.006 C 
BRANCH  13  14
ATOM     14  C   UNL     1     -11.150 -12.649  15.132  1.00  0.00     0.053 C 
BRANCH  14  15
ATOM     15  C   UNL     1     -11.471 -13.590  16.253  1.00  0.00     0.041 C 
ATOM     16  O   UNL     1     -11.735 -13.144  17.400  1.00  0.00    -0.550 OA
ATOM     17  O   UNL     1     -11.455 -14.962  16.035  1.00  0.00    -0.550 OA
ENDBRANCH  14  15
ENDBRANCH  13  14
ENDBRANCH  12  13
ENDBRANCH  11  12
ENDBRANCH  10  11
ENDBRANCH   9  10
ENDBRANCH   8   9
ENDBRANCH   7   8
ENDBRANCH   6   7
ENDBRANCH   5   6
ENDBRANCH   4   5
ENDBRANCH   3   4
ENDBRANCH   2   3
ENDBRANCH   1   2
BRANCH   1  18
ATOM     18  C   UNL     1      -9.789 -10.129  17.393  1.00  0.00     0.000 C 
BRANCH  18  19
ATOM     19  C   UNL     1      -9.013  -9.008  16.682  1.00  0.00     0.000 C 
BRANCH  19  20
ATOM     20  C   UNL     1      -8.289  -9.500  15.414  1.00  0.00     0.000 C 
BRANCH  20  21
ATOM     21  C   UNL     1      -7.145  -8.561  14.984  1.00  0.00     0.000 C 
BRANCH  21  22
ATOM     22  C   UNL     1      -7.598  -7.142  14.591  1.00  0.00     0.000 C 
BRANCH  22  23
ATOM     23  C   UNL     1      -6.616  -6.053  15.060  1.00  0.00     0.000 C 
BRANCH  23  24
ATOM     24  C   UNL     1      -5.993  -6.357  16.434  1.00  0.00    -0.000 C 
BRANCH  24  25
ATOM     25  C   UNL     1      -6.400  -5.396  17.568  1.00  0.00    -0.000 C 
BRANCH  25  26
ATOM     26  C   UNL     1      -7.589  -5.916  18.394  1.00  0.00    -0.000 C 
BRANCH  26  27
ATOM     27  C   UNL     1      -7.677  -5.281  19.794  1.00  0.00    -0.000 C 
BRANCH  27  28
ATOM     28  C   UNL     1      -7.045  -6.101  20.934  1.00  0.00    -0.000 C 
BRANCH  28  29
ATOM     29  C   UNL     1      -7.678  -5.816  22.306  1.00  0.00    -0.000 C 
BRANCH  29  30
ATOM     30  C   UNL     1      -9.112  -6.361  22.416  1.00  0.00    -0.000 C 
BRANCH  30  31
ATOM     31  C   UNL     1      -9.249  -7.451  23.489  1.00  0.00    -0.003 C 
ATOM     32  C   UNL     1      -7.887  -7.828  24.065  1.00  0.00     0.004 C 
ENDBRANCH  30  31
ENDBRANCH  29  30
ENDBRANCH  28  29
ENDBRANCH  27  28
ENDBRANCH  26  27
ENDBRANCH  25  26
ENDBRANCH  24  25
ENDBRANCH  23  24
ENDBRANCH  22  23
ENDBRANCH  21  22
ENDBRANCH  20  21
ENDBRANCH  19  20
ENDBRANCH  18  19
ENDBRANCH   1  18
TORSDOF 28
ENDMDL
MODEL 7
REMARK VINA RESULT:    -3.983     12.174     16.312
REMARK INTER + INTRA:         -15.346
REMARK INTER:                  -9.844
REMARK INTRA:                  -5.501
REMARK UNBOUND:                -4.843
REMARK SMILES CCCCCCCCCCCCCCCCCCCCCCCCCCCCCC(=O)[O-]
REMARK SMILES IDX 16 1 17 2 18 3 19 4 20 5 21 6 22 7 23 8 24 9 25 10 26 11
REMARK SMILES IDX 27 12 28 13 29 14 30 15 31 16 32 17 15 18 14 19 13 20 12 21
REMARK SMILES IDX 11 22 10 23 9 24 8 25 7 26 6 27 5 28 4 29 3 30 2 31 1 32
REMARK H PARENT
REMARK Flexibility Score: inf
ROOT
ATOM      1  C   UNL     1     -17.650 -17.874  15.963  1.00  0.00     0.000 C 
ENDROOT
BRANCH   1   2
ATOM      2  C   UNL     1     -16.339 -18.286  16.650  1.00  0.00     0.000 C 
BRANCH   2   3
ATOM      3  C   UNL     1     -15.242 -18.692  15.648  1.00  0.00     0.000 C 
BRANCH   3   4
ATOM      4  C   UNL     1     -15.507 -20.082  15.032  1.00  0.00     0.000 C 
BRANCH   4   5
ATOM      5  C   UNL     1     -15.236 -20.154  13.520  1.00  0.00     0.000 C 
BRANCH   5   6
ATOM      6  C   UNL     1     -16.458 -20.627  12.717  1.00  0.00     0.000 C 
BRANCH   6   7
ATOM      7  C   UNL     1     -17.676 -20.953  13.600  1.00  0.00     0.000 C 
BRANCH   7   8
ATOM      8  C   UNL     1     -18.046 -22.445  13.703  1.00  0.00     0.000 C 
BRANCH   8   9
ATOM      9  C   UNL     1     -18.028 -22.977  15.147  1.00  0.00     0.000 C 
BRANCH   9  10
ATOM     10  C   UNL     1     -16.636 -23.470  15.585  1.00  0.00     0.000 C 
BRANCH  10  11
ATOM     11  C   UNL     1     -15.758 -24.049  14.458  1.00  0.00     0.000 C 
BRANCH  11  12
ATOM     12  C   UNL     1     -14.248 -23.766  14.591  1.00  0.00     0.000 C 
BRANCH  12  13
ATOM     13  C   UNL     1     -13.823 -23.100  15.915  1.00  0.00     0.006 C 
BRANCH  13  14
ATOM     14  C   UNL     1     -12.337 -22.719  15.985  1.00  0.00     0.053 C 
BRANCH  14  15
ATOM     15  C   UNL     1     -12.086 -21.344  15.450  1.00  0.00     0.041 C 
ATOM     16  O   UNL     1     -11.852 -21.171  14.225  1.00  0.00    -0.550 OA
ATOM     17  O   UNL     1     -12.085 -20.252  16.311  1.00  0.00    -0.550 OA
ENDBRANCH  14  15
ENDBRANCH  13  14
ENDBRANCH  12  13
ENDBRANCH  11  12
ENDBRANCH  10  11
ENDBRANCH   9  10
ENDBRANCH   8   9
ENDBRANCH   7   8
ENDBRANCH   6   7
ENDBRANCH   5   6
ENDBRANCH   4   5
ENDBRANCH   3   4
ENDBRANCH   2   3
ENDBRANCH   1   2
BRANCH   1  18
ATOM     18  C   UNL     1     -18.848 -18.726  16.420  1.00  0.00     0.000 C 
BRANCH  18  19
ATOM     19  C   UNL     1     -18.421 -19.989  17.187  1.00  0.00     0.000 C 
BRANCH  19  20
ATOM     20  C   UNL     1     -19.363 -20.317  18.360  1.00  0.00     0.000 C 
BRANCH  20  21
ATOM     21  C   UNL     1     -19.812 -19.059  19.129  1.00  0.00     0.000 C 
BRANCH  21  22
ATOM     22  C   UNL     1     -20.725 -19.343  20.338  1.00  0.00     0.000 C 
BRANCH  22  23
ATOM     23  C   UNL     1     -22.155 -18.806  20.143  1.00  0.00     0.000 C 
BRANCH  23  24
ATOM     24  C   UNL     1     -22.930 -19.549  19.039  1.00  0.00    -0.000 C 
BRANCH  24  25
ATOM     25  C   UNL     1     -23.532 -18.653  17.941  1.00  0.00    -0.000 C 
BRANCH  25  26
ATOM     26  C   UNL     1     -22.491 -18.202  16.901  1.00  0.00    -0.000 C 
BRANCH  26  27
ATOM     27  C   UNL     1     -22.443 -19.113  15.659  1.00  0.00    -0.000 C 
BRANCH  27  28
ATOM     28  C   UNL     1     -22.020 -20.570  15.923  1.00  0.00    -0.000 C 
BRANCH  28  29
ATOM     29  C   UNL     1     -21.400 -21.250  14.691  1.00  0.00    -0.000 C 
BRANCH  29  30
ATOM     30  C   UNL     1     -22.350 -22.274  14.046  1.00  0.00    -0.000 C 
BRANCH  30  31
ATOM     31  C   UNL     1     -22.473 -22.091  12.526  1.00  0.00    -0.003 C 
ATOM     32  C   UNL     1     -21.396 -21.147  11.998  1.00  0.00     0.004 C 
ENDBRANCH  30  31
ENDBRANCH  29  30
ENDBRANCH  28  29
ENDBRANCH  27  28
ENDBRANCH  26  27
ENDBRANCH  25  26
ENDBRANCH  24  25
ENDBRANCH  23  24
ENDBRANCH  22  23
ENDBRANCH  21  22
ENDBRANCH  20  21
ENDBRANCH  19  20
ENDBRANCH  18  19
ENDBRANCH   1  18
TORSDOF 28
ENDMDL
MODEL 8
REMARK VINA RESULT:    -3.962     12.961     16.588
REMARK INTER + INTRA:         -15.290
REMARK INTER:                  -9.678
REMARK INTRA:                  -5.613
REMARK UNBOUND:                -4.843
REMARK SMILES CCCCCCCCCCCCCCCCCCCCCCCCCCCCCC(=O)[O-]
REMARK SMILES IDX 16 1 17 2 18 3 19 4 20 5 21 6 22 7 23 8 24 9 25 10 26 11
REMARK SMILES IDX 27 12 28 13 29 14 30 15 31 16 32 17 15 18 14 19 13 20 12 21
REMARK SMILES IDX 11 22 10 23 9 24 8 25 7 26 6 27 5 28 4 29 3 30 2 31 1 32
REMARK H PARENT
REMARK Flexibility Score: inf
ROOT
ATOM      1  C   UNL     1     -16.125 -19.875  16.182  1.00  0.00     0.000 C 
ENDROOT
BRANCH   1   2
ATOM      2  C   UNL     1     -15.108 -20.064  15.045  1.00  0.00     0.000 C 
BRANCH   2   3
ATOM      3  C   UNL     1     -15.739 -19.923  13.649  1.00  0.00     0.000 C 
BRANCH   3   4
ATOM      4  C   UNL     1     -16.342 -21.253  13.150  1.00  0.00     0.000 C 
BRANCH   4   5
ATOM      5  C   UNL     1     -17.730 -21.104  12.505  1.00  0.00     0.000 C 
BRANCH   5   6
ATOM      6  C   UNL     1     -18.815 -21.918  13.229  1.00  0.00     0.000 C 
BRANCH   6   7
ATOM      7  C   UNL     1     -18.427 -22.302  14.668  1.00  0.00     0.000 C 
BRANCH   7   8
ATOM      8  C   UNL     1     -18.848 -23.715  15.118  1.00  0.00     0.000 C 
BRANCH   8   9
ATOM      9  C   UNL     1     -17.912 -24.318  16.179  1.00  0.00     0.000 C 
BRANCH   9  10
ATOM     10  C   UNL     1     -16.807 -23.342  16.627  1.00  0.00     0.000 C 
BRANCH  10  11
ATOM     11  C   UNL     1     -15.372 -23.753  16.245  1.00  0.00     0.000 C 
BRANCH  11  12
ATOM     12  C   UNL     1     -15.213 -24.343  14.830  1.00  0.00     0.000 C 
BRANCH  12  13
ATOM     13  C   UNL     1     -13.757 -24.464  14.332  1.00  0.00     0.006 C 
BRANCH  13  14
ATOM     14  C   UNL     1     -13.018 -23.124  14.205  1.00  0.00     0.053 C 
BRANCH  14  15
ATOM     15  C   UNL     1     -11.936 -22.982  15.232  1.00  0.00     0.041 C 
ATOM     16  O   UNL     1     -10.870 -23.643  15.126  1.00  0.00    -0.550 OA
ATOM     17  O   UNL     1     -12.117 -22.136  16.319  1.00  0.00    -0.550 OA
ENDBRANCH  14  15
ENDBRANCH  13  14
ENDBRANCH  12  13
ENDBRANCH  11  12
ENDBRANCH  10  11
ENDBRANCH   9  10
ENDBRANCH   8   9
ENDBRANCH   7   8
ENDBRANCH   6   7
ENDBRANCH   5   6
ENDBRANCH   4   5
ENDBRANCH   3   4
ENDBRANCH   2   3
ENDBRANCH   1   2
BRANCH   1  18
ATOM     18  C   UNL     1     -17.278 -18.933  15.791  1.00  0.00     0.000 C 
BRANCH  18  19
ATOM     19  C   UNL     1     -18.009 -18.350  17.012  1.00  0.00     0.000 C 
BRANCH  19  20
ATOM     20  C   UNL     1     -17.201 -18.502  18.314  1.00  0.00     0.000 C 
BRANCH  20  21
ATOM     21  C   UNL     1     -18.097 -18.778  19.538  1.00  0.00     0.000 C 
BRANCH  21  22
ATOM     22  C   UNL     1     -19.468 -19.395  19.199  1.00  0.00     0.000 C 
BRANCH  22  23
ATOM     23  C   UNL     1     -20.375 -19.544  20.434  1.00  0.00     0.000 C 
BRANCH  23  24
ATOM     24  C   UNL     1     -21.706 -18.783  20.297  1.00  0.00    -0.000 C 
BRANCH  24  25
ATOM     25  C   UNL     1     -22.887 -19.616  19.761  1.00  0.00    -0.000 C 
BRANCH  25  26
ATOM     26  C   UNL     1     -23.554 -18.980  18.529  1.00  0.00    -0.000 C 
BRANCH  26  27
ATOM     27  C   UNL     1     -22.815 -17.729  18.018  1.00  0.00    -0.000 C 
BRANCH  27  28
ATOM     28  C   UNL     1     -22.069 -17.900  16.682  1.00  0.00    -0.000 C 
BRANCH  28  29
ATOM     29  C   UNL     1     -22.329 -19.261  16.016  1.00  0.00    -0.000 C 
BRANCH  29  30
ATOM     30  C   UNL     1     -21.077 -20.155  15.998  1.00  0.00    -0.000 C 
BRANCH  30  31
ATOM     31  C   UNL     1     -21.237 -21.414  16.863  1.00  0.00    -0.003 C 
ATOM     32  C   UNL     1     -22.270 -22.364  16.262  1.00  0.00     0.004 C 
ENDBRANCH  30  31
ENDBRANCH  29  30
ENDBRANCH  28  29
ENDBRANCH  27  28
ENDBRANCH  26  27
ENDBRANCH  25  26
ENDBRANCH  24  25
ENDBRANCH  23  24
ENDBRANCH  22  23
ENDBRANCH  21  22
ENDBRANCH  20  21
ENDBRANCH  19  20
ENDBRANCH  18  19
ENDBRANCH   1  18
TORSDOF 28
ENDMDL
MODEL 9
REMARK VINA RESULT:    -3.933     12.306     16.755
REMARK INTER + INTRA:         -15.214
REMARK INTER:                  -9.639
REMARK INTRA:                  -5.575
REMARK UNBOUND:                -4.843
REMARK SMILES CCCCCCCCCCCCCCCCCCCCCCCCCCCCCC(=O)[O-]
REMARK SMILES IDX 16 1 17 2 18 3 19 4 20 5 21 6 22 7 23 8 24 9 25 10 26 11
REMARK SMILES IDX 27 12 28 13 29 14 30 15 31 16 32 17 15 18 14 19 13 20 12 21
REMARK SMILES IDX 11 22 10 23 9 24 8 25 7 26 6 27 5 28 4 29 3 30 2 31 1 32
REMARK H PARENT
REMARK Flexibility Score: inf
ROOT
ATOM      1  C   UNL     1     -20.141 -20.036  19.149  1.00  0.00     0.000 C 
ENDROOT
BRANCH   1   2
ATOM      2  C   UNL     1     -19.244 -19.123  20.000  1.00  0.00     0.000 C 
BRANCH   2   3
ATOM      3  C   UNL     1     -17.776 -19.128  19.538  1.00  0.00     0.000 C 
BRANCH   3   4
ATOM      4  C   UNL     1     -17.259 -17.705  19.239  1.00  0.00     0.000 C 
BRANCH   4   5
ATOM      5  C   UNL     1     -16.869 -17.482  17.769  1.00  0.00     0.000 C 
BRANCH   5   6
ATOM      6  C   UNL     1     -16.642 -18.796  17.005  1.00  0.00     0.000 C 
BRANCH   6   7
ATOM      7  C   UNL     1     -17.533 -18.934  15.757  1.00  0.00     0.000 C 
BRANCH   7   8
ATOM      8  C   UNL     1     -18.219 -20.302  15.576  1.00  0.00     0.000 C 
BRANCH   8   9
ATOM      9  C   UNL     1     -17.714 -21.370  16.561  1.00  0.00     0.000 C 
BRANCH   9  10
ATOM     10  C   UNL     1     -17.254 -22.662  15.859  1.00  0.00     0.000 C 
BRANCH  10  11
ATOM     11  C   UNL     1     -16.082 -22.493  14.872  1.00  0.00     0.000 C 
BRANCH  11  12
ATOM     12  C   UNL     1     -14.692 -22.346  15.522  1.00  0.00     0.000 C 
BRANCH  12  13
ATOM     13  C   UNL     1     -13.503 -22.711  14.611  1.00  0.00     0.006 C 
BRANCH  13  14
ATOM     14  C   UNL     1     -12.352 -23.431  15.329  1.00  0.00     0.053 C 
BRANCH  14  15
ATOM     15  C   UNL     1     -11.626 -22.523  16.274  1.00  0.00     0.041 C 
ATOM     16  O   UNL     1     -11.679 -21.275  16.122  1.00  0.00    -0.550 OA
ATOM     17  O   UNL     1     -10.871 -23.059  17.310  1.00  0.00    -0.550 OA
ENDBRANCH  14  15
ENDBRANCH  13  14
ENDBRANCH  12  13
ENDBRANCH  11  12
ENDBRANCH  10  11
ENDBRANCH   9  10
ENDBRANCH   8   9
ENDBRANCH   7   8
ENDBRANCH   6   7
ENDBRANCH   5   6
ENDBRANCH   4   5
ENDBRANCH   3   4
ENDBRANCH   2   3
ENDBRANCH   1   2
BRANCH   1  18
ATOM     18  C   UNL     1     -21.625 -19.630  19.212  1.00  0.00     0.000 C 
BRANCH  18  19
ATOM     19  C   UNL     1     -22.017 -18.640  18.103  1.00  0.00     0.000 C 
BRANCH  19  20
ATOM     20  C   UNL     1     -21.094 -18.730  16.873  1.00  0.00     0.000 C 
BRANCH  20  21
ATOM     21  C   UNL     1     -21.830 -19.229  15.614  1.00  0.00     0.000 C 
BRANCH  21  22
ATOM     22  C   UNL     1     -23.292 -18.755  15.501  1.00  0.00     0.000 C 
BRANCH  22  23
ATOM     23  C   UNL     1     -24.264 -19.899  15.156  1.00  0.00     0.000 C 
BRANCH  23  24
ATOM     24  C   UNL     1     -24.457 -20.893  16.316  1.00  0.00    -0.000 C 
BRANCH  24  25
ATOM     25  C   UNL     1     -24.636 -22.365  15.898  1.00  0.00    -0.000 C 
BRANCH  25  26
ATOM     26  C   UNL     1     -23.657 -23.311  16.615  1.00  0.00    -0.000 C 
BRANCH  26  27
ATOM     27  C   UNL     1     -22.540 -22.568  17.371  1.00  0.00    -0.000 C 
BRANCH  27  28
ATOM     28  C   UNL     1     -21.127 -22.714  16.776  1.00  0.00    -0.000 C 
BRANCH  28  29
ATOM     29  C   UNL     1     -21.117 -23.426  15.413  1.00  0.00    -0.000 C 
BRANCH  29  30
ATOM     30  C   UNL     1     -20.853 -22.459  14.247  1.00  0.00    -0.000 C 
BRANCH  30  31
ATOM     31  C   UNL     1     -22.030 -22.382  13.264  1.00  0.00    -0.003 C 
ATOM     32  C   UNL     1     -21.752 -21.375  12.152  1.00  0.00     0.004 C 
ENDBRANCH  30  31
ENDBRANCH  29  30
ENDBRANCH  28  29
ENDBRANCH  27  28
ENDBRANCH  26  27
ENDBRANCH  25  26
ENDBRANCH  24  25
ENDBRANCH  23  24
ENDBRANCH  22  23
ENDBRANCH  21  22
ENDBRANCH  20  21
ENDBRANCH  19  20
ENDBRANCH  18  19
ENDBRANCH   1  18
TORSDOF 28
ENDMDL
