MODEL 1
REMARK VINA RESULT:    -6.139      0.000      0.000
REMARK INTER + INTRA:          -6.678
REMARK INTER:                  -6.678
REMARK INTRA:                   0.000
REMARK UNBOUND:                 0.000
REMARK SMILES Cc1cc(O)c2c(c1)C(=O)c1cc(O)cc(O)c1C2=O
REMARK SMILES IDX 1 1 2 2 8 3 7 4 6 5 4 6 3 7 19 8 20 9 18 10 11 11 9 12 10 13
REMARK SMILES IDX 12 14 13 15 15 16 16 17 5 18 17 20 14 22
REMARK H PARENT 5 19 17 21 14 23
REMARK Flexibility Score: inf
ROOT
ATOM      1  C   UNL     1      13.316  23.378   3.375  1.00  0.00     0.044 C 
ATOM      2  C   UNL     1      14.572  22.864   4.015  1.00  0.00    -0.047 A 
ATOM      3  C   UNL     1      14.859  21.494   4.004  1.00  0.00     0.016 A 
ATOM      4  C   UNL     1      16.010  20.998   4.638  1.00  0.00     0.038 A 
ATOM      5  C   UNL     1      16.876  21.884   5.317  1.00  0.00     0.076 A 
ATOM      6  C   UNL     1      16.606  23.276   5.286  1.00  0.00     0.127 A 
ATOM      7  C   UNL     1      15.443  23.744   4.665  1.00  0.00     0.050 A 
ATOM      8  C   UNL     1      18.000  21.305   6.099  1.00  0.00     0.201 C 
ATOM      9  O   UNL     1      18.424  21.901   7.125  1.00  0.00    -0.288 OA
ATOM     10  C   UNL     1      18.494  19.939   5.781  1.00  0.00     0.076 A 
ATOM     11  C   UNL     1      17.624  19.057   5.102  1.00  0.00     0.041 A 
ATOM     12  C   UNL     1      16.321  19.549   4.595  1.00  0.00     0.194 C 
ATOM     13  O   UNL     1      15.488  18.739   4.103  1.00  0.00    -0.289 OA
ATOM     14  C   UNL     1      18.000  17.717   4.907  1.00  0.00     0.059 A 
ATOM     15  C   UNL     1      19.233  17.253   5.364  1.00  0.00     0.120 A 
ATOM     16  C   UNL     1      20.114  18.131   6.000  1.00  0.00     0.093 A 
ATOM     17  C   UNL     1      19.771  19.475   6.189  1.00  0.00     0.131 A 
ENDROOT
BRANCH   6  18
ATOM     18  O   UNL     1      17.476  24.227   5.825  1.00  0.00    -0.507 OA
ATOM     19  H   UNL     1      17.629  24.346   6.817  1.00  0.00     0.293 HD
ENDBRANCH   6  18
BRANCH  17  20
ATOM     20  O   UNL     1      20.737  20.313   6.750  1.00  0.00    -0.507 OA
ATOM     21  H   UNL     1      20.851  20.448   7.744  1.00  0.00     0.293 HD
ENDBRANCH  17  20
BRANCH  15  22
ATOM     22  O   UNL     1      19.580  15.918   5.170  1.00  0.00    -0.508 OA
ATOM     23  H   UNL     1      20.489  15.653   4.809  1.00  0.00     0.293 HD
ENDBRANCH  15  22
TORSDOF 3
ENDMDL
MODEL 2
REMARK VINA RESULT:    -5.132      1.606      6.078
REMARK INTER + INTRA:          -5.582
REMARK INTER:                  -5.582
REMARK INTRA:                   0.000
REMARK UNBOUND:                 0.000
REMARK SMILES Cc1cc(O)c2c(c1)C(=O)c1cc(O)cc(O)c1C2=O
REMARK SMILES IDX 1 1 2 2 8 3 7 4 6 5 4 6 3 7 19 8 20 9 18 10 11 11 9 12 10 13
REMARK SMILES IDX 12 14 13 15 15 16 16 17 5 18 17 20 14 22
REMARK H PARENT 5 19 17 21 14 23
REMARK Flexibility Score: inf
ROOT
ATOM      1  C   UNL     1      19.697  16.410   5.592  1.00  0.00     0.044 C 
ATOM      2  C   UNL     1      18.784  17.571   5.327  1.00  0.00    -0.047 A 
ATOM      3  C   UNL     1      19.035  18.814   5.918  1.00  0.00     0.016 A 
ATOM      4  C   UNL     1      18.161  19.895   5.711  1.00  0.00     0.038 A 
ATOM      5  C   UNL     1      17.003  19.722   4.921  1.00  0.00     0.076 A 
ATOM      6  C   UNL     1      16.778  18.473   4.287  1.00  0.00     0.127 A 
ATOM      7  C   UNL     1      17.651  17.406   4.524  1.00  0.00     0.050 A 
ATOM      8  C   UNL     1      16.030  20.843   4.847  1.00  0.00     0.201 C 
ATOM      9  O   UNL     1      14.804  20.601   4.682  1.00  0.00    -0.288 OA
ATOM     10  C   UNL     1      16.474  22.227   5.155  1.00  0.00     0.076 A 
ATOM     11  C   UNL     1      17.634  22.395   5.946  1.00  0.00     0.041 A 
ATOM     12  C   UNL     1      18.452  21.217   6.316  1.00  0.00     0.194 C 
ATOM     13  O   UNL     1      19.412  21.344   7.125  1.00  0.00    -0.289 OA
ATOM     14  C   UNL     1      18.007  23.680   6.374  1.00  0.00     0.059 A 
ATOM     15  C   UNL     1      17.251  24.796   6.012  1.00  0.00     0.120 A 
ATOM     16  C   UNL     1      16.128  24.639   5.198  1.00  0.00     0.093 A 
ATOM     17  C   UNL     1      15.746  23.373   4.742  1.00  0.00     0.131 A 
ENDROOT
BRANCH   6  18
ATOM     18  O   UNL     1      15.726  18.258   3.393  1.00  0.00    -0.507 OA
ATOM     19  H   UNL     1      14.851  18.763   3.428  1.00  0.00     0.293 HD
ENDBRANCH   6  18
BRANCH  17  20
ATOM     20  O   UNL     1      14.668  23.305   3.857  1.00  0.00    -0.507 OA
ATOM     21  H   UNL     1      14.617  22.653   3.086  1.00  0.00     0.293 HD
ENDBRANCH  17  20
BRANCH  15  22
ATOM     22  O   UNL     1      17.634  26.059   6.459  1.00  0.00    -0.508 OA
ATOM     23  H   UNL     1      18.500  26.489   6.155  1.00  0.00     0.293 HD
ENDBRANCH  15  22
TORSDOF 3
ENDMDL
MODEL 3
REMARK VINA RESULT:    -4.885      2.083      3.466
REMARK INTER + INTRA:          -5.313
REMARK INTER:                  -5.313
REMARK INTRA:                   0.000
REMARK UNBOUND:                 0.000
REMARK SMILES Cc1cc(O)c2c(c1)C(=O)c1cc(O)cc(O)c1C2=O
REMARK SMILES IDX 1 1 2 2 8 3 7 4 6 5 4 6 3 7 19 8 20 9 18 10 11 11 9 12 10 13
REMARK SMILES IDX 12 14 13 15 15 16 16 17 5 18 17 20 14 22
REMARK H PARENT 5 19 17 21 14 23
REMARK Flexibility Score: inf
ROOT
ATOM      1  C   UNL     1      14.730  18.501   4.000  1.00  0.00     0.044 C 
ATOM      2  C   UNL     1      16.046  18.975   4.542  1.00  0.00    -0.047 A 
ATOM      3  C   UNL     1      17.051  18.055   4.861  1.00  0.00     0.016 A 
ATOM      4  C   UNL     1      18.270  18.486   5.410  1.00  0.00     0.038 A 
ATOM      5  C   UNL     1      18.478  19.859   5.669  1.00  0.00     0.076 A 
ATOM      6  C   UNL     1      17.475  20.792   5.302  1.00  0.00     0.127 A 
ATOM      7  C   UNL     1      16.262  20.338   4.775  1.00  0.00     0.050 A 
ATOM      8  C   UNL     1      19.719  20.258   6.385  1.00  0.00     0.201 C 
ATOM      9  O   UNL     1      19.716  21.277   7.125  1.00  0.00    -0.288 OA
ATOM     10  C   UNL     1      20.898  19.354   6.377  1.00  0.00     0.076 A 
ATOM     11  C   UNL     1      20.685  17.981   6.117  1.00  0.00     0.041 A 
ATOM     12  C   UNL     1      19.340  17.506   5.715  1.00  0.00     0.194 C 
ATOM     13  O   UNL     1      19.113  16.269   5.607  1.00  0.00    -0.289 OA
ATOM     14  C   UNL     1      21.750  17.073   6.238  1.00  0.00     0.059 A 
ATOM     15  C   UNL     1      23.023  17.517   6.596  1.00  0.00     0.120 A 
ATOM     16  C   UNL     1      23.248  18.878   6.815  1.00  0.00     0.093 A 
ATOM     17  C   UNL     1      22.208  19.805   6.682  1.00  0.00     0.131 A 
ENDROOT
BRANCH   6  18
ATOM     18  O   UNL     1      17.653  22.174   5.410  1.00  0.00    -0.507 OA
ATOM     19  H   UNL     1      18.060  22.744   4.682  1.00  0.00     0.293 HD
ENDBRANCH   6  18
BRANCH  17  20
ATOM     20  O   UNL     1      22.528  21.157   6.826  1.00  0.00    -0.507 OA
ATOM     21  H   UNL     1      23.199  21.505   7.497  1.00  0.00     0.293 HD
ENDBRANCH  17  20
BRANCH  15  22
ATOM     22  O   UNL     1      24.062  16.597   6.722  1.00  0.00    -0.508 OA
ATOM     23  H   UNL     1      24.731  16.653   7.480  1.00  0.00     0.293 HD
ENDBRANCH  15  22
TORSDOF 3
ENDMDL
MODEL 4
REMARK VINA RESULT:    -4.866      1.807      6.782
REMARK INTER + INTRA:          -5.293
REMARK INTER:                  -5.293
REMARK INTRA:                   0.000
REMARK UNBOUND:                 0.000
REMARK SMILES Cc1cc(O)c2c(c1)C(=O)c1cc(O)cc(O)c1C2=O
REMARK SMILES IDX 1 1 2 2 8 3 7 4 6 5 4 6 3 7 19 8 20 9 18 10 11 11 9 12 10 13
REMARK SMILES IDX 12 14 13 15 15 16 16 17 5 18 17 20 14 22
REMARK H PARENT 5 19 17 21 14 23
REMARK Flexibility Score: inf
ROOT
ATOM      1  C   UNL     1      24.591  18.085   7.057  1.00  0.00     0.044 C 
ATOM      2  C   UNL     1      23.168  18.045   6.582  1.00  0.00    -0.047 A 
ATOM      3  C   UNL     1      22.336  19.157   6.752  1.00  0.00     0.016 A 
ATOM      4  C   UNL     1      20.991  19.114   6.350  1.00  0.00     0.038 A 
ATOM      5  C   UNL     1      20.461  17.929   5.792  1.00  0.00     0.076 A 
ATOM      6  C   UNL     1      21.319  16.820   5.580  1.00  0.00     0.127 A 
ATOM      7  C   UNL     1      22.650  16.880   6.006  1.00  0.00     0.050 A 
ATOM      8  C   UNL     1      19.001  17.874   5.518  1.00  0.00     0.201 C 
ATOM      9  O   UNL     1      18.391  16.774   5.582  1.00  0.00    -0.288 OA
ATOM     10  C   UNL     1      18.233  19.136   5.354  1.00  0.00     0.076 A 
ATOM     11  C   UNL     1      18.767  20.319   5.914  1.00  0.00     0.041 A 
ATOM     12  C   UNL     1      20.126  20.308   6.506  1.00  0.00     0.194 C 
ATOM     13  O   UNL     1      20.556  21.323   7.119  1.00  0.00    -0.289 OA
ATOM     14  C   UNL     1      18.008  21.502   5.903  1.00  0.00     0.059 A 
ATOM     15  C   UNL     1      16.737  21.523   5.330  1.00  0.00     0.120 A 
ATOM     16  C   UNL     1      16.221  20.367   4.740  1.00  0.00     0.093 A 
ATOM     17  C   UNL     1      16.965  19.182   4.720  1.00  0.00     0.131 A 
ENDROOT
BRANCH   6  18
ATOM     18  O   UNL     1      20.905  15.658   4.923  1.00  0.00    -0.507 OA
ATOM     19  H   UNL     1      20.832  14.757   5.373  1.00  0.00     0.293 HD
ENDBRANCH   6  18
BRANCH  17  20
ATOM     20  O   UNL     1      16.424  18.093   4.033  1.00  0.00    -0.507 OA
ATOM     21  H   UNL     1      16.945  17.257   3.812  1.00  0.00     0.293 HD
ENDBRANCH  17  20
BRANCH  15  22
ATOM     22  O   UNL     1      15.998  22.704   5.341  1.00  0.00    -0.508 OA
ATOM     23  H   UNL     1      15.994  23.335   4.548  1.00  0.00     0.293 HD
ENDBRANCH  15  22
TORSDOF 3
ENDMDL
MODEL 5
REMARK VINA RESULT:    -4.712      7.753      9.179
REMARK INTER + INTRA:          -5.125
REMARK INTER:                  -5.125
REMARK INTRA:                   0.000
REMARK UNBOUND:                 0.000
REMARK SMILES Cc1cc(O)c2c(c1)C(=O)c1cc(O)cc(O)c1C2=O
REMARK SMILES IDX 1 1 2 2 8 3 7 4 6 5 4 6 3 7 19 8 20 9 18 10 11 11 9 12 10 13
REMARK SMILES IDX 12 14 13 15 15 16 16 17 5 18 17 20 14 22
REMARK H PARENT 5 19 17 21 14 23
REMARK Flexibility Score: inf
ROOT
ATOM      1  C   UNL     1      24.081  28.958   5.592  1.00  0.00     0.044 C 
ATOM      2  C   UNL     1      24.736  27.609   5.635  1.00  0.00    -0.047 A 
ATOM      3  C   UNL     1      24.157  26.523   4.968  1.00  0.00     0.016 A 
ATOM      4  C   UNL     1      24.739  25.246   5.039  1.00  0.00     0.038 A 
ATOM      5  C   UNL     1      25.905  25.046   5.811  1.00  0.00     0.076 A 
ATOM      6  C   UNL     1      26.513  26.158   6.447  1.00  0.00     0.127 A 
ATOM      7  C   UNL     1      25.905  27.416   6.378  1.00  0.00     0.050 A 
ATOM      8  C   UNL     1      26.404  23.656   5.981  1.00  0.00     0.201 C 
ATOM      9  O   UNL     1      27.017  23.334   7.034  1.00  0.00    -0.288 OA
ATOM     10  C   UNL     1      26.019  22.608   5.000  1.00  0.00     0.076 A 
ATOM     11  C   UNL     1      24.851  22.813   4.230  1.00  0.00     0.041 A 
ATOM     12  C   UNL     1      24.135  24.109   4.304  1.00  0.00     0.194 C 
ATOM     13  O   UNL     1      23.026  24.251   3.720  1.00  0.00    -0.289 OA
ATOM     14  C   UNL     1      24.377  21.788   3.395  1.00  0.00     0.059 A 
ATOM     15  C   UNL     1      25.057  20.574   3.306  1.00  0.00     0.120 A 
ATOM     16  C   UNL     1      26.234  20.381   4.034  1.00  0.00     0.093 A 
ATOM     17  C   UNL     1      26.737  21.393   4.858  1.00  0.00     0.131 A 
ENDROOT
BRANCH   6  18
ATOM     18  O   UNL     1      27.732  26.068   7.125  1.00  0.00    -0.507 OA
ATOM     19  H   UNL     1      27.865  25.523   7.965  1.00  0.00     0.293 HD
ENDBRANCH   6  18
BRANCH  17  20
ATOM     20  O   UNL     1      27.965  21.164   5.484  1.00  0.00    -0.507 OA
ATOM     21  H   UNL     1      28.071  20.608   6.321  1.00  0.00     0.293 HD
ENDBRANCH  17  20
BRANCH  15  22
ATOM     22  O   UNL     1      24.562  19.567   2.480  1.00  0.00    -0.508 OA
ATOM     23  H   UNL     1      23.810  19.742   1.824  1.00  0.00     0.293 HD
ENDBRANCH  15  22
TORSDOF 3
ENDMDL
MODEL 6
REMARK VINA RESULT:    -4.368      5.263      6.921
REMARK INTER + INTRA:          -4.751
REMARK INTER:                  -4.751
REMARK INTRA:                   0.000
REMARK UNBOUND:                 0.000
REMARK SMILES Cc1cc(O)c2c(c1)C(=O)c1cc(O)cc(O)c1C2=O
REMARK SMILES IDX 1 1 2 2 8 3 7 4 6 5 4 6 3 7 19 8 20 9 18 10 11 11 9 12 10 13
REMARK SMILES IDX 12 14 13 15 15 16 16 17 5 18 17 20 14 22
REMARK H PARENT 5 19 17 21 14 23
REMARK Flexibility Score: inf
ROOT
ATOM      1  C   UNL     1      22.868  22.780   7.023  1.00  0.00     0.044 C 
ATOM      2  C   UNL     1      23.060  21.303   6.843  1.00  0.00    -0.047 A 
ATOM      3  C   UNL     1      21.956  20.444   6.834  1.00  0.00     0.016 A 
ATOM      4  C   UNL     1      22.129  19.055   6.710  1.00  0.00     0.038 A 
ATOM      5  C   UNL     1      23.431  18.514   6.620  1.00  0.00     0.076 A 
ATOM      6  C   UNL     1      24.544  19.392   6.583  1.00  0.00     0.127 A 
ATOM      7  C   UNL     1      24.348  20.769   6.727  1.00  0.00     0.050 A 
ATOM      8  C   UNL     1      23.579  17.035   6.639  1.00  0.00     0.201 C 
ATOM      9  O   UNL     1      24.619  16.515   7.124  1.00  0.00    -0.288 OA
ATOM     10  C   UNL     1      22.428  16.173   6.263  1.00  0.00     0.076 A 
ATOM     11  C   UNL     1      21.128  16.719   6.355  1.00  0.00     0.041 A 
ATOM     12  C   UNL     1      20.951  18.156   6.671  1.00  0.00     0.194 C 
ATOM     13  O   UNL     1      19.796  18.619   6.880  1.00  0.00    -0.289 OA
ATOM     14  C   UNL     1      20.008  15.897   6.143  1.00  0.00     0.059 A 
ATOM     15  C   UNL     1      20.169  14.548   5.826  1.00  0.00     0.120 A 
ATOM     16  C   UNL     1      21.453  14.013   5.694  1.00  0.00     0.093 A 
ATOM     17  C   UNL     1      22.584  14.816   5.881  1.00  0.00     0.131 A 
ENDROOT
BRANCH   6  18
ATOM     18  O   UNL     1      25.852  18.946   6.371  1.00  0.00    -0.507 OA
ATOM     19  H   UNL     1      26.086  17.991   6.140  1.00  0.00     0.293 HD
ENDBRANCH   6  18
BRANCH  17  20
ATOM     20  O   UNL     1      23.832  14.235   5.643  1.00  0.00    -0.507 OA
ATOM     21  H   UNL     1      24.015  13.246   5.735  1.00  0.00     0.293 HD
ENDBRANCH  17  20
BRANCH  15  22
ATOM     22  O   UNL     1      19.044  13.749   5.631  1.00  0.00    -0.508 OA
ATOM     23  H   UNL     1      19.067  12.751   5.804  1.00  0.00     0.293 HD
ENDBRANCH  15  22
TORSDOF 3
ENDMDL
MODEL 7
REMARK VINA RESULT:    -4.350      1.284      6.420
REMARK INTER + INTRA:          -4.732
REMARK INTER:                  -4.732
REMARK INTRA:                   0.000
REMARK UNBOUND:                 0.000
REMARK SMILES Cc1cc(O)c2c(c1)C(=O)c1cc(O)cc(O)c1C2=O
REMARK SMILES IDX 1 1 2 2 8 3 7 4 6 5 4 6 3 7 19 8 20 9 18 10 11 11 9 12 10 13
REMARK SMILES IDX 12 14 13 15 15 16 16 17 5 18 17 20 14 22
REMARK H PARENT 5 19 17 21 14 23
REMARK Flexibility Score: inf
ROOT
ATOM      1  C   UNL     1      22.873  17.637   7.125  1.00  0.00     0.044 C 
ATOM      2  C   UNL     1      21.522  17.972   6.564  1.00  0.00    -0.047 A 
ATOM      3  C   UNL     1      20.981  19.250   6.746  1.00  0.00     0.016 A 
ATOM      4  C   UNL     1      19.698  19.559   6.262  1.00  0.00     0.038 A 
ATOM      5  C   UNL     1      18.934  18.567   5.610  1.00  0.00     0.076 A 
ATOM      6  C   UNL     1      19.504  17.288   5.388  1.00  0.00     0.127 A 
ATOM      7  C   UNL     1      20.775  16.997   5.895  1.00  0.00     0.050 A 
ATOM      8  C   UNL     1      17.529  18.890   5.246  1.00  0.00     0.201 C 
ATOM      9  O   UNL     1      16.663  17.975   5.213  1.00  0.00    -0.288 OA
ATOM     10  C   UNL     1      17.110  20.309   5.107  1.00  0.00     0.076 A 
ATOM     11  C   UNL     1      17.878  21.298   5.762  1.00  0.00     0.041 A 
ATOM     12  C   UNL     1      19.146  20.925   6.432  1.00  0.00     0.194 C 
ATOM     13  O   UNL     1      19.769  21.776   7.125  1.00  0.00    -0.289 OA
ATOM     14  C   UNL     1      17.438  22.632   5.771  1.00  0.00     0.059 A 
ATOM     15  C   UNL     1      16.256  22.993   5.125  1.00  0.00     0.120 A 
ATOM     16  C   UNL     1      15.514  22.027   4.442  1.00  0.00     0.093 A 
ATOM     17  C   UNL     1      15.941  20.695   4.402  1.00  0.00     0.131 A 
ENDROOT
BRANCH   6  18
ATOM     18  O   UNL     1      18.864  16.293   4.644  1.00  0.00    -0.507 OA
ATOM     19  H   UNL     1      19.047  16.123   3.665  1.00  0.00     0.293 HD
ENDBRANCH   6  18
BRANCH  17  20
ATOM     20  O   UNL     1      15.198  19.803   3.624  1.00  0.00    -0.507 OA
ATOM     21  H   UNL     1      14.658  20.082   2.817  1.00  0.00     0.293 HD
ENDBRANCH  17  20
BRANCH  15  22
ATOM     22  O   UNL     1      15.833  24.320   5.157  1.00  0.00    -0.508 OA
ATOM     23  H   UNL     1      14.969  24.590   5.613  1.00  0.00     0.293 HD
ENDBRANCH  15  22
TORSDOF 3
ENDMDL
MODEL 8
REMARK VINA RESULT:    -4.310      3.084      5.449
REMARK INTER + INTRA:          -4.688
REMARK INTER:                  -4.688
REMARK INTRA:                   0.000
REMARK UNBOUND:                 0.000
REMARK SMILES Cc1cc(O)c2c(c1)C(=O)c1cc(O)cc(O)c1C2=O
REMARK SMILES IDX 1 1 2 2 8 3 7 4 6 5 4 6 3 7 19 8 20 9 18 10 11 11 9 12 10 13
REMARK SMILES IDX 12 14 13 15 15 16 16 17 5 18 17 20 14 22
REMARK H PARENT 5 19 17 21 14 23
REMARK Flexibility Score: inf
ROOT
ATOM      1  C   UNL     1      18.947  22.514   7.103  1.00  0.00     0.044 C 
ATOM      2  C   UNL     1      19.038  21.057   6.753  1.00  0.00    -0.047 A 
ATOM      3  C   UNL     1      20.246  20.368   6.911  1.00  0.00     0.016 A 
ATOM      4  C   UNL     1      20.353  19.016   6.545  1.00  0.00     0.038 A 
ATOM      5  C   UNL     1      19.240  18.349   5.985  1.00  0.00     0.076 A 
ATOM      6  C   UNL     1      18.006  19.038   5.869  1.00  0.00     0.127 A 
ATOM      7  C   UNL     1      17.929  20.390   6.223  1.00  0.00     0.050 A 
ATOM      8  C   UNL     1      19.435  16.967   5.475  1.00  0.00     0.201 C 
ATOM      9  O   UNL     1      18.739  16.550   4.511  1.00  0.00    -0.288 OA
ATOM     10  C   UNL     1      20.572  16.149   5.974  1.00  0.00     0.076 A 
ATOM     11  C   UNL     1      21.682  16.821   6.532  1.00  0.00     0.041 A 
ATOM     12  C   UNL     1      21.628  18.287   6.745  1.00  0.00     0.194 C 
ATOM     13  O   UNL     1      22.659  18.909   7.123  1.00  0.00    -0.289 OA
ATOM     14  C   UNL     1      22.832  16.096   6.887  1.00  0.00     0.059 A 
ATOM     15  C   UNL     1      22.882  14.713   6.707  1.00  0.00     0.120 A 
ATOM     16  C   UNL     1      21.772  14.039   6.193  1.00  0.00     0.093 A 
ATOM     17  C   UNL     1      20.608  14.736   5.851  1.00  0.00     0.131 A 
ENDROOT
BRANCH   6  18
ATOM     18  O   UNL     1      16.830  18.416   5.443  1.00  0.00    -0.507 OA
ATOM     19  H   UNL     1      16.730  17.967   4.544  1.00  0.00     0.293 HD
ENDBRANCH   6  18
BRANCH  17  20
ATOM     20  O   UNL     1      19.508  13.985   5.430  1.00  0.00    -0.507 OA
ATOM     21  H   UNL     1      19.327  13.752   4.463  1.00  0.00     0.293 HD
ENDBRANCH  17  20
BRANCH  15  22
ATOM     22  O   UNL     1      24.037  14.017   7.055  1.00  0.00    -0.508 OA
ATOM     23  H   UNL     1      24.589  14.275   7.864  1.00  0.00     0.293 HD
ENDBRANCH  15  22
TORSDOF 3
ENDMDL
