MODEL 1
REMARK VINA RESULT:    -3.000      0.000      0.000
REMARK INTER + INTRA:          -7.056
REMARK INTER:                  -5.104
REMARK INTRA:                  -1.952
REMARK UNBOUND:                -1.952
REMARK SMILES CCCCCCCCCCCCCC(=O)[O-]
REMARK SMILES IDX 8 1 9 2 10 3 11 4 12 5 13 6 14 7 15 8 16 9 7 10 6 11 5 12
REMARK SMILES IDX 4 13 3 14 2 15 1 16
REMARK H PARENT
REMARK Flexibility Score: inf
ROOT
ATOM      1  C   UNL     1    -100.030 -31.104 -15.215  1.00  0.00     0.000 C 
ENDROOT
BRANCH   1   2
ATOM      2  C   UNL     1    -100.499 -30.202 -16.368  1.00  0.00     0.000 C 
BRANCH   2   3
ATOM      3  C   UNL     1    -101.889 -29.595 -16.114  1.00  0.00     0.000 C 
BRANCH   3   4
ATOM      4  C   UNL     1    -101.953 -28.101 -16.463  1.00  0.00     0.000 C 
BRANCH   4   5
ATOM      5  C   UNL     1    -103.395 -27.572 -16.552  1.00  0.00     0.006 C 
BRANCH   5   6
ATOM      6  C   UNL     1    -103.444 -26.050 -16.739  1.00  0.00     0.053 C 
BRANCH   6   7
ATOM      7  C   UNL     1    -104.359 -25.397 -15.748  1.00  0.00     0.041 C 
ATOM      8  O   UNL     1    -104.245 -24.170 -15.494  1.00  0.00    -0.550 OA
ATOM      9  O   UNL     1    -105.362 -26.137 -15.134  1.00  0.00    -0.550 OA
ENDBRANCH   6   7
ENDBRANCH   5   6
ENDBRANCH   4   5
ENDBRANCH   3   4
ENDBRANCH   2   3
ENDBRANCH   1   2
BRANCH   1  10
ATOM     10  C   UNL     1    -100.924 -30.987 -13.968  1.00  0.00     0.000 C 
BRANCH  10  11
ATOM     11  C   UNL     1    -100.172 -30.430 -12.749  1.00  0.00    -0.000 C 
BRANCH  11  12
ATOM     12  C   UNL     1     -99.362 -29.165 -13.081  1.00  0.00    -0.000 C 
BRANCH  12  13
ATOM     13  C   UNL     1    -100.249 -27.920 -13.237  1.00  0.00    -0.000 C 
BRANCH  13  14
ATOM     14  C   UNL     1    -101.400 -27.880 -12.216  1.00  0.00    -0.000 C 
BRANCH  14  15
ATOM     15  C   UNL     1    -102.739 -27.484 -12.856  1.00  0.00    -0.003 C 
ATOM     16  C   UNL     1    -103.741 -28.638 -12.893  1.00  0.00     0.004 C 
ENDBRANCH  14  15
ENDBRANCH  13  14
ENDBRANCH  12  13
ENDBRANCH  11  12
ENDBRANCH  10  11
ENDBRANCH   1  10
TORSDOF 12
ENDMDL
MODEL 2
REMARK VINA RESULT:    -2.899      1.241      2.880
REMARK INTER + INTRA:          -6.885
REMARK INTER:                  -5.213
REMARK INTRA:                  -1.672
REMARK UNBOUND:                -1.952
REMARK SMILES CCCCCCCCCCCCCC(=O)[O-]
REMARK SMILES IDX 8 1 9 2 10 3 11 4 12 5 13 6 14 7 15 8 16 9 7 10 6 11 5 12
REMARK SMILES IDX 4 13 3 14 2 15 1 16
REMARK H PARENT
REMARK Flexibility Score: inf
ROOT
ATOM      1  C   UNL     1    -103.682 -29.250 -14.913  1.00  0.00     0.000 C 
ENDROOT
BRANCH   1   2
ATOM      2  C   UNL     1    -102.421 -29.453 -15.768  1.00  0.00     0.000 C 
BRANCH   2   3
ATOM      3  C   UNL     1    -101.916 -28.143 -16.397  1.00  0.00     0.000 C 
BRANCH   3   4
ATOM      4  C   UNL     1    -102.519 -26.898 -15.729  1.00  0.00     0.000 C 
BRANCH   4   5
ATOM      5  C   UNL     1    -103.401 -26.078 -16.687  1.00  0.00     0.006 C 
BRANCH   5   6
ATOM      6  C   UNL     1    -104.195 -24.988 -15.955  1.00  0.00     0.053 C 
BRANCH   6   7
ATOM      7  C   UNL     1    -105.668 -25.116 -16.198  1.00  0.00     0.041 C 
ATOM      8  O   UNL     1    -106.230 -26.238 -16.104  1.00  0.00    -0.550 OA
ATOM      9  O   UNL     1    -106.425 -23.989 -16.492  1.00  0.00    -0.550 OA
ENDBRANCH   6   7
ENDBRANCH   5   6
ENDBRANCH   4   5
ENDBRANCH   3   4
ENDBRANCH   2   3
ENDBRANCH   1   2
BRANCH   1  10
ATOM     10  C   UNL     1    -103.440 -29.530 -13.420  1.00  0.00     0.000 C 
BRANCH  10  11
ATOM     11  C   UNL     1    -103.713 -28.304 -12.534  1.00  0.00    -0.000 C 
BRANCH  11  12
ATOM     12  C   UNL     1    -102.426 -27.552 -12.153  1.00  0.00    -0.000 C 
BRANCH  12  13
ATOM     13  C   UNL     1    -101.185 -28.458 -12.171  1.00  0.00    -0.000 C 
BRANCH  13  14
ATOM     14  C   UNL     1    -100.100 -27.958 -13.142  1.00  0.00    -0.000 C 
BRANCH  14  15
ATOM     15  C   UNL     1     -98.919 -28.934 -13.255  1.00  0.00    -0.003 C 
ATOM     16  C   UNL     1     -99.288 -30.225 -13.986  1.00  0.00     0.004 C 
ENDBRANCH  14  15
ENDBRANCH  13  14
ENDBRANCH  12  13
ENDBRANCH  11  12
ENDBRANCH  10  11
ENDBRANCH   1  10
TORSDOF 12
ENDMDL
MODEL 3
REMARK VINA RESULT:    -2.891      3.907      6.453
REMARK INTER + INTRA:          -6.870
REMARK INTER:                  -5.384
REMARK INTRA:                  -1.487
REMARK UNBOUND:                -1.952
REMARK SMILES CCCCCCCCCCCCCC(=O)[O-]
REMARK SMILES IDX 8 1 9 2 10 3 11 4 12 5 13 6 14 7 15 8 16 9 7 10 6 11 5 12
REMARK SMILES IDX 4 13 3 14 2 15 1 16
REMARK H PARENT
REMARK Flexibility Score: inf
ROOT
ATOM      1  C   UNL     1    -103.096 -27.857 -12.839  1.00  0.00     0.000 C 
ENDROOT
BRANCH   1   2
ATOM      2  C   UNL     1    -101.707 -27.675 -12.208  1.00  0.00     0.000 C 
BRANCH   2   3
ATOM      3  C   UNL     1    -100.580 -27.662 -13.255  1.00  0.00     0.000 C 
BRANCH   3   4
ATOM      4  C   UNL     1    -100.007 -29.063 -13.523  1.00  0.00     0.000 C 
BRANCH   4   5
ATOM      5  C   UNL     1     -98.519 -29.177 -13.148  1.00  0.00     0.006 C 
BRANCH   5   6
ATOM      6  C   UNL     1     -98.254 -30.334 -12.176  1.00  0.00     0.053 C 
BRANCH   6   7
ATOM      7  C   UNL     1     -97.177 -29.996 -11.191  1.00  0.00     0.041 C 
ATOM      8  O   UNL     1     -97.451 -29.880  -9.968  1.00  0.00    -0.550 OA
ATOM      9  O   UNL     1     -95.864 -29.845 -11.619  1.00  0.00    -0.550 OA
ENDBRANCH   6   7
ENDBRANCH   5   6
ENDBRANCH   4   5
ENDBRANCH   3   4
ENDBRANCH   2   3
ENDBRANCH   1   2
BRANCH   1  10
ATOM     10  C   UNL     1    -103.833 -26.521 -13.047  1.00  0.00     0.000 C 
BRANCH  10  11
ATOM     11  C   UNL     1    -104.404 -26.374 -14.466  1.00  0.00    -0.000 C 
BRANCH  11  12
ATOM     12  C   UNL     1    -103.323 -26.037 -15.506  1.00  0.00    -0.000 C 
BRANCH  12  13
ATOM     13  C   UNL     1    -103.226 -27.091 -16.621  1.00  0.00    -0.000 C 
BRANCH  13  14
ATOM     14  C   UNL     1    -101.955 -27.952 -16.514  1.00  0.00    -0.000 C 
BRANCH  14  15
ATOM     15  C   UNL     1    -102.269 -29.450 -16.388  1.00  0.00    -0.003 C 
ATOM     16  C   UNL     1    -103.733 -29.720 -16.042  1.00  0.00     0.004 C 
ENDBRANCH  14  15
ENDBRANCH  13  14
ENDBRANCH  12  13
ENDBRANCH  11  12
ENDBRANCH  10  11
ENDBRANCH   1  10
TORSDOF 12
ENDMDL
MODEL 4
REMARK VINA RESULT:    -2.881      3.263      5.883
REMARK INTER + INTRA:          -6.855
REMARK INTER:                  -5.676
REMARK INTRA:                  -1.179
REMARK UNBOUND:                -1.952
REMARK SMILES CCCCCCCCCCCCCC(=O)[O-]
REMARK SMILES IDX 8 1 9 2 10 3 11 4 12 5 13 6 14 7 15 8 16 9 7 10 6 11 5 12
REMARK SMILES IDX 4 13 3 14 2 15 1 16
REMARK H PARENT
REMARK Flexibility Score: inf
ROOT
ATOM      1  C   UNL     1    -101.618 -27.576 -15.171  1.00  0.00     0.000 C 
ENDROOT
BRANCH   1   2
ATOM      2  C   UNL     1    -102.112 -28.011 -13.782  1.00  0.00     0.000 C 
BRANCH   2   3
ATOM      3  C   UNL     1    -101.074 -27.748 -12.678  1.00  0.00     0.000 C 
BRANCH   3   4
ATOM      4  C   UNL     1    -100.938 -28.929 -11.704  1.00  0.00     0.000 C 
BRANCH   4   5
ATOM      5  C   UNL     1     -99.583 -29.647 -11.827  1.00  0.00     0.006 C 
BRANCH   5   6
ATOM      6  C   UNL     1     -98.795 -29.192 -13.063  1.00  0.00     0.053 C 
BRANCH   6   7
ATOM      7  C   UNL     1     -98.631 -30.300 -14.057  1.00  0.00     0.041 C 
ATOM      8  O   UNL     1     -99.435 -30.412 -15.020  1.00  0.00    -0.550 OA
ATOM      9  O   UNL     1     -97.570 -31.189 -13.941  1.00  0.00    -0.550 OA
ENDBRANCH   6   7
ENDBRANCH   5   6
ENDBRANCH   4   5
ENDBRANCH   3   4
ENDBRANCH   2   3
ENDBRANCH   1   2
BRANCH   1  10
ATOM     10  C   UNL     1    -102.391 -28.254 -16.316  1.00  0.00     0.000 C 
BRANCH  10  11
ATOM     11  C   UNL     1    -103.653 -27.475 -16.721  1.00  0.00    -0.000 C 
BRANCH  11  12
ATOM     12  C   UNL     1    -103.448 -25.952 -16.678  1.00  0.00    -0.000 C 
BRANCH  12  13
ATOM     13  C   UNL     1    -104.722 -25.195 -16.269  1.00  0.00    -0.000 C 
BRANCH  13  14
ATOM     14  C   UNL     1    -104.513 -24.309 -15.029  1.00  0.00    -0.000 C 
BRANCH  14  15
ATOM     15  C   UNL     1    -104.522 -25.115 -13.722  1.00  0.00    -0.003 C 
ATOM     16  C   UNL     1    -104.595 -24.227 -12.480  1.00  0.00     0.004 C 
ENDBRANCH  14  15
ENDBRANCH  13  14
ENDBRANCH  12  13
ENDBRANCH  11  12
ENDBRANCH  10  11
ENDBRANCH   1  10
TORSDOF 12
ENDMDL
MODEL 5
REMARK VINA RESULT:    -2.877      3.984      5.979
REMARK INTER + INTRA:          -6.847
REMARK INTER:                  -4.797
REMARK INTRA:                  -2.050
REMARK UNBOUND:                -1.952
REMARK SMILES CCCCCCCCCCCCCC(=O)[O-]
REMARK SMILES IDX 8 1 9 2 10 3 11 4 12 5 13 6 14 7 15 8 16 9 7 10 6 11 5 12
REMARK SMILES IDX 4 13 3 14 2 15 1 16
REMARK H PARENT
REMARK Flexibility Score: inf
ROOT
ATOM      1  C   UNL     1    -102.214 -30.784 -12.960  1.00  0.00     0.000 C 
ENDROOT
BRANCH   1   2
ATOM      2  C   UNL     1    -100.734 -30.673 -12.561  1.00  0.00     0.000 C 
BRANCH   2   3
ATOM      3  C   UNL     1    -100.323 -29.232 -12.213  1.00  0.00     0.000 C 
BRANCH   3   4
ATOM      4  C   UNL     1     -99.127 -28.744 -13.044  1.00  0.00     0.000 C 
BRANCH   4   5
ATOM      5  C   UNL     1     -98.194 -29.889 -13.474  1.00  0.00     0.006 C 
BRANCH   5   6
ATOM      6  C   UNL     1     -96.879 -29.894 -12.682  1.00  0.00     0.053 C 
BRANCH   6   7
ATOM      7  C   UNL     1     -97.036 -30.557 -11.348  1.00  0.00     0.041 C 
ATOM      8  O   UNL     1     -96.897 -29.891 -10.289  1.00  0.00    -0.550 OA
ATOM      9  O   UNL     1     -97.372 -31.903 -11.275  1.00  0.00    -0.550 OA
ENDBRANCH   6   7
ENDBRANCH   5   6
ENDBRANCH   4   5
ENDBRANCH   3   4
ENDBRANCH   2   3
ENDBRANCH   1   2
BRANCH   1  10
ATOM     10  C   UNL     1    -102.403 -31.216 -14.425  1.00  0.00     0.000 C 
BRANCH  10  11
ATOM     11  C   UNL     1    -101.079 -31.268 -15.204  1.00  0.00    -0.000 C 
BRANCH  11  12
ATOM     12  C   UNL     1    -100.940 -30.115 -16.212  1.00  0.00    -0.000 C 
BRANCH  12  13
ATOM     13  C   UNL     1    -102.272 -29.393 -16.471  1.00  0.00    -0.000 C 
BRANCH  13  14
ATOM     14  C   UNL     1    -102.133 -27.861 -16.434  1.00  0.00    -0.000 C 
BRANCH  14  15
ATOM     15  C   UNL     1    -101.780 -27.336 -15.034  1.00  0.00    -0.003 C 
ATOM     16  C   UNL     1    -102.986 -27.298 -14.096  1.00  0.00     0.004 C 
ENDBRANCH  14  15
ENDBRANCH  13  14
ENDBRANCH  12  13
ENDBRANCH  11  12
ENDBRANCH  10  11
ENDBRANCH   1  10
TORSDOF 12
ENDMDL
MODEL 6
REMARK VINA RESULT:    -2.860      3.972      5.830
REMARK INTER + INTRA:          -6.819
REMARK INTER:                  -5.312
REMARK INTRA:                  -1.506
REMARK UNBOUND:                -1.952
REMARK SMILES CCCCCCCCCCCCCC(=O)[O-]
REMARK SMILES IDX 8 1 9 2 10 3 11 4 12 5 13 6 14 7 15 8 16 9 7 10 6 11 5 12
REMARK SMILES IDX 4 13 3 14 2 15 1 16
REMARK H PARENT
REMARK Flexibility Score: inf
ROOT
ATOM      1  C   UNL     1    -101.960 -29.522 -16.255  1.00  0.00     0.000 C 
ENDROOT
BRANCH   1   2
ATOM      2  C   UNL     1    -100.538 -30.069 -16.053  1.00  0.00     0.000 C 
BRANCH   2   3
ATOM      3  C   UNL     1    -100.273 -30.500 -14.600  1.00  0.00     0.000 C 
BRANCH   3   4
ATOM      4  C   UNL     1     -98.773 -30.579 -14.273  1.00  0.00     0.000 C 
BRANCH   4   5
ATOM      5  C   UNL     1     -98.326 -29.497 -13.274  1.00  0.00     0.006 C 
BRANCH   5   6
ATOM      6  C   UNL     1     -96.943 -29.794 -12.679  1.00  0.00     0.053 C 
BRANCH   6   7
ATOM      7  C   UNL     1     -97.038 -30.252 -11.256  1.00  0.00     0.041 C 
ATOM      8  O   UNL     1     -97.960 -29.825 -10.513  1.00  0.00    -0.550 OA
ATOM      9  O   UNL     1     -96.128 -31.177 -10.759  1.00  0.00    -0.550 OA
ENDBRANCH   6   7
ENDBRANCH   5   6
ENDBRANCH   4   5
ENDBRANCH   3   4
ENDBRANCH   2   3
ENDBRANCH   1   2
BRANCH   1  10
ATOM     10  C   UNL     1    -101.989 -27.994 -16.432  1.00  0.00     0.000 C 
BRANCH  10  11
ATOM     11  C   UNL     1    -102.002 -27.242 -15.091  1.00  0.00    -0.000 C 
BRANCH  11  12
ATOM     12  C   UNL     1    -103.022 -27.823 -14.098  1.00  0.00    -0.000 C 
BRANCH  12  13
ATOM     13  C   UNL     1    -102.726 -27.420 -12.644  1.00  0.00    -0.000 C 
BRANCH  13  14
ATOM     14  C   UNL     1    -101.309 -27.818 -12.194  1.00  0.00    -0.000 C 
BRANCH  14  15
ATOM     15  C   UNL     1    -101.322 -28.799 -11.012  1.00  0.00    -0.003 C 
ATOM     16  C   UNL     1    -101.895 -30.166 -11.385  1.00  0.00     0.004 C 
ENDBRANCH  14  15
ENDBRANCH  13  14
ENDBRANCH  12  13
ENDBRANCH  11  12
ENDBRANCH  10  11
ENDBRANCH   1  10
TORSDOF 12
ENDMDL
MODEL 7
REMARK VINA RESULT:    -2.860      1.283      1.603
REMARK INTER + INTRA:          -6.817
REMARK INTER:                  -4.636
REMARK INTRA:                  -2.182
REMARK UNBOUND:                -1.952
REMARK SMILES CCCCCCCCCCCCCC(=O)[O-]
REMARK SMILES IDX 8 1 9 2 10 3 11 4 12 5 13 6 14 7 15 8 16 9 7 10 6 11 5 12
REMARK SMILES IDX 4 13 3 14 2 15 1 16
REMARK H PARENT
REMARK Flexibility Score: inf
ROOT
ATOM      1  C   UNL     1    -103.059 -30.670 -14.139  1.00  0.00     0.000 C 
ENDROOT
BRANCH   1   2
ATOM      2  C   UNL     1    -103.458 -29.563 -15.127  1.00  0.00     0.000 C 
BRANCH   2   3
ATOM      3  C   UNL     1    -102.431 -29.384 -16.259  1.00  0.00     0.000 C 
BRANCH   3   4
ATOM      4  C   UNL     1    -101.989 -27.922 -16.428  1.00  0.00     0.000 C 
BRANCH   4   5
ATOM      5  C   UNL     1    -102.919 -26.932 -15.705  1.00  0.00     0.006 C 
BRANCH   5   6
ATOM      6  C   UNL     1    -103.566 -25.933 -16.673  1.00  0.00     0.053 C 
BRANCH   6   7
ATOM      7  C   UNL     1    -105.031 -26.195 -16.846  1.00  0.00     0.041 C 
ATOM      8  O   UNL     1    -105.856 -25.247 -16.782  1.00  0.00    -0.550 OA
ATOM      9  O   UNL     1    -105.481 -27.482 -17.115  1.00  0.00    -0.550 OA
ENDBRANCH   6   7
ENDBRANCH   5   6
ENDBRANCH   4   5
ENDBRANCH   3   4
ENDBRANCH   2   3
ENDBRANCH   1   2
BRANCH   1  10
ATOM     10  C   UNL     1    -101.593 -31.110 -14.300  1.00  0.00     0.000 C 
BRANCH  10  11
ATOM     11  C   UNL     1    -100.688 -30.578 -13.176  1.00  0.00    -0.000 C 
BRANCH  11  12
ATOM     12  C   UNL     1     -99.829 -29.384 -13.624  1.00  0.00    -0.000 C 
BRANCH  12  13
ATOM     13  C   UNL     1    -100.335 -28.047 -13.057  1.00  0.00    -0.000 C 
BRANCH  13  14
ATOM     14  C   UNL     1    -101.368 -28.233 -11.932  1.00  0.00    -0.000 C 
BRANCH  14  15
ATOM     15  C   UNL     1    -102.582 -27.306 -12.091  1.00  0.00    -0.003 C 
ATOM     16  C   UNL     1    -103.884 -27.950 -11.616  1.00  0.00     0.004 C 
ENDBRANCH  14  15
ENDBRANCH  13  14
ENDBRANCH  12  13
ENDBRANCH  11  12
ENDBRANCH  10  11
ENDBRANCH   1  10
TORSDOF 12
ENDMDL
MODEL 8
REMARK VINA RESULT:    -2.840      4.096      6.439
REMARK INTER + INTRA:          -6.784
REMARK INTER:                  -4.880
REMARK INTRA:                  -1.904
REMARK UNBOUND:                -1.952
REMARK SMILES CCCCCCCCCCCCCC(=O)[O-]
REMARK SMILES IDX 8 1 9 2 10 3 11 4 12 5 13 6 14 7 15 8 16 9 7 10 6 11 5 12
REMARK SMILES IDX 4 13 3 14 2 15 1 16
REMARK H PARENT
REMARK Flexibility Score: inf
ROOT
ATOM      1  C   UNL     1    -102.818 -28.057 -12.788  1.00  0.00     0.000 C 
ENDROOT
BRANCH   1   2
ATOM      2  C   UNL     1    -101.349 -27.697 -12.515  1.00  0.00     0.000 C 
BRANCH   2   3
ATOM      3  C   UNL     1    -100.449 -28.938 -12.394  1.00  0.00     0.000 C 
BRANCH   3   4
ATOM      4  C   UNL     1     -99.116 -28.777 -13.141  1.00  0.00     0.000 C 
BRANCH   4   5
ATOM      5  C   UNL     1     -98.312 -30.087 -13.213  1.00  0.00     0.006 C 
BRANCH   5   6
ATOM      6  C   UNL     1     -96.876 -29.914 -12.703  1.00  0.00     0.053 C 
BRANCH   6   7
ATOM      7  C   UNL     1     -96.716 -30.428 -11.305  1.00  0.00     0.041 C 
ATOM      8  O   UNL     1     -95.926 -31.378 -11.065  1.00  0.00    -0.550 OA
ATOM      9  O   UNL     1     -97.414 -29.833 -10.261  1.00  0.00    -0.550 OA
ENDBRANCH   6   7
ENDBRANCH   5   6
ENDBRANCH   4   5
ENDBRANCH   3   4
ENDBRANCH   2   3
ENDBRANCH   1   2
BRANCH   1  10
ATOM     10  C   UNL     1    -103.281 -27.637 -14.194  1.00  0.00     0.000 C 
BRANCH  10  11
ATOM     11  C   UNL     1    -102.119 -27.179 -15.090  1.00  0.00    -0.000 C 
BRANCH  11  12
ATOM     12  C   UNL     1    -101.974 -28.040 -16.356  1.00  0.00    -0.000 C 
BRANCH  12  13
ATOM     13  C   UNL     1    -101.110 -29.291 -16.124  1.00  0.00    -0.000 C 
BRANCH  13  14
ATOM     14  C   UNL     1    -101.942 -30.584 -16.065  1.00  0.00    -0.000 C 
BRANCH  14  15
ATOM     15  C   UNL     1    -101.607 -31.443 -14.837  1.00  0.00    -0.003 C 
ATOM     16  C   UNL     1    -102.786 -31.582 -13.874  1.00  0.00     0.004 C 
ENDBRANCH  14  15
ENDBRANCH  13  14
ENDBRANCH  12  13
ENDBRANCH  11  12
ENDBRANCH  10  11
ENDBRANCH   1  10
TORSDOF 12
ENDMDL
MODEL 9
REMARK VINA RESULT:    -2.788      1.137      2.703
REMARK INTER + INTRA:          -6.695
REMARK INTER:                  -4.774
REMARK INTRA:                  -1.921
REMARK UNBOUND:                -1.952
REMARK SMILES CCCCCCCCCCCCCC(=O)[O-]
REMARK SMILES IDX 8 1 9 2 10 3 11 4 12 5 13 6 14 7 15 8 16 9 7 10 6 11 5 12
REMARK SMILES IDX 4 13 3 14 2 15 1 16
REMARK H PARENT
REMARK Flexibility Score: inf
ROOT
ATOM      1  C   UNL     1    -103.181 -29.981 -13.710  1.00  0.00     0.000 C 
ENDROOT
BRANCH   1   2
ATOM      2  C   UNL     1    -103.702 -29.201 -14.927  1.00  0.00     0.000 C 
BRANCH   2   3
ATOM      3  C   UNL     1    -102.760 -29.300 -16.139  1.00  0.00     0.000 C 
BRANCH   3   4
ATOM      4  C   UNL     1    -102.072 -27.964 -16.461  1.00  0.00     0.000 C 
BRANCH   4   5
ATOM      5  C   UNL     1    -102.566 -26.811 -15.571  1.00  0.00     0.006 C 
BRANCH   5   6
ATOM      6  C   UNL     1    -103.469 -25.834 -16.335  1.00  0.00     0.053 C 
BRANCH   6   7
ATOM      7  C   UNL     1    -104.213 -24.924 -15.407  1.00  0.00     0.041 C 
ATOM      8  O   UNL     1    -104.872 -23.954 -15.864  1.00  0.00    -0.550 OA
ATOM      9  O   UNL     1    -104.208 -25.168 -14.039  1.00  0.00    -0.550 OA
ENDBRANCH   6   7
ENDBRANCH   5   6
ENDBRANCH   4   5
ENDBRANCH   3   4
ENDBRANCH   2   3
ENDBRANCH   1   2
BRANCH   1  10
ATOM     10  C   UNL     1    -102.900 -29.073 -12.499  1.00  0.00     0.000 C 
BRANCH  10  11
ATOM     11  C   UNL     1    -101.425 -29.100 -12.068  1.00  0.00    -0.000 C 
BRANCH  11  12
ATOM     12  C   UNL     1    -100.566 -28.078 -12.833  1.00  0.00    -0.000 C 
BRANCH  12  13
ATOM     13  C   UNL     1     -99.259 -28.687 -13.366  1.00  0.00    -0.000 C 
BRANCH  13  14
ATOM     14  C   UNL     1     -99.346 -30.212 -13.552  1.00  0.00    -0.000 C 
BRANCH  14  15
ATOM     15  C   UNL     1     -99.456 -30.618 -15.029  1.00  0.00    -0.003 C 
ATOM     16  C   UNL     1    -100.298 -31.877 -15.235  1.00  0.00     0.004 C 
ENDBRANCH  14  15
ENDBRANCH  13  14
ENDBRANCH  12  13
ENDBRANCH  11  12
ENDBRANCH  10  11
ENDBRANCH   1  10
TORSDOF 12
ENDMDL
