MODEL 1
REMARK VINA RESULT:    -3.481      0.000      0.000
REMARK INTER + INTRA:         -13.872
REMARK INTER:                  -9.178
REMARK INTRA:                  -4.694
REMARK UNBOUND:                -4.694
REMARK SMILES CCCCCCCCCCCCCCCCCCCCCCCCCCCCCC(=O)[O-]
REMARK SMILES IDX 16 1 17 2 18 3 19 4 20 5 21 6 22 7 23 8 24 9 25 10 26 11
REMARK SMILES IDX 27 12 28 13 29 14 30 15 31 16 32 17 15 18 14 19 13 20 12 21
REMARK SMILES IDX 11 22 10 23 9 24 8 25 7 26 6 27 5 28 4 29 3 30 2 31 1 32
REMARK H PARENT
REMARK Flexibility Score: inf
ROOT
ATOM      1  C   UNL     1       0.456   1.237  -4.531  1.00  0.00     0.000 C 
ENDROOT
BRANCH   1   2
ATOM      2  C   UNL     1       0.155   1.987  -5.839  1.00  0.00     0.000 C 
BRANCH   2   3
ATOM      3  C   UNL     1       1.340   1.975  -6.819  1.00  0.00     0.000 C 
BRANCH   3   4
ATOM      4  C   UNL     1       2.384   3.064  -6.505  1.00  0.00     0.000 C 
BRANCH   4   5
ATOM      5  C   UNL     1       3.721   2.547  -5.936  1.00  0.00     0.000 C 
BRANCH   5   6
ATOM      6  C   UNL     1       3.968   2.856  -4.444  1.00  0.00     0.000 C 
BRANCH   6   7
ATOM      7  C   UNL     1       3.122   4.005  -3.865  1.00  0.00     0.000 C 
BRANCH   7   8
ATOM      8  C   UNL     1       3.961   5.245  -3.511  1.00  0.00     0.000 C 
BRANCH   8   9
ATOM      9  C   UNL     1       3.273   6.558  -3.918  1.00  0.00     0.000 C 
BRANCH   9  10
ATOM     10  C   UNL     1       2.723   6.524  -5.352  1.00  0.00     0.000 C 
BRANCH  10  11
ATOM     11  C   UNL     1       1.354   7.212  -5.429  1.00  0.00     0.000 C 
BRANCH  11  12
ATOM     12  C   UNL     1       0.629   6.852  -6.734  1.00  0.00     0.000 C 
BRANCH  12  13
ATOM     13  C   UNL     1      -0.493   5.817  -6.534  1.00  0.00     0.006 C 
BRANCH  13  14
ATOM     14  C   UNL     1      -1.913   6.407  -6.634  1.00  0.00     0.053 C 
BRANCH  14  15
ATOM     15  C   UNL     1      -2.619   6.438  -5.313  1.00  0.00     0.041 C 
ATOM     16  O   UNL     1      -1.989   6.733  -4.263  1.00  0.00    -0.550 OA
ATOM     17  O   UNL     1      -3.982   6.178  -5.245  1.00  0.00    -0.550 OA
ENDBRANCH  14  15
ENDBRANCH  13  14
ENDBRANCH  12  13
ENDBRANCH  11  12
ENDBRANCH  10  11
ENDBRANCH   9  10
ENDBRANCH   8   9
ENDBRANCH   7   8
ENDBRANCH   6   7
ENDBRANCH   5   6
ENDBRANCH   4   5
ENDBRANCH   3   4
ENDBRANCH   2   3
ENDBRANCH   1   2
BRANCH   1  18
ATOM     18  C   UNL     1      -0.629   0.242  -4.076  1.00  0.00     0.000 C 
BRANCH  18  19
ATOM     19  C   UNL     1      -0.120  -1.204  -3.886  1.00  0.00     0.000 C 
BRANCH  19  20
ATOM     20  C   UNL     1       0.901  -1.621  -4.961  1.00  0.00     0.000 C 
BRANCH  20  21
ATOM     21  C   UNL     1       2.266  -1.988  -4.350  1.00  0.00     0.000 C 
BRANCH  21  22
ATOM     22  C   UNL     1       3.299  -0.847  -4.445  1.00  0.00     0.000 C 
BRANCH  22  23
ATOM     23  C   UNL     1       4.520  -1.093  -3.540  1.00  0.00     0.000 C 
BRANCH  23  24
ATOM     24  C   UNL     1       5.774  -0.328  -4.014  1.00  0.00    -0.000 C 
BRANCH  24  25
ATOM     25  C   UNL     1       6.267  -0.738  -5.415  1.00  0.00    -0.000 C 
BRANCH  25  26
ATOM     26  C   UNL     1       6.591   0.426  -6.365  1.00  0.00    -0.000 C 
BRANCH  26  27
ATOM     27  C   UNL     1       8.082   0.806  -6.359  1.00  0.00    -0.000 C 
BRANCH  27  28
ATOM     28  C   UNL     1       8.312   2.327  -6.290  1.00  0.00    -0.000 C 
BRANCH  28  29
ATOM     29  C   UNL     1       7.368   3.094  -5.340  1.00  0.00    -0.000 C 
BRANCH  29  30
ATOM     30  C   UNL     1       7.913   4.435  -4.818  1.00  0.00    -0.000 C 
BRANCH  30  31
ATOM     31  C   UNL     1       7.361   5.644  -5.587  1.00  0.00    -0.003 C 
ATOM     32  C   UNL     1       6.146   5.254  -6.426  1.00  0.00     0.004 C 
ENDBRANCH  30  31
ENDBRANCH  29  30
ENDBRANCH  28  29
ENDBRANCH  27  28
ENDBRANCH  26  27
ENDBRANCH  25  26
ENDBRANCH  24  25
ENDBRANCH  23  24
ENDBRANCH  22  23
ENDBRANCH  21  22
ENDBRANCH  20  21
ENDBRANCH  19  20
ENDBRANCH  18  19
ENDBRANCH   1  18
TORSDOF 28
ENDMDL
MODEL 2
REMARK VINA RESULT:    -2.492      4.537      7.566
REMARK INTER + INTRA:         -11.266
REMARK INTER:                  -7.880
REMARK INTRA:                  -3.385
REMARK UNBOUND:                -4.694
REMARK SMILES CCCCCCCCCCCCCCCCCCCCCCCCCCCCCC(=O)[O-]
REMARK SMILES IDX 16 1 17 2 18 3 19 4 20 5 21 6 22 7 23 8 24 9 25 10 26 11
REMARK SMILES IDX 27 12 28 13 29 14 30 15 31 16 32 17 15 18 14 19 13 20 12 21
REMARK SMILES IDX 11 22 10 23 9 24 8 25 7 26 6 27 5 28 4 29 3 30 2 31 1 32
REMARK H PARENT
REMARK Flexibility Score: inf
ROOT
ATOM      1  C   UNL     1       6.507   2.118  -3.296  1.00  0.00     0.000 C 
ENDROOT
BRANCH   1   2
ATOM      2  C   UNL     1       7.281   2.238  -4.618  1.00  0.00     0.000 C 
BRANCH   2   3
ATOM      3  C   UNL     1       8.625   2.968  -4.457  1.00  0.00     0.000 C 
BRANCH   3   4
ATOM      4  C   UNL     1       8.719   4.242  -5.319  1.00  0.00     0.000 C 
BRANCH   4   5
ATOM      5  C   UNL     1       7.730   5.364  -4.941  1.00  0.00     0.000 C 
BRANCH   5   6
ATOM      6  C   UNL     1       7.081   6.101  -6.132  1.00  0.00     0.000 C 
BRANCH   6   7
ATOM      7  C   UNL     1       6.008   5.299  -6.892  1.00  0.00     0.000 C 
BRANCH   7   8
ATOM      8  C   UNL     1       4.985   4.633  -5.956  1.00  0.00     0.000 C 
BRANCH   8   9
ATOM      9  C   UNL     1       4.121   3.586  -6.677  1.00  0.00     0.000 C 
BRANCH   9  10
ATOM     10  C   UNL     1       2.617   3.880  -6.576  1.00  0.00     0.000 C 
BRANCH  10  11
ATOM     11  C   UNL     1       1.821   2.590  -6.336  1.00  0.00     0.000 C 
BRANCH  11  12
ATOM     12  C   UNL     1       2.119   2.009  -4.946  1.00  0.00     0.000 C 
BRANCH  12  13
ATOM     13  C   UNL     1       1.123   0.915  -4.524  1.00  0.00     0.006 C 
BRANCH  13  14
ATOM     14  C   UNL     1       1.130  -0.324  -5.439  1.00  0.00     0.053 C 
BRANCH  14  15
ATOM     15  C   UNL     1       0.907  -1.599  -4.685  1.00  0.00     0.041 C 
ATOM     16  O   UNL     1       1.335  -2.691  -5.144  1.00  0.00    -0.550 OA
ATOM     17  O   UNL     1       0.262  -1.578  -3.455  1.00  0.00    -0.550 OA
ENDBRANCH  14  15
ENDBRANCH  13  14
ENDBRANCH  12  13
ENDBRANCH  11  12
ENDBRANCH  10  11
ENDBRANCH   9  10
ENDBRANCH   8   9
ENDBRANCH   7   8
ENDBRANCH   6   7
ENDBRANCH   5   6
ENDBRANCH   4   5
ENDBRANCH   3   4
ENDBRANCH   2   3
ENDBRANCH   1   2
BRANCH   1  18
ATOM     18  C   UNL     1       5.185   1.330  -3.373  1.00  0.00     0.000 C 
BRANCH  18  19
ATOM     19  C   UNL     1       5.364  -0.203  -3.399  1.00  0.00     0.000 C 
BRANCH  19  20
ATOM     20  C   UNL     1       4.739  -0.854  -4.648  1.00  0.00     0.000 C 
BRANCH  20  21
ATOM     21  C   UNL     1       4.989  -0.021  -5.920  1.00  0.00     0.000 C 
BRANCH  21  22
ATOM     22  C   UNL     1       6.031  -0.654  -6.863  1.00  0.00     0.000 C 
BRANCH  22  23
ATOM     23  C   UNL     1       6.900  -1.704  -6.147  1.00  0.00     0.000 C 
BRANCH  23  24
ATOM     24  C   UNL     1       7.546  -2.709  -7.125  1.00  0.00    -0.000 C 
BRANCH  24  25
ATOM     25  C   UNL     1       8.183  -3.932  -6.438  1.00  0.00    -0.000 C 
BRANCH  25  26
ATOM     26  C   UNL     1       7.476  -5.273  -6.696  1.00  0.00    -0.000 C 
BRANCH  26  27
ATOM     27  C   UNL     1       8.195  -6.464  -6.036  1.00  0.00    -0.000 C 
BRANCH  27  28
ATOM     28  C   UNL     1       7.526  -6.915  -4.725  1.00  0.00    -0.000 C 
BRANCH  28  29
ATOM     29  C   UNL     1       8.069  -8.228  -4.125  1.00  0.00    -0.000 C 
BRANCH  29  30
ATOM     30  C   UNL     1       8.884  -9.103  -5.095  1.00  0.00    -0.000 C 
BRANCH  30  31
ATOM     31  C   UNL     1       8.161 -10.402  -5.478  1.00  0.00    -0.003 C 
ATOM     32  C   UNL     1       7.001 -10.125  -6.431  1.00  0.00     0.004 C 
ENDBRANCH  30  31
ENDBRANCH  29  30
ENDBRANCH  28  29
ENDBRANCH  27  28
ENDBRANCH  26  27
ENDBRANCH  25  26
ENDBRANCH  24  25
ENDBRANCH  23  24
ENDBRANCH  22  23
ENDBRANCH  21  22
ENDBRANCH  20  21
ENDBRANCH  19  20
ENDBRANCH  18  19
ENDBRANCH   1  18
TORSDOF 28
ENDMDL
MODEL 3
REMARK VINA RESULT:    -2.433      1.191      2.691
REMARK INTER + INTRA:         -11.111
REMARK INTER:                  -7.606
REMARK INTRA:                  -3.505
REMARK UNBOUND:                -4.694
REMARK SMILES CCCCCCCCCCCCCCCCCCCCCCCCCCCCCC(=O)[O-]
REMARK SMILES IDX 16 1 17 2 18 3 19 4 20 5 21 6 22 7 23 8 24 9 25 10 26 11
REMARK SMILES IDX 27 12 28 13 29 14 30 15 31 16 32 17 15 18 14 19 13 20 12 21
REMARK SMILES IDX 11 22 10 23 9 24 8 25 7 26 6 27 5 28 4 29 3 30 2 31 1 32
REMARK H PARENT
REMARK Flexibility Score: inf
ROOT
ATOM      1  C   UNL     1       0.423  -1.234  -4.067  1.00  0.00     0.000 C 
ENDROOT
BRANCH   1   2
ATOM      2  C   UNL     1       0.900   0.117  -4.625  1.00  0.00     0.000 C 
BRANCH   2   3
ATOM      3  C   UNL     1      -0.263   1.056  -4.987  1.00  0.00     0.000 C 
BRANCH   3   4
ATOM      4  C   UNL     1      -0.044   1.790  -6.324  1.00  0.00     0.000 C 
BRANCH   4   5
ATOM      5  C   UNL     1       1.383   1.691  -6.901  1.00  0.00     0.000 C 
BRANCH   5   6
ATOM      6  C   UNL     1       2.322   2.864  -6.547  1.00  0.00     0.000 C 
BRANCH   6   7
ATOM      7  C   UNL     1       1.907   4.231  -7.123  1.00  0.00     0.000 C 
BRANCH   7   8
ATOM      8  C   UNL     1       2.807   5.381  -6.640  1.00  0.00     0.000 C 
BRANCH   8   9
ATOM      9  C   UNL     1       2.089   6.316  -5.653  1.00  0.00     0.000 C 
BRANCH   9  10
ATOM     10  C   UNL     1       1.694   7.660  -6.284  1.00  0.00     0.000 C 
BRANCH  10  11
ATOM     11  C   UNL     1       0.174   7.752  -6.468  1.00  0.00     0.000 C 
BRANCH  11  12
ATOM     12  C   UNL     1      -0.447   6.357  -6.634  1.00  0.00     0.000 C 
BRANCH  12  13
ATOM     13  C   UNL     1      -1.979   6.357  -6.488  1.00  0.00     0.006 C 
BRANCH  13  14
ATOM     14  C   UNL     1      -2.614   4.956  -6.557  1.00  0.00     0.053 C 
BRANCH  14  15
ATOM     15  C   UNL     1      -3.717   4.773  -5.560  1.00  0.00     0.041 C 
ATOM     16  O   UNL     1      -4.419   3.727  -5.575  1.00  0.00    -0.550 OA
ATOM     17  O   UNL     1      -3.945   5.739  -4.588  1.00  0.00    -0.550 OA
ENDBRANCH  14  15
ENDBRANCH  13  14
ENDBRANCH  12  13
ENDBRANCH  11  12
ENDBRANCH  10  11
ENDBRANCH   9  10
ENDBRANCH   8   9
ENDBRANCH   7   8
ENDBRANCH   6   7
ENDBRANCH   5   6
ENDBRANCH   4   5
ENDBRANCH   3   4
ENDBRANCH   2   3
ENDBRANCH   1   2
BRANCH   1  18
ATOM     18  C   UNL     1       1.514  -2.312  -3.922  1.00  0.00     0.000 C 
BRANCH  18  19
ATOM     19  C   UNL     1       2.887  -1.903  -4.499  1.00  0.00     0.000 C 
BRANCH  19  20
ATOM     20  C   UNL     1       3.927  -1.602  -3.403  1.00  0.00     0.000 C 
BRANCH  20  21
ATOM     21  C   UNL     1       4.956  -0.550  -3.857  1.00  0.00     0.000 C 
BRANCH  21  22
ATOM     22  C   UNL     1       4.446   0.338  -5.010  1.00  0.00     0.000 C 
BRANCH  22  23
ATOM     23  C   UNL     1       5.228   0.099  -6.315  1.00  0.00     0.000 C 
BRANCH  23  24
ATOM     24  C   UNL     1       6.582   0.839  -6.341  1.00  0.00    -0.000 C 
BRANCH  24  25
ATOM     25  C   UNL     1       6.559   2.165  -7.125  1.00  0.00    -0.000 C 
BRANCH  25  26
ATOM     26  C   UNL     1       7.766   3.088  -6.891  1.00  0.00    -0.000 C 
BRANCH  26  27
ATOM     27  C   UNL     1       8.354   2.957  -5.475  1.00  0.00    -0.000 C 
BRANCH  27  28
ATOM     28  C   UNL     1       8.098   4.200  -4.603  1.00  0.00    -0.000 C 
BRANCH  28  29
ATOM     29  C   UNL     1       7.141   5.246  -5.211  1.00  0.00    -0.000 C 
BRANCH  29  30
ATOM     30  C   UNL     1       5.669   5.115  -4.780  1.00  0.00    -0.000 C 
BRANCH  30  31
ATOM     31  C   UNL     1       5.378   3.801  -4.041  1.00  0.00    -0.003 C 
ATOM     32  C   UNL     1       3.947   3.775  -3.509  1.00  0.00     0.004 C 
ENDBRANCH  30  31
ENDBRANCH  29  30
ENDBRANCH  28  29
ENDBRANCH  27  28
ENDBRANCH  26  27
ENDBRANCH  25  26
ENDBRANCH  24  25
ENDBRANCH  23  24
ENDBRANCH  22  23
ENDBRANCH  21  22
ENDBRANCH  20  21
ENDBRANCH  19  20
ENDBRANCH  18  19
ENDBRANCH   1  18
TORSDOF 28
ENDMDL
MODEL 4
REMARK VINA RESULT:    -2.304      5.545      8.316
REMARK INTER + INTRA:         -10.770
REMARK INTER:                  -8.018
REMARK INTRA:                  -2.751
REMARK UNBOUND:                -4.694
REMARK SMILES CCCCCCCCCCCCCCCCCCCCCCCCCCCCCC(=O)[O-]
REMARK SMILES IDX 16 1 17 2 18 3 19 4 20 5 21 6 22 7 23 8 24 9 25 10 26 11
REMARK SMILES IDX 27 12 28 13 29 14 30 15 31 16 32 17 15 18 14 19 13 20 12 21
REMARK SMILES IDX 11 22 10 23 9 24 8 25 7 26 6 27 5 28 4 29 3 30 2 31 1 32
REMARK H PARENT
REMARK Flexibility Score: inf
ROOT
ATOM      1  C   UNL     1       5.355   0.331  -3.736  1.00  0.00     0.000 C 
ENDROOT
BRANCH   1   2
ATOM      2  C   UNL     1       5.341   1.843  -4.010  1.00  0.00     0.000 C 
BRANCH   2   3
ATOM      3  C   UNL     1       6.529   2.303  -4.871  1.00  0.00     0.000 C 
BRANCH   3   4
ATOM      4  C   UNL     1       6.090   3.052  -6.144  1.00  0.00     0.000 C 
BRANCH   4   5
ATOM      5  C   UNL     1       6.148   4.591  -6.053  1.00  0.00     0.000 C 
BRANCH   5   6
ATOM      6  C   UNL     1       6.204   5.167  -4.622  1.00  0.00     0.000 C 
BRANCH   6   7
ATOM      7  C   UNL     1       4.903   5.832  -4.133  1.00  0.00     0.000 C 
BRANCH   7   8
ATOM      8  C   UNL     1       3.651   4.993  -4.441  1.00  0.00     0.000 C 
BRANCH   8   9
ATOM      9  C   UNL     1       2.744   5.653  -5.493  1.00  0.00     0.000 C 
BRANCH   9  10
ATOM     10  C   UNL     1       2.037   4.631  -6.396  1.00  0.00     0.000 C 
BRANCH  10  11
ATOM     11  C   UNL     1       2.593   3.220  -6.166  1.00  0.00     0.000 C 
BRANCH  11  12
ATOM     12  C   UNL     1       1.600   2.151  -6.645  1.00  0.00     0.000 C 
BRANCH  12  13
ATOM     13  C   UNL     1       1.058   1.274  -5.502  1.00  0.00     0.006 C 
BRANCH  13  14
ATOM     14  C   UNL     1       1.874  -0.009  -5.258  1.00  0.00     0.053 C 
BRANCH  14  15
ATOM     15  C   UNL     1       1.030  -1.142  -4.759  1.00  0.00     0.041 C 
ATOM     16  O   UNL     1       1.215  -2.310  -5.194  1.00  0.00    -0.550 OA
ATOM     17  O   UNL     1       0.066  -0.918  -3.785  1.00  0.00    -0.550 OA
ENDBRANCH  14  15
ENDBRANCH  13  14
ENDBRANCH  12  13
ENDBRANCH  11  12
ENDBRANCH  10  11
ENDBRANCH   9  10
ENDBRANCH   8   9
ENDBRANCH   7   8
ENDBRANCH   6   7
ENDBRANCH   5   6
ENDBRANCH   4   5
ENDBRANCH   3   4
ENDBRANCH   2   3
ENDBRANCH   1   2
BRANCH   1  18
ATOM     18  C   UNL     1       5.334  -0.568  -4.987  1.00  0.00     0.000 C 
BRANCH  18  19
ATOM     19  C   UNL     1       6.610  -1.416  -5.177  1.00  0.00     0.000 C 
BRANCH  19  20
ATOM     20  C   UNL     1       7.146  -1.368  -6.621  1.00  0.00     0.000 C 
BRANCH  20  21
ATOM     21  C   UNL     1       7.709  -2.729  -7.074  1.00  0.00     0.000 C 
BRANCH  21  22
ATOM     22  C   UNL     1       7.185  -3.910  -6.233  1.00  0.00     0.000 C 
BRANCH  22  23
ATOM     23  C   UNL     1       7.662  -5.268  -6.782  1.00  0.00     0.000 C 
BRANCH  23  24
ATOM     24  C   UNL     1       8.631  -5.990  -5.821  1.00  0.00    -0.000 C 
BRANCH  24  25
ATOM     25  C   UNL     1       8.812  -7.490  -6.122  1.00  0.00    -0.000 C 
BRANCH  25  26
ATOM     26  C   UNL     1       7.623  -8.169  -6.821  1.00  0.00    -0.000 C 
BRANCH  26  27
ATOM     27  C   UNL     1       7.878  -9.657  -7.125  1.00  0.00    -0.000 C 
BRANCH  27  28
ATOM     28  C   UNL     1       8.565 -10.396  -5.962  1.00  0.00    -0.000 C 
BRANCH  28  29
ATOM     29  C   UNL     1       7.853 -11.680  -5.485  1.00  0.00    -0.000 C 
BRANCH  29  30
ATOM     30  C   UNL     1       6.320 -11.578  -5.383  1.00  0.00    -0.000 C 
BRANCH  30  31
ATOM     31  C   UNL     1       5.800 -11.817  -3.958  1.00  0.00    -0.003 C 
ATOM     32  C   UNL     1       5.847 -10.533  -3.133  1.00  0.00     0.004 C 
ENDBRANCH  30  31
ENDBRANCH  29  30
ENDBRANCH  28  29
ENDBRANCH  27  28
ENDBRANCH  26  27
ENDBRANCH  25  26
ENDBRANCH  24  25
ENDBRANCH  23  24
ENDBRANCH  22  23
ENDBRANCH  21  22
ENDBRANCH  20  21
ENDBRANCH  19  20
ENDBRANCH  18  19
ENDBRANCH   1  18
TORSDOF 28
ENDMDL
MODEL 5
REMARK VINA RESULT:    -2.262      2.871      7.401
REMARK INTER + INTRA:         -10.658
REMARK INTER:                  -6.641
REMARK INTRA:                  -4.017
REMARK UNBOUND:                -4.694
REMARK SMILES CCCCCCCCCCCCCCCCCCCCCCCCCCCCCC(=O)[O-]
REMARK SMILES IDX 16 1 17 2 18 3 19 4 20 5 21 6 22 7 23 8 24 9 25 10 26 11
REMARK SMILES IDX 27 12 28 13 29 14 30 15 31 16 32 17 15 18 14 19 13 20 12 21
REMARK SMILES IDX 11 22 10 23 9 24 8 25 7 26 6 27 5 28 4 29 3 30 2 31 1 32
REMARK H PARENT
REMARK Flexibility Score: inf
ROOT
ATOM      1  C   UNL     1      -0.170   0.444  -4.128  1.00  0.00     0.000 C 
ENDROOT
BRANCH   1   2
ATOM      2  C   UNL     1      -0.635  -0.995  -3.856  1.00  0.00     0.000 C 
BRANCH   2   3
ATOM      3  C   UNL     1       0.518  -1.927  -3.447  1.00  0.00     0.000 C 
BRANCH   3   4
ATOM      4  C   UNL     1       1.636  -1.992  -4.505  1.00  0.00     0.000 C 
BRANCH   4   5
ATOM      5  C   UNL     1       3.015  -2.436  -3.975  1.00  0.00     0.000 C 
BRANCH   5   6
ATOM      6  C   UNL     1       3.926  -1.297  -3.467  1.00  0.00     0.000 C 
BRANCH   6   7
ATOM      7  C   UNL     1       3.853   0.010  -4.278  1.00  0.00     0.000 C 
BRANCH   7   8
ATOM      8  C   UNL     1       4.618  -0.069  -5.610  1.00  0.00     0.000 C 
BRANCH   8   9
ATOM      9  C   UNL     1       6.135  -0.222  -5.410  1.00  0.00     0.000 C 
BRANCH   9  10
ATOM     10  C   UNL     1       6.947   0.241  -6.629  1.00  0.00     0.000 C 
BRANCH  10  11
ATOM     11  C   UNL     1       7.554   1.629  -6.387  1.00  0.00     0.000 C 
BRANCH  11  12
ATOM     12  C   UNL     1       7.342   2.077  -4.933  1.00  0.00     0.000 C 
BRANCH  12  13
ATOM     13  C   UNL     1       8.500   2.934  -4.391  1.00  0.00     0.006 C 
BRANCH  13  14
ATOM     14  C   UNL     1       9.108   3.893  -5.431  1.00  0.00     0.053 C 
BRANCH  14  15
ATOM     15  C   UNL     1       8.536   5.276  -5.343  1.00  0.00     0.041 C 
ATOM     16  O   UNL     1       7.671   5.550  -4.470  1.00  0.00    -0.550 OA
ATOM     17  O   UNL     1       8.987   6.272  -6.199  1.00  0.00    -0.550 OA
ENDBRANCH  14  15
ENDBRANCH  13  14
ENDBRANCH  12  13
ENDBRANCH  11  12
ENDBRANCH  10  11
ENDBRANCH   9  10
ENDBRANCH   8   9
ENDBRANCH   7   8
ENDBRANCH   6   7
ENDBRANCH   5   6
ENDBRANCH   4   5
ENDBRANCH   3   4
ENDBRANCH   2   3
ENDBRANCH   1   2
BRANCH   1  18
ATOM     18  C   UNL     1      -0.248   0.897  -5.599  1.00  0.00     0.000 C 
BRANCH  18  19
ATOM     19  C   UNL     1       1.107   1.327  -6.201  1.00  0.00     0.000 C 
BRANCH  19  20
ATOM     20  C   UNL     1       1.615   2.663  -5.629  1.00  0.00     0.000 C 
BRANCH  20  21
ATOM     21  C   UNL     1       2.609   3.358  -6.580  1.00  0.00     0.000 C 
BRANCH  21  22
ATOM     22  C   UNL     1       4.072   3.257  -6.106  1.00  0.00     0.000 C 
BRANCH  22  23
ATOM     23  C   UNL     1       4.583   4.583  -5.513  1.00  0.00     0.000 C 
BRANCH  23  24
ATOM     24  C   UNL     1       4.145   4.787  -4.047  1.00  0.00    -0.000 C 
BRANCH  24  25
ATOM     25  C   UNL     1       3.727   6.232  -3.712  1.00  0.00    -0.000 C 
BRANCH  25  26
ATOM     26  C   UNL     1       2.443   6.721  -4.399  1.00  0.00    -0.000 C 
BRANCH  26  27
ATOM     27  C   UNL     1       2.641   7.016  -5.897  1.00  0.00    -0.000 C 
BRANCH  27  28
ATOM     28  C   UNL     1       1.323   7.350  -6.621  1.00  0.00    -0.000 C 
BRANCH  28  29
ATOM     29  C   UNL     1       0.301   6.196  -6.693  1.00  0.00    -0.000 C 
BRANCH  29  30
ATOM     30  C   UNL     1      -1.128   6.560  -6.249  1.00  0.00    -0.000 C 
BRANCH  30  31
ATOM     31  C   UNL     1      -2.108   5.384  -6.369  1.00  0.00    -0.003 C 
ATOM     32  C   UNL     1      -1.418   4.150  -6.949  1.00  0.00     0.004 C 
ENDBRANCH  30  31
ENDBRANCH  29  30
ENDBRANCH  28  29
ENDBRANCH  27  28
ENDBRANCH  26  27
ENDBRANCH  25  26
ENDBRANCH  24  25
ENDBRANCH  23  24
ENDBRANCH  22  23
ENDBRANCH  21  22
ENDBRANCH  20  21
ENDBRANCH  19  20
ENDBRANCH  18  19
ENDBRANCH   1  18
TORSDOF 28
ENDMDL
MODEL 6
REMARK VINA RESULT:    -2.242      4.058      7.191
REMARK INTER + INTRA:         -10.607
REMARK INTER:                  -6.311
REMARK INTRA:                  -4.295
REMARK UNBOUND:                -4.694
REMARK SMILES CCCCCCCCCCCCCCCCCCCCCCCCCCCCCC(=O)[O-]
REMARK SMILES IDX 16 1 17 2 18 3 19 4 20 5 21 6 22 7 23 8 24 9 25 10 26 11
REMARK SMILES IDX 27 12 28 13 29 14 30 15 31 16 32 17 15 18 14 19 13 20 12 21
REMARK SMILES IDX 11 22 10 23 9 24 8 25 7 26 6 27 5 28 4 29 3 30 2 31 1 32
REMARK H PARENT
REMARK Flexibility Score: inf
ROOT
ATOM      1  C   UNL     1       0.239  -1.524  -3.039  1.00  0.00     0.000 C 
ENDROOT
BRANCH   1   2
ATOM      2  C   UNL     1       0.926  -2.670  -3.798  1.00  0.00     0.000 C 
BRANCH   2   3
ATOM      3  C   UNL     1       2.419  -2.404  -4.055  1.00  0.00     0.000 C 
BRANCH   3   4
ATOM      4  C   UNL     1       2.657  -1.230  -5.023  1.00  0.00     0.000 C 
BRANCH   4   5
ATOM      5  C   UNL     1       3.673  -0.175  -4.538  1.00  0.00     0.000 C 
BRANCH   5   6
ATOM      6  C   UNL     1       4.440  -0.540  -3.249  1.00  0.00     0.000 C 
BRANCH   6   7
ATOM      7  C   UNL     1       5.789   0.179  -3.064  1.00  0.00     0.000 C 
BRANCH   7   8
ATOM      8  C   UNL     1       5.747   1.651  -3.506  1.00  0.00     0.000 C 
BRANCH   8   9
ATOM      9  C   UNL     1       6.669   1.933  -4.704  1.00  0.00     0.000 C 
BRANCH   9  10
ATOM     10  C   UNL     1       5.923   1.919  -6.047  1.00  0.00     0.000 C 
BRANCH  10  11
ATOM     11  C   UNL     1       6.522   0.871  -6.994  1.00  0.00     0.000 C 
BRANCH  11  12
ATOM     12  C   UNL     1       7.348  -0.166  -6.218  1.00  0.00     0.000 C 
BRANCH  12  13
ATOM     13  C   UNL     1       6.800  -1.598  -6.354  1.00  0.00     0.006 C 
BRANCH  13  14
ATOM     14  C   UNL     1       7.824  -2.609  -6.902  1.00  0.00     0.053 C 
BRANCH  14  15
ATOM     15  C   UNL     1       7.682  -3.966  -6.281  1.00  0.00     0.041 C 
ATOM     16  O   UNL     1       8.703  -4.602  -5.906  1.00  0.00    -0.550 OA
ATOM     17  O   UNL     1       6.421  -4.513  -6.081  1.00  0.00    -0.550 OA
ENDBRANCH  14  15
ENDBRANCH  13  14
ENDBRANCH  12  13
ENDBRANCH  11  12
ENDBRANCH  10  11
ENDBRANCH   9  10
ENDBRANCH   8   9
ENDBRANCH   7   8
ENDBRANCH   6   7
ENDBRANCH   5   6
ENDBRANCH   4   5
ENDBRANCH   3   4
ENDBRANCH   2   3
ENDBRANCH   1   2
BRANCH   1  18
ATOM     18  C   UNL     1      -0.980  -0.901  -3.746  1.00  0.00     0.000 C 
BRANCH  18  19
ATOM     19  C   UNL     1      -0.631  -0.095  -5.016  1.00  0.00     0.000 C 
BRANCH  19  20
ATOM     20  C   UNL     1       0.245   1.137  -4.716  1.00  0.00     0.000 C 
BRANCH  20  21
ATOM     21  C   UNL     1       0.362   2.073  -5.935  1.00  0.00     0.000 C 
BRANCH  21  22
ATOM     22  C   UNL     1       1.580   1.757  -6.825  1.00  0.00     0.000 C 
BRANCH  22  23
ATOM     23  C   UNL     1       2.521   2.968  -6.971  1.00  0.00     0.000 C 
BRANCH  23  24
ATOM     24  C   UNL     1       2.235   4.071  -5.930  1.00  0.00    -0.000 C 
BRANCH  24  25
ATOM     25  C   UNL     1       2.436   5.503  -6.461  1.00  0.00    -0.000 C 
BRANCH  25  26
ATOM     26  C   UNL     1       3.372   6.390  -5.624  1.00  0.00    -0.000 C 
BRANCH  26  27
ATOM     27  C   UNL     1       3.961   5.656  -4.406  1.00  0.00    -0.000 C 
BRANCH  27  28
ATOM     28  C   UNL     1       5.461   5.345  -4.562  1.00  0.00    -0.000 C 
BRANCH  28  29
ATOM     29  C   UNL     1       6.088   5.779  -5.903  1.00  0.00    -0.000 C 
BRANCH  29  30
ATOM     30  C   UNL     1       7.494   5.217  -6.181  1.00  0.00    -0.000 C 
BRANCH  30  31
ATOM     31  C   UNL     1       8.597   5.966  -5.420  1.00  0.00    -0.003 C 
ATOM     32  C   UNL     1       9.084   5.157  -4.220  1.00  0.00     0.004 C 
ENDBRANCH  30  31
ENDBRANCH  29  30
ENDBRANCH  28  29
ENDBRANCH  27  28
ENDBRANCH  26  27
ENDBRANCH  25  26
ENDBRANCH  24  25
ENDBRANCH  23  24
ENDBRANCH  22  23
ENDBRANCH  21  22
ENDBRANCH  20  21
ENDBRANCH  19  20
ENDBRANCH  18  19
ENDBRANCH   1  18
TORSDOF 28
ENDMDL
MODEL 7
REMARK VINA RESULT:    -1.996      2.653      7.984
REMARK INTER + INTRA:          -9.958
REMARK INTER:                  -5.954
REMARK INTRA:                  -4.004
REMARK UNBOUND:                -4.694
REMARK SMILES CCCCCCCCCCCCCCCCCCCCCCCCCCCCCC(=O)[O-]
REMARK SMILES IDX 16 1 17 2 18 3 19 4 20 5 21 6 22 7 23 8 24 9 25 10 26 11
REMARK SMILES IDX 27 12 28 13 29 14 30 15 31 16 32 17 15 18 14 19 13 20 12 21
REMARK SMILES IDX 11 22 10 23 9 24 8 25 7 26 6 27 5 28 4 29 3 30 2 31 1 32
REMARK H PARENT
REMARK Flexibility Score: inf
ROOT
ATOM      1  C   UNL     1       4.258   6.410  -6.623  1.00  0.00     0.000 C 
ENDROOT
BRANCH   1   2
ATOM      2  C   UNL     1       4.113   4.965  -7.125  1.00  0.00     0.000 C 
BRANCH   2   3
ATOM      3  C   UNL     1       5.075   3.991  -6.424  1.00  0.00     0.000 C 
BRANCH   3   4
ATOM      4  C   UNL     1       6.514   4.534  -6.334  1.00  0.00     0.000 C 
BRANCH   4   5
ATOM      5  C   UNL     1       7.164   4.444  -4.938  1.00  0.00     0.000 C 
BRANCH   5   6
ATOM      6  C   UNL     1       7.680   3.045  -4.539  1.00  0.00     0.000 C 
BRANCH   6   7
ATOM      7  C   UNL     1       8.709   2.427  -5.503  1.00  0.00     0.000 C 
BRANCH   7   8
ATOM      8  C   UNL     1       8.344   0.994  -5.929  1.00  0.00     0.000 C 
BRANCH   8   9
ATOM      9  C   UNL     1       7.154   0.954  -6.901  1.00  0.00     0.000 C 
BRANCH   9  10
ATOM     10  C   UNL     1       6.124  -0.127  -6.540  1.00  0.00     0.000 C 
BRANCH  10  11
ATOM     11  C   UNL     1       5.143   0.385  -5.478  1.00  0.00     0.000 C 
BRANCH  11  12
ATOM     12  C   UNL     1       5.271  -0.417  -4.175  1.00  0.00     0.000 C 
BRANCH  12  13
ATOM     13  C   UNL     1       4.019  -1.253  -3.854  1.00  0.00     0.006 C 
BRANCH  13  14
ATOM     14  C   UNL     1       2.986  -1.294  -4.996  1.00  0.00     0.053 C 
BRANCH  14  15
ATOM     15  C   UNL     1       1.658  -1.827  -4.553  1.00  0.00     0.041 C 
ATOM     16  O   UNL     1       0.676  -1.822  -5.342  1.00  0.00    -0.550 OA
ATOM     17  O   UNL     1       1.513  -2.367  -3.281  1.00  0.00    -0.550 OA
ENDBRANCH  14  15
ENDBRANCH  13  14
ENDBRANCH  12  13
ENDBRANCH  11  12
ENDBRANCH  10  11
ENDBRANCH   9  10
ENDBRANCH   8   9
ENDBRANCH   7   8
ENDBRANCH   6   7
ENDBRANCH   5   6
ENDBRANCH   4   5
ENDBRANCH   3   4
ENDBRANCH   2   3
ENDBRANCH   1   2
BRANCH   1  18
ATOM     18  C   UNL     1       2.944   7.207  -6.513  1.00  0.00     0.000 C 
BRANCH  18  19
ATOM     19  C   UNL     1       1.695   6.334  -6.266  1.00  0.00     0.000 C 
BRANCH  19  20
ATOM     20  C   UNL     1       0.486   6.771  -7.116  1.00  0.00     0.000 C 
BRANCH  20  21
ATOM     21  C   UNL     1      -0.248   7.977  -6.499  1.00  0.00     0.000 C 
BRANCH  21  22
ATOM     22  C   UNL     1      -1.761   7.739  -6.323  1.00  0.00     0.000 C 
BRANCH  22  23
ATOM     23  C   UNL     1      -2.058   6.633  -5.294  1.00  0.00     0.000 C 
BRANCH  23  24
ATOM     24  C   UNL     1      -3.336   5.836  -5.631  1.00  0.00    -0.000 C 
BRANCH  24  25
ATOM     25  C   UNL     1      -3.071   4.496  -6.344  1.00  0.00    -0.000 C 
BRANCH  25  26
ATOM     26  C   UNL     1      -1.623   4.275  -6.811  1.00  0.00    -0.000 C 
BRANCH  26  27
ATOM     27  C   UNL     1      -1.045   2.926  -6.347  1.00  0.00    -0.000 C 
BRANCH  27  28
ATOM     28  C   UNL     1       0.474   2.980  -6.102  1.00  0.00    -0.000 C 
BRANCH  28  29
ATOM     29  C   UNL     1       1.086   1.710  -5.473  1.00  0.00    -0.000 C 
BRANCH  29  30
ATOM     30  C   UNL     1       2.165   1.963  -4.405  1.00  0.00    -0.000 C 
BRANCH  30  31
ATOM     31  C   UNL     1       2.544   3.445  -4.279  1.00  0.00    -0.003 C 
ATOM     32  C   UNL     1       3.713   3.634  -3.314  1.00  0.00     0.004 C 
ENDBRANCH  30  31
ENDBRANCH  29  30
ENDBRANCH  28  29
ENDBRANCH  27  28
ENDBRANCH  26  27
ENDBRANCH  25  26
ENDBRANCH  24  25
ENDBRANCH  23  24
ENDBRANCH  22  23
ENDBRANCH  21  22
ENDBRANCH  20  21
ENDBRANCH  19  20
ENDBRANCH  18  19
ENDBRANCH   1  18
TORSDOF 28
ENDMDL
MODEL 8
REMARK VINA RESULT:    -1.954      2.882      4.934
REMARK INTER + INTRA:          -9.847
REMARK INTER:                  -7.333
REMARK INTRA:                  -2.513
REMARK UNBOUND:                -4.694
REMARK SMILES CCCCCCCCCCCCCCCCCCCCCCCCCCCCCC(=O)[O-]
REMARK SMILES IDX 16 1 17 2 18 3 19 4 20 5 21 6 22 7 23 8 24 9 25 10 26 11
REMARK SMILES IDX 27 12 28 13 29 14 30 15 31 16 32 17 15 18 14 19 13 20 12 21
REMARK SMILES IDX 11 22 10 23 9 24 8 25 7 26 6 27 5 28 4 29 3 30 2 31 1 32
REMARK H PARENT
REMARK Flexibility Score: inf
ROOT
ATOM      1  C   UNL     1      -0.143  -0.865  -4.037  1.00  0.00     0.000 C 
ENDROOT
BRANCH   1   2
ATOM      2  C   UNL     1       0.116  -0.264  -5.428  1.00  0.00     0.000 C 
BRANCH   2   3
ATOM      3  C   UNL     1       0.248   1.268  -5.399  1.00  0.00     0.000 C 
BRANCH   3   4
ATOM      4  C   UNL     1       1.273   1.759  -4.359  1.00  0.00     0.000 C 
BRANCH   4   5
ATOM      5  C   UNL     1       2.575   2.344  -4.945  1.00  0.00     0.000 C 
BRANCH   5   6
ATOM      6  C   UNL     1       3.655   2.722  -3.909  1.00  0.00     0.000 C 
BRANCH   6   7
ATOM      7  C   UNL     1       3.965   4.227  -3.805  1.00  0.00     0.000 C 
BRANCH   7   8
ATOM      8  C   UNL     1       3.774   4.970  -5.138  1.00  0.00     0.000 C 
BRANCH   8   9
ATOM      9  C   UNL     1       3.046   6.313  -4.965  1.00  0.00     0.000 C 
BRANCH   9  10
ATOM     10  C   UNL     1       1.917   6.515  -5.988  1.00  0.00     0.000 C 
BRANCH  10  11
ATOM     11  C   UNL     1       1.238   7.876  -5.791  1.00  0.00     0.000 C 
BRANCH  11  12
ATOM     12  C   UNL     1      -0.022   7.744  -4.923  1.00  0.00     0.000 C 
BRANCH  12  13
ATOM     13  C   UNL     1      -1.323   7.999  -5.705  1.00  0.00     0.006 C 
BRANCH  13  14
ATOM     14  C   UNL     1      -2.068   6.715  -6.115  1.00  0.00     0.053 C 
BRANCH  14  15
ATOM     15  C   UNL     1      -3.043   6.256  -5.073  1.00  0.00     0.041 C 
ATOM     16  O   UNL     1      -4.058   5.588  -5.404  1.00  0.00    -0.550 OA
ATOM     17  O   UNL     1      -2.810   6.531  -3.732  1.00  0.00    -0.550 OA
ENDBRANCH  14  15
ENDBRANCH  13  14
ENDBRANCH  12  13
ENDBRANCH  11  12
ENDBRANCH  10  11
ENDBRANCH   9  10
ENDBRANCH   8   9
ENDBRANCH   7   8
ENDBRANCH   6   7
ENDBRANCH   5   6
ENDBRANCH   4   5
ENDBRANCH   3   4
ENDBRANCH   2   3
ENDBRANCH   1   2
BRANCH   1  18
ATOM     18  C   UNL     1       0.837  -1.972  -3.604  1.00  0.00     0.000 C 
BRANCH  18  19
ATOM     19  C   UNL     1       2.048  -2.148  -4.545  1.00  0.00     0.000 C 
BRANCH  19  20
ATOM     20  C   UNL     1       3.389  -2.197  -3.787  1.00  0.00     0.000 C 
BRANCH  20  21
ATOM     21  C   UNL     1       3.931  -0.787  -3.481  1.00  0.00     0.000 C 
BRANCH  21  22
ATOM     22  C   UNL     1       5.364  -0.564  -4.003  1.00  0.00     0.000 C 
BRANCH  22  23
ATOM     23  C   UNL     1       5.422  -0.521  -5.541  1.00  0.00     0.000 C 
BRANCH  23  24
ATOM     24  C   UNL     1       6.836  -0.209  -6.074  1.00  0.00    -0.000 C 
BRANCH  24  25
ATOM     25  C   UNL     1       7.781  -1.426  -6.098  1.00  0.00    -0.000 C 
BRANCH  25  26
ATOM     26  C   UNL     1       7.243  -2.662  -6.837  1.00  0.00    -0.000 C 
BRANCH  26  27
ATOM     27  C   UNL     1       8.014  -3.949  -6.491  1.00  0.00    -0.000 C 
BRANCH  27  28
ATOM     28  C   UNL     1       7.158  -5.219  -6.643  1.00  0.00    -0.000 C 
BRANCH  28  29
ATOM     29  C   UNL     1       7.919  -6.473  -7.125  1.00  0.00    -0.000 C 
BRANCH  29  30
ATOM     30  C   UNL     1       8.462  -7.379  -6.006  1.00  0.00    -0.000 C 
BRANCH  30  31
ATOM     31  C   UNL     1       7.724  -7.188  -4.672  1.00  0.00    -0.003 C 
ATOM     32  C   UNL     1       8.382  -8.001  -3.559  1.00  0.00     0.004 C 
ENDBRANCH  30  31
ENDBRANCH  29  30
ENDBRANCH  28  29
ENDBRANCH  27  28
ENDBRANCH  26  27
ENDBRANCH  25  26
ENDBRANCH  24  25
ENDBRANCH  23  24
ENDBRANCH  22  23
ENDBRANCH  21  22
ENDBRANCH  20  21
ENDBRANCH  19  20
ENDBRANCH  18  19
ENDBRANCH   1  18
TORSDOF 28
ENDMDL
