MODEL 1
REMARK VINA RESULT:    -3.452      0.000      0.000
REMARK INTER + INTRA:          -4.129
REMARK INTER:                  -3.856
REMARK INTRA:                  -0.273
REMARK UNBOUND:                -0.273
REMARK SMILES O=C([O-])C=Cc1ccccc1
REMARK SMILES IDX 4 1 5 2 2 3 1 4 3 5 6 6 7 7 11 8 8 9 10 10 9 11
REMARK H PARENT
REMARK Flexibility Score: inf
ROOT
ATOM      1  C   UNL     1     -31.253 -21.417 -33.006  1.00  0.00     0.025 C 
ATOM      2  C   UNL     1     -31.887 -22.232 -33.863  1.00  0.00     0.010 C 
ENDROOT
BRANCH   1   3
ATOM      3  C   UNL     1     -30.658 -20.108 -33.341  1.00  0.00     0.064 C 
ATOM      4  O   UNL     1     -29.503 -20.017 -33.836  1.00  0.00    -0.545 OA
ATOM      5  O   UNL     1     -31.359 -18.949 -33.038  1.00  0.00    -0.545 OA
ENDBRANCH   1   3
BRANCH   2   6
ATOM      6  C   UNL     1     -32.262 -21.892 -35.252  1.00  0.00    -0.026 A 
ATOM      7  C   UNL     1     -33.484 -21.259 -35.541  1.00  0.00     0.008 A 
ATOM      8  C   UNL     1     -31.434 -22.300 -36.308  1.00  0.00     0.008 A 
ATOM      9  C   UNL     1     -33.843 -20.993 -36.867  1.00  0.00     0.001 A 
ATOM     10  C   UNL     1     -31.795 -22.033 -37.631  1.00  0.00     0.001 A 
ATOM     11  C   UNL     1     -32.996 -21.376 -37.911  1.00  0.00     0.000 A 
ENDBRANCH   2   6
TORSDOF 2
ENDMDL
MODEL 2
REMARK VINA RESULT:    -3.427      2.248      4.471
REMARK INTER + INTRA:          -4.101
REMARK INTER:                  -3.832
REMARK INTRA:                  -0.269
REMARK UNBOUND:                -0.273
REMARK SMILES O=C([O-])C=Cc1ccccc1
REMARK SMILES IDX 4 1 5 2 2 3 1 4 3 5 6 6 7 7 11 8 8 9 10 10 9 11
REMARK H PARENT
REMARK Flexibility Score: inf
ROOT
ATOM      1  C   UNL     1     -32.616 -22.592 -35.373  1.00  0.00     0.025 C 
ATOM      2  C   UNL     1     -32.187 -22.298 -34.136  1.00  0.00     0.010 C 
ENDROOT
BRANCH   1   3
ATOM      3  C   UNL     1     -32.535 -21.702 -36.548  1.00  0.00     0.064 C 
ATOM      4  O   UNL     1     -33.416 -20.832 -36.777  1.00  0.00    -0.545 OA
ATOM      5  O   UNL     1     -31.500 -21.875 -37.457  1.00  0.00    -0.545 OA
ENDBRANCH   1   3
BRANCH   2   6
ATOM      6  C   UNL     1     -31.395 -21.107 -33.763  1.00  0.00    -0.026 A 
ATOM      7  C   UNL     1     -29.997 -21.088 -33.908  1.00  0.00     0.008 A 
ATOM      8  C   UNL     1     -32.038 -20.017 -33.157  1.00  0.00     0.008 A 
ATOM      9  C   UNL     1     -29.262 -19.969 -33.500  1.00  0.00     0.001 A 
ATOM     10  C   UNL     1     -31.301 -18.901 -32.751  1.00  0.00     0.001 A 
ATOM     11  C   UNL     1     -29.914 -18.875 -32.926  1.00  0.00     0.000 A 
ENDBRANCH   2   6
TORSDOF 2
ENDMDL
MODEL 3
REMARK VINA RESULT:    -3.380      4.524      5.676
REMARK INTER + INTRA:          -4.048
REMARK INTER:                  -3.923
REMARK INTRA:                  -0.125
REMARK UNBOUND:                -0.273
REMARK SMILES O=C([O-])C=Cc1ccccc1
REMARK SMILES IDX 4 1 5 2 2 3 1 4 3 5 6 6 7 7 11 8 8 9 10 10 9 11
REMARK H PARENT
REMARK Flexibility Score: inf
ROOT
ATOM      1  C   UNL     1     -31.413 -20.185 -29.380  1.00  0.00     0.025 C 
ATOM      2  C   UNL     1     -31.200 -19.110 -30.154  1.00  0.00     0.010 C 
ENDROOT
BRANCH   1   3
ATOM      3  C   UNL     1     -30.751 -21.497 -29.523  1.00  0.00     0.064 C 
ATOM      4  O   UNL     1     -30.014 -21.965 -28.616  1.00  0.00    -0.545 OA
ATOM      5  O   UNL     1     -30.889 -22.197 -30.714  1.00  0.00    -0.545 OA
ENDBRANCH   1   3
BRANCH   2   6
ATOM      6  C   UNL     1     -30.139 -18.986 -31.175  1.00  0.00    -0.026 A 
ATOM      7  C   UNL     1     -30.441 -19.017 -32.548  1.00  0.00     0.008 A 
ATOM      8  C   UNL     1     -28.796 -18.942 -30.769  1.00  0.00     0.008 A 
ATOM      9  C   UNL     1     -29.415 -18.951 -33.497  1.00  0.00     0.001 A 
ATOM     10  C   UNL     1     -27.774 -18.875 -31.719  1.00  0.00     0.001 A 
ATOM     11  C   UNL     1     -28.083 -18.876 -33.082  1.00  0.00     0.000 A 
ENDBRANCH   2   6
TORSDOF 2
ENDMDL
MODEL 4
REMARK VINA RESULT:    -3.188      2.490      4.837
REMARK INTER + INTRA:          -3.834
REMARK INTER:                  -3.684
REMARK INTRA:                  -0.150
REMARK UNBOUND:                -0.273
REMARK SMILES O=C([O-])C=Cc1ccccc1
REMARK SMILES IDX 4 1 5 2 2 3 1 4 3 5 6 6 7 7 11 8 8 9 10 10 9 11
REMARK H PARENT
REMARK Flexibility Score: inf
ROOT
ATOM      1  C   UNL     1     -30.878 -21.456 -34.993  1.00  0.00     0.025 C 
ATOM      2  C   UNL     1     -30.219 -20.924 -33.952  1.00  0.00     0.010 C 
ENDROOT
BRANCH   1   3
ATOM      3  C   UNL     1     -32.301 -21.849 -35.003  1.00  0.00     0.064 C 
ATOM      4  O   UNL     1     -32.653 -23.053 -34.893  1.00  0.00    -0.545 OA
ATOM      5  O   UNL     1     -33.270 -20.875 -35.209  1.00  0.00    -0.545 OA
ENDBRANCH   1   3
BRANCH   2   6
ATOM      6  C   UNL     1     -30.836 -20.469 -32.689  1.00  0.00    -0.026 A 
ATOM      7  C   UNL     1     -31.643 -19.317 -32.646  1.00  0.00     0.008 A 
ATOM      8  C   UNL     1     -30.528 -21.136 -31.493  1.00  0.00     0.008 A 
ATOM      9  C   UNL     1     -32.175 -18.875 -31.430  1.00  0.00     0.001 A 
ATOM     10  C   UNL     1     -31.062 -20.691 -30.280  1.00  0.00     0.001 A 
ATOM     11  C   UNL     1     -31.887 -19.564 -30.249  1.00  0.00     0.000 A 
ENDBRANCH   2   6
TORSDOF 2
ENDMDL
MODEL 5
REMARK VINA RESULT:    -3.088      2.742      5.321
REMARK INTER + INTRA:          -3.722
REMARK INTER:                  -3.577
REMARK INTRA:                  -0.145
REMARK UNBOUND:                -0.273
REMARK SMILES O=C([O-])C=Cc1ccccc1
REMARK SMILES IDX 4 1 5 2 2 3 1 4 3 5 6 6 7 7 11 8 8 9 10 10 9 11
REMARK H PARENT
REMARK Flexibility Score: inf
ROOT
ATOM      1  C   UNL     1     -32.382 -20.082 -33.743  1.00  0.00     0.025 C 
ATOM      2  C   UNL     1     -31.815 -19.008 -33.170  1.00  0.00     0.010 C 
ENDROOT
BRANCH   1   3
ATOM      3  C   UNL     1     -31.754 -21.409 -33.897  1.00  0.00     0.064 C 
ATOM      4  O   UNL     1     -31.491 -21.885 -35.032  1.00  0.00    -0.545 OA
ATOM      5  O   UNL     1     -31.513 -22.178 -32.766  1.00  0.00    -0.545 OA
ENDBRANCH   1   3
BRANCH   2   6
ATOM      6  C   UNL     1     -30.535 -19.006 -32.432  1.00  0.00    -0.026 A 
ATOM      7  C   UNL     1     -30.504 -18.944 -31.027  1.00  0.00     0.008 A 
ATOM      8  C   UNL     1     -29.329 -18.959 -33.148  1.00  0.00     0.008 A 
ATOM      9  C   UNL     1     -29.281 -18.890 -30.352  1.00  0.00     0.001 A 
ATOM     10  C   UNL     1     -28.108 -18.905 -32.469  1.00  0.00     0.001 A 
ATOM     11  C   UNL     1     -28.084 -18.875 -31.072  1.00  0.00     0.000 A 
ENDBRANCH   2   6
TORSDOF 2
ENDMDL
MODEL 6
REMARK VINA RESULT:    -3.027      3.676      5.179
REMARK INTER + INTRA:          -3.654
REMARK INTER:                  -4.020
REMARK INTRA:                   0.365
REMARK UNBOUND:                -0.273
REMARK SMILES O=C([O-])C=Cc1ccccc1
REMARK SMILES IDX 4 1 5 2 2 3 1 4 3 5 6 6 7 7 11 8 8 9 10 10 9 11
REMARK H PARENT
REMARK Flexibility Score: inf
ROOT
ATOM      1  C   UNL     1     -31.873 -20.403 -29.000  1.00  0.00     0.025 C 
ATOM      2  C   UNL     1     -30.747 -20.784 -29.624  1.00  0.00     0.010 C 
ENDROOT
BRANCH   1   3
ATOM      3  C   UNL     1     -32.813 -19.368 -29.472  1.00  0.00     0.064 C 
ATOM      4  O   UNL     1     -32.725 -18.876 -30.628  1.00  0.00    -0.545 OA
ATOM      5  O   UNL     1     -33.773 -18.876 -28.597  1.00  0.00    -0.545 OA
ENDBRANCH   1   3
BRANCH   2   6
ATOM      6  C   UNL     1     -30.337 -20.366 -30.981  1.00  0.00    -0.026 A 
ATOM      7  C   UNL     1     -30.702 -21.115 -32.114  1.00  0.00     0.008 A 
ATOM      8  C   UNL     1     -29.482 -19.264 -31.132  1.00  0.00     0.008 A 
ATOM      9  C   UNL     1     -30.258 -20.730 -33.384  1.00  0.00     0.001 A 
ATOM     10  C   UNL     1     -29.041 -18.883 -32.403  1.00  0.00     0.001 A 
ATOM     11  C   UNL     1     -29.432 -19.612 -33.528  1.00  0.00     0.000 A 
ENDBRANCH   2   6
TORSDOF 2
ENDMDL
MODEL 7
REMARK VINA RESULT:    -2.868      1.150      2.048
REMARK INTER + INTRA:          -3.476
REMARK INTER:                  -3.220
REMARK INTRA:                  -0.257
REMARK UNBOUND:                -0.273
REMARK SMILES O=C([O-])C=Cc1ccccc1
REMARK SMILES IDX 4 1 5 2 2 3 1 4 3 5 6 6 7 7 11 8 8 9 10 10 9 11
REMARK H PARENT
REMARK Flexibility Score: inf
ROOT
ATOM      1  C   UNL     1     -32.094 -22.451 -34.189  1.00  0.00     0.025 C 
ATOM      2  C   UNL     1     -32.647 -22.990 -35.286  1.00  0.00     0.010 C 
ENDROOT
BRANCH   1   3
ATOM      3  C   UNL     1     -31.435 -21.132 -34.114  1.00  0.00     0.064 C 
ATOM      4  O   UNL     1     -30.192 -21.007 -34.276  1.00  0.00    -0.545 OA
ATOM      5  O   UNL     1     -32.193 -20.015 -33.788  1.00  0.00    -0.545 OA
ENDBRANCH   1   3
BRANCH   2   6
ATOM      6  C   UNL     1     -32.856 -22.291 -36.572  1.00  0.00    -0.026 A 
ATOM      7  C   UNL     1     -31.936 -22.416 -37.627  1.00  0.00     0.008 A 
ATOM      8  C   UNL     1     -33.937 -21.406 -36.704  1.00  0.00     0.008 A 
ATOM      9  C   UNL     1     -32.127 -21.704 -38.816  1.00  0.00     0.001 A 
ATOM     10  C   UNL     1     -34.125 -20.696 -37.894  1.00  0.00     0.001 A 
ATOM     11  C   UNL     1     -33.223 -20.848 -38.950  1.00  0.00     0.000 A 
ENDBRANCH   2   6
TORSDOF 2
ENDMDL
MODEL 8
REMARK VINA RESULT:    -2.667      1.808      2.587
REMARK INTER + INTRA:          -3.251
REMARK INTER:                  -3.316
REMARK INTRA:                   0.065
REMARK UNBOUND:                -0.273
REMARK SMILES O=C([O-])C=Cc1ccccc1
REMARK SMILES IDX 4 1 5 2 2 3 1 4 3 5 6 6 7 7 11 8 8 9 10 10 9 11
REMARK H PARENT
REMARK Flexibility Score: inf
ROOT
ATOM      1  C   UNL     1     -32.921 -21.083 -34.768  1.00  0.00     0.025 C 
ATOM      2  C   UNL     1     -33.502 -21.559 -35.880  1.00  0.00     0.010 C 
ENDROOT
BRANCH   1   3
ATOM      3  C   UNL     1     -31.587 -21.461 -34.261  1.00  0.00     0.064 C 
ATOM      4  O   UNL     1     -30.574 -21.460 -35.009  1.00  0.00    -0.545 OA
ATOM      5  O   UNL     1     -31.460 -21.893 -32.948  1.00  0.00    -0.545 OA
ENDBRANCH   1   3
BRANCH   2   6
ATOM      6  C   UNL     1     -32.843 -22.410 -36.893  1.00  0.00    -0.026 A 
ATOM      7  C   UNL     1     -32.508 -21.904 -38.162  1.00  0.00     0.008 A 
ATOM      8  C   UNL     1     -32.643 -23.772 -36.623  1.00  0.00     0.008 A 
ATOM      9  C   UNL     1     -31.932 -22.742 -39.124  1.00  0.00     0.001 A 
ATOM     10  C   UNL     1     -32.068 -24.606 -37.586  1.00  0.00     0.001 A 
ATOM     11  C   UNL     1     -31.709 -24.090 -38.834  1.00  0.00     0.000 A 
ENDBRANCH   2   6
TORSDOF 2
ENDMDL
MODEL 9
REMARK VINA RESULT:    -2.534      2.661      3.768
REMARK INTER + INTRA:          -3.103
REMARK INTER:                  -2.886
REMARK INTRA:                  -0.217
REMARK UNBOUND:                -0.273
REMARK SMILES O=C([O-])C=Cc1ccccc1
REMARK SMILES IDX 4 1 5 2 2 3 1 4 3 5 6 6 7 7 11 8 8 9 10 10 9 11
REMARK H PARENT
REMARK Flexibility Score: inf
ROOT
ATOM      1  C   UNL     1     -29.889 -19.050 -30.444  1.00  0.00     0.025 C 
ATOM      2  C   UNL     1     -29.796 -18.875 -31.772  1.00  0.00     0.010 C 
ENDROOT
BRANCH   1   3
ATOM      3  C   UNL     1     -30.900 -19.873 -29.751  1.00  0.00     0.064 C 
ATOM      4  O   UNL     1     -30.733 -21.108 -29.571  1.00  0.00    -0.545 OA
ATOM      5  O   UNL     1     -32.092 -19.284 -29.350  1.00  0.00    -0.545 OA
ENDBRANCH   1   3
BRANCH   2   6
ATOM      6  C   UNL     1     -30.574 -19.613 -32.789  1.00  0.00    -0.026 A 
ATOM      7  C   UNL     1     -31.918 -19.292 -33.053  1.00  0.00     0.008 A 
ATOM      8  C   UNL     1     -29.995 -20.720 -33.428  1.00  0.00     0.008 A 
ATOM      9  C   UNL     1     -32.650 -20.038 -33.982  1.00  0.00     0.001 A 
ATOM     10  C   UNL     1     -30.729 -21.462 -34.356  1.00  0.00     0.001 A 
ATOM     11  C   UNL     1     -32.055 -21.119 -34.637  1.00  0.00     0.000 A 
ENDBRANCH   2   6
TORSDOF 2
ENDMDL
