MODEL 1
REMARK VINA RESULT:    64.305      0.000      0.000
REMARK INTER + INTRA:          85.275
REMARK INTER:                  84.981
REMARK INTRA:                   0.295
REMARK UNBOUND:                 0.295
REMARK SMILES CC[C@@H](C=C[C@@H](C)[C@H]1CC[C@@H]2[C@H]3CC=C4C[C@H](O)CC[C@]4(C)[C@H]3CC[C@@]21C)C(C)C
REMARK SMILES IDX 6 1 7 2 5 3 4 4 3 5 2 6 1 7 28 8 29 9 30 10 8 11 9 12 26 13
REMARK SMILES IDX 10 14 11 15 25 16 27 17 12 18 24 19 23 20 13 21 21 22 14 23
REMARK SMILES IDX 15 24 20 25 22 26 16 27 19 28 17 29 18 30
REMARK H PARENT 18 31
REMARK Flexibility Score: inf
ROOT
ATOM      1  C   UNL     1      83.835  18.523 107.406  1.00  0.00     0.012 C 
ATOM      2  C   UNL     1      83.098  18.818 108.740  1.00  0.00     0.012 C 
ENDROOT
BRANCH   1   3
ATOM      3  C   UNL     1      83.767  17.015 107.216  1.00  0.00    -0.028 C 
ATOM      4  C   UNL     1      84.057  16.157 108.210  1.00  0.00    -0.027 C 
BRANCH   4   5
ATOM      5  C   UNL     1      84.292  14.674 107.980  1.00  0.00     0.014 C 
BRANCH   5   6
ATOM      6  C   UNL     1      83.357  14.158 106.853  1.00  0.00     0.004 C 
ATOM      7  C   UNL     1      83.246  12.629 106.810  1.00  0.00     0.004 C 
ENDBRANCH   5   6
BRANCH   5   8
ATOM      8  C   UNL     1      84.163  13.820 109.287  1.00  0.00    -0.011 C 
ATOM      9  C   UNL     1      82.765  13.951 109.923  1.00  0.00     0.008 C 
ATOM     10  C   UNL     1      85.220  14.207 110.342  1.00  0.00     0.008 C 
ENDBRANCH   5   8
ENDBRANCH   4   5
ENDBRANCH   1   3
BRANCH   1  11
ATOM     11  C   UNL     1      85.326  19.055 107.390  1.00  0.00     0.002 C 
ATOM     12  C   UNL     1      85.458  20.388 106.640  1.00  0.00     0.005 C 
ATOM     13  C   UNL     1      86.044  19.343 108.778  1.00  0.00    -0.026 C 
ATOM     14  C   UNL     1      85.377  21.466 107.697  1.00  0.00     0.005 C 
ATOM     15  C   UNL     1      86.104  20.906 108.928  1.00  0.00    -0.001 C 
ATOM     16  C   UNL     1      87.478  18.736 108.716  1.00  0.00     0.007 C 
ATOM     17  C   UNL     1      85.300  18.751 110.011  1.00  0.00     0.012 C 
ATOM     18  C   UNL     1      87.541  21.524 109.062  1.00  0.00     0.000 C 
ATOM     19  C   UNL     1      88.360  19.180 109.887  1.00  0.00     0.005 C 
ATOM     20  C   UNL     1      88.531  20.723 109.973  1.00  0.00     0.003 C 
ATOM     21  C   UNL     1      87.474  23.041 109.407  1.00  0.00     0.031 C 
ATOM     22  C   UNL     1      88.683  21.274 111.442  1.00  0.00    -0.008 C 
ATOM     23  C   UNL     1      88.495  23.536 110.398  1.00  0.00    -0.027 C 
ATOM     24  C   UNL     1      89.033  22.763 111.361  1.00  0.00    -0.065 C 
ATOM     25  C   UNL     1      89.827  20.487 112.164  1.00  0.00     0.014 C 
ATOM     26  C   UNL     1      87.379  21.133 112.259  1.00  0.00     0.016 C 
ATOM     27  C   UNL     1      89.767  23.453 112.503  1.00  0.00     0.063 C 
ATOM     28  C   UNL     1      90.364  21.172 113.424  1.00  0.00     0.033 C 
ATOM     29  C   UNL     1      90.876  22.579 113.118  1.00  0.00     0.118 C 
BRANCH  29  30
ATOM     30  O   UNL     1      92.028  22.529 112.305  1.00  0.00    -0.393 OA
ATOM     31  H   UNL     1      92.117  21.613 111.943  1.00  0.00     0.210 HD
ENDBRANCH  29  30
ENDBRANCH   1  11
TORSDOF 6
ENDMDL
MODEL 2
REMARK VINA RESULT:    64.383      2.803      8.398
REMARK INTER + INTRA:          85.379
REMARK INTER:                  85.076
REMARK INTRA:                   0.303
REMARK UNBOUND:                 0.295
REMARK SMILES CC[C@@H](C=C[C@@H](C)[C@H]1CC[C@@H]2[C@H]3CC=C4C[C@H](O)CC[C@]4(C)[C@H]3CC[C@@]21C)C(C)C
REMARK SMILES IDX 6 1 7 2 5 3 4 4 3 5 2 6 1 7 28 8 29 9 30 10 8 11 9 12 26 13
REMARK SMILES IDX 10 14 11 15 25 16 27 17 12 18 24 19 23 20 13 21 21 22 14 23
REMARK SMILES IDX 15 24 20 25 22 26 16 27 19 28 17 29 18 30
REMARK H PARENT 18 31
REMARK Flexibility Score: inf
ROOT
ATOM      1  C   UNL     1      87.672  21.965 109.061  1.00  0.00     0.012 C 
ATOM      2  C   UNL     1      88.680  21.189 108.171  1.00  0.00     0.012 C 
ENDROOT
BRANCH   1   3
ATOM      3  C   UNL     1      88.392  22.227 110.376  1.00  0.00    -0.028 C 
ATOM      4  C   UNL     1      89.115  21.278 110.995  1.00  0.00    -0.027 C 
BRANCH   4   5
ATOM      5  C   UNL     1      89.589  21.405 112.433  1.00  0.00     0.014 C 
BRANCH   5   6
ATOM      6  C   UNL     1      90.073  22.855 112.705  1.00  0.00     0.004 C 
ATOM      7  C   UNL     1      90.910  22.985 113.983  1.00  0.00     0.004 C 
ENDBRANCH   5   6
BRANCH   5   8
ATOM      8  C   UNL     1      90.672  20.341 112.820  1.00  0.00    -0.011 C 
ATOM      9  C   UNL     1      91.937  20.466 111.948  1.00  0.00     0.008 C 
ATOM     10  C   UNL     1      90.138  18.899 112.707  1.00  0.00     0.008 C 
ENDBRANCH   5   8
ENDBRANCH   4   5
ENDBRANCH   1   3
BRANCH   1  11
ATOM     11  C   UNL     1      86.309  21.189 109.278  1.00  0.00     0.002 C 
ATOM     12  C   UNL     1      85.199  21.696 108.346  1.00  0.00     0.005 C 
ATOM     13  C   UNL     1      86.288  19.616 109.051  1.00  0.00    -0.026 C 
ATOM     14  C   UNL     1      85.213  20.775 107.147  1.00  0.00     0.005 C 
ATOM     15  C   UNL     1      85.535  19.376 107.693  1.00  0.00    -0.001 C 
ATOM     16  C   UNL     1      85.513  18.968 110.237  1.00  0.00     0.007 C 
ATOM     17  C   UNL     1      87.701  18.969 108.959  1.00  0.00     0.012 C 
ATOM     18  C   UNL     1      84.238  18.495 107.778  1.00  0.00     0.000 C 
ATOM     19  C   UNL     1      85.192  17.489 109.997  1.00  0.00     0.005 C 
ATOM     20  C   UNL     1      84.338  17.248 108.720  1.00  0.00     0.003 C 
ATOM     21  C   UNL     1      83.692  18.156 106.360  1.00  0.00     0.031 C 
ATOM     22  C   UNL     1      84.637  15.882 107.992  1.00  0.00    -0.008 C 
ATOM     23  C   UNL     1      83.160  16.758 106.176  1.00  0.00    -0.027 C 
ATOM     24  C   UNL     1      83.601  15.696 106.880  1.00  0.00    -0.065 C 
ATOM     25  C   UNL     1      84.529  14.718 109.033  1.00  0.00     0.014 C 
ATOM     26  C   UNL     1      86.041  15.856 107.348  1.00  0.00     0.016 C 
ATOM     27  C   UNL     1      83.252  14.306 106.365  1.00  0.00     0.063 C 
ATOM     28  C   UNL     1      84.382  13.328 108.408  1.00  0.00     0.033 C 
ATOM     29  C   UNL     1      83.163  13.256 107.488  1.00  0.00     0.118 C 
BRANCH  29  30
ATOM     30  O   UNL     1      81.968  13.366 108.228  1.00  0.00    -0.393 OA
ATOM     31  H   UNL     1      81.237  13.613 107.608  1.00  0.00     0.210 HD
ENDBRANCH  29  30
ENDBRANCH   1  11
TORSDOF 6
ENDMDL
MODEL 3
REMARK VINA RESULT:    66.244      3.017      8.764
REMARK INTER + INTRA:          87.838
REMARK INTER:                  88.518
REMARK INTRA:                  -0.680
REMARK UNBOUND:                 0.295
REMARK SMILES CC[C@@H](C=C[C@@H](C)[C@H]1CC[C@@H]2[C@H]3CC=C4C[C@H](O)CC[C@]4(C)[C@H]3CC[C@@]21C)C(C)C
REMARK SMILES IDX 6 1 7 2 5 3 4 4 3 5 2 6 1 7 28 8 29 9 30 10 8 11 9 12 26 13
REMARK SMILES IDX 10 14 11 15 25 16 27 17 12 18 24 19 23 20 13 21 21 22 14 23
REMARK SMILES IDX 15 24 20 25 22 26 16 27 19 28 17 29 18 30
REMARK H PARENT 18 31
REMARK Flexibility Score: inf
ROOT
ATOM      1  C   UNL     1      86.725  21.230 109.603  1.00  0.00     0.012 C 
ATOM      2  C   UNL     1      86.961  22.700 109.162  1.00  0.00     0.012 C 
ENDROOT
BRANCH   1   3
ATOM      3  C   UNL     1      87.991  20.806 110.336  1.00  0.00    -0.028 C 
ATOM      4  C   UNL     1      88.529  21.550 111.317  1.00  0.00    -0.027 C 
BRANCH   4   5
ATOM      5  C   UNL     1      89.932  21.320 111.855  1.00  0.00     0.014 C 
BRANCH   5   6
ATOM      6  C   UNL     1      89.925  20.139 112.863  1.00  0.00     0.004 C 
ATOM      7  C   UNL     1      91.209  19.301 112.824  1.00  0.00     0.004 C 
ENDBRANCH   5   6
BRANCH   5   8
ATOM      8  C   UNL     1      90.576  22.610 112.466  1.00  0.00    -0.011 C 
ATOM      9  C   UNL     1      90.744  22.500 113.994  1.00  0.00     0.008 C 
ATOM     10  C   UNL     1      89.753  23.877 112.152  1.00  0.00     0.008 C 
ENDBRANCH   5   8
ENDBRANCH   4   5
ENDBRANCH   1   3
BRANCH   1  11
ATOM     11  C   UNL     1      86.392  20.265 108.392  1.00  0.00     0.002 C 
ATOM     12  C   UNL     1      87.659  19.683 107.750  1.00  0.00     0.005 C 
ATOM     13  C   UNL     1      85.497  18.981 108.669  1.00  0.00    -0.026 C 
ATOM     14  C   UNL     1      87.872  18.336 108.404  1.00  0.00     0.005 C 
ATOM     15  C   UNL     1      86.470  17.748 108.624  1.00  0.00    -0.001 C 
ATOM     16  C   UNL     1      84.428  18.885 107.540  1.00  0.00     0.007 C 
ATOM     17  C   UNL     1      84.774  18.997 110.047  1.00  0.00     0.012 C 
ATOM     18  C   UNL     1      86.141  16.658 107.544  1.00  0.00     0.000 C 
ATOM     19  C   UNL     1      83.681  17.548 107.544  1.00  0.00     0.005 C 
ATOM     20  C   UNL     1      84.621  16.321 107.375  1.00  0.00     0.003 C 
ATOM     21  C   UNL     1      87.037  15.397 107.722  1.00  0.00     0.031 C 
ATOM     22  C   UNL     1      84.135  15.026 108.130  1.00  0.00    -0.008 C 
ATOM     23  C   UNL     1      86.357  14.070 107.504  1.00  0.00    -0.027 C 
ATOM     24  C   UNL     1      85.043  13.863 107.720  1.00  0.00    -0.065 C 
ATOM     25  C   UNL     1      82.654  14.726 107.722  1.00  0.00     0.014 C 
ATOM     26  C   UNL     1      84.216  15.178 109.666  1.00  0.00     0.016 C 
ATOM     27  C   UNL     1      84.554  12.424 107.808  1.00  0.00     0.063 C 
ATOM     28  C   UNL     1      82.191  13.302 108.039  1.00  0.00     0.033 C 
ATOM     29  C   UNL     1      83.087  12.262 107.367  1.00  0.00     0.118 C 
BRANCH  29  30
ATOM     30  O   UNL     1      82.944  12.305 105.965  1.00  0.00    -0.393 OA
ATOM     31  H   UNL     1      83.557  11.638 105.567  1.00  0.00     0.210 HD
ENDBRANCH  29  30
ENDBRANCH   1  11
TORSDOF 6
ENDMDL
