MODEL 1
REMARK VINA RESULT:    -4.395      0.000      0.000
REMARK INTER + INTRA:          -9.845
REMARK INTER:                  -7.735
REMARK INTRA:                  -2.110
REMARK UNBOUND:                -2.110
REMARK SMILES CCCCCCC=CCCCCCCCC(=O)[O-]
REMARK SMILES IDX 10 1 11 2 12 3 13 4 14 5 15 6 16 7 17 8 18 9 9 10 8 11 7 12
REMARK SMILES IDX 6 13 5 14 4 15 3 16 2 17 1 18
REMARK H PARENT
REMARK Flexibility Score: inf
ROOT
ATOM      1  C   UNL     1     191.511 242.104 134.387  1.00  0.00     0.004 C 
ENDROOT
BRANCH   1   2
ATOM      2  C   UNL     1     190.463 242.971 135.098  1.00  0.00     0.000 C 
BRANCH   2   3
ATOM      3  C   UNL     1     190.040 244.191 134.264  1.00  0.00     0.000 C 
BRANCH   3   4
ATOM      4  C   UNL     1     190.969 245.397 134.466  1.00  0.00     0.000 C 
BRANCH   4   5
ATOM      5  C   UNL     1     191.756 245.705 133.183  1.00  0.00     0.006 C 
BRANCH   5   6
ATOM      6  C   UNL     1     193.229 246.028 133.467  1.00  0.00     0.053 C 
BRANCH   6   7
ATOM      7  C   UNL     1     193.704 247.203 132.670  1.00  0.00     0.041 C 
ATOM      8  O   UNL     1     193.190 248.339 132.848  1.00  0.00    -0.550 OA
ATOM      9  O   UNL     1     194.692 247.039 131.708  1.00  0.00    -0.550 OA
ENDBRANCH   6   7
ENDBRANCH   5   6
ENDBRANCH   4   5
ENDBRANCH   3   4
ENDBRANCH   2   3
ENDBRANCH   1   2
BRANCH   1  10
ATOM     10  C   UNL     1     192.897 242.291 135.018  1.00  0.00     0.027 C 
BRANCH  10  11
ATOM     11  C   UNL     1     193.965 242.381 133.965  1.00  0.00    -0.031 C 
ATOM     12  C   UNL     1     193.661 242.483 132.662  1.00  0.00    -0.031 C 
BRANCH  12  13
ATOM     13  C   UNL     1     194.730 242.556 131.607  1.00  0.00     0.027 C 
BRANCH  13  14
ATOM     14  C   UNL     1     195.838 241.526 131.872  1.00  0.00     0.004 C 
BRANCH  14  15
ATOM     15  C   UNL     1     195.459 240.116 131.394  1.00  0.00     0.000 C 
BRANCH  15  16
ATOM     16  C   UNL     1     195.567 239.066 132.514  1.00  0.00    -0.000 C 
BRANCH  16  17
ATOM     17  C   UNL     1     194.203 238.731 133.139  1.00  0.00    -0.003 C 
ATOM     18  C   UNL     1     194.224 238.783 134.666  1.00  0.00     0.004 C 
ENDBRANCH  16  17
ENDBRANCH  15  16
ENDBRANCH  14  15
ENDBRANCH  13  14
ENDBRANCH  12  13
ENDBRANCH  10  11
ENDBRANCH   1  10
TORSDOF 13
ENDMDL
MODEL 2
REMARK VINA RESULT:    -4.393      2.714      5.624
REMARK INTER + INTRA:          -9.842
REMARK INTER:                  -7.894
REMARK INTRA:                  -1.948
REMARK UNBOUND:                -2.110
REMARK SMILES CCCCCCC=CCCCCCCCC(=O)[O-]
REMARK SMILES IDX 10 1 11 2 12 3 13 4 14 5 15 6 16 7 17 8 18 9 9 10 8 11 7 12
REMARK SMILES IDX 6 13 5 14 4 15 3 16 2 17 1 18
REMARK H PARENT
REMARK Flexibility Score: inf
ROOT
ATOM      1  C   UNL     1     191.286 243.882 135.693  1.00  0.00     0.004 C 
ENDROOT
BRANCH   1   2
ATOM      2  C   UNL     1     191.682 243.038 134.474  1.00  0.00     0.000 C 
BRANCH   2   3
ATOM      3  C   UNL     1     192.997 242.272 134.687  1.00  0.00     0.000 C 
BRANCH   3   4
ATOM      4  C   UNL     1     193.766 242.039 133.378  1.00  0.00     0.000 C 
BRANCH   4   5
ATOM      5  C   UNL     1     194.209 243.371 132.755  1.00  0.00     0.006 C 
BRANCH   5   6
ATOM      6  C   UNL     1     194.065 243.377 131.228  1.00  0.00     0.053 C 
BRANCH   6   7
ATOM      7  C   UNL     1     194.903 242.314 130.587  1.00  0.00     0.041 C 
ATOM      8  O   UNL     1     196.156 242.331 130.715  1.00  0.00    -0.550 OA
ATOM      9  O   UNL     1     194.304 241.321 129.822  1.00  0.00    -0.550 OA
ENDBRANCH   6   7
ENDBRANCH   5   6
ENDBRANCH   4   5
ENDBRANCH   3   4
ENDBRANCH   2   3
ENDBRANCH   1   2
BRANCH   1  10
ATOM     10  C   UNL     1     191.340 245.380 135.364  1.00  0.00     0.027 C 
BRANCH  10  11
ATOM     11  C   UNL     1     191.479 245.606 133.884  1.00  0.00    -0.031 C 
ATOM     12  C   UNL     1     192.323 246.524 133.390  1.00  0.00    -0.031 C 
BRANCH  12  13
ATOM     13  C   UNL     1     192.449 246.761 131.910  1.00  0.00     0.027 C 
BRANCH  13  14
ATOM     14  C   UNL     1     193.811 247.384 131.566  1.00  0.00     0.004 C 
BRANCH  14  15
ATOM     15  C   UNL     1     194.924 246.932 132.524  1.00  0.00     0.000 C 
BRANCH  15  16
ATOM     16  C   UNL     1     196.234 247.713 132.314  1.00  0.00    -0.000 C 
BRANCH  16  17
ATOM     17  C   UNL     1     196.961 247.305 131.023  1.00  0.00    -0.003 C 
ATOM     18  C   UNL     1     197.186 245.796 130.923  1.00  0.00     0.004 C 
ENDBRANCH  16  17
ENDBRANCH  15  16
ENDBRANCH  14  15
ENDBRANCH  13  14
ENDBRANCH  12  13
ENDBRANCH  10  11
ENDBRANCH   1  10
TORSDOF 13
ENDMDL
MODEL 3
REMARK VINA RESULT:    -4.367      2.932      6.216
REMARK INTER + INTRA:          -9.795
REMARK INTER:                  -8.379
REMARK INTRA:                  -1.416
REMARK UNBOUND:                -2.110
REMARK SMILES CCCCCCC=CCCCCCCCC(=O)[O-]
REMARK SMILES IDX 10 1 11 2 12 3 13 4 14 5 15 6 16 7 17 8 18 9 9 10 8 11 7 12
REMARK SMILES IDX 6 13 5 14 4 15 3 16 2 17 1 18
REMARK H PARENT
REMARK Flexibility Score: inf
ROOT
ATOM      1  C   UNL     1     194.354 239.455 133.364  1.00  0.00     0.004 C 
ENDROOT
BRANCH   1   2
ATOM      2  C   UNL     1     195.503 239.640 132.363  1.00  0.00     0.000 C 
BRANCH   2   3
ATOM      3  C   UNL     1     195.200 239.015 130.992  1.00  0.00     0.000 C 
BRANCH   3   4
ATOM      4  C   UNL     1     194.577 240.017 130.009  1.00  0.00     0.000 C 
BRANCH   4   5
ATOM      5  C   UNL     1     195.468 241.258 129.849  1.00  0.00     0.006 C 
BRANCH   5   6
ATOM      6  C   UNL     1     195.204 241.999 128.532  1.00  0.00     0.053 C 
BRANCH   6   7
ATOM      7  C   UNL     1     196.357 241.878 127.585  1.00  0.00     0.041 C 
ATOM      8  O   UNL     1     196.367 240.969 126.712  1.00  0.00    -0.550 OA
ATOM      9  O   UNL     1     197.437 242.746 127.685  1.00  0.00    -0.550 OA
ENDBRANCH   6   7
ENDBRANCH   5   6
ENDBRANCH   4   5
ENDBRANCH   3   4
ENDBRANCH   2   3
ENDBRANCH   1   2
BRANCH   1  10
ATOM     10  C   UNL     1     194.004 240.782 134.049  1.00  0.00     0.027 C 
BRANCH  10  11
ATOM     11  C   UNL     1     194.127 241.935 133.093  1.00  0.00    -0.031 C 
ATOM     12  C   UNL     1     193.801 243.185 133.454  1.00  0.00    -0.031 C 
BRANCH  12  13
ATOM     13  C   UNL     1     193.908 244.336 132.491  1.00  0.00     0.027 C 
BRANCH  13  14
ATOM     14  C   UNL     1     192.839 245.399 132.782  1.00  0.00     0.004 C 
BRANCH  14  15
ATOM     15  C   UNL     1     191.415 244.822 132.770  1.00  0.00     0.000 C 
BRANCH  15  16
ATOM     16  C   UNL     1     190.685 245.025 134.110  1.00  0.00    -0.000 C 
BRANCH  16  17
ATOM     17  C   UNL     1     189.727 243.870 134.437  1.00  0.00    -0.003 C 
ATOM     18  C   UNL     1     190.453 242.541 134.648  1.00  0.00     0.004 C 
ENDBRANCH  16  17
ENDBRANCH  15  16
ENDBRANCH  14  15
ENDBRANCH  13  14
ENDBRANCH  12  13
ENDBRANCH  10  11
ENDBRANCH   1  10
TORSDOF 13
ENDMDL
MODEL 4
REMARK VINA RESULT:    -4.348      1.299      5.026
REMARK INTER + INTRA:          -9.763
REMARK INTER:                  -8.086
REMARK INTRA:                  -1.677
REMARK UNBOUND:                -2.110
REMARK SMILES CCCCCCC=CCCCCCCCC(=O)[O-]
REMARK SMILES IDX 10 1 11 2 12 3 13 4 14 5 15 6 16 7 17 8 18 9 9 10 8 11 7 12
REMARK SMILES IDX 6 13 5 14 4 15 3 16 2 17 1 18
REMARK H PARENT
REMARK Flexibility Score: inf
ROOT
ATOM      1  C   UNL     1     195.345 239.831 131.662  1.00  0.00     0.004 C 
ENDROOT
BRANCH   1   2
ATOM      2  C   UNL     1     195.719 241.305 131.868  1.00  0.00     0.000 C 
BRANCH   2   3
ATOM      3  C   UNL     1     194.885 242.255 130.994  1.00  0.00     0.000 C 
BRANCH   3   4
ATOM      4  C   UNL     1     193.609 242.741 131.697  1.00  0.00     0.000 C 
BRANCH   4   5
ATOM      5  C   UNL     1     193.941 243.761 132.797  1.00  0.00     0.006 C 
BRANCH   5   6
ATOM      6  C   UNL     1     193.850 245.208 132.296  1.00  0.00     0.053 C 
BRANCH   6   7
ATOM      7  C   UNL     1     195.172 245.907 132.369  1.00  0.00     0.041 C 
ATOM      8  O   UNL     1     196.103 245.585 131.583  1.00  0.00    -0.550 OA
ATOM      9  O   UNL     1     195.389 246.891 133.325  1.00  0.00    -0.550 OA
ENDBRANCH   6   7
ENDBRANCH   5   6
ENDBRANCH   4   5
ENDBRANCH   3   4
ENDBRANCH   2   3
ENDBRANCH   1   2
BRANCH   1  10
ATOM     10  C   UNL     1     195.336 239.075 132.996  1.00  0.00     0.027 C 
BRANCH  10  11
ATOM     11  C   UNL     1     193.985 239.147 133.652  1.00  0.00    -0.031 C 
ATOM     12  C   UNL     1     193.615 240.208 134.385  1.00  0.00    -0.031 C 
BRANCH  12  13
ATOM     13  C   UNL     1     192.269 240.273 135.054  1.00  0.00     0.027 C 
BRANCH  13  14
ATOM     14  C   UNL     1     191.569 241.606 134.756  1.00  0.00     0.004 C 
BRANCH  14  15
ATOM     15  C   UNL     1     190.220 241.739 135.479  1.00  0.00     0.000 C 
BRANCH  15  16
ATOM     16  C   UNL     1     189.520 243.076 135.179  1.00  0.00    -0.000 C 
BRANCH  16  17
ATOM     17  C   UNL     1     190.182 243.840 134.022  1.00  0.00    -0.003 C 
ATOM     18  C   UNL     1     190.781 245.176 134.462  1.00  0.00     0.004 C 
ENDBRANCH  16  17
ENDBRANCH  15  16
ENDBRANCH  14  15
ENDBRANCH  13  14
ENDBRANCH  12  13
ENDBRANCH  10  11
ENDBRANCH   1  10
TORSDOF 13
ENDMDL
MODEL 5
REMARK VINA RESULT:    -4.302      3.759      7.139
REMARK INTER + INTRA:          -9.682
REMARK INTER:                  -7.720
REMARK INTRA:                  -1.963
REMARK UNBOUND:                -2.110
REMARK SMILES CCCCCCC=CCCCCCCCC(=O)[O-]
REMARK SMILES IDX 10 1 11 2 12 3 13 4 14 5 15 6 16 7 17 8 18 9 9 10 8 11 7 12
REMARK SMILES IDX 6 13 5 14 4 15 3 16 2 17 1 18
REMARK H PARENT
REMARK Flexibility Score: inf
ROOT
ATOM      1  C   UNL     1     197.231 250.736 132.711  1.00  0.00     0.004 C 
ENDROOT
BRANCH   1   2
ATOM      2  C   UNL     1     197.752 249.652 131.758  1.00  0.00     0.000 C 
BRANCH   2   3
ATOM      3  C   UNL     1     196.852 249.463 130.527  1.00  0.00     0.000 C 
BRANCH   3   4
ATOM      4  C   UNL     1     196.305 248.033 130.407  1.00  0.00     0.000 C 
BRANCH   4   5
ATOM      5  C   UNL     1     197.401 246.998 130.708  1.00  0.00     0.006 C 
BRANCH   5   6
ATOM      6  C   UNL     1     196.834 245.713 131.325  1.00  0.00     0.053 C 
BRANCH   6   7
ATOM      7  C   UNL     1     197.281 244.494 130.580  1.00  0.00     0.041 C 
ATOM      8  O   UNL     1     196.636 243.417 130.682  1.00  0.00    -0.550 OA
ATOM      9  O   UNL     1     198.428 244.536 129.797  1.00  0.00    -0.550 OA
ENDBRANCH   6   7
ENDBRANCH   5   6
ENDBRANCH   4   5
ENDBRANCH   3   4
ENDBRANCH   2   3
ENDBRANCH   1   2
BRANCH   1  10
ATOM     10  C   UNL     1     196.800 250.127 134.052  1.00  0.00     0.027 C 
BRANCH  10  11
ATOM     11  C   UNL     1     195.500 249.385 133.918  1.00  0.00    -0.031 C 
ATOM     12  C   UNL     1     195.441 248.048 134.007  1.00  0.00    -0.031 C 
BRANCH  12  13
ATOM     13  C   UNL     1     194.142 247.305 133.856  1.00  0.00     0.027 C 
BRANCH  13  14
ATOM     14  C   UNL     1     193.386 247.764 132.601  1.00  0.00     0.004 C 
BRANCH  14  15
ATOM     15  C   UNL     1     192.525 246.649 131.990  1.00  0.00     0.000 C 
BRANCH  15  16
ATOM     16  C   UNL     1     193.282 245.314 131.878  1.00  0.00    -0.000 C 
BRANCH  16  17
ATOM     17  C   UNL     1     192.597 244.182 132.659  1.00  0.00    -0.003 C 
ATOM     18  C   UNL     1     191.088 244.383 132.789  1.00  0.00     0.004 C 
ENDBRANCH  16  17
ENDBRANCH  15  16
ENDBRANCH  14  15
ENDBRANCH  13  14
ENDBRANCH  12  13
ENDBRANCH  10  11
ENDBRANCH   1  10
TORSDOF 13
ENDMDL
MODEL 6
REMARK VINA RESULT:    -4.295      3.375      7.018
REMARK INTER + INTRA:          -9.669
REMARK INTER:                  -7.834
REMARK INTRA:                  -1.835
REMARK UNBOUND:                -2.110
REMARK SMILES CCCCCCC=CCCCCCCCC(=O)[O-]
REMARK SMILES IDX 10 1 11 2 12 3 13 4 14 5 15 6 16 7 17 8 18 9 9 10 8 11 7 12
REMARK SMILES IDX 6 13 5 14 4 15 3 16 2 17 1 18
REMARK H PARENT
REMARK Flexibility Score: inf
ROOT
ATOM      1  C   UNL     1     192.534 246.905 132.704  1.00  0.00     0.004 C 
ENDROOT
BRANCH   1   2
ATOM      2  C   UNL     1     191.780 245.717 133.318  1.00  0.00     0.000 C 
BRANCH   2   3
ATOM      3  C   UNL     1     192.009 244.408 132.547  1.00  0.00     0.000 C 
BRANCH   3   4
ATOM      4  C   UNL     1     193.341 243.734 132.906  1.00  0.00     0.000 C 
BRANCH   4   5
ATOM      5  C   UNL     1     194.274 243.675 131.687  1.00  0.00     0.006 C 
BRANCH   5   6
ATOM      6  C   UNL     1     194.097 242.382 130.880  1.00  0.00     0.053 C 
BRANCH   6   7
ATOM      7  C   UNL     1     195.275 241.469 131.028  1.00  0.00     0.041 C 
ATOM      8  O   UNL     1     196.057 241.598 132.006  1.00  0.00    -0.550 OA
ATOM      9  O   UNL     1     195.528 240.497 130.069  1.00  0.00    -0.550 OA
ENDBRANCH   6   7
ENDBRANCH   5   6
ENDBRANCH   4   5
ENDBRANCH   3   4
ENDBRANCH   2   3
ENDBRANCH   1   2
BRANCH   1  10
ATOM     10  C   UNL     1     193.583 247.452 133.680  1.00  0.00     0.027 C 
BRANCH  10  11
ATOM     11  C   UNL     1     194.977 247.184 133.185  1.00  0.00    -0.031 C 
ATOM     12  C   UNL     1     195.270 247.185 131.876  1.00  0.00    -0.031 C 
BRANCH  12  13
ATOM     13  C   UNL     1     196.661 246.900 131.380  1.00  0.00     0.027 C 
BRANCH  13  14
ATOM     14  C   UNL     1     197.261 248.131 130.685  1.00  0.00     0.004 C 
BRANCH  14  15
ATOM     15  C   UNL     1     197.795 249.170 131.683  1.00  0.00     0.000 C 
BRANCH  15  16
ATOM     16  C   UNL     1     197.033 250.505 131.607  1.00  0.00    -0.000 C 
BRANCH  16  17
ATOM     17  C   UNL     1     196.135 250.739 132.831  1.00  0.00    -0.003 C 
ATOM     18  C   UNL     1     196.791 250.297 134.139  1.00  0.00     0.004 C 
ENDBRANCH  16  17
ENDBRANCH  15  16
ENDBRANCH  14  15
ENDBRANCH  13  14
ENDBRANCH  12  13
ENDBRANCH  10  11
ENDBRANCH   1  10
TORSDOF 13
ENDMDL
MODEL 7
REMARK VINA RESULT:    -4.295      5.607      7.110
REMARK INTER + INTRA:          -9.669
REMARK INTER:                  -8.568
REMARK INTRA:                  -1.100
REMARK UNBOUND:                -2.110
REMARK SMILES CCCCCCC=CCCCCCCCC(=O)[O-]
REMARK SMILES IDX 10 1 11 2 12 3 13 4 14 5 15 6 16 7 17 8 18 9 9 10 8 11 7 12
REMARK SMILES IDX 6 13 5 14 4 15 3 16 2 17 1 18
REMARK H PARENT
REMARK Flexibility Score: inf
ROOT
ATOM      1  C   UNL     1     191.706 246.191 139.260  1.00  0.00     0.004 C 
ENDROOT
BRANCH   1   2
ATOM      2  C   UNL     1     191.002 246.493 140.590  1.00  0.00     0.000 C 
BRANCH   2   3
ATOM      3  C   UNL     1     191.244 247.931 141.076  1.00  0.00     0.000 C 
BRANCH   3   4
ATOM      4  C   UNL     1     191.451 248.919 139.919  1.00  0.00     0.000 C 
BRANCH   4   5
ATOM      5  C   UNL     1     191.025 250.339 140.325  1.00  0.00     0.006 C 
BRANCH   5   6
ATOM      6  C   UNL     1     190.146 251.010 139.262  1.00  0.00     0.053 C 
BRANCH   6   7
ATOM      7  C   UNL     1     189.342 252.136 139.835  1.00  0.00     0.041 C 
ATOM      8  O   UNL     1     189.920 253.160 140.288  1.00  0.00    -0.550 OA
ATOM      9  O   UNL     1     187.958 252.042 139.898  1.00  0.00    -0.550 OA
ENDBRANCH   6   7
ENDBRANCH   5   6
ENDBRANCH   4   5
ENDBRANCH   3   4
ENDBRANCH   2   3
ENDBRANCH   1   2
BRANCH   1  10
ATOM     10  C   UNL     1     191.711 244.684 138.972  1.00  0.00     0.027 C 
BRANCH  10  11
ATOM     11  C   UNL     1     191.758 244.415 137.493  1.00  0.00    -0.031 C 
ATOM     12  C   UNL     1     191.429 245.357 136.597  1.00  0.00    -0.031 C 
BRANCH  12  13
ATOM     13  C   UNL     1     191.460 245.082 135.118  1.00  0.00     0.027 C 
BRANCH  13  14
ATOM     14  C   UNL     1     190.174 244.377 134.661  1.00  0.00     0.004 C 
BRANCH  14  15
ATOM     15  C   UNL     1     190.445 242.996 134.046  1.00  0.00     0.000 C 
BRANCH  15  16
ATOM     16  C   UNL     1     190.339 241.860 135.078  1.00  0.00    -0.000 C 
BRANCH  16  17
ATOM     17  C   UNL     1     191.682 241.153 135.315  1.00  0.00    -0.003 C 
ATOM     18  C   UNL     1     192.809 241.722 134.453  1.00  0.00     0.004 C 
ENDBRANCH  16  17
ENDBRANCH  15  16
ENDBRANCH  14  15
ENDBRANCH  13  14
ENDBRANCH  12  13
ENDBRANCH  10  11
ENDBRANCH   1  10
TORSDOF 13
ENDMDL
MODEL 8
REMARK VINA RESULT:    -4.278      2.976      5.680
REMARK INTER + INTRA:          -9.640
REMARK INTER:                  -7.763
REMARK INTRA:                  -1.877
REMARK UNBOUND:                -2.110
REMARK SMILES CCCCCCC=CCCCCCCCC(=O)[O-]
REMARK SMILES IDX 10 1 11 2 12 3 13 4 14 5 15 6 16 7 17 8 18 9 9 10 8 11 7 12
REMARK SMILES IDX 6 13 5 14 4 15 3 16 2 17 1 18
REMARK H PARENT
REMARK Flexibility Score: inf
ROOT
ATOM      1  C   UNL     1     195.453 238.627 133.122  1.00  0.00     0.004 C 
ENDROOT
BRANCH   1   2
ATOM      2  C   UNL     1     194.036 238.271 133.594  1.00  0.00     0.000 C 
BRANCH   2   3
ATOM      3  C   UNL     1     193.582 239.118 134.794  1.00  0.00     0.000 C 
BRANCH   3   4
ATOM      4  C   UNL     1     193.457 240.610 134.453  1.00  0.00     0.000 C 
BRANCH   4   5
ATOM      5  C   UNL     1     193.660 241.479 135.703  1.00  0.00     0.006 C 
BRANCH   5   6
ATOM      6  C   UNL     1     192.474 242.418 135.958  1.00  0.00     0.053 C 
BRANCH   6   7
ATOM      7  C   UNL     1     191.208 241.660 136.209  1.00  0.00     0.041 C 
ATOM      8  O   UNL     1     191.009 241.110 137.325  1.00  0.00    -0.550 OA
ATOM      9  O   UNL     1     190.259 241.533 135.202  1.00  0.00    -0.550 OA
ENDBRANCH   6   7
ENDBRANCH   5   6
ENDBRANCH   4   5
ENDBRANCH   3   4
ENDBRANCH   2   3
ENDBRANCH   1   2
BRANCH   1  10
ATOM     10  C   UNL     1     195.501 238.774 131.596  1.00  0.00     0.027 C 
BRANCH  10  11
ATOM     11  C   UNL     1     195.221 240.191 131.178  1.00  0.00    -0.031 C 
ATOM     12  C   UNL     1     195.762 241.234 131.824  1.00  0.00    -0.031 C 
BRANCH  12  13
ATOM     13  C   UNL     1     195.468 242.652 131.416  1.00  0.00     0.027 C 
BRANCH  13  14
ATOM     14  C   UNL     1     193.967 242.852 131.159  1.00  0.00     0.004 C 
BRANCH  14  15
ATOM     15  C   UNL     1     193.320 243.818 132.164  1.00  0.00     0.000 C 
BRANCH  15  16
ATOM     16  C   UNL     1     191.877 243.417 132.520  1.00  0.00    -0.000 C 
BRANCH  16  17
ATOM     17  C   UNL     1     191.096 244.562 133.183  1.00  0.00    -0.003 C 
ATOM     18  C   UNL     1     191.909 245.853 133.281  1.00  0.00     0.004 C 
ENDBRANCH  16  17
ENDBRANCH  15  16
ENDBRANCH  14  15
ENDBRANCH  13  14
ENDBRANCH  12  13
ENDBRANCH  10  11
ENDBRANCH   1  10
TORSDOF 13
ENDMDL
MODEL 9
REMARK VINA RESULT:    -4.276      2.576      5.003
REMARK INTER + INTRA:          -9.636
REMARK INTER:                  -7.550
REMARK INTRA:                  -2.086
REMARK UNBOUND:                -2.110
REMARK SMILES CCCCCCC=CCCCCCCCC(=O)[O-]
REMARK SMILES IDX 10 1 11 2 12 3 13 4 14 5 15 6 16 7 17 8 18 9 9 10 8 11 7 12
REMARK SMILES IDX 6 13 5 14 4 15 3 16 2 17 1 18
REMARK H PARENT
REMARK Flexibility Score: inf
ROOT
ATOM      1  C   UNL     1     192.974 246.977 133.714  1.00  0.00     0.004 C 
ENDROOT
BRANCH   1   2
ATOM      2  C   UNL     1     193.711 248.322 133.660  1.00  0.00     0.000 C 
BRANCH   2   3
ATOM      3  C   UNL     1     195.219 248.161 133.413  1.00  0.00     0.000 C 
BRANCH   3   4
ATOM      4  C   UNL     1     195.666 248.756 132.069  1.00  0.00     0.000 C 
BRANCH   4   5
ATOM      5  C   UNL     1     196.204 247.662 131.135  1.00  0.00     0.006 C 
BRANCH   5   6
ATOM      6  C   UNL     1     196.365 246.314 131.849  1.00  0.00     0.053 C 
BRANCH   6   7
ATOM      7  C   UNL     1     196.991 245.285 130.959  1.00  0.00     0.041 C 
ATOM      8  O   UNL     1     196.581 244.094 130.982  1.00  0.00    -0.550 OA
ATOM      9  O   UNL     1     198.049 245.632 130.128  1.00  0.00    -0.550 OA
ENDBRANCH   6   7
ENDBRANCH   5   6
ENDBRANCH   4   5
ENDBRANCH   3   4
ENDBRANCH   2   3
ENDBRANCH   1   2
BRANCH   1  10
ATOM     10  C   UNL     1     192.693 246.448 132.302  1.00  0.00     0.027 C 
BRANCH  10  11
ATOM     11  C   UNL     1     192.809 244.950 132.250  1.00  0.00    -0.031 C 
ATOM     12  C   UNL     1     193.627 244.280 133.075  1.00  0.00    -0.031 C 
BRANCH  12  13
ATOM     13  C   UNL     1     193.756 242.782 133.012  1.00  0.00     0.027 C 
BRANCH  13  14
ATOM     14  C   UNL     1     193.821 242.175 134.421  1.00  0.00     0.004 C 
BRANCH  14  15
ATOM     15  C   UNL     1     192.547 242.440 135.238  1.00  0.00     0.000 C 
BRANCH  15  16
ATOM     16  C   UNL     1     191.271 242.008 134.495  1.00  0.00    -0.000 C 
BRANCH  16  17
ATOM     17  C   UNL     1     190.193 243.102 134.493  1.00  0.00    -0.003 C 
ATOM     18  C   UNL     1     190.639 244.373 135.216  1.00  0.00     0.004 C 
ENDBRANCH  16  17
ENDBRANCH  15  16
ENDBRANCH  14  15
ENDBRANCH  13  14
ENDBRANCH  12  13
ENDBRANCH  10  11
ENDBRANCH   1  10
TORSDOF 13
ENDMDL
