MODEL 1
REMARK VINA RESULT:    -4.281      0.000      0.000
REMARK INTER + INTRA:          -4.281
REMARK INTER:                  -4.281
REMARK INTRA:                   0.000
REMARK UNBOUND:                 0.000
REMARK SMILES CC(C)=C1CC[C@H](C)CC1=O
REMARK SMILES IDX 8 1 7 2 6 3 5 4 4 5 2 6 1 7 3 8 10 9 11 10 9 11
REMARK H PARENT
REMARK Flexibility Score: inf
ROOT
ATOM      1  C   UNL     1       9.014  30.399  16.618  1.00  0.00     0.008 C 
ATOM      2  C   UNL     1       7.718  29.769  17.142  1.00  0.00    -0.006 C 
ATOM      3  C   UNL     1       6.502  30.616  16.736  1.00  0.00     0.008 C 
ATOM      4  C   UNL     1       5.206  30.057  17.339  1.00  0.00     0.039 C 
ATOM      5  C   UNL     1       5.015  28.576  17.039  1.00  0.00    -0.006 C 
ATOM      6  C   UNL     1       3.769  28.039  16.887  1.00  0.00    -0.070 C 
ATOM      7  C   UNL     1       3.567  26.584  16.533  1.00  0.00     0.039 C 
ATOM      8  C   UNL     1       2.526  28.889  17.028  1.00  0.00     0.039 C 
ATOM      9  C   UNL     1       6.253  27.742  17.039  1.00  0.00     0.159 C 
ATOM     10  O   UNL     1       6.229  26.534  17.401  1.00  0.00    -0.295 OA
ATOM     11  C   UNL     1       7.562  28.337  16.609  1.00  0.00     0.084 C 
ENDROOT
TORSDOF 0
ENDMDL
MODEL 2
REMARK VINA RESULT:    -4.256      1.629      4.255
REMARK INTER + INTRA:          -4.256
REMARK INTER:                  -4.256
REMARK INTRA:                   0.000
REMARK UNBOUND:                 0.000
REMARK SMILES CC(C)=C1CC[C@H](C)CC1=O
REMARK SMILES IDX 8 1 7 2 6 3 5 4 4 5 2 6 1 7 3 8 10 9 11 10 9 11
REMARK H PARENT
REMARK Flexibility Score: inf
ROOT
ATOM      1  C   UNL     1       4.781  24.595  15.862  1.00  0.00     0.008 C 
ATOM      2  C   UNL     1       5.135  25.876  16.626  1.00  0.00    -0.006 C 
ATOM      3  C   UNL     1       6.586  26.293  16.340  1.00  0.00     0.008 C 
ATOM      4  C   UNL     1       6.990  27.515  17.177  1.00  0.00     0.039 C 
ATOM      5  C   UNL     1       6.010  28.671  17.033  1.00  0.00    -0.006 C 
ATOM      6  C   UNL     1       6.426  29.968  17.116  1.00  0.00    -0.070 C 
ATOM      7  C   UNL     1       5.474  31.125  16.918  1.00  0.00     0.039 C 
ATOM      8  C   UNL     1       7.877  30.312  17.374  1.00  0.00     0.039 C 
ATOM      9  C   UNL     1       4.569  28.297  16.914  1.00  0.00     0.159 C 
ATOM     10  O   UNL     1       3.660  29.040  17.374  1.00  0.00    -0.295 OA
ATOM     11  C   UNL     1       4.177  27.014  16.243  1.00  0.00     0.084 C 
ENDROOT
TORSDOF 0
ENDMDL
MODEL 3
REMARK VINA RESULT:    -4.182      1.682      2.772
REMARK INTER + INTRA:          -4.182
REMARK INTER:                  -4.182
REMARK INTRA:                   0.000
REMARK UNBOUND:                 0.000
REMARK SMILES CC(C)=C1CC[C@H](C)CC1=O
REMARK SMILES IDX 8 1 7 2 6 3 5 4 4 5 2 6 1 7 3 8 10 9 11 10 9 11
REMARK H PARENT
REMARK Flexibility Score: inf
ROOT
ATOM      1  C   UNL     1      11.251  29.260  14.390  1.00  0.00     0.008 C 
ATOM      2  C   UNL     1      10.194  28.960  15.458  1.00  0.00    -0.006 C 
ATOM      3  C   UNL     1       9.437  30.241  15.844  1.00  0.00     0.008 C 
ATOM      4  C   UNL     1       8.445  29.980  16.985  1.00  0.00     0.039 C 
ATOM      5  C   UNL     1       7.510  28.814  16.691  1.00  0.00    -0.006 C 
ATOM      6  C   UNL     1       6.233  28.791  17.172  1.00  0.00    -0.070 C 
ATOM      7  C   UNL     1       5.277  27.668  16.840  1.00  0.00     0.039 C 
ATOM      8  C   UNL     1       5.698  29.913  18.034  1.00  0.00     0.039 C 
ATOM      9  C   UNL     1       8.110  27.664  15.952  1.00  0.00     0.159 C 
ATOM     10  O   UNL     1       7.719  26.482  16.153  1.00  0.00    -0.295 OA
ATOM     11  C   UNL     1       9.205  27.899  14.953  1.00  0.00     0.084 C 
ENDROOT
TORSDOF 0
ENDMDL
MODEL 4
REMARK VINA RESULT:    -4.122     11.206     13.675
REMARK INTER + INTRA:          -4.122
REMARK INTER:                  -4.122
REMARK INTRA:                   0.000
REMARK UNBOUND:                 0.000
REMARK SMILES CC(C)=C1CC[C@H](C)CC1=O
REMARK SMILES IDX 8 1 7 2 6 3 5 4 4 5 2 6 1 7 3 8 10 9 11 10 9 11
REMARK H PARENT
REMARK Flexibility Score: inf
ROOT
ATOM      1  C   UNL     1       2.836  13.987  13.233  1.00  0.00     0.008 C 
ATOM      2  C   UNL     1       4.001  14.551  14.054  1.00  0.00    -0.006 C 
ATOM      3  C   UNL     1       5.332  14.352  13.311  1.00  0.00     0.008 C 
ATOM      4  C   UNL     1       6.520  14.818  14.163  1.00  0.00     0.039 C 
ATOM      5  C   UNL     1       6.346  16.239  14.681  1.00  0.00    -0.006 C 
ATOM      6  C   UNL     1       7.419  17.060  14.874  1.00  0.00    -0.070 C 
ATOM      7  C   UNL     1       7.255  18.490  15.334  1.00  0.00     0.039 C 
ATOM      8  C   UNL     1       8.829  16.586  14.599  1.00  0.00     0.039 C 
ATOM      9  C   UNL     1       4.958  16.629  15.069  1.00  0.00     0.159 C 
ATOM     10  O   UNL     1       4.745  17.446  16.006  1.00  0.00    -0.295 OA
ATOM     11  C   UNL     1       3.781  16.043  14.346  1.00  0.00     0.084 C 
ENDROOT
TORSDOF 0
ENDMDL
MODEL 5
REMARK VINA RESULT:    -4.115     16.699     18.184
REMARK INTER + INTRA:          -4.115
REMARK INTER:                  -4.115
REMARK INTRA:                   0.000
REMARK UNBOUND:                 0.000
REMARK SMILES CC(C)=C1CC[C@H](C)CC1=O
REMARK SMILES IDX 8 1 7 2 6 3 5 4 4 5 2 6 1 7 3 8 10 9 11 10 9 11
REMARK H PARENT
REMARK Flexibility Score: inf
ROOT
ATOM      1  C   UNL     1      17.449  10.875  14.244  1.00  0.00     0.008 C 
ATOM      2  C   UNL     1      16.987  12.076  15.078  1.00  0.00    -0.006 C 
ATOM      3  C   UNL     1      17.601  13.377  14.538  1.00  0.00     0.008 C 
ATOM      4  C   UNL     1      17.232  14.576  15.422  1.00  0.00     0.039 C 
ATOM      5  C   UNL     1      15.731  14.690  15.654  1.00  0.00    -0.006 C 
ATOM      6  C   UNL     1      15.129  15.904  15.817  1.00  0.00    -0.070 C 
ATOM      7  C   UNL     1      13.633  16.035  15.992  1.00  0.00     0.039 C 
ATOM      8  C   UNL     1      15.930  17.187  15.794  1.00  0.00     0.039 C 
ATOM      9  C   UNL     1      14.992  13.402  15.806  1.00  0.00     0.159 C 
ATOM     10  O   UNL     1      13.979  13.312  16.551  1.00  0.00    -0.295 OA
ATOM     11  C   UNL     1      15.454  12.178  15.071  1.00  0.00     0.084 C 
ENDROOT
TORSDOF 0
ENDMDL
MODEL 6
REMARK VINA RESULT:    -4.108     15.818     17.112
REMARK INTER + INTRA:          -4.108
REMARK INTER:                  -4.108
REMARK INTRA:                   0.000
REMARK UNBOUND:                 0.000
REMARK SMILES CC(C)=C1CC[C@H](C)CC1=O
REMARK SMILES IDX 8 1 7 2 6 3 5 4 4 5 2 6 1 7 3 8 10 9 11 10 9 11
REMARK H PARENT
REMARK Flexibility Score: inf
ROOT
ATOM      1  C   UNL     1      16.012  18.375  14.987  1.00  0.00     0.008 C 
ATOM      2  C   UNL     1      15.810  17.011  15.657  1.00  0.00    -0.006 C 
ATOM      3  C   UNL     1      14.352  16.547  15.509  1.00  0.00     0.008 C 
ATOM      4  C   UNL     1      14.107  15.232  16.262  1.00  0.00     0.039 C 
ATOM      5  C   UNL     1      15.108  14.148  15.886  1.00  0.00    -0.006 C 
ATOM      6  C   UNL     1      14.758  12.829  15.889  1.00  0.00    -0.070 C 
ATOM      7  C   UNL     1      15.725  11.747  15.463  1.00  0.00     0.039 C 
ATOM      8  C   UNL     1      13.367  12.386  16.285  1.00  0.00     0.039 C 
ATOM      9  C   UNL     1      16.506  14.607  15.631  1.00  0.00     0.159 C 
ATOM     10  O   UNL     1      17.495  13.873  15.902  1.00  0.00    -0.295 OA
ATOM     11  C   UNL     1      16.758  15.967  15.049  1.00  0.00     0.084 C 
ENDROOT
TORSDOF 0
ENDMDL
MODEL 7
REMARK VINA RESULT:    -4.054     16.965     18.318
REMARK INTER + INTRA:          -4.054
REMARK INTER:                  -4.054
REMARK INTRA:                   0.000
REMARK UNBOUND:                 0.000
REMARK SMILES CC(C)=C1CC[C@H](C)CC1=O
REMARK SMILES IDX 8 1 7 2 6 3 5 4 4 5 2 6 1 7 3 8 10 9 11 10 9 11
REMARK H PARENT
REMARK Flexibility Score: inf
ROOT
ATOM      1  C   UNL     1      19.071  12.035  15.018  1.00  0.00     0.008 C 
ATOM      2  C   UNL     1      17.713  12.707  14.788  1.00  0.00    -0.006 C 
ATOM      3  C   UNL     1      16.569  11.771  15.207  1.00  0.00     0.008 C 
ATOM      4  C   UNL     1      15.200  12.387  14.889  1.00  0.00     0.039 C 
ATOM      5  C   UNL     1      15.045  13.792  15.457  1.00  0.00    -0.006 C 
ATOM      6  C   UNL     1      13.830  14.261  15.866  1.00  0.00    -0.070 C 
ATOM      7  C   UNL     1      13.673  15.631  16.484  1.00  0.00     0.039 C 
ATOM      8  C   UNL     1      12.583  13.413  15.753  1.00  0.00     0.039 C 
ATOM      9  C   UNL     1      16.268  14.647  15.430  1.00  0.00     0.159 C 
ATOM     10  O   UNL     1      16.189  15.897  15.284  1.00  0.00    -0.295 OA
ATOM     11  C   UNL     1      17.626  14.025  15.572  1.00  0.00     0.084 C 
ENDROOT
TORSDOF 0
ENDMDL
MODEL 8
REMARK VINA RESULT:    -4.022     15.987     17.383
REMARK INTER + INTRA:          -4.022
REMARK INTER:                  -4.022
REMARK INTRA:                   0.000
REMARK UNBOUND:                 0.000
REMARK SMILES CC(C)=C1CC[C@H](C)CC1=O
REMARK SMILES IDX 8 1 7 2 6 3 5 4 4 5 2 6 1 7 3 8 10 9 11 10 9 11
REMARK H PARENT
REMARK Flexibility Score: inf
ROOT
ATOM      1  C   UNL     1      16.376  18.047  15.530  1.00  0.00     0.008 C 
ATOM      2  C   UNL     1      15.847  16.650  15.188  1.00  0.00    -0.006 C 
ATOM      3  C   UNL     1      17.002  15.639  15.104  1.00  0.00     0.008 C 
ATOM      4  C   UNL     1      16.502  14.257  14.662  1.00  0.00     0.039 C 
ATOM      5  C   UNL     1      15.345  13.754  15.516  1.00  0.00    -0.006 C 
ATOM      6  C   UNL     1      15.169  12.422  15.757  1.00  0.00    -0.070 C 
ATOM      7  C   UNL     1      14.059  11.915  16.649  1.00  0.00     0.039 C 
ATOM      8  C   UNL     1      16.104  11.388  15.171  1.00  0.00     0.039 C 
ATOM      9  C   UNL     1      14.366  14.788  15.967  1.00  0.00     0.159 C 
ATOM     10  O   UNL     1      13.146  14.509  16.123  1.00  0.00    -0.295 OA
ATOM     11  C   UNL     1      14.824  16.191  16.238  1.00  0.00     0.084 C 
ENDROOT
TORSDOF 0
ENDMDL
MODEL 9
REMARK VINA RESULT:    -4.010      7.352     10.118
REMARK INTER + INTRA:          -4.010
REMARK INTER:                  -4.010
REMARK INTRA:                   0.000
REMARK UNBOUND:                 0.000
REMARK SMILES CC(C)=C1CC[C@H](C)CC1=O
REMARK SMILES IDX 8 1 7 2 6 3 5 4 4 5 2 6 1 7 3 8 10 9 11 10 9 11
REMARK H PARENT
REMARK Flexibility Score: inf
ROOT
ATOM      1  C   UNL     1      11.140  28.340  14.566  1.00  0.00     0.008 C 
ATOM      2  C   UNL     1      12.551  28.120  15.122  1.00  0.00    -0.006 C 
ATOM      3  C   UNL     1      12.753  26.649  15.519  1.00  0.00     0.008 C 
ATOM      4  C   UNL     1      14.124  26.431  16.173  1.00  0.00     0.039 C 
ATOM      5  C   UNL     1      15.268  26.970  15.324  1.00  0.00    -0.006 C 
ATOM      6  C   UNL     1      16.498  26.379  15.334  1.00  0.00    -0.070 C 
ATOM      7  C   UNL     1      17.625  26.870  14.454  1.00  0.00     0.039 C 
ATOM      8  C   UNL     1      16.783  25.174  16.203  1.00  0.00     0.039 C 
ATOM      9  C   UNL     1      14.993  28.237  14.583  1.00  0.00     0.159 C 
ATOM     10  O   UNL     1      15.906  29.079  14.364  1.00  0.00    -0.295 OA
ATOM     11  C   UNL     1      13.608  28.534  14.087  1.00  0.00     0.084 C 
ENDROOT
TORSDOF 0
ENDMDL
