MODEL 1
REMARK VINA RESULT:    -4.616      0.000      0.000
REMARK INTER + INTRA:         -12.899
REMARK INTER:                 -10.014
REMARK INTRA:                  -2.885
REMARK UNBOUND:                -2.885
REMARK SMILES CCCCCCCCCCCCCCCCCCCCCC(=O)[O-]
REMARK SMILES IDX 12 1 11 2 10 3 9 4 8 5 7 6 6 7 5 8 4 9 3 10 2 11 1 12 13 13
REMARK SMILES IDX 14 14 15 15 16 16 17 17 18 18 19 19 20 20 21 21 22 22 23 23
REMARK SMILES IDX 24 24
REMARK H PARENT
REMARK Flexibility Score: inf
ROOT
ATOM      1  C   UNL     1      42.617  -0.290  22.695  1.00  0.00     0.000 C 
ENDROOT
BRANCH   1   2
ATOM      2  C   UNL     1      44.015   0.034  23.254  1.00  0.00     0.000 C 
BRANCH   2   3
ATOM      3  C   UNL     1      45.055   0.264  22.147  1.00  0.00     0.000 C 
BRANCH   3   4
ATOM      4  C   UNL     1      46.330   0.954  22.664  1.00  0.00    -0.000 C 
BRANCH   4   5
ATOM      5  C   UNL     1      46.282   2.488  22.494  1.00  0.00    -0.000 C 
BRANCH   5   6
ATOM      6  C   UNL     1      47.241   3.024  21.413  1.00  0.00    -0.000 C 
BRANCH   6   7
ATOM      7  C   UNL     1      48.705   2.569  21.562  1.00  0.00    -0.000 C 
BRANCH   7   8
ATOM      8  C   UNL     1      49.282   1.816  20.344  1.00  0.00    -0.000 C 
BRANCH   8   9
ATOM      9  C   UNL     1      49.180   0.282  20.411  1.00  0.00    -0.000 C 
BRANCH   9  10
ATOM     10  C   UNL     1      50.374  -0.369  21.128  1.00  0.00    -0.000 C 
BRANCH  10  11
ATOM     11  C   UNL     1      51.266  -1.179  20.175  1.00  0.00    -0.003 C 
ATOM     12  C   UNL     1      52.732  -0.749  20.221  1.00  0.00     0.004 C 
ENDBRANCH  10  11
ENDBRANCH   9  10
ENDBRANCH   8   9
ENDBRANCH   7   8
ENDBRANCH   6   7
ENDBRANCH   5   6
ENDBRANCH   4   5
ENDBRANCH   3   4
ENDBRANCH   2   3
ENDBRANCH   1   2
BRANCH   1  13
ATOM     13  C   UNL     1      42.665  -0.795  21.245  1.00  0.00     0.000 C 
BRANCH  13  14
ATOM     14  C   UNL     1      41.431  -0.366  20.429  1.00  0.00     0.000 C 
BRANCH  14  15
ATOM     15  C   UNL     1      41.549  -0.715  18.938  1.00  0.00     0.000 C 
BRANCH  15  16
ATOM     16  C   UNL     1      41.665   0.531  18.044  1.00  0.00     0.000 C 
BRANCH  16  17
ATOM     17  C   UNL     1      41.882   1.826  18.847  1.00  0.00     0.000 C 
BRANCH  17  18
ATOM     18  C   UNL     1      43.341   2.316  18.911  1.00  0.00     0.000 C 
BRANCH  18  19
ATOM     19  C   UNL     1      43.646   3.128  20.183  1.00  0.00     0.000 C 
BRANCH  19  20
ATOM     20  C   UNL     1      42.538   3.009  21.240  1.00  0.00     0.006 C 
BRANCH  20  21
ATOM     21  C   UNL     1      42.809   3.880  22.475  1.00  0.00     0.053 C 
BRANCH  21  22
ATOM     22  C   UNL     1      41.975   3.419  23.630  1.00  0.00     0.041 C 
ATOM     23  O   UNL     1      40.959   2.705  23.433  1.00  0.00    -0.550 OA
ATOM     24  O   UNL     1      42.350   3.741  24.929  1.00  0.00    -0.550 OA
ENDBRANCH  21  22
ENDBRANCH  20  21
ENDBRANCH  19  20
ENDBRANCH  18  19
ENDBRANCH  17  18
ENDBRANCH  16  17
ENDBRANCH  15  16
ENDBRANCH  14  15
ENDBRANCH  13  14
ENDBRANCH   1  13
TORSDOF 20
ENDMDL
MODEL 2
REMARK VINA RESULT:    -4.598      1.930      3.448
REMARK INTER + INTRA:         -12.858
REMARK INTER:                 -10.449
REMARK INTRA:                  -2.410
REMARK UNBOUND:                -2.885
REMARK SMILES CCCCCCCCCCCCCCCCCCCCCC(=O)[O-]
REMARK SMILES IDX 12 1 11 2 10 3 9 4 8 5 7 6 6 7 5 8 4 9 3 10 2 11 1 12 13 13
REMARK SMILES IDX 14 14 15 15 16 16 17 17 18 18 19 19 20 20 21 21 22 22 23 23
REMARK SMILES IDX 24 24
REMARK H PARENT
REMARK Flexibility Score: inf
ROOT
ATOM      1  C   UNL     1      45.130   2.745  18.970  1.00  0.00     0.000 C 
ENDROOT
BRANCH   1   2
ATOM      2  C   UNL     1      44.869   2.798  20.487  1.00  0.00     0.000 C 
BRANCH   2   3
ATOM      3  C   UNL     1      46.166   2.912  21.305  1.00  0.00     0.000 C 
BRANCH   3   4
ATOM      4  C   UNL     1      46.567   1.582  21.968  1.00  0.00    -0.000 C 
BRANCH   4   5
ATOM      5  C   UNL     1      47.503   0.735  21.078  1.00  0.00    -0.000 C 
BRANCH   5   6
ATOM      6  C   UNL     1      48.465   1.574  20.213  1.00  0.00    -0.000 C 
BRANCH   6   7
ATOM      7  C   UNL     1      49.927   1.091  20.216  1.00  0.00    -0.000 C 
BRANCH   7   8
ATOM      8  C   UNL     1      50.178  -0.232  20.971  1.00  0.00    -0.000 C 
BRANCH   8   9
ATOM      9  C   UNL     1      51.132  -1.216  20.273  1.00  0.00    -0.000 C 
BRANCH   9  10
ATOM     10  C   UNL     1      52.574  -0.690  20.180  1.00  0.00    -0.000 C 
BRANCH  10  11
ATOM     11  C   UNL     1      52.972  -0.311  18.745  1.00  0.00    -0.003 C 
ATOM     12  C   UNL     1      52.132  -1.023  17.685  1.00  0.00     0.004 C 
ENDBRANCH  10  11
ENDBRANCH   9  10
ENDBRANCH   8   9
ENDBRANCH   7   8
ENDBRANCH   6   7
ENDBRANCH   5   6
ENDBRANCH   4   5
ENDBRANCH   3   4
ENDBRANCH   2   3
ENDBRANCH   1   2
BRANCH   1  13
ATOM     13  C   UNL     1      43.874   2.368  18.169  1.00  0.00     0.000 C 
BRANCH  13  14
ATOM     14  C   UNL     1      42.595   2.398  19.026  1.00  0.00     0.000 C 
BRANCH  14  15
ATOM     15  C   UNL     1      41.477   1.509  18.462  1.00  0.00     0.000 C 
BRANCH  15  16
ATOM     16  C   UNL     1      41.683   0.019  18.786  1.00  0.00     0.000 C 
BRANCH  16  17
ATOM     17  C   UNL     1      41.442  -0.310  20.270  1.00  0.00     0.000 C 
BRANCH  17  18
ATOM     18  C   UNL     1      42.474  -1.263  20.902  1.00  0.00     0.000 C 
BRANCH  18  19
ATOM     19  C   UNL     1      43.513  -0.532  21.770  1.00  0.00     0.000 C 
BRANCH  19  20
ATOM     20  C   UNL     1      42.887   0.573  22.635  1.00  0.00     0.006 C 
BRANCH  20  21
ATOM     21  C   UNL     1      42.622   0.112  24.076  1.00  0.00     0.053 C 
BRANCH  21  22
ATOM     22  C   UNL     1      43.801  -0.642  24.606  1.00  0.00     0.041 C 
ATOM     23  O   UNL     1      44.913  -0.068  24.741  1.00  0.00    -0.550 OA
ATOM     24  O   UNL     1      43.659  -1.969  24.996  1.00  0.00    -0.550 OA
ENDBRANCH  21  22
ENDBRANCH  20  21
ENDBRANCH  19  20
ENDBRANCH  18  19
ENDBRANCH  17  18
ENDBRANCH  16  17
ENDBRANCH  15  16
ENDBRANCH  14  15
ENDBRANCH  13  14
ENDBRANCH   1  13
TORSDOF 20
ENDMDL
MODEL 3
REMARK VINA RESULT:    -4.595      3.852      7.819
REMARK INTER + INTRA:         -12.853
REMARK INTER:                 -10.217
REMARK INTRA:                  -2.636
REMARK UNBOUND:                -2.885
REMARK SMILES CCCCCCCCCCCCCCCCCCCCCC(=O)[O-]
REMARK SMILES IDX 12 1 11 2 10 3 9 4 8 5 7 6 6 7 5 8 4 9 3 10 2 11 1 12 13 13
REMARK SMILES IDX 14 14 15 15 16 16 17 17 18 18 19 19 20 20 21 21 22 22 23 23
REMARK SMILES IDX 24 24
REMARK H PARENT
REMARK Flexibility Score: inf
ROOT
ATOM      1  C   UNL     1      44.714   2.245  19.955  1.00  0.00     0.000 C 
ENDROOT
BRANCH   1   2
ATOM      2  C   UNL     1      43.773   2.472  18.757  1.00  0.00     0.000 C 
BRANCH   2   3
ATOM      3  C   UNL     1      42.289   2.423  19.153  1.00  0.00     0.000 C 
BRANCH   3   4
ATOM      4  C   UNL     1      41.448   1.560  18.196  1.00  0.00    -0.000 C 
BRANCH   4   5
ATOM      5  C   UNL     1      41.825   0.064  18.262  1.00  0.00    -0.000 C 
BRANCH   5   6
ATOM      6  C   UNL     1      41.215  -0.679  19.467  1.00  0.00    -0.000 C 
BRANCH   6   7
ATOM      7  C   UNL     1      42.222  -1.070  20.565  1.00  0.00    -0.000 C 
BRANCH   7   8
ATOM      8  C   UNL     1      42.308  -0.089  21.754  1.00  0.00    -0.000 C 
BRANCH   8   9
ATOM      9  C   UNL     1      43.455  -0.355  22.743  1.00  0.00    -0.000 C 
BRANCH   9  10
ATOM     10  C   UNL     1      43.100   0.024  24.190  1.00  0.00    -0.000 C 
BRANCH  10  11
ATOM     11  C   UNL     1      44.304   0.578  24.968  1.00  0.00    -0.003 C 
ATOM     12  C   UNL     1      45.574  -0.249  24.770  1.00  0.00     0.004 C 
ENDBRANCH  10  11
ENDBRANCH   9  10
ENDBRANCH   8   9
ENDBRANCH   7   8
ENDBRANCH   6   7
ENDBRANCH   5   6
ENDBRANCH   4   5
ENDBRANCH   3   4
ENDBRANCH   2   3
ENDBRANCH   1   2
BRANCH   1  13
ATOM     13  C   UNL     1      44.235   2.965  21.225  1.00  0.00     0.000 C 
BRANCH  13  14
ATOM     14  C   UNL     1      45.380   3.231  22.220  1.00  0.00     0.000 C 
BRANCH  14  15
ATOM     15  C   UNL     1      46.528   2.218  22.094  1.00  0.00     0.000 C 
BRANCH  15  16
ATOM     16  C   UNL     1      47.883   2.889  21.813  1.00  0.00     0.000 C 
BRANCH  16  17
ATOM     17  C   UNL     1      48.612   2.283  20.600  1.00  0.00     0.000 C 
BRANCH  17  18
ATOM     18  C   UNL     1      48.242   0.821  20.283  1.00  0.00     0.000 C 
BRANCH  18  19
ATOM     19  C   UNL     1      49.034  -0.195  21.125  1.00  0.00     0.000 C 
BRANCH  19  20
ATOM     20  C   UNL     1      50.548  -0.122  20.868  1.00  0.00     0.006 C 
BRANCH  20  21
ATOM     21  C   UNL     1      51.056  -1.292  20.015  1.00  0.00     0.053 C 
BRANCH  21  22
ATOM     22  C   UNL     1      51.889  -0.786  18.879  1.00  0.00     0.041 C 
ATOM     23  O   UNL     1      51.643  -1.151  17.701  1.00  0.00    -0.550 OA
ATOM     24  O   UNL     1      52.909   0.128  19.119  1.00  0.00    -0.550 OA
ENDBRANCH  21  22
ENDBRANCH  20  21
ENDBRANCH  19  20
ENDBRANCH  18  19
ENDBRANCH  17  18
ENDBRANCH  16  17
ENDBRANCH  15  16
ENDBRANCH  14  15
ENDBRANCH  13  14
ENDBRANCH   1  13
TORSDOF 20
ENDMDL
MODEL 4
REMARK VINA RESULT:    -4.583      3.730      8.184
REMARK INTER + INTRA:         -12.826
REMARK INTER:                 -10.282
REMARK INTRA:                  -2.543
REMARK UNBOUND:                -2.885
REMARK SMILES CCCCCCCCCCCCCCCCCCCCCC(=O)[O-]
REMARK SMILES IDX 12 1 11 2 10 3 9 4 8 5 7 6 6 7 5 8 4 9 3 10 2 11 1 12 13 13
REMARK SMILES IDX 14 14 15 15 16 16 17 17 18 18 19 19 20 20 21 21 22 22 23 23
REMARK SMILES IDX 24 24
REMARK H PARENT
REMARK Flexibility Score: inf
ROOT
ATOM      1  C   UNL     1      43.415  -0.239  23.195  1.00  0.00     0.000 C 
ENDROOT
BRANCH   1   2
ATOM      2  C   UNL     1      43.377  -0.628  21.705  1.00  0.00     0.000 C 
BRANCH   2   3
ATOM      3  C   UNL     1      41.945  -0.725  21.157  1.00  0.00     0.000 C 
BRANCH   3   4
ATOM      4  C   UNL     1      41.903  -1.159  19.681  1.00  0.00    -0.000 C 
BRANCH   4   5
ATOM      5  C   UNL     1      41.230  -0.105  18.773  1.00  0.00    -0.000 C 
BRANCH   5   6
ATOM      6  C   UNL     1      42.188   1.003  18.292  1.00  0.00    -0.000 C 
BRANCH   6   7
ATOM      7  C   UNL     1      42.068   2.338  19.051  1.00  0.00    -0.000 C 
BRANCH   7   8
ATOM      8  C   UNL     1      43.228   2.645  20.022  1.00  0.00    -0.000 C 
BRANCH   8   9
ATOM      9  C   UNL     1      42.814   3.290  21.356  1.00  0.00    -0.000 C 
BRANCH   9  10
ATOM     10  C   UNL     1      41.542   2.666  21.954  1.00  0.00    -0.000 C 
BRANCH  10  11
ATOM     11  C   UNL     1      41.428   2.896  23.469  1.00  0.00    -0.003 C 
ATOM     12  C   UNL     1      40.314   3.875  23.841  1.00  0.00     0.004 C 
ENDBRANCH  10  11
ENDBRANCH   9  10
ENDBRANCH   8   9
ENDBRANCH   7   8
ENDBRANCH   6   7
ENDBRANCH   5   6
ENDBRANCH   4   5
ENDBRANCH   3   4
ENDBRANCH   2   3
ENDBRANCH   1   2
BRANCH   1  13
ATOM     13  C   UNL     1      44.846  -0.048  23.719  1.00  0.00     0.000 C 
BRANCH  13  14
ATOM     14  C   UNL     1      45.264   1.433  23.772  1.00  0.00     0.000 C 
BRANCH  14  15
ATOM     15  C   UNL     1      45.978   1.898  22.495  1.00  0.00     0.000 C 
BRANCH  15  16
ATOM     16  C   UNL     1      46.831   0.789  21.854  1.00  0.00     0.000 C 
BRANCH  16  17
ATOM     17  C   UNL     1      48.297   1.207  21.643  1.00  0.00     0.000 C 
BRANCH  17  18
ATOM     18  C   UNL     1      49.308   0.044  21.614  1.00  0.00     0.000 C 
BRANCH  18  19
ATOM     19  C   UNL     1      49.791  -0.295  20.193  1.00  0.00     0.000 C 
BRANCH  19  20
ATOM     20  C   UNL     1      50.969  -1.282  20.189  1.00  0.00     0.006 C 
BRANCH  20  21
ATOM     21  C   UNL     1      52.296  -0.615  20.577  1.00  0.00     0.053 C 
BRANCH  21  22
ATOM     22  C   UNL     1      52.741   0.323  19.499  1.00  0.00     0.041 C 
ATOM     23  O   UNL     1      52.736  -0.046  18.296  1.00  0.00    -0.550 OA
ATOM     24  O   UNL     1      53.118   1.622  19.820  1.00  0.00    -0.550 OA
ENDBRANCH  21  22
ENDBRANCH  20  21
ENDBRANCH  19  20
ENDBRANCH  18  19
ENDBRANCH  17  18
ENDBRANCH  16  17
ENDBRANCH  15  16
ENDBRANCH  14  15
ENDBRANCH  13  14
ENDBRANCH   1  13
TORSDOF 20
ENDMDL
MODEL 5
REMARK VINA RESULT:    -4.556      3.971      7.999
REMARK INTER + INTRA:         -12.769
REMARK INTER:                 -10.145
REMARK INTRA:                  -2.624
REMARK UNBOUND:                -2.885
REMARK SMILES CCCCCCCCCCCCCCCCCCCCCC(=O)[O-]
REMARK SMILES IDX 12 1 11 2 10 3 9 4 8 5 7 6 6 7 5 8 4 9 3 10 2 11 1 12 13 13
REMARK SMILES IDX 14 14 15 15 16 16 17 17 18 18 19 19 20 20 21 21 22 22 23 23
REMARK SMILES IDX 24 24
REMARK H PARENT
REMARK Flexibility Score: inf
ROOT
ATOM      1  C   UNL     1      44.852   3.719  21.670  1.00  0.00     0.000 C 
ENDROOT
BRANCH   1   2
ATOM      2  C   UNL     1      44.265   2.896  22.832  1.00  0.00     0.000 C 
BRANCH   2   3
ATOM      3  C   UNL     1      45.327   2.044  23.547  1.00  0.00     0.000 C 
BRANCH   3   4
ATOM      4  C   UNL     1      44.915   0.567  23.674  1.00  0.00    -0.000 C 
BRANCH   4   5
ATOM      5  C   UNL     1      44.510  -0.053  22.319  1.00  0.00    -0.000 C 
BRANCH   5   6
ATOM      6  C   UNL     1      43.023  -0.453  22.238  1.00  0.00    -0.000 C 
BRANCH   6   7
ATOM      7  C   UNL     1      42.229   0.231  21.110  1.00  0.00    -0.000 C 
BRANCH   7   8
ATOM      8  C   UNL     1      41.691  -0.719  20.019  1.00  0.00    -0.000 C 
BRANCH   8   9
ATOM      9  C   UNL     1      41.631  -0.126  18.601  1.00  0.00    -0.000 C 
BRANCH   9  10
ATOM     10  C   UNL     1      41.468   1.404  18.597  1.00  0.00    -0.000 C 
BRANCH  10  11
ATOM     11  C   UNL     1      42.141   2.066  17.385  1.00  0.00    -0.003 C 
ATOM     12  C   UNL     1      43.151   1.152  16.691  1.00  0.00     0.004 C 
ENDBRANCH  10  11
ENDBRANCH   9  10
ENDBRANCH   8   9
ENDBRANCH   7   8
ENDBRANCH   6   7
ENDBRANCH   5   6
ENDBRANCH   4   5
ENDBRANCH   3   4
ENDBRANCH   2   3
ENDBRANCH   1   2
BRANCH   1  13
ATOM     13  C   UNL     1      44.474   3.149  20.295  1.00  0.00     0.000 C 
BRANCH  13  14
ATOM     14  C   UNL     1      45.623   2.352  19.650  1.00  0.00     0.000 C 
BRANCH  14  15
ATOM     15  C   UNL     1      46.967   2.557  20.365  1.00  0.00     0.000 C 
BRANCH  15  16
ATOM     16  C   UNL     1      48.001   1.474  20.007  1.00  0.00     0.000 C 
BRANCH  16  17
ATOM     17  C   UNL     1      47.971   0.276  20.973  1.00  0.00     0.000 C 
BRANCH  17  18
ATOM     18  C   UNL     1      49.311  -0.034  21.667  1.00  0.00     0.000 C 
BRANCH  18  19
ATOM     19  C   UNL     1      50.526   0.175  20.746  1.00  0.00     0.000 C 
BRANCH  19  20
ATOM     20  C   UNL     1      51.030  -1.137  20.125  1.00  0.00     0.006 C 
BRANCH  20  21
ATOM     21  C   UNL     1      52.324  -0.947  19.321  1.00  0.00     0.053 C 
BRANCH  21  22
ATOM     22  C   UNL     1      52.013  -0.773  17.867  1.00  0.00     0.041 C 
ATOM     23  O   UNL     1      52.659  -1.416  17.000  1.00  0.00    -0.550 OA
ATOM     24  O   UNL     1      50.978   0.066  17.474  1.00  0.00    -0.550 OA
ENDBRANCH  21  22
ENDBRANCH  20  21
ENDBRANCH  19  20
ENDBRANCH  18  19
ENDBRANCH  17  18
ENDBRANCH  16  17
ENDBRANCH  15  16
ENDBRANCH  14  15
ENDBRANCH  13  14
ENDBRANCH   1  13
TORSDOF 20
ENDMDL
MODEL 6
REMARK VINA RESULT:    -4.477      1.715      4.748
REMARK INTER + INTRA:         -12.598
REMARK INTER:                  -9.440
REMARK INTRA:                  -3.158
REMARK UNBOUND:                -2.885
REMARK SMILES CCCCCCCCCCCCCCCCCCCCCC(=O)[O-]
REMARK SMILES IDX 12 1 11 2 10 3 9 4 8 5 7 6 6 7 5 8 4 9 3 10 2 11 1 12 13 13
REMARK SMILES IDX 14 14 15 15 16 16 17 17 18 18 19 19 20 20 21 21 22 22 23 23
REMARK SMILES IDX 24 24
REMARK H PARENT
REMARK Flexibility Score: inf
ROOT
ATOM      1  C   UNL     1      42.675  -0.753  21.348  1.00  0.00     0.000 C 
ENDROOT
BRANCH   1   2
ATOM      2  C   UNL     1      41.414  -0.720  20.465  1.00  0.00     0.000 C 
BRANCH   2   3
ATOM      3  C   UNL     1      41.744  -0.600  18.969  1.00  0.00     0.000 C 
BRANCH   3   4
ATOM      4  C   UNL     1      41.351   0.768  18.383  1.00  0.00    -0.000 C 
BRANCH   4   5
ATOM      5  C   UNL     1      42.575   1.673  18.120  1.00  0.00    -0.000 C 
BRANCH   5   6
ATOM      6  C   UNL     1      42.931   2.595  19.303  1.00  0.00    -0.000 C 
BRANCH   6   7
ATOM      7  C   UNL     1      44.346   2.398  19.876  1.00  0.00    -0.000 C 
BRANCH   7   8
ATOM      8  C   UNL     1      44.541   2.898  21.324  1.00  0.00    -0.000 C 
BRANCH   8   9
ATOM      9  C   UNL     1      45.871   2.495  21.984  1.00  0.00    -0.000 C 
BRANCH   9  10
ATOM     10  C   UNL     1      46.808   1.735  21.031  1.00  0.00    -0.000 C 
BRANCH  10  11
ATOM     11  C   UNL     1      47.354   0.438  21.649  1.00  0.00    -0.003 C 
ATOM     12  C   UNL     1      48.630  -0.055  20.968  1.00  0.00     0.004 C 
ENDBRANCH  10  11
ENDBRANCH   9  10
ENDBRANCH   8   9
ENDBRANCH   7   8
ENDBRANCH   6   7
ENDBRANCH   5   6
ENDBRANCH   4   5
ENDBRANCH   3   4
ENDBRANCH   2   3
ENDBRANCH   1   2
BRANCH   1  13
ATOM     13  C   UNL     1      42.622   0.271  22.492  1.00  0.00     0.000 C 
BRANCH  13  14
ATOM     14  C   UNL     1      43.021  -0.337  23.849  1.00  0.00     0.000 C 
BRANCH  14  15
ATOM     15  C   UNL     1      44.543  -0.397  24.052  1.00  0.00     0.000 C 
BRANCH  15  16
ATOM     16  C   UNL     1      45.060   0.707  24.991  1.00  0.00     0.000 C 
BRANCH  16  17
ATOM     17  C   UNL     1      43.968   1.258  25.926  1.00  0.00     0.000 C 
BRANCH  17  18
ATOM     18  C   UNL     1      44.117   2.746  26.296  1.00  0.00     0.000 C 
BRANCH  18  19
ATOM     19  C   UNL     1      43.966   3.683  25.084  1.00  0.00     0.000 C 
BRANCH  19  20
ATOM     20  C   UNL     1      42.594   3.553  24.404  1.00  0.00     0.006 C 
BRANCH  20  21
ATOM     21  C   UNL     1      41.622   4.664  24.825  1.00  0.00     0.053 C 
BRANCH  21  22
ATOM     22  C   UNL     1      40.254   4.393  24.281  1.00  0.00     0.041 C 
ATOM     23  O   UNL     1      40.058   3.411  23.520  1.00  0.00    -0.550 OA
ATOM     24  O   UNL     1      39.186   5.200  24.654  1.00  0.00    -0.550 OA
ENDBRANCH  21  22
ENDBRANCH  20  21
ENDBRANCH  19  20
ENDBRANCH  18  19
ENDBRANCH  17  18
ENDBRANCH  16  17
ENDBRANCH  15  16
ENDBRANCH  14  15
ENDBRANCH  13  14
ENDBRANCH   1  13
TORSDOF 20
ENDMDL
MODEL 7
REMARK VINA RESULT:    -4.477      2.541      5.453
REMARK INTER + INTRA:         -12.597
REMARK INTER:                  -9.617
REMARK INTRA:                  -2.980
REMARK UNBOUND:                -2.885
REMARK SMILES CCCCCCCCCCCCCCCCCCCCCC(=O)[O-]
REMARK SMILES IDX 12 1 11 2 10 3 9 4 8 5 7 6 6 7 5 8 4 9 3 10 2 11 1 12 13 13
REMARK SMILES IDX 14 14 15 15 16 16 17 17 18 18 19 19 20 20 21 21 22 22 23 23
REMARK SMILES IDX 24 24
REMARK H PARENT
REMARK Flexibility Score: inf
ROOT
ATOM      1  C   UNL     1      47.840   1.560  20.325  1.00  0.00     0.000 C 
ENDROOT
BRANCH   1   2
ATOM      2  C   UNL     1      48.492   0.175  20.492  1.00  0.00     0.000 C 
BRANCH   2   3
ATOM      3  C   UNL     1      49.146  -0.008  21.870  1.00  0.00     0.000 C 
BRANCH   3   4
ATOM      4  C   UNL     1      50.547  -0.639  21.782  1.00  0.00    -0.000 C 
BRANCH   4   5
ATOM      5  C   UNL     1      50.864  -1.182  20.372  1.00  0.00    -0.000 C 
BRANCH   5   6
ATOM      6  C   UNL     1      52.331  -0.980  19.944  1.00  0.00    -0.000 C 
BRANCH   6   7
ATOM      7  C   UNL     1      52.519  -0.347  18.553  1.00  0.00    -0.000 C 
BRANCH   7   8
ATOM      8  C   UNL     1      51.221   0.142  17.875  1.00  0.00    -0.000 C 
BRANCH   8   9
ATOM      9  C   UNL     1      50.977   1.659  17.941  1.00  0.00    -0.000 C 
BRANCH   9  10
ATOM     10  C   UNL     1      52.119   2.421  18.634  1.00  0.00    -0.000 C 
BRANCH  10  11
ATOM     11  C   UNL     1      51.714   2.963  20.014  1.00  0.00    -0.003 C 
ATOM     12  C   UNL     1      51.094   4.359  19.947  1.00  0.00     0.004 C 
ENDBRANCH  10  11
ENDBRANCH   9  10
ENDBRANCH   8   9
ENDBRANCH   7   8
ENDBRANCH   6   7
ENDBRANCH   5   6
ENDBRANCH   4   5
ENDBRANCH   3   4
ENDBRANCH   2   3
ENDBRANCH   1   2
BRANCH   1  13
ATOM     13  C   UNL     1      48.290   2.557  21.404  1.00  0.00     0.000 C 
BRANCH  13  14
ATOM     14  C   UNL     1      47.133   3.435  21.916  1.00  0.00     0.000 C 
BRANCH  14  15
ATOM     15  C   UNL     1      45.802   2.674  22.010  1.00  0.00     0.000 C 
BRANCH  15  16
ATOM     16  C   UNL     1      45.605   1.987  23.372  1.00  0.00     0.000 C 
BRANCH  16  17
ATOM     17  C   UNL     1      45.448   0.460  23.255  1.00  0.00     0.000 C 
BRANCH  17  18
ATOM     18  C   UNL     1      44.366  -0.154  24.163  1.00  0.00     0.000 C 
BRANCH  18  19
ATOM     19  C   UNL     1      43.156  -0.691  23.377  1.00  0.00     0.000 C 
BRANCH  19  20
ATOM     20  C   UNL     1      43.342  -0.576  21.856  1.00  0.00     0.006 C 
BRANCH  20  21
ATOM     21  C   UNL     1      42.229   0.244  21.189  1.00  0.00     0.053 C 
BRANCH  21  22
ATOM     22  C   UNL     1      41.586  -0.547  20.092  1.00  0.00     0.041 C 
ATOM     23  O   UNL     1      40.827  -1.512  20.369  1.00  0.00    -0.550 OA
ATOM     24  O   UNL     1      41.788  -0.187  18.765  1.00  0.00    -0.550 OA
ENDBRANCH  21  22
ENDBRANCH  20  21
ENDBRANCH  19  20
ENDBRANCH  18  19
ENDBRANCH  17  18
ENDBRANCH  16  17
ENDBRANCH  15  16
ENDBRANCH  14  15
ENDBRANCH  13  14
ENDBRANCH   1  13
TORSDOF 20
ENDMDL
MODEL 8
REMARK VINA RESULT:    -4.447      3.205      6.539
REMARK INTER + INTRA:         -12.533
REMARK INTER:                  -9.032
REMARK INTRA:                  -3.501
REMARK UNBOUND:                -2.885
REMARK SMILES CCCCCCCCCCCCCCCCCCCCCC(=O)[O-]
REMARK SMILES IDX 12 1 11 2 10 3 9 4 8 5 7 6 6 7 5 8 4 9 3 10 2 11 1 12 13 13
REMARK SMILES IDX 14 14 15 15 16 16 17 17 18 18 19 19 20 20 21 21 22 22 23 23
REMARK SMILES IDX 24 24
REMARK H PARENT
REMARK Flexibility Score: inf
ROOT
ATOM      1  C   UNL     1      41.592  -0.260  18.960  1.00  0.00     0.000 C 
ENDROOT
BRANCH   1   2
ATOM      2  C   UNL     1      41.532  -0.274  20.499  1.00  0.00     0.000 C 
BRANCH   2   3
ATOM      3  C   UNL     1      42.735  -0.993  21.130  1.00  0.00     0.000 C 
BRANCH   3   4
ATOM      4  C   UNL     1      43.594  -0.058  22.001  1.00  0.00    -0.000 C 
BRANCH   4   5
ATOM      5  C   UNL     1      43.455  -0.360  23.509  1.00  0.00    -0.000 C 
BRANCH   5   6
ATOM      6  C   UNL     1      44.783  -0.272  24.286  1.00  0.00    -0.000 C 
BRANCH   6   7
ATOM      7  C   UNL     1      44.877   0.901  25.279  1.00  0.00    -0.000 C 
BRANCH   7   8
ATOM      8  C   UNL     1      44.847   2.305  24.638  1.00  0.00    -0.000 C 
BRANCH   8   9
ATOM      9  C   UNL     1      44.132   3.388  25.463  1.00  0.00    -0.000 C 
BRANCH   9  10
ATOM     10  C   UNL     1      42.751   3.759  24.898  1.00  0.00    -0.000 C 
BRANCH  10  11
ATOM     11  C   UNL     1      42.597   3.376  23.418  1.00  0.00    -0.003 C 
ATOM     12  C   UNL     1      41.276   2.666  23.121  1.00  0.00     0.004 C 
ENDBRANCH  10  11
ENDBRANCH   9  10
ENDBRANCH   8   9
ENDBRANCH   7   8
ENDBRANCH   6   7
ENDBRANCH   5   6
ENDBRANCH   4   5
ENDBRANCH   3   4
ENDBRANCH   2   3
ENDBRANCH   1   2
BRANCH   1  13
ATOM     13  C   UNL     1      42.195   1.039  18.405  1.00  0.00     0.000 C 
BRANCH  13  14
ATOM     14  C   UNL     1      42.034   2.226  19.373  1.00  0.00     0.000 C 
BRANCH  14  15
ATOM     15  C   UNL     1      43.379   2.806  19.835  1.00  0.00     0.000 C 
BRANCH  15  16
ATOM     16  C   UNL     1      44.528   2.488  18.863  1.00  0.00     0.000 C 
BRANCH  16  17
ATOM     17  C   UNL     1      45.905   2.466  19.551  1.00  0.00     0.000 C 
BRANCH  17  18
ATOM     18  C   UNL     1      45.870   2.609  21.084  1.00  0.00     0.000 C 
BRANCH  18  19
ATOM     19  C   UNL     1      47.080   1.958  21.776  1.00  0.00     0.000 C 
BRANCH  19  20
ATOM     20  C   UNL     1      47.501   0.638  21.112  1.00  0.00     0.006 C 
BRANCH  20  21
ATOM     21  C   UNL     1      48.853   0.126  21.628  1.00  0.00     0.053 C 
BRANCH  21  22
ATOM     22  C   UNL     1      49.894   0.235  20.558  1.00  0.00     0.041 C 
ATOM     23  O   UNL     1      50.334  -0.801  19.994  1.00  0.00    -0.550 OA
ATOM     24  O   UNL     1      50.344   1.485  20.150  1.00  0.00    -0.550 OA
ENDBRANCH  21  22
ENDBRANCH  20  21
ENDBRANCH  19  20
ENDBRANCH  18  19
ENDBRANCH  17  18
ENDBRANCH  16  17
ENDBRANCH  15  16
ENDBRANCH  14  15
ENDBRANCH  13  14
ENDBRANCH   1  13
TORSDOF 20
ENDMDL
MODEL 9
REMARK VINA RESULT:    -4.402      4.314      6.584
REMARK INTER + INTRA:         -12.435
REMARK INTER:                  -8.902
REMARK INTRA:                  -3.533
REMARK UNBOUND:                -2.885
REMARK SMILES CCCCCCCCCCCCCCCCCCCCCC(=O)[O-]
REMARK SMILES IDX 12 1 11 2 10 3 9 4 8 5 7 6 6 7 5 8 4 9 3 10 2 11 1 12 13 13
REMARK SMILES IDX 14 14 15 15 16 16 17 17 18 18 19 19 20 20 21 21 22 22 23 23
REMARK SMILES IDX 24 24
REMARK H PARENT
REMARK Flexibility Score: inf
ROOT
ATOM      1  C   UNL     1      44.884   1.453  24.675  1.00  0.00     0.000 C 
ENDROOT
BRANCH   1   2
ATOM      2  C   UNL     1      43.723   1.515  25.685  1.00  0.00     0.000 C 
BRANCH   2   3
ATOM      3  C   UNL     1      43.779   2.768  26.572  1.00  0.00     0.000 C 
BRANCH   3   4
ATOM      4  C   UNL     1      44.471   3.955  25.879  1.00  0.00    -0.000 C 
BRANCH   4   5
ATOM      5  C   UNL     1      43.574   5.211  25.819  1.00  0.00    -0.000 C 
BRANCH   5   6
ATOM      6  C   UNL     1      42.219   5.041  26.534  1.00  0.00    -0.000 C 
BRANCH   6   7
ATOM      7  C   UNL     1      40.994   5.006  25.601  1.00  0.00    -0.000 C 
BRANCH   7   8
ATOM      8  C   UNL     1      41.316   4.788  24.107  1.00  0.00    -0.000 C 
BRANCH   8   9
ATOM      9  C   UNL     1      41.010   3.380  23.568  1.00  0.00    -0.000 C 
BRANCH   9  10
ATOM     10  C   UNL     1      41.830   3.025  22.316  1.00  0.00    -0.000 C 
BRANCH  10  11
ATOM     11  C   UNL     1      43.255   3.595  22.363  1.00  0.00    -0.003 C 
ATOM     12  C   UNL     1      44.178   2.979  21.311  1.00  0.00     0.004 C 
ENDBRANCH  10  11
ENDBRANCH   9  10
ENDBRANCH   8   9
ENDBRANCH   7   8
ENDBRANCH   6   7
ENDBRANCH   5   6
ENDBRANCH   4   5
ENDBRANCH   3   4
ENDBRANCH   2   3
ENDBRANCH   1   2
BRANCH   1  13
ATOM     13  C   UNL     1      44.824   0.205  23.782  1.00  0.00     0.000 C 
BRANCH  13  14
ATOM     14  C   UNL     1      43.391  -0.122  23.320  1.00  0.00     0.000 C 
BRANCH  14  15
ATOM     15  C   UNL     1      43.338  -0.680  21.890  1.00  0.00     0.000 C 
BRANCH  15  16
ATOM     16  C   UNL     1      41.982  -0.434  21.206  1.00  0.00     0.000 C 
BRANCH  16  17
ATOM     17  C   UNL     1      41.869  -1.123  19.835  1.00  0.00     0.000 C 
BRANCH  17  18
ATOM     18  C   UNL     1      41.506  -0.189  18.665  1.00  0.00     0.000 C 
BRANCH  18  19
ATOM     19  C   UNL     1      41.690   1.300  19.007  1.00  0.00     0.000 C 
BRANCH  19  20
ATOM     20  C   UNL     1      42.725   1.990  18.106  1.00  0.00     0.006 C 
BRANCH  20  21
ATOM     21  C   UNL     1      42.201   2.226  16.683  1.00  0.00     0.053 C 
BRANCH  21  22
ATOM     22  C   UNL     1      43.183   1.718  15.674  1.00  0.00     0.041 C 
ATOM     23  O   UNL     1      43.439   2.393  14.643  1.00  0.00    -0.550 OA
ATOM     24  O   UNL     1      43.851   0.520  15.898  1.00  0.00    -0.550 OA
ENDBRANCH  21  22
ENDBRANCH  20  21
ENDBRANCH  19  20
ENDBRANCH  18  19
ENDBRANCH  17  18
ENDBRANCH  16  17
ENDBRANCH  15  16
ENDBRANCH  14  15
ENDBRANCH  13  14
ENDBRANCH   1  13
TORSDOF 20
ENDMDL
