MODEL 1
REMARK VINA RESULT:    -3.838      0.000      0.000
REMARK INTER + INTRA:          -4.536
REMARK INTER:                  -4.511
REMARK INTRA:                  -0.024
REMARK UNBOUND:                -0.024
REMARK SMILES CCCCC(=O)[O-]
REMARK SMILES IDX 4 1 5 2 6 3 7 4 3 5 2 6 1 7
REMARK H PARENT
REMARK Flexibility Score: inf
ROOT
ATOM      1  C   UNL     1      -2.800   3.831  30.966  1.00  0.00     0.053 C 
ENDROOT
BRANCH   1   2
ATOM      2  C   UNL     1      -1.494   3.229  31.385  1.00  0.00     0.041 C 
ATOM      3  O   UNL     1      -0.652   2.875  30.518  1.00  0.00    -0.550 OA
ATOM      4  O   UNL     1      -1.220   3.027  32.732  1.00  0.00    -0.550 OA
ENDBRANCH   1   2
BRANCH   1   5
ATOM      5  C   UNL     1      -3.506   4.542  32.131  1.00  0.00     0.006 C 
BRANCH   5   6
ATOM      6  C   UNL     1      -3.973   5.973  31.805  1.00  0.00    -0.003 C 
ATOM      7  C   UNL     1      -4.352   6.772  33.051  1.00  0.00     0.004 C 
ENDBRANCH   5   6
ENDBRANCH   1   5
TORSDOF 3
ENDMDL
MODEL 2
REMARK VINA RESULT:    -3.624     16.348     17.643
REMARK INTER + INTRA:          -4.284
REMARK INTER:                  -4.203
REMARK INTRA:                  -0.080
REMARK UNBOUND:                -0.024
REMARK SMILES CCCCC(=O)[O-]
REMARK SMILES IDX 4 1 5 2 6 3 7 4 3 5 2 6 1 7
REMARK H PARENT
REMARK Flexibility Score: inf
ROOT
ATOM      1  C   UNL     1       4.684   2.238  16.094  1.00  0.00     0.053 C 
ENDROOT
BRANCH   1   2
ATOM      2  C   UNL     1       3.618   1.816  17.058  1.00  0.00     0.041 C 
ATOM      3  O   UNL     1       3.890   1.665  18.278  1.00  0.00    -0.550 OA
ATOM      4  O   UNL     1       2.331   1.557  16.602  1.00  0.00    -0.550 OA
ENDBRANCH   1   2
BRANCH   1   5
ATOM      5  C   UNL     1       4.381   3.604  15.460  1.00  0.00     0.006 C 
BRANCH   5   6
ATOM      6  C   UNL     1       3.882   3.526  14.005  1.00  0.00    -0.003 C 
ATOM      7  C   UNL     1       4.600   2.453  13.188  1.00  0.00     0.004 C 
ENDBRANCH   5   6
ENDBRANCH   1   5
TORSDOF 3
ENDMDL
MODEL 3
REMARK VINA RESULT:    -3.619     17.546     18.173
REMARK INTER + INTRA:          -4.278
REMARK INTER:                  -4.175
REMARK INTRA:                  -0.103
REMARK UNBOUND:                -0.024
REMARK SMILES CCCCC(=O)[O-]
REMARK SMILES IDX 4 1 5 2 6 3 7 4 3 5 2 6 1 7
REMARK H PARENT
REMARK Flexibility Score: inf
ROOT
ATOM      1  C   UNL     1       3.097   0.406  14.478  1.00  0.00     0.053 C 
ENDROOT
BRANCH   1   2
ATOM      2  C   UNL     1       1.720   0.316  15.063  1.00  0.00     0.041 C 
ATOM      3  O   UNL     1       1.464   0.863  16.168  1.00  0.00    -0.550 OA
ATOM      4  O   UNL     1       0.730  -0.402  14.404  1.00  0.00    -0.550 OA
ENDBRANCH   1   2
BRANCH   1   5
ATOM      5  C   UNL     1       3.902   1.570  15.077  1.00  0.00     0.006 C 
BRANCH   5   6
ATOM      6  C   UNL     1       3.994   2.807  14.165  1.00  0.00    -0.003 C 
ATOM      7  C   UNL     1       3.079   3.945  14.614  1.00  0.00     0.004 C 
ENDBRANCH   5   6
ENDBRANCH   1   5
TORSDOF 3
ENDMDL
MODEL 4
REMARK VINA RESULT:    -3.602     17.532     18.151
REMARK INTER + INTRA:          -4.258
REMARK INTER:                  -4.152
REMARK INTRA:                  -0.106
REMARK UNBOUND:                -0.024
REMARK SMILES CCCCC(=O)[O-]
REMARK SMILES IDX 4 1 5 2 6 3 7 4 3 5 2 6 1 7
REMARK H PARENT
REMARK Flexibility Score: inf
ROOT
ATOM      1  C   UNL     1       2.871   0.328  14.296  1.00  0.00     0.053 C 
ENDROOT
BRANCH   1   2
ATOM      2  C   UNL     1       1.584   0.191  15.050  1.00  0.00     0.041 C 
ATOM      3  O   UNL     1       0.664  -0.545  14.604  1.00  0.00    -0.550 OA
ATOM      4  O   UNL     1       1.386   0.904  16.225  1.00  0.00    -0.550 OA
ENDBRANCH   1   2
BRANCH   1   5
ATOM      5  C   UNL     1       3.829   1.324  14.968  1.00  0.00     0.006 C 
BRANCH   5   6
ATOM      6  C   UNL     1       4.039   2.628  14.177  1.00  0.00    -0.003 C 
ATOM      7  C   UNL     1       3.153   3.771  14.671  1.00  0.00     0.004 C 
ENDBRANCH   5   6
ENDBRANCH   1   5
TORSDOF 3
ENDMDL
MODEL 5
REMARK VINA RESULT:    -3.598     16.438     17.072
REMARK INTER + INTRA:          -4.253
REMARK INTER:                  -4.213
REMARK INTRA:                  -0.040
REMARK UNBOUND:                -0.024
REMARK SMILES CCCCC(=O)[O-]
REMARK SMILES IDX 4 1 5 2 6 3 7 4 3 5 2 6 1 7
REMARK H PARENT
REMARK Flexibility Score: inf
ROOT
ATOM      1  C   UNL     1       4.412   1.832  16.206  1.00  0.00     0.053 C 
ENDROOT
BRANCH   1   2
ATOM      2  C   UNL     1       2.950   2.032  15.948  1.00  0.00     0.041 C 
ATOM      3  O   UNL     1       2.564   2.924  15.148  1.00  0.00    -0.550 OA
ATOM      4  O   UNL     1       2.012   1.257  16.619  1.00  0.00    -0.550 OA
ENDBRANCH   1   2
BRANCH   1   5
ATOM      5  C   UNL     1       4.670   1.142  17.555  1.00  0.00     0.006 C 
BRANCH   5   6
ATOM      6  C   UNL     1       5.507  -0.146  17.453  1.00  0.00    -0.003 C 
ATOM      7  C   UNL     1       5.826  -0.756  18.818  1.00  0.00     0.004 C 
ENDBRANCH   5   6
ENDBRANCH   1   5
TORSDOF 3
ENDMDL
MODEL 6
REMARK VINA RESULT:    -3.464     17.405     18.013
REMARK INTER + INTRA:          -4.096
REMARK INTER:                  -4.004
REMARK INTRA:                  -0.092
REMARK UNBOUND:                -0.024
REMARK SMILES CCCCC(=O)[O-]
REMARK SMILES IDX 4 1 5 2 6 3 7 4 3 5 2 6 1 7
REMARK H PARENT
REMARK Flexibility Score: inf
ROOT
ATOM      1  C   UNL     1       3.192   0.748  14.591  1.00  0.00     0.053 C 
ENDROOT
BRANCH   1   2
ATOM      2  C   UNL     1       1.806   0.445  15.073  1.00  0.00     0.041 C 
ATOM      3  O   UNL     1       1.428   0.846  16.205  1.00  0.00    -0.550 OA
ATOM      4  O   UNL     1       0.945  -0.309  14.287  1.00  0.00    -0.550 OA
ENDBRANCH   1   2
BRANCH   1   5
ATOM      5  C   UNL     1       3.549   2.233  14.758  1.00  0.00     0.006 C 
BRANCH   5   6
ATOM      6  C   UNL     1       4.550   2.516  15.892  1.00  0.00    -0.003 C 
ATOM      7  C   UNL     1       5.437   1.314  16.215  1.00  0.00     0.004 C 
ENDBRANCH   5   6
ENDBRANCH   1   5
TORSDOF 3
ENDMDL
MODEL 7
REMARK VINA RESULT:    -3.383     16.466     17.342
REMARK INTER + INTRA:          -4.001
REMARK INTER:                  -3.946
REMARK INTRA:                  -0.055
REMARK UNBOUND:                -0.024
REMARK SMILES CCCCC(=O)[O-]
REMARK SMILES IDX 4 1 5 2 6 3 7 4 3 5 2 6 1 7
REMARK H PARENT
REMARK Flexibility Score: inf
ROOT
ATOM      1  C   UNL     1       5.627   1.266  16.264  1.00  0.00     0.053 C 
ENDROOT
BRANCH   1   2
ATOM      2  C   UNL     1       4.747   0.635  17.299  1.00  0.00     0.041 C 
ATOM      3  O   UNL     1       4.366  -0.557  17.165  1.00  0.00    -0.550 OA
ATOM      4  O   UNL     1       4.318   1.376  18.393  1.00  0.00    -0.550 OA
ENDBRANCH   1   2
BRANCH   1   5
ATOM      5  C   UNL     1       4.814   1.941  15.149  1.00  0.00     0.006 C 
BRANCH   5   6
ATOM      6  C   UNL     1       4.426   3.401  15.448  1.00  0.00    -0.003 C 
ATOM      7  C   UNL     1       3.209   3.867  14.651  1.00  0.00     0.004 C 
ENDBRANCH   5   6
ENDBRANCH   1   5
TORSDOF 3
ENDMDL
MODEL 8
REMARK VINA RESULT:    -3.380     16.878     18.286
REMARK INTER + INTRA:          -3.997
REMARK INTER:                  -3.918
REMARK INTRA:                  -0.079
REMARK UNBOUND:                -0.024
REMARK SMILES CCCCC(=O)[O-]
REMARK SMILES IDX 4 1 5 2 6 3 7 4 3 5 2 6 1 7
REMARK H PARENT
REMARK Flexibility Score: inf
ROOT
ATOM      1  C   UNL     1       3.518   2.277  15.076  1.00  0.00     0.053 C 
ENDROOT
BRANCH   1   2
ATOM      2  C   UNL     1       2.987   1.627  16.317  1.00  0.00     0.041 C 
ATOM      3  O   UNL     1       1.809   1.181  16.343  1.00  0.00    -0.550 OA
ATOM      4  O   UNL     1       3.779   1.546  17.454  1.00  0.00    -0.550 OA
ENDBRANCH   1   2
BRANCH   1   5
ATOM      5  C   UNL     1       3.867   1.247  13.991  1.00  0.00     0.006 C 
BRANCH   5   6
ATOM      6  C   UNL     1       5.354   1.232  13.591  1.00  0.00    -0.003 C 
ATOM      7  C   UNL     1       6.241   0.547  14.630  1.00  0.00     0.004 C 
ENDBRANCH   5   6
ENDBRANCH   1   5
TORSDOF 3
ENDMDL
MODEL 9
REMARK VINA RESULT:    -3.320     15.857     16.560
REMARK INTER + INTRA:          -3.927
REMARK INTER:                  -3.902
REMARK INTRA:                  -0.025
REMARK UNBOUND:                -0.024
REMARK SMILES CCCCC(=O)[O-]
REMARK SMILES IDX 4 1 5 2 6 3 7 4 3 5 2 6 1 7
REMARK H PARENT
REMARK Flexibility Score: inf
ROOT
ATOM      1  C   UNL     1       5.409   0.500  17.354  1.00  0.00     0.053 C 
ENDROOT
BRANCH   1   2
ATOM      2  C   UNL     1       5.438  -0.263  18.643  1.00  0.00     0.041 C 
ATOM      3  O   UNL     1       4.750   0.125  19.624  1.00  0.00    -0.550 OA
ATOM      4  O   UNL     1       6.251  -1.382  18.772  1.00  0.00    -0.550 OA
ENDBRANCH   1   2
BRANCH   1   5
ATOM      5  C   UNL     1       4.371   1.632  17.377  1.00  0.00     0.006 C 
BRANCH   5   6
ATOM      6  C   UNL     1       3.695   1.894  16.019  1.00  0.00    -0.003 C 
ATOM      7  C   UNL     1       4.087   3.240  15.410  1.00  0.00     0.004 C 
ENDBRANCH   5   6
ENDBRANCH   1   5
TORSDOF 3
ENDMDL
