MODEL 1
REMARK VINA RESULT:    -3.777      0.000      0.000
REMARK INTER + INTRA:         -10.767
REMARK INTER:                  -7.310
REMARK INTRA:                  -3.457
REMARK UNBOUND:                -3.457
REMARK SMILES CCCCCCCCCCCCCCCCCC(=O)[O-]
REMARK SMILES IDX 10 1 11 2 12 3 13 4 14 5 15 6 16 7 17 8 18 9 19 10 20 11
REMARK SMILES IDX 9 12 8 13 7 14 6 15 5 16 4 17 3 18 2 19 1 20
REMARK H PARENT
REMARK Flexibility Score: inf
ROOT
ATOM      1  C   UNL     1      -4.311  -7.261 -18.522  1.00  0.00     0.000 C 
ENDROOT
BRANCH   1   2
ATOM      2  C   UNL     1      -3.771  -6.809 -17.154  1.00  0.00     0.000 C 
BRANCH   2   3
ATOM      3  C   UNL     1      -2.240  -6.675 -17.140  1.00  0.00     0.000 C 
BRANCH   3   4
ATOM      4  C   UNL     1      -1.569  -7.687 -16.194  1.00  0.00     0.000 C 
BRANCH   4   5
ATOM      5  C   UNL     1      -2.519  -8.179 -15.090  1.00  0.00     0.000 C 
BRANCH   5   6
ATOM      6  C   UNL     1      -2.392  -9.691 -14.834  1.00  0.00     0.000 C 
BRANCH   6   7
ATOM      7  C   UNL     1      -3.758 -10.387 -14.721  1.00  0.00     0.006 C 
BRANCH   7   8
ATOM      8  C   UNL     1      -4.931  -9.408 -14.863  1.00  0.00     0.053 C 
BRANCH   8   9
ATOM      9  C   UNL     1      -6.164 -10.132 -15.302  1.00  0.00     0.041 C 
ATOM     10  O   UNL     1      -6.104 -10.983 -16.228  1.00  0.00    -0.550 OA
ATOM     11  O   UNL     1      -7.390  -9.832 -14.720  1.00  0.00    -0.550 OA
ENDBRANCH   8   9
ENDBRANCH   7   8
ENDBRANCH   6   7
ENDBRANCH   5   6
ENDBRANCH   4   5
ENDBRANCH   3   4
ENDBRANCH   2   3
ENDBRANCH   1   2
BRANCH   1  12
ATOM     12  C   UNL     1      -4.738  -8.740 -18.538  1.00  0.00     0.000 C 
BRANCH  12  13
ATOM     13  C   UNL     1      -3.770  -9.685 -19.273  1.00  0.00    -0.000 C 
BRANCH  13  14
ATOM     14  C   UNL     1      -3.127 -10.725 -18.343  1.00  0.00    -0.000 C 
BRANCH  14  15
ATOM     15  C   UNL     1      -1.598 -10.618 -18.376  1.00  0.00    -0.000 C 
BRANCH  15  16
ATOM     16  C   UNL     1      -1.119  -9.963 -19.679  1.00  0.00    -0.000 C 
BRANCH  16  17
ATOM     17  C   UNL     1      -0.148  -8.794 -19.441  1.00  0.00    -0.000 C 
BRANCH  17  18
ATOM     18  C   UNL     1      -0.097  -7.785 -20.608  1.00  0.00    -0.000 C 
BRANCH  18  19
ATOM     19  C   UNL     1      -1.361  -6.915 -20.679  1.00  0.00    -0.003 C 
ATOM     20  C   UNL     1      -2.130  -7.167 -21.973  1.00  0.00     0.004 C 
ENDBRANCH  18  19
ENDBRANCH  17  18
ENDBRANCH  16  17
ENDBRANCH  15  16
ENDBRANCH  14  15
ENDBRANCH  13  14
ENDBRANCH  12  13
ENDBRANCH   1  12
TORSDOF 16
ENDMDL
MODEL 2
REMARK VINA RESULT:    -3.767      3.098      5.490
REMARK INTER + INTRA:         -10.748
REMARK INTER:                  -7.758
REMARK INTRA:                  -2.990
REMARK UNBOUND:                -3.457
REMARK SMILES CCCCCCCCCCCCCCCCCC(=O)[O-]
REMARK SMILES IDX 10 1 11 2 12 3 13 4 14 5 15 6 16 7 17 8 18 9 19 10 20 11
REMARK SMILES IDX 9 12 8 13 7 14 6 15 5 16 4 17 3 18 2 19 1 20
REMARK H PARENT
REMARK Flexibility Score: inf
ROOT
ATOM      1  C   UNL     1      -6.034  -8.773 -14.400  1.00  0.00     0.000 C 
ENDROOT
BRANCH   1   2
ATOM      2  C   UNL     1      -4.903  -8.077 -15.177  1.00  0.00     0.000 C 
BRANCH   2   3
ATOM      3  C   UNL     1      -5.425  -7.244 -16.358  1.00  0.00     0.000 C 
BRANCH   3   4
ATOM      4  C   UNL     1      -4.464  -7.262 -17.560  1.00  0.00     0.000 C 
BRANCH   4   5
ATOM      5  C   UNL     1      -3.009  -6.974 -17.156  1.00  0.00     0.000 C 
BRANCH   5   6
ATOM      6  C   UNL     1      -2.020  -7.207 -18.311  1.00  0.00     0.000 C 
BRANCH   6   7
ATOM      7  C   UNL     1      -2.695  -7.808 -19.554  1.00  0.00     0.006 C 
BRANCH   7   8
ATOM      8  C   UNL     1      -1.682  -8.333 -20.579  1.00  0.00     0.053 C 
BRANCH   8   9
ATOM      9  C   UNL     1      -1.915  -7.703 -21.915  1.00  0.00     0.041 C 
ATOM     10  O   UNL     1      -2.492  -6.586 -21.997  1.00  0.00    -0.550 OA
ATOM     11  O   UNL     1      -1.541  -8.371 -23.074  1.00  0.00    -0.550 OA
ENDBRANCH   8   9
ENDBRANCH   7   8
ENDBRANCH   6   7
ENDBRANCH   5   6
ENDBRANCH   4   5
ENDBRANCH   3   4
ENDBRANCH   2   3
ENDBRANCH   1   2
BRANCH   1  12
ATOM     12  C   UNL     1      -6.631  -9.972 -15.157  1.00  0.00     0.000 C 
BRANCH  12  13
ATOM     13  C   UNL     1      -5.609 -11.039 -15.590  1.00  0.00    -0.000 C 
BRANCH  13  14
ATOM     14  C   UNL     1      -5.525 -11.203 -17.115  1.00  0.00    -0.000 C 
BRANCH  14  15
ATOM     15  C   UNL     1      -4.127 -10.837 -17.629  1.00  0.00    -0.000 C 
BRANCH  15  16
ATOM     16  C   UNL     1      -3.070 -11.019 -16.530  1.00  0.00    -0.000 C 
BRANCH  16  17
ATOM     17  C   UNL     1      -1.686 -10.486 -16.936  1.00  0.00    -0.000 C 
BRANCH  17  18
ATOM     18  C   UNL     1      -0.824 -10.027 -15.741  1.00  0.00    -0.000 C 
BRANCH  18  19
ATOM     19  C   UNL     1      -1.680  -9.558 -14.555  1.00  0.00    -0.003 C 
ATOM     20  C   UNL     1      -1.317  -8.134 -14.142  1.00  0.00     0.004 C 
ENDBRANCH  18  19
ENDBRANCH  17  18
ENDBRANCH  16  17
ENDBRANCH  15  16
ENDBRANCH  14  15
ENDBRANCH  13  14
ENDBRANCH  12  13
ENDBRANCH   1  12
TORSDOF 16
ENDMDL
MODEL 3
REMARK VINA RESULT:    -3.705      2.859      5.997
REMARK INTER + INTRA:         -10.627
REMARK INTER:                  -7.644
REMARK INTRA:                  -2.983
REMARK UNBOUND:                -3.457
REMARK SMILES CCCCCCCCCCCCCCCCCC(=O)[O-]
REMARK SMILES IDX 10 1 11 2 12 3 13 4 14 5 15 6 16 7 17 8 18 9 19 10 20 11
REMARK SMILES IDX 9 12 8 13 7 14 6 15 5 16 4 17 3 18 2 19 1 20
REMARK H PARENT
REMARK Flexibility Score: inf
ROOT
ATOM      1  C   UNL     1      -3.641  -6.586 -17.441  1.00  0.00     0.000 C 
ENDROOT
BRANCH   1   2
ATOM      2  C   UNL     1      -4.216  -7.393 -18.617  1.00  0.00     0.000 C 
BRANCH   2   3
ATOM      3  C   UNL     1      -4.755  -8.766 -18.183  1.00  0.00     0.000 C 
BRANCH   3   4
ATOM      4  C   UNL     1      -4.240  -9.908 -19.077  1.00  0.00     0.000 C 
BRANCH   4   5
ATOM      5  C   UNL     1      -3.092 -10.695 -18.425  1.00  0.00     0.000 C 
BRANCH   5   6
ATOM      6  C   UNL     1      -1.757 -10.512 -19.167  1.00  0.00     0.000 C 
BRANCH   6   7
ATOM      7  C   UNL     1      -1.919  -9.755 -20.494  1.00  0.00     0.006 C 
BRANCH   7   8
ATOM      8  C   UNL     1      -1.136  -8.435 -20.519  1.00  0.00     0.053 C 
BRANCH   8   9
ATOM      9  C   UNL     1      -1.635  -7.553 -21.619  1.00  0.00     0.041 C 
ATOM     10  O   UNL     1      -1.347  -6.327 -21.627  1.00  0.00    -0.550 OA
ATOM     11  O   UNL     1      -2.458  -8.074 -22.609  1.00  0.00    -0.550 OA
ENDBRANCH   8   9
ENDBRANCH   7   8
ENDBRANCH   6   7
ENDBRANCH   5   6
ENDBRANCH   4   5
ENDBRANCH   3   4
ENDBRANCH   2   3
ENDBRANCH   1   2
BRANCH   1  12
ATOM     12  C   UNL     1      -2.103  -6.537 -17.443  1.00  0.00     0.000 C 
BRANCH  12  13
ATOM     13  C   UNL     1      -1.417  -7.711 -16.723  1.00  0.00    -0.000 C 
BRANCH  13  14
ATOM     14  C   UNL     1      -1.023  -7.377 -15.276  1.00  0.00    -0.000 C 
BRANCH  14  15
ATOM     15  C   UNL     1      -1.669  -8.361 -14.292  1.00  0.00    -0.000 C 
BRANCH  15  16
ATOM     16  C   UNL     1      -2.311  -9.542 -15.034  1.00  0.00    -0.000 C 
BRANCH  16  17
ATOM     17  C   UNL     1      -3.786  -9.758 -14.654  1.00  0.00    -0.000 C 
BRANCH  17  18
ATOM     18  C   UNL     1      -4.633  -8.469 -14.702  1.00  0.00    -0.000 C 
BRANCH  18  19
ATOM     19  C   UNL     1      -6.125  -8.746 -14.471  1.00  0.00    -0.003 C 
ATOM     20  C   UNL     1      -6.573 -10.003 -15.212  1.00  0.00     0.004 C 
ENDBRANCH  18  19
ENDBRANCH  17  18
ENDBRANCH  16  17
ENDBRANCH  15  16
ENDBRANCH  14  15
ENDBRANCH  13  14
ENDBRANCH  12  13
ENDBRANCH   1  12
TORSDOF 16
ENDMDL
MODEL 4
REMARK VINA RESULT:    -3.524      1.380      2.201
REMARK INTER + INTRA:         -10.277
REMARK INTER:                  -7.391
REMARK INTRA:                  -2.886
REMARK UNBOUND:                -3.457
REMARK SMILES CCCCCCCCCCCCCCCCCC(=O)[O-]
REMARK SMILES IDX 10 1 11 2 12 3 13 4 14 5 15 6 16 7 17 8 18 9 19 10 20 11
REMARK SMILES IDX 9 12 8 13 7 14 6 15 5 16 4 17 3 18 2 19 1 20
REMARK H PARENT
REMARK Flexibility Score: inf
ROOT
ATOM      1  C   UNL     1      -2.363  -6.789 -17.312  1.00  0.00     0.000 C 
ENDROOT
BRANCH   1   2
ATOM      2  C   UNL     1      -1.211  -7.617 -16.716  1.00  0.00     0.000 C 
BRANCH   2   3
ATOM      3  C   UNL     1      -0.893  -7.226 -15.264  1.00  0.00     0.000 C 
BRANCH   3   4
ATOM      4  C   UNL     1      -1.579  -8.150 -14.242  1.00  0.00     0.000 C 
BRANCH   4   5
ATOM      5  C   UNL     1      -2.101  -9.448 -14.880  1.00  0.00     0.000 C 
BRANCH   5   6
ATOM      6  C   UNL     1      -3.597  -9.679 -14.603  1.00  0.00     0.000 C 
BRANCH   6   7
ATOM      7  C   UNL     1      -4.432  -8.401 -14.771  1.00  0.00     0.006 C 
BRANCH   7   8
ATOM      8  C   UNL     1      -5.843  -8.684 -15.306  1.00  0.00     0.053 C 
BRANCH   8   9
ATOM      9  C   UNL     1      -6.380  -9.949 -14.716  1.00  0.00     0.041 C 
ATOM     10  O   UNL     1      -6.641 -10.933 -15.458  1.00  0.00    -0.550 OA
ATOM     11  O   UNL     1      -6.638 -10.026 -13.353  1.00  0.00    -0.550 OA
ENDBRANCH   8   9
ENDBRANCH   7   8
ENDBRANCH   6   7
ENDBRANCH   5   6
ENDBRANCH   4   5
ENDBRANCH   3   4
ENDBRANCH   2   3
ENDBRANCH   1   2
BRANCH   1  12
ATOM     12  C   UNL     1      -2.894  -7.367 -18.635  1.00  0.00     0.000 C 
BRANCH  12  13
ATOM     13  C   UNL     1      -4.371  -7.800 -18.607  1.00  0.00    -0.000 C 
BRANCH  13  14
ATOM     14  C   UNL     1      -4.574  -9.262 -19.031  1.00  0.00    -0.000 C 
BRANCH  14  15
ATOM     15  C   UNL     1      -3.895 -10.219 -18.044  1.00  0.00    -0.000 C 
BRANCH  15  16
ATOM     16  C   UNL     1      -2.871 -11.113 -18.759  1.00  0.00    -0.000 C 
BRANCH  16  17
ATOM     17  C   UNL     1      -1.429 -10.871 -18.283  1.00  0.00    -0.000 C 
BRANCH  17  18
ATOM     18  C   UNL     1      -0.475 -10.411 -19.406  1.00  0.00    -0.000 C 
BRANCH  18  19
ATOM     19  C   UNL     1      -1.235  -9.931 -20.652  1.00  0.00    -0.003 C 
ATOM     20  C   UNL     1      -0.359 -10.020 -21.899  1.00  0.00     0.004 C 
ENDBRANCH  18  19
ENDBRANCH  17  18
ENDBRANCH  16  17
ENDBRANCH  15  16
ENDBRANCH  14  15
ENDBRANCH  13  14
ENDBRANCH  12  13
ENDBRANCH   1  12
TORSDOF 16
ENDMDL
MODEL 5
REMARK VINA RESULT:    -3.511     14.735     17.351
REMARK INTER + INTRA:         -10.251
REMARK INTER:                  -7.396
REMARK INTRA:                  -2.855
REMARK UNBOUND:                -3.457
REMARK SMILES CCCCCCCCCCCCCCCCCC(=O)[O-]
REMARK SMILES IDX 10 1 11 2 12 3 13 4 14 5 15 6 16 7 17 8 18 9 19 10 20 11
REMARK SMILES IDX 9 12 8 13 7 14 6 15 5 16 4 17 3 18 2 19 1 20
REMARK H PARENT
REMARK Flexibility Score: inf
ROOT
ATOM      1  C   UNL     1     -15.338  -2.465 -16.784  1.00  0.00     0.000 C 
ENDROOT
BRANCH   1   2
ATOM      2  C   UNL     1     -15.241  -1.567 -18.030  1.00  0.00     0.000 C 
BRANCH   2   3
ATOM      3  C   UNL     1     -15.531  -2.331 -19.331  1.00  0.00     0.000 C 
BRANCH   3   4
ATOM      4  C   UNL     1     -16.389  -1.515 -20.314  1.00  0.00     0.000 C 
BRANCH   4   5
ATOM      5  C   UNL     1     -17.278  -0.482 -19.602  1.00  0.00     0.000 C 
BRANCH   5   6
ATOM      6  C   UNL     1     -18.778  -0.743 -19.824  1.00  0.00     0.000 C 
BRANCH   6   7
ATOM      7  C   UNL     1     -19.044  -1.672 -21.019  1.00  0.00     0.006 C 
BRANCH   7   8
ATOM      8  C   UNL     1     -19.536  -0.912 -22.258  1.00  0.00     0.053 C 
BRANCH   8   9
ATOM      9  C   UNL     1     -18.588  -1.104 -23.399  1.00  0.00     0.041 C 
ATOM     10  O   UNL     1     -17.526  -0.429 -23.460  1.00  0.00    -0.550 OA
ATOM     11  O   UNL     1     -18.900  -1.992 -24.421  1.00  0.00    -0.550 OA
ENDBRANCH   8   9
ENDBRANCH   7   8
ENDBRANCH   6   7
ENDBRANCH   5   6
ENDBRANCH   4   5
ENDBRANCH   3   4
ENDBRANCH   2   3
ENDBRANCH   1   2
BRANCH   1  12
ATOM     12  C   UNL     1     -15.650  -1.677 -15.500  1.00  0.00     0.000 C 
BRANCH  12  13
ATOM     13  C   UNL     1     -17.143  -1.605 -15.130  1.00  0.00    -0.000 C 
BRANCH  13  14
ATOM     14  C   UNL     1     -17.882  -0.464 -15.845  1.00  0.00    -0.000 C 
BRANCH  14  15
ATOM     15  C   UNL     1     -19.311  -0.881 -16.211  1.00  0.00    -0.000 C 
BRANCH  15  16
ATOM     16  C   UNL     1     -19.544  -2.370 -15.916  1.00  0.00    -0.000 C 
BRANCH  16  17
ATOM     17  C   UNL     1     -19.865  -3.189 -17.177  1.00  0.00    -0.000 C 
BRANCH  17  18
ATOM     18  C   UNL     1     -18.617  -3.777 -17.868  1.00  0.00    -0.000 C 
BRANCH  18  19
ATOM     19  C   UNL     1     -17.995  -4.926 -17.060  1.00  0.00    -0.003 C 
ATOM     20  C   UNL     1     -19.048  -5.962 -16.674  1.00  0.00     0.004 C 
ENDBRANCH  18  19
ENDBRANCH  17  18
ENDBRANCH  16  17
ENDBRANCH  15  16
ENDBRANCH  14  15
ENDBRANCH  13  14
ENDBRANCH  12  13
ENDBRANCH   1  12
TORSDOF 16
ENDMDL
MODEL 6
REMARK VINA RESULT:    -3.440     14.686     17.345
REMARK INTER + INTRA:         -10.115
REMARK INTER:                  -7.584
REMARK INTRA:                  -2.531
REMARK UNBOUND:                -3.457
REMARK SMILES CCCCCCCCCCCCCCCCCC(=O)[O-]
REMARK SMILES IDX 10 1 11 2 12 3 13 4 14 5 15 6 16 7 17 8 18 9 19 10 20 11
REMARK SMILES IDX 9 12 8 13 7 14 6 15 5 16 4 17 3 18 2 19 1 20
REMARK H PARENT
REMARK Flexibility Score: inf
ROOT
ATOM      1  C   UNL     1     -15.204  -1.567 -18.275  1.00  0.00     0.000 C 
ENDROOT
BRANCH   1   2
ATOM      2  C   UNL     1     -15.357  -2.361 -19.583  1.00  0.00     0.000 C 
BRANCH   2   3
ATOM      3  C   UNL     1     -16.579  -1.918 -20.402  1.00  0.00     0.000 C 
BRANCH   3   4
ATOM      4  C   UNL     1     -17.145  -0.567 -19.931  1.00  0.00     0.000 C 
BRANCH   4   5
ATOM      5  C   UNL     1     -18.672  -0.480 -20.090  1.00  0.00     0.000 C 
BRANCH   5   6
ATOM      6  C   UNL     1     -19.240  -1.623 -20.949  1.00  0.00     0.000 C 
BRANCH   6   7
ATOM      7  C   UNL     1     -19.790  -1.130 -22.297  1.00  0.00     0.006 C 
BRANCH   7   8
ATOM      8  C   UNL     1     -18.724  -1.124 -23.401  1.00  0.00     0.053 C 
BRANCH   8   9
ATOM      9  C   UNL     1     -18.187   0.258 -23.600  1.00  0.00     0.041 C 
ATOM     10  O   UNL     1     -16.958   0.488 -23.452  1.00  0.00    -0.550 OA
ATOM     11  O   UNL     1     -19.052   1.302 -23.902  1.00  0.00    -0.550 OA
ENDBRANCH   8   9
ENDBRANCH   7   8
ENDBRANCH   6   7
ENDBRANCH   5   6
ENDBRANCH   4   5
ENDBRANCH   3   4
ENDBRANCH   2   3
ENDBRANCH   1   2
BRANCH   1  12
ATOM     12  C   UNL     1     -15.243  -2.461 -17.023  1.00  0.00     0.000 C 
BRANCH  12  13
ATOM     13  C   UNL     1     -15.631  -1.737 -15.721  1.00  0.00    -0.000 C 
BRANCH  13  14
ATOM     14  C   UNL     1     -17.075  -1.212 -15.736  1.00  0.00    -0.000 C 
BRANCH  14  15
ATOM     15  C   UNL     1     -18.079  -2.368 -15.661  1.00  0.00    -0.000 C 
BRANCH  15  16
ATOM     16  C   UNL     1     -19.005  -2.375 -16.886  1.00  0.00    -0.000 C 
BRANCH  16  17
ATOM     17  C   UNL     1     -18.806  -3.611 -17.780  1.00  0.00    -0.000 C 
BRANCH  17  18
ATOM     18  C   UNL     1     -18.056  -4.765 -17.083  1.00  0.00    -0.000 C 
BRANCH  18  19
ATOM     19  C   UNL     1     -18.914  -6.034 -16.975  1.00  0.00    -0.003 C 
ATOM     20  C   UNL     1     -18.198  -7.118 -16.174  1.00  0.00     0.004 C 
ENDBRANCH  18  19
ENDBRANCH  17  18
ENDBRANCH  16  17
ENDBRANCH  15  16
ENDBRANCH  14  15
ENDBRANCH  13  14
ENDBRANCH  12  13
ENDBRANCH   1  12
TORSDOF 16
ENDMDL
MODEL 7
REMARK VINA RESULT:    -3.402     13.902     15.947
REMARK INTER + INTRA:         -10.041
REMARK INTER:                  -7.006
REMARK INTRA:                  -3.035
REMARK UNBOUND:                -3.457
REMARK SMILES CCCCCCCCCCCCCCCCCC(=O)[O-]
REMARK SMILES IDX 10 1 11 2 12 3 13 4 14 5 15 6 16 7 17 8 18 9 19 10 20 11
REMARK SMILES IDX 9 12 8 13 7 14 6 15 5 16 4 17 3 18 2 19 1 20
REMARK H PARENT
REMARK Flexibility Score: inf
ROOT
ATOM      1  C   UNL     1     -16.154  -1.704 -15.157  1.00  0.00     0.000 C 
ENDROOT
BRANCH   1   2
ATOM      2  C   UNL     1     -17.642  -1.319 -15.226  1.00  0.00     0.000 C 
BRANCH   2   3
ATOM      3  C   UNL     1     -17.985  -0.515 -16.490  1.00  0.00     0.000 C 
BRANCH   3   4
ATOM      4  C   UNL     1     -19.083  -1.188 -17.334  1.00  0.00     0.000 C 
BRANCH   4   5
ATOM      5  C   UNL     1     -19.456  -2.584 -16.811  1.00  0.00     0.000 C 
BRANCH   5   6
ATOM      6  C   UNL     1     -19.171  -3.694 -17.838  1.00  0.00     0.000 C 
BRANCH   6   7
ATOM      7  C   UNL     1     -18.519  -4.932 -17.203  1.00  0.00     0.006 C 
BRANCH   7   8
ATOM      8  C   UNL     1     -18.245  -4.750 -15.704  1.00  0.00     0.053 C 
BRANCH   8   9
ATOM      9  C   UNL     1     -17.145  -5.662 -15.260  1.00  0.00     0.041 C 
ATOM     10  O   UNL     1     -17.203  -6.894 -15.513  1.00  0.00    -0.550 OA
ATOM     11  O   UNL     1     -16.080  -5.158 -14.524  1.00  0.00    -0.550 OA
ENDBRANCH   8   9
ENDBRANCH   7   8
ENDBRANCH   6   7
ENDBRANCH   5   6
ENDBRANCH   4   5
ENDBRANCH   3   4
ENDBRANCH   2   3
ENDBRANCH   1   2
BRANCH   1  12
ATOM     12  C   UNL     1     -15.444  -1.592 -16.517  1.00  0.00     0.000 C 
BRANCH  12  13
ATOM     13  C   UNL     1     -15.354  -2.908 -17.311  1.00  0.00    -0.000 C 
BRANCH  13  14
ATOM     14  C   UNL     1     -15.818  -2.761 -18.768  1.00  0.00    -0.000 C 
BRANCH  14  15
ATOM     15  C   UNL     1     -15.470  -1.371 -19.316  1.00  0.00    -0.000 C 
BRANCH  15  16
ATOM     16  C   UNL     1     -16.668  -0.752 -20.050  1.00  0.00    -0.000 C 
BRANCH  16  17
ATOM     17  C   UNL     1     -17.573  -1.804 -20.713  1.00  0.00    -0.000 C 
BRANCH  17  18
ATOM     18  C   UNL     1     -18.773  -1.199 -21.471  1.00  0.00    -0.000 C 
BRANCH  18  19
ATOM     19  C   UNL     1     -18.580  -1.244 -22.994  1.00  0.00    -0.003 C 
ATOM     20  C   UNL     1     -17.732  -0.071 -23.477  1.00  0.00     0.004 C 
ENDBRANCH  18  19
ENDBRANCH  17  18
ENDBRANCH  16  17
ENDBRANCH  15  16
ENDBRANCH  14  15
ENDBRANCH  13  14
ENDBRANCH  12  13
ENDBRANCH   1  12
TORSDOF 16
ENDMDL
MODEL 8
REMARK VINA RESULT:    -3.353     14.627     17.184
REMARK INTER + INTRA:          -9.945
REMARK INTER:                  -7.052
REMARK INTRA:                  -2.893
REMARK UNBOUND:                -3.457
REMARK SMILES CCCCCCCCCCCCCCCCCC(=O)[O-]
REMARK SMILES IDX 10 1 11 2 12 3 13 4 14 5 15 6 16 7 17 8 18 9 19 10 20 11
REMARK SMILES IDX 9 12 8 13 7 14 6 15 5 16 4 17 3 18 2 19 1 20
REMARK H PARENT
REMARK Flexibility Score: inf
ROOT
ATOM      1  C   UNL     1     -16.240  -1.546 -15.427  1.00  0.00     0.000 C 
ENDROOT
BRANCH   1   2
ATOM      2  C   UNL     1     -16.072  -2.977 -15.964  1.00  0.00     0.000 C 
BRANCH   2   3
ATOM      3  C   UNL     1     -15.641  -3.007 -17.439  1.00  0.00     0.000 C 
BRANCH   3   4
ATOM      4  C   UNL     1     -15.251  -1.614 -17.966  1.00  0.00     0.000 C 
BRANCH   4   5
ATOM      5  C   UNL     1     -15.135  -1.575 -19.498  1.00  0.00     0.000 C 
BRANCH   5   6
ATOM      6  C   UNL     1     -16.436  -2.006 -20.198  1.00  0.00     0.000 C 
BRANCH   6   7
ATOM      7  C   UNL     1     -17.120  -0.845 -20.938  1.00  0.00     0.006 C 
BRANCH   7   8
ATOM      8  C   UNL     1     -18.395  -1.283 -21.671  1.00  0.00     0.053 C 
BRANCH   8   9
ATOM      9  C   UNL     1     -18.245  -1.080 -23.146  1.00  0.00     0.041 C 
ATOM     10  O   UNL     1     -18.634  -1.967 -23.950  1.00  0.00    -0.550 OA
ATOM     11  O   UNL     1     -17.630   0.068 -23.630  1.00  0.00    -0.550 OA
ENDBRANCH   8   9
ENDBRANCH   7   8
ENDBRANCH   6   7
ENDBRANCH   5   6
ENDBRANCH   4   5
ENDBRANCH   3   4
ENDBRANCH   2   3
ENDBRANCH   1   2
BRANCH   1  12
ATOM     12  C   UNL     1     -17.713  -1.151 -15.222  1.00  0.00     0.000 C 
BRANCH  12  13
ATOM     13  C   UNL     1     -18.240  -0.086 -16.201  1.00  0.00    -0.000 C 
BRANCH  13  14
ATOM     14  C   UNL     1     -18.733  -0.683 -17.527  1.00  0.00    -0.000 C 
BRANCH  14  15
ATOM     15  C   UNL     1     -19.690  -1.856 -17.278  1.00  0.00    -0.000 C 
BRANCH  15  16
ATOM     16  C   UNL     1     -19.254  -3.100 -18.065  1.00  0.00    -0.000 C 
BRANCH  16  17
ATOM     17  C   UNL     1     -19.250  -4.379 -17.211  1.00  0.00    -0.000 C 
BRANCH  17  18
ATOM     18  C   UNL     1     -19.700  -4.151 -15.752  1.00  0.00    -0.000 C 
BRANCH  18  19
ATOM     19  C   UNL     1     -19.467  -5.388 -14.873  1.00  0.00    -0.003 C 
ATOM     20  C   UNL     1     -17.999  -5.806 -14.886  1.00  0.00     0.004 C 
ENDBRANCH  18  19
ENDBRANCH  17  18
ENDBRANCH  16  17
ENDBRANCH  15  16
ENDBRANCH  14  15
ENDBRANCH  13  14
ENDBRANCH  12  13
ENDBRANCH   1  12
TORSDOF 16
ENDMDL
MODEL 9
REMARK VINA RESULT:    -3.306     16.302     18.677
REMARK INTER + INTRA:          -9.855
REMARK INTER:                  -7.545
REMARK INTRA:                  -2.310
REMARK UNBOUND:                -3.457
REMARK SMILES CCCCCCCCCCCCCCCCCC(=O)[O-]
REMARK SMILES IDX 10 1 11 2 12 3 13 4 14 5 15 6 16 7 17 8 18 9 19 10 20 11
REMARK SMILES IDX 9 12 8 13 7 14 6 15 5 16 4 17 3 18 2 19 1 20
REMARK H PARENT
REMARK Flexibility Score: inf
ROOT
ATOM      1  C   UNL     1     -17.743  -0.245 -20.636  1.00  0.00     0.000 C 
ENDROOT
BRANCH   1   2
ATOM      2  C   UNL     1     -17.315  -1.270 -21.700  1.00  0.00     0.000 C 
BRANCH   2   3
ATOM      3  C   UNL     1     -17.541  -0.761 -23.133  1.00  0.00     0.000 C 
BRANCH   3   4
ATOM      4  C   UNL     1     -18.669  -1.519 -23.855  1.00  0.00     0.000 C 
BRANCH   4   5
ATOM      5  C   UNL     1     -19.806  -0.590 -24.310  1.00  0.00     0.000 C 
BRANCH   5   6
ATOM      6  C   UNL     1     -20.118   0.508 -23.278  1.00  0.00     0.000 C 
BRANCH   6   7
ATOM      7  C   UNL     1     -19.962   1.923 -23.858  1.00  0.00     0.006 C 
BRANCH   7   8
ATOM      8  C   UNL     1     -19.052   2.813 -23.001  1.00  0.00     0.053 C 
BRANCH   8   9
ATOM      9  C   UNL     1     -18.543   3.967 -23.806  1.00  0.00     0.041 C 
ATOM     10  O   UNL     1     -19.170   5.059 -23.814  1.00  0.00    -0.550 OA
ATOM     11  O   UNL     1     -17.404   3.820 -24.587  1.00  0.00    -0.550 OA
ENDBRANCH   8   9
ENDBRANCH   7   8
ENDBRANCH   6   7
ENDBRANCH   5   6
ENDBRANCH   4   5
ENDBRANCH   3   4
ENDBRANCH   2   3
ENDBRANCH   1   2
BRANCH   1  12
ATOM     12  C   UNL     1     -18.921  -0.733 -19.773  1.00  0.00     0.000 C 
BRANCH  12  13
ATOM     13  C   UNL     1     -19.616  -2.007 -20.288  1.00  0.00    -0.000 C 
BRANCH  13  14
ATOM     14  C   UNL     1     -19.856  -3.045 -19.182  1.00  0.00    -0.000 C 
BRANCH  14  15
ATOM     15  C   UNL     1     -19.047  -2.704 -17.925  1.00  0.00    -0.000 C 
BRANCH  15  16
ATOM     16  C   UNL     1     -18.058  -3.827 -17.583  1.00  0.00    -0.000 C 
BRANCH  16  17
ATOM     17  C   UNL     1     -16.759  -3.309 -16.944  1.00  0.00    -0.000 C 
BRANCH  17  18
ATOM     18  C   UNL     1     -16.525  -1.798 -17.155  1.00  0.00    -0.000 C 
BRANCH  18  19
ATOM     19  C   UNL     1     -15.353  -1.520 -18.108  1.00  0.00    -0.003 C 
ATOM     20  C   UNL     1     -15.256  -2.593 -19.190  1.00  0.00     0.004 C 
ENDBRANCH  18  19
ENDBRANCH  17  18
ENDBRANCH  16  17
ENDBRANCH  15  16
ENDBRANCH  14  15
ENDBRANCH  13  14
ENDBRANCH  12  13
ENDBRANCH   1  12
TORSDOF 16
ENDMDL
