MODEL 1
REMARK VINA RESULT:    -5.682      0.000      0.000
REMARK INTER + INTRA:         -18.140
REMARK INTER:                 -14.319
REMARK INTRA:                  -3.821
REMARK UNBOUND:                -3.821
REMARK SMILES CCCCCCCCCCCCCCCCCCCCCCCCCCCC(=O)[O-]
REMARK SMILES IDX 15 1 16 2 17 3 18 4 19 5 20 6 21 7 22 8 23 9 24 10 25 11
REMARK SMILES IDX 26 12 27 13 28 14 29 15 30 16 14 17 13 18 12 19 11 20 10 21
REMARK SMILES IDX 9 22 8 23 7 24 6 25 5 26 4 27 3 28 2 29 1 30
REMARK H PARENT
REMARK Flexibility Score: inf
ROOT
ATOM      1  C   UNL     1       9.384 -12.652  29.542  1.00  0.00     0.000 C 
ENDROOT
BRANCH   1   2
ATOM      2  C   UNL     1      10.570 -13.612  29.327  1.00  0.00     0.000 C 
BRANCH   2   3
ATOM      3  C   UNL     1      11.642 -13.579  30.432  1.00  0.00     0.000 C 
BRANCH   3   4
ATOM      4  C   UNL     1      13.074 -13.677  29.884  1.00  0.00     0.000 C 
BRANCH   4   5
ATOM      5  C   UNL     1      13.091 -13.539  28.357  1.00  0.00     0.000 C 
BRANCH   5   6
ATOM      6  C   UNL     1      14.286 -14.291  27.753  1.00  0.00     0.000 C 
BRANCH   6   7
ATOM      7  C   UNL     1      15.618 -13.549  27.939  1.00  0.00     0.000 C 
BRANCH   7   8
ATOM      8  C   UNL     1      15.556 -12.089  27.459  1.00  0.00     0.000 C 
BRANCH   8   9
ATOM      9  C   UNL     1      16.951 -11.479  27.239  1.00  0.00     0.000 C 
BRANCH   9  10
ATOM     10  C   UNL     1      16.959  -9.956  27.447  1.00  0.00     0.000 C 
BRANCH  10  11
ATOM     11  C   UNL     1      17.896  -9.518  28.586  1.00  0.00     0.000 C 
BRANCH  11  12
ATOM     12  C   UNL     1      17.157  -8.839  29.760  1.00  0.00     0.006 C 
BRANCH  12  13
ATOM     13  C   UNL     1      16.317  -9.838  30.565  1.00  0.00     0.053 C 
BRANCH  13  14
ATOM     14  C   UNL     1      17.195 -10.877  31.185  1.00  0.00     0.041 C 
ATOM     15  O   UNL     1      18.026 -10.555  32.075  1.00  0.00    -0.550 OA
ATOM     16  O   UNL     1      17.053 -12.213  30.824  1.00  0.00    -0.550 OA
ENDBRANCH  13  14
ENDBRANCH  12  13
ENDBRANCH  11  12
ENDBRANCH  10  11
ENDBRANCH   9  10
ENDBRANCH   8   9
ENDBRANCH   7   8
ENDBRANCH   6   7
ENDBRANCH   5   6
ENDBRANCH   4   5
ENDBRANCH   3   4
ENDBRANCH   2   3
ENDBRANCH   1   2
BRANCH   1  17
ATOM     17  C   UNL     1       8.662 -12.290  28.232  1.00  0.00     0.000 C 
BRANCH  17  18
ATOM     18  C   UNL     1       9.575 -12.410  27.001  1.00  0.00     0.000 C 
BRANCH  18  19
ATOM     19  C   UNL     1       9.108 -11.524  25.836  1.00  0.00     0.000 C 
BRANCH  19  20
ATOM     20  C   UNL     1      10.122 -11.537  24.687  1.00  0.00     0.000 C 
BRANCH  20  21
ATOM     21  C   UNL     1      11.150 -12.660  24.879  1.00  0.00     0.000 C 
BRANCH  21  22
ATOM     22  C   UNL     1      12.572 -12.099  24.989  1.00  0.00    -0.000 C 
BRANCH  22  23
ATOM     23  C   UNL     1      13.640 -13.064  24.441  1.00  0.00    -0.000 C 
BRANCH  23  24
ATOM     24  C   UNL     1      14.918 -12.359  23.941  1.00  0.00    -0.000 C 
BRANCH  24  25
ATOM     25  C   UNL     1      16.088 -13.339  23.744  1.00  0.00    -0.000 C 
BRANCH  25  26
ATOM     26  C   UNL     1      15.718 -14.788  24.101  1.00  0.00    -0.000 C 
BRANCH  26  27
ATOM     27  C   UNL     1      16.744 -15.447  25.037  1.00  0.00    -0.000 C 
BRANCH  27  28
ATOM     28  C   UNL     1      18.163 -15.351  24.455  1.00  0.00    -0.000 C 
BRANCH  28  29
ATOM     29  C   UNL     1      18.901 -16.699  24.474  1.00  0.00    -0.003 C 
ATOM     30  C   UNL     1      19.054 -17.313  23.084  1.00  0.00     0.004 C 
ENDBRANCH  28  29
ENDBRANCH  27  28
ENDBRANCH  26  27
ENDBRANCH  25  26
ENDBRANCH  24  25
ENDBRANCH  23  24
ENDBRANCH  22  23
ENDBRANCH  21  22
ENDBRANCH  20  21
ENDBRANCH  19  20
ENDBRANCH  18  19
ENDBRANCH  17  18
ENDBRANCH   1  17
TORSDOF 26
ENDMDL
MODEL 2
REMARK VINA RESULT:    -5.658      3.124      5.292
REMARK INTER + INTRA:         -18.078
REMARK INTER:                 -14.306
REMARK INTRA:                  -3.773
REMARK UNBOUND:                -3.821
REMARK SMILES CCCCCCCCCCCCCCCCCCCCCCCCCCCC(=O)[O-]
REMARK SMILES IDX 15 1 16 2 17 3 18 4 19 5 20 6 21 7 22 8 23 9 24 10 25 11
REMARK SMILES IDX 26 12 27 13 28 14 29 15 30 16 14 17 13 18 12 19 11 20 10 21
REMARK SMILES IDX 9 22 8 23 7 24 6 25 5 26 4 27 3 28 2 29 1 30
REMARK H PARENT
REMARK Flexibility Score: inf
ROOT
ATOM      1  C   UNL     1      10.726 -13.411  29.078  1.00  0.00     0.000 C 
ENDROOT
BRANCH   1   2
ATOM      2  C   UNL     1      11.680 -13.776  30.232  1.00  0.00     0.000 C 
BRANCH   2   3
ATOM      3  C   UNL     1      13.178 -13.642  29.904  1.00  0.00     0.000 C 
BRANCH   3   4
ATOM      4  C   UNL     1      13.457 -13.546  28.396  1.00  0.00     0.000 C 
BRANCH   4   5
ATOM      5  C   UNL     1      14.963 -13.491  28.115  1.00  0.00     0.000 C 
BRANCH   5   6
ATOM      6  C   UNL     1      15.489 -12.053  28.231  1.00  0.00     0.000 C 
BRANCH   6   7
ATOM      7  C   UNL     1      16.991 -11.937  27.927  1.00  0.00     0.000 C 
BRANCH   7   8
ATOM      8  C   UNL     1      17.289 -10.964  26.773  1.00  0.00     0.000 C 
BRANCH   8   9
ATOM      9  C   UNL     1      18.412 -11.468  25.851  1.00  0.00     0.000 C 
BRANCH   9  10
ATOM     10  C   UNL     1      18.518 -13.002  25.847  1.00  0.00     0.000 C 
BRANCH  10  11
ATOM     11  C   UNL     1      18.300 -13.607  24.450  1.00  0.00     0.000 C 
BRANCH  11  12
ATOM     12  C   UNL     1      18.133 -15.143  24.467  1.00  0.00     0.006 C 
BRANCH  12  13
ATOM     13  C   UNL     1      17.490 -15.666  23.177  1.00  0.00     0.053 C 
BRANCH  13  14
ATOM     14  C   UNL     1      18.467 -16.498  22.408  1.00  0.00     0.041 C 
ATOM     15  O   UNL     1      18.697 -16.245  21.196  1.00  0.00    -0.550 OA
ATOM     16  O   UNL     1      19.170 -17.513  23.048  1.00  0.00    -0.550 OA
ENDBRANCH  13  14
ENDBRANCH  12  13
ENDBRANCH  11  12
ENDBRANCH  10  11
ENDBRANCH   9  10
ENDBRANCH   8   9
ENDBRANCH   7   8
ENDBRANCH   6   7
ENDBRANCH   5   6
ENDBRANCH   4   5
ENDBRANCH   3   4
ENDBRANCH   2   3
ENDBRANCH   1   2
BRANCH   1  17
ATOM     17  C   UNL     1       9.486 -12.631  29.550  1.00  0.00     0.000 C 
BRANCH  17  18
ATOM     18  C   UNL     1       8.580 -12.200  28.385  1.00  0.00     0.000 C 
BRANCH  18  19
ATOM     19  C   UNL     1       8.278 -13.355  27.418  1.00  0.00     0.000 C 
BRANCH  19  20
ATOM     20  C   UNL     1       8.639 -12.981  25.975  1.00  0.00     0.000 C 
BRANCH  20  21
ATOM     21  C   UNL     1       9.006 -11.495  25.872  1.00  0.00     0.000 C 
BRANCH  21  22
ATOM     22  C   UNL     1       9.431 -11.125  24.446  1.00  0.00    -0.000 C 
BRANCH  22  23
ATOM     23  C   UNL     1       9.517 -12.346  23.512  1.00  0.00    -0.000 C 
BRANCH  23  24
ATOM     24  C   UNL     1      10.938 -12.622  22.979  1.00  0.00    -0.000 C 
BRANCH  24  25
ATOM     25  C   UNL     1      11.698 -13.649  23.840  1.00  0.00    -0.000 C 
BRANCH  25  26
ATOM     26  C   UNL     1      12.382 -13.012  25.060  1.00  0.00    -0.000 C 
BRANCH  26  27
ATOM     27  C   UNL     1      13.248 -11.798  24.687  1.00  0.00    -0.000 C 
BRANCH  27  28
ATOM     28  C   UNL     1      14.736 -12.176  24.641  1.00  0.00    -0.000 C 
BRANCH  28  29
ATOM     29  C   UNL     1      15.379 -11.873  23.278  1.00  0.00    -0.003 C 
ATOM     30  C   UNL     1      14.351 -11.640  22.173  1.00  0.00     0.004 C 
ENDBRANCH  28  29
ENDBRANCH  27  28
ENDBRANCH  26  27
ENDBRANCH  25  26
ENDBRANCH  24  25
ENDBRANCH  23  24
ENDBRANCH  22  23
ENDBRANCH  21  22
ENDBRANCH  20  21
ENDBRANCH  19  20
ENDBRANCH  18  19
ENDBRANCH  17  18
ENDBRANCH   1  17
TORSDOF 26
ENDMDL
MODEL 3
REMARK VINA RESULT:    -5.625      2.628      6.833
REMARK INTER + INTRA:         -17.995
REMARK INTER:                 -12.506
REMARK INTRA:                  -5.489
REMARK UNBOUND:                -3.821
REMARK SMILES CCCCCCCCCCCCCCCCCCCCCCCCCCCC(=O)[O-]
REMARK SMILES IDX 15 1 16 2 17 3 18 4 19 5 20 6 21 7 22 8 23 9 24 10 25 11
REMARK SMILES IDX 26 12 27 13 28 14 29 15 30 16 14 17 13 18 12 19 11 20 10 21
REMARK SMILES IDX 9 22 8 23 7 24 6 25 5 26 4 27 3 28 2 29 1 30
REMARK H PARENT
REMARK Flexibility Score: inf
ROOT
ATOM      1  C   UNL     1      18.394 -16.443  24.634  1.00  0.00     0.000 C 
ENDROOT
BRANCH   1   2
ATOM      2  C   UNL     1      18.223 -14.962  24.246  1.00  0.00     0.000 C 
BRANCH   2   3
ATOM      3  C   UNL     1      16.850 -14.354  24.587  1.00  0.00     0.000 C 
BRANCH   3   4
ATOM      4  C   UNL     1      15.675 -15.260  24.185  1.00  0.00     0.000 C 
BRANCH   4   5
ATOM      5  C   UNL     1      14.693 -15.439  25.349  1.00  0.00     0.000 C 
BRANCH   5   6
ATOM      6  C   UNL     1      15.211 -14.742  26.615  1.00  0.00     0.000 C 
BRANCH   6   7
ATOM      7  C   UNL     1      14.165 -13.826  27.267  1.00  0.00     0.000 C 
BRANCH   7   8
ATOM      8  C   UNL     1      14.732 -13.028  28.454  1.00  0.00     0.000 C 
BRANCH   8   9
ATOM      9  C   UNL     1      16.245 -13.234  28.635  1.00  0.00     0.000 C 
BRANCH   9  10
ATOM     10  C   UNL     1      17.007 -11.901  28.718  1.00  0.00     0.000 C 
BRANCH  10  11
ATOM     11  C   UNL     1      16.468 -10.849  27.735  1.00  0.00     0.000 C 
BRANCH  11  12
ATOM     12  C   UNL     1      17.027 -11.004  26.303  1.00  0.00     0.006 C 
BRANCH  12  13
ATOM     13  C   UNL     1      18.453 -11.567  26.301  1.00  0.00     0.053 C 
BRANCH  13  14
ATOM     14  C   UNL     1      19.450 -10.463  26.457  1.00  0.00     0.041 C 
ATOM     15  O   UNL     1      20.617 -10.716  26.857  1.00  0.00    -0.550 OA
ATOM     16  O   UNL     1      19.108  -9.163  26.101  1.00  0.00    -0.550 OA
ENDBRANCH  13  14
ENDBRANCH  12  13
ENDBRANCH  11  12
ENDBRANCH  10  11
ENDBRANCH   9  10
ENDBRANCH   8   9
ENDBRANCH   7   8
ENDBRANCH   6   7
ENDBRANCH   5   6
ENDBRANCH   4   5
ENDBRANCH   3   4
ENDBRANCH   2   3
ENDBRANCH   1   2
BRANCH   1  17
ATOM     17  C   UNL     1      19.263 -17.227  23.635  1.00  0.00     0.000 C 
BRANCH  17  18
ATOM     18  C   UNL     1      19.286 -16.585  22.239  1.00  0.00     0.000 C 
BRANCH  18  19
ATOM     19  C   UNL     1      18.801 -17.546  21.143  1.00  0.00     0.000 C 
BRANCH  19  20
ATOM     20  C   UNL     1      17.859 -16.839  20.161  1.00  0.00     0.000 C 
BRANCH  20  21
ATOM     21  C   UNL     1      16.538 -16.465  20.845  1.00  0.00     0.000 C 
BRANCH  21  22
ATOM     22  C   UNL     1      16.126 -15.027  20.510  1.00  0.00    -0.000 C 
BRANCH  22  23
ATOM     23  C   UNL     1      17.253 -14.008  20.760  1.00  0.00    -0.000 C 
BRANCH  23  24
ATOM     24  C   UNL     1      16.751 -12.567  20.984  1.00  0.00    -0.000 C 
BRANCH  24  25
ATOM     25  C   UNL     1      15.345 -12.528  21.609  1.00  0.00    -0.000 C 
BRANCH  25  26
ATOM     26  C   UNL     1      15.243 -11.539  22.782  1.00  0.00    -0.000 C 
BRANCH  26  27
ATOM     27  C   UNL     1      14.129 -11.911  23.774  1.00  0.00    -0.000 C 
BRANCH  27  28
ATOM     28  C   UNL     1      13.081 -12.818  23.112  1.00  0.00    -0.000 C 
BRANCH  28  29
ATOM     29  C   UNL     1      12.025 -13.324  24.107  1.00  0.00    -0.003 C 
ATOM     30  C   UNL     1      11.467 -12.214  24.997  1.00  0.00     0.004 C 
ENDBRANCH  28  29
ENDBRANCH  27  28
ENDBRANCH  26  27
ENDBRANCH  25  26
ENDBRANCH  24  25
ENDBRANCH  23  24
ENDBRANCH  22  23
ENDBRANCH  21  22
ENDBRANCH  20  21
ENDBRANCH  19  20
ENDBRANCH  18  19
ENDBRANCH  17  18
ENDBRANCH   1  17
TORSDOF 26
ENDMDL
MODEL 4
REMARK VINA RESULT:    -5.599      3.073      4.474
REMARK INTER + INTRA:         -17.929
REMARK INTER:                 -14.555
REMARK INTRA:                  -3.374
REMARK UNBOUND:                -3.821
REMARK SMILES CCCCCCCCCCCCCCCCCCCCCCCCCCCC(=O)[O-]
REMARK SMILES IDX 15 1 16 2 17 3 18 4 19 5 20 6 21 7 22 8 23 9 24 10 25 11
REMARK SMILES IDX 26 12 27 13 28 14 29 15 30 16 14 17 13 18 12 19 11 20 10 21
REMARK SMILES IDX 9 22 8 23 7 24 6 25 5 26 4 27 3 28 2 29 1 30
REMARK H PARENT
REMARK Flexibility Score: inf
ROOT
ATOM      1  C   UNL     1      10.803 -13.379  29.024  1.00  0.00     0.000 C 
ENDROOT
BRANCH   1   2
ATOM      2  C   UNL     1      11.781 -13.378  30.214  1.00  0.00     0.000 C 
BRANCH   2   3
ATOM      3  C   UNL     1      13.245 -13.693  29.854  1.00  0.00     0.000 C 
BRANCH   3   4
ATOM      4  C   UNL     1      13.474 -13.833  28.342  1.00  0.00     0.000 C 
BRANCH   4   5
ATOM      5  C   UNL     1      14.745 -13.095  27.905  1.00  0.00     0.000 C 
BRANCH   5   6
ATOM      6  C   UNL     1      15.387 -12.361  29.092  1.00  0.00     0.000 C 
BRANCH   6   7
ATOM      7  C   UNL     1      16.769 -11.777  28.761  1.00  0.00     0.000 C 
BRANCH   7   8
ATOM      8  C   UNL     1      16.690 -10.567  27.814  1.00  0.00     0.000 C 
BRANCH   8   9
ATOM      9  C   UNL     1      17.886 -10.491  26.850  1.00  0.00     0.000 C 
BRANCH   9  10
ATOM     10  C   UNL     1      19.112 -11.252  27.384  1.00  0.00     0.000 C 
BRANCH  10  11
ATOM     11  C   UNL     1      20.250 -11.336  26.354  1.00  0.00     0.000 C 
BRANCH  11  12
ATOM     12  C   UNL     1      21.635 -11.594  26.990  1.00  0.00     0.006 C 
BRANCH  12  13
ATOM     13  C   UNL     1      22.362 -12.771  26.329  1.00  0.00     0.053 C 
BRANCH  13  14
ATOM     14  C   UNL     1      22.899 -12.367  24.993  1.00  0.00     0.041 C 
ATOM     15  O   UNL     1      22.419 -12.866  23.940  1.00  0.00    -0.550 OA
ATOM     16  O   UNL     1      23.887 -11.392  24.907  1.00  0.00    -0.550 OA
ENDBRANCH  13  14
ENDBRANCH  12  13
ENDBRANCH  11  12
ENDBRANCH  10  11
ENDBRANCH   9  10
ENDBRANCH   8   9
ENDBRANCH   7   8
ENDBRANCH   6   7
ENDBRANCH   5   6
ENDBRANCH   4   5
ENDBRANCH   3   4
ENDBRANCH   2   3
ENDBRANCH   1   2
BRANCH   1  17
ATOM     17  C   UNL     1       9.447 -12.735  29.362  1.00  0.00     0.000 C 
BRANCH  17  18
ATOM     18  C   UNL     1       8.704 -12.231  28.114  1.00  0.00     0.000 C 
BRANCH  18  19
ATOM     19  C   UNL     1       8.352 -13.368  27.142  1.00  0.00     0.000 C 
BRANCH  19  20
ATOM     20  C   UNL     1       8.446 -12.902  25.685  1.00  0.00     0.000 C 
BRANCH  20  21
ATOM     21  C   UNL     1       8.734 -11.397  25.611  1.00  0.00     0.000 C 
BRANCH  21  22
ATOM     22  C   UNL     1       9.459 -11.033  24.310  1.00  0.00    -0.000 C 
BRANCH  22  23
ATOM     23  C   UNL     1       9.549 -12.213  23.325  1.00  0.00    -0.000 C 
BRANCH  23  24
ATOM     24  C   UNL     1      10.993 -12.590  22.936  1.00  0.00    -0.000 C 
BRANCH  24  25
ATOM     25  C   UNL     1      11.658 -13.511  23.974  1.00  0.00    -0.000 C 
BRANCH  25  26
ATOM     26  C   UNL     1      12.304 -12.734  25.133  1.00  0.00    -0.000 C 
BRANCH  26  27
ATOM     27  C   UNL     1      13.450 -11.821  24.667  1.00  0.00    -0.000 C 
BRANCH  27  28
ATOM     28  C   UNL     1      14.538 -12.629  23.943  1.00  0.00    -0.000 C 
BRANCH  28  29
ATOM     29  C   UNL     1      15.957 -12.192  24.338  1.00  0.00    -0.003 C 
ATOM     30  C   UNL     1      16.817 -13.350  24.842  1.00  0.00     0.004 C 
ENDBRANCH  28  29
ENDBRANCH  27  28
ENDBRANCH  26  27
ENDBRANCH  25  26
ENDBRANCH  24  25
ENDBRANCH  23  24
ENDBRANCH  22  23
ENDBRANCH  21  22
ENDBRANCH  20  21
ENDBRANCH  19  20
ENDBRANCH  18  19
ENDBRANCH  17  18
ENDBRANCH   1  17
TORSDOF 26
ENDMDL
MODEL 5
REMARK VINA RESULT:    -5.568      2.637      6.440
REMARK INTER + INTRA:         -17.853
REMARK INTER:                 -14.536
REMARK INTRA:                  -3.318
REMARK UNBOUND:                -3.821
REMARK SMILES CCCCCCCCCCCCCCCCCCCCCCCCCCCC(=O)[O-]
REMARK SMILES IDX 15 1 16 2 17 3 18 4 19 5 20 6 21 7 22 8 23 9 24 10 25 11
REMARK SMILES IDX 26 12 27 13 28 14 29 15 30 16 14 17 13 18 12 19 11 20 10 21
REMARK SMILES IDX 9 22 8 23 7 24 6 25 5 26 4 27 3 28 2 29 1 30
REMARK H PARENT
REMARK Flexibility Score: inf
ROOT
ATOM      1  C   UNL     1      12.221 -13.667  29.358  1.00  0.00     0.000 C 
ENDROOT
BRANCH   1   2
ATOM      2  C   UNL     1      10.966 -13.372  28.514  1.00  0.00     0.000 C 
BRANCH   2   3
ATOM      3  C   UNL     1       9.780 -12.779  29.296  1.00  0.00     0.000 C 
BRANCH   3   4
ATOM      4  C   UNL     1       8.655 -12.268  28.384  1.00  0.00     0.000 C 
BRANCH   4   5
ATOM      5  C   UNL     1       8.183 -13.364  27.421  1.00  0.00     0.000 C 
BRANCH   5   6
ATOM      6  C   UNL     1       8.419 -12.949  25.961  1.00  0.00     0.000 C 
BRANCH   6   7
ATOM      7  C   UNL     1       9.007 -11.536  25.827  1.00  0.00     0.000 C 
BRANCH   7   8
ATOM      8  C   UNL     1      10.329 -11.517  25.040  1.00  0.00     0.000 C 
BRANCH   8   9
ATOM      9  C   UNL     1      10.669 -12.883  24.421  1.00  0.00     0.000 C 
BRANCH   9  10
ATOM     10  C   UNL     1      12.181 -13.160  24.418  1.00  0.00     0.000 C 
BRANCH  10  11
ATOM     11  C   UNL     1      13.016 -11.886  24.629  1.00  0.00     0.000 C 
BRANCH  11  12
ATOM     12  C   UNL     1      14.239 -12.101  25.549  1.00  0.00     0.006 C 
BRANCH  12  13
ATOM     13  C   UNL     1      15.558 -11.777  24.838  1.00  0.00     0.053 C 
BRANCH  13  14
ATOM     14  C   UNL     1      16.344 -13.028  24.604  1.00  0.00     0.041 C 
ATOM     15  O   UNL     1      17.477 -12.971  24.056  1.00  0.00    -0.550 OA
ATOM     16  O   UNL     1      15.852 -14.252  25.047  1.00  0.00    -0.550 OA
ENDBRANCH  13  14
ENDBRANCH  12  13
ENDBRANCH  11  12
ENDBRANCH  10  11
ENDBRANCH   9  10
ENDBRANCH   8   9
ENDBRANCH   7   8
ENDBRANCH   6   7
ENDBRANCH   5   6
ENDBRANCH   4   5
ENDBRANCH   3   4
ENDBRANCH   2   3
ENDBRANCH   1   2
BRANCH   1  17
ATOM     17  C   UNL     1      13.499 -13.788  28.510  1.00  0.00     0.000 C 
BRANCH  17  18
ATOM     18  C   UNL     1      14.675 -12.988  29.093  1.00  0.00     0.000 C 
BRANCH  18  19
ATOM     19  C   UNL     1      16.012 -13.336  28.422  1.00  0.00     0.000 C 
BRANCH  19  20
ATOM     20  C   UNL     1      17.089 -12.298  28.757  1.00  0.00     0.000 C 
BRANCH  20  21
ATOM     21  C   UNL     1      16.502 -11.154  29.593  1.00  0.00     0.000 C 
BRANCH  21  22
ATOM     22  C   UNL     1      17.607 -10.353  30.293  1.00  0.00    -0.000 C 
BRANCH  22  23
ATOM     23  C   UNL     1      18.802 -11.227  30.716  1.00  0.00    -0.000 C 
BRANCH  23  24
ATOM     24  C   UNL     1      20.155 -10.745  30.153  1.00  0.00    -0.000 C 
BRANCH  24  25
ATOM     25  C   UNL     1      19.999  -9.542  29.204  1.00  0.00    -0.000 C 
BRANCH  25  26
ATOM     26  C   UNL     1      20.887  -9.652  27.954  1.00  0.00    -0.000 C 
BRANCH  26  27
ATOM     27  C   UNL     1      21.169 -11.110  27.555  1.00  0.00    -0.000 C 
BRANCH  27  28
ATOM     28  C   UNL     1      20.354 -11.510  26.315  1.00  0.00    -0.000 C 
BRANCH  28  29
ATOM     29  C   UNL     1      21.088 -12.530  25.431  1.00  0.00    -0.003 C 
ATOM     30  C   UNL     1      22.524 -12.787  25.885  1.00  0.00     0.004 C 
ENDBRANCH  28  29
ENDBRANCH  27  28
ENDBRANCH  26  27
ENDBRANCH  25  26
ENDBRANCH  24  25
ENDBRANCH  23  24
ENDBRANCH  22  23
ENDBRANCH  21  22
ENDBRANCH  20  21
ENDBRANCH  19  20
ENDBRANCH  18  19
ENDBRANCH  17  18
ENDBRANCH   1  17
TORSDOF 26
ENDMDL
MODEL 6
REMARK VINA RESULT:    -5.557      1.610      6.313
REMARK INTER + INTRA:         -17.824
REMARK INTER:                 -13.752
REMARK INTRA:                  -4.072
REMARK UNBOUND:                -3.821
REMARK SMILES CCCCCCCCCCCCCCCCCCCCCCCCCCCC(=O)[O-]
REMARK SMILES IDX 15 1 16 2 17 3 18 4 19 5 20 6 21 7 22 8 23 9 24 10 25 11
REMARK SMILES IDX 26 12 27 13 28 14 29 15 30 16 14 17 13 18 12 19 11 20 10 21
REMARK SMILES IDX 9 22 8 23 7 24 6 25 5 26 4 27 3 28 2 29 1 30
REMARK H PARENT
REMARK Flexibility Score: inf
ROOT
ATOM      1  C   UNL     1      14.391 -15.188  25.369  1.00  0.00     0.000 C 
ENDROOT
BRANCH   1   2
ATOM      2  C   UNL     1      15.690 -15.048  24.552  1.00  0.00     0.000 C 
BRANCH   2   3
ATOM      3  C   UNL     1      16.989 -15.169  25.371  1.00  0.00     0.000 C 
BRANCH   3   4
ATOM      4  C   UNL     1      18.014 -16.120  24.733  1.00  0.00     0.000 C 
BRANCH   4   5
ATOM      5  C   UNL     1      18.161 -15.847  23.232  1.00  0.00     0.000 C 
BRANCH   5   6
ATOM      6  C   UNL     1      19.486 -15.130  22.933  1.00  0.00     0.000 C 
BRANCH   6   7
ATOM      7  C   UNL     1      19.327 -13.961  21.950  1.00  0.00     0.000 C 
BRANCH   7   8
ATOM      8  C   UNL     1      18.557 -12.775  22.557  1.00  0.00     0.000 C 
BRANCH   8   9
ATOM      9  C   UNL     1      19.172 -12.286  23.879  1.00  0.00     0.000 C 
BRANCH   9  10
ATOM     10  C   UNL     1      18.378 -11.121  24.493  1.00  0.00     0.000 C 
BRANCH  10  11
ATOM     11  C   UNL     1      16.871 -11.414  24.583  1.00  0.00     0.000 C 
BRANCH  11  12
ATOM     12  C   UNL     1      16.347 -11.490  26.035  1.00  0.00     0.006 C 
BRANCH  12  13
ATOM     13  C   UNL     1      17.473 -11.762  27.039  1.00  0.00     0.053 C 
BRANCH  13  14
ATOM     14  C   UNL     1      17.086 -11.277  28.400  1.00  0.00     0.041 C 
ATOM     15  O   UNL     1      16.986 -12.090  29.357  1.00  0.00    -0.550 OA
ATOM     16  O   UNL     1      16.896  -9.917  28.626  1.00  0.00    -0.550 OA
ENDBRANCH  13  14
ENDBRANCH  12  13
ENDBRANCH  11  12
ENDBRANCH  10  11
ENDBRANCH   9  10
ENDBRANCH   8   9
ENDBRANCH   7   8
ENDBRANCH   6   7
ENDBRANCH   5   6
ENDBRANCH   4   5
ENDBRANCH   3   4
ENDBRANCH   2   3
ENDBRANCH   1   2
BRANCH   1  17
ATOM     17  C   UNL     1      14.637 -15.213  26.887  1.00  0.00     0.000 C 
BRANCH  17  18
ATOM     18  C   UNL     1      14.434 -13.838  27.542  1.00  0.00     0.000 C 
BRANCH  18  19
ATOM     19  C   UNL     1      13.049 -13.696  28.192  1.00  0.00     0.000 C 
BRANCH  19  20
ATOM     20  C   UNL     1      13.155 -13.633  29.720  1.00  0.00     0.000 C 
BRANCH  20  21
ATOM     21  C   UNL     1      11.765 -13.509  30.358  1.00  0.00     0.000 C 
BRANCH  21  22
ATOM     22  C   UNL     1      10.657 -13.656  29.309  1.00  0.00    -0.000 C 
BRANCH  22  23
ATOM     23  C   UNL     1       9.436 -12.765  29.601  1.00  0.00    -0.000 C 
BRANCH  23  24
ATOM     24  C   UNL     1       8.790 -12.162  28.337  1.00  0.00    -0.000 C 
BRANCH  24  25
ATOM     25  C   UNL     1       8.270 -13.243  27.372  1.00  0.00    -0.000 C 
BRANCH  25  26
ATOM     26  C   UNL     1       8.667 -12.976  25.911  1.00  0.00    -0.000 C 
BRANCH  26  27
ATOM     27  C   UNL     1       9.848 -11.999  25.787  1.00  0.00    -0.000 C 
BRANCH  27  28
ATOM     28  C   UNL     1      10.853 -12.481  24.730  1.00  0.00    -0.000 C 
BRANCH  28  29
ATOM     29  C   UNL     1      12.275 -11.959  24.988  1.00  0.00    -0.003 C 
ATOM     30  C   UNL     1      13.237 -12.260  23.840  1.00  0.00     0.004 C 
ENDBRANCH  28  29
ENDBRANCH  27  28
ENDBRANCH  26  27
ENDBRANCH  25  26
ENDBRANCH  24  25
ENDBRANCH  23  24
ENDBRANCH  22  23
ENDBRANCH  21  22
ENDBRANCH  20  21
ENDBRANCH  19  20
ENDBRANCH  18  19
ENDBRANCH  17  18
ENDBRANCH   1  17
TORSDOF 26
ENDMDL
MODEL 7
REMARK VINA RESULT:    -5.553      3.643      7.956
REMARK INTER + INTRA:         -17.814
REMARK INTER:                 -12.506
REMARK INTRA:                  -5.309
REMARK UNBOUND:                -3.821
REMARK SMILES CCCCCCCCCCCCCCCCCCCCCCCCCCCC(=O)[O-]
REMARK SMILES IDX 15 1 16 2 17 3 18 4 19 5 20 6 21 7 22 8 23 9 24 10 25 11
REMARK SMILES IDX 26 12 27 13 28 14 29 15 30 16 14 17 13 18 12 19 11 20 10 21
REMARK SMILES IDX 9 22 8 23 7 24 6 25 5 26 4 27 3 28 2 29 1 30
REMARK H PARENT
REMARK Flexibility Score: inf
ROOT
ATOM      1  C   UNL     1      19.584 -17.047  22.133  1.00  0.00     0.000 C 
ENDROOT
BRANCH   1   2
ATOM      2  C   UNL     1      18.668 -17.857  21.195  1.00  0.00     0.000 C 
BRANCH   2   3
ATOM      3  C   UNL     1      17.834 -17.015  20.213  1.00  0.00     0.000 C 
BRANCH   3   4
ATOM      4  C   UNL     1      16.778 -16.146  20.913  1.00  0.00     0.000 C 
BRANCH   4   5
ATOM      5  C   UNL     1      16.866 -14.688  20.448  1.00  0.00     0.000 C 
BRANCH   5   6
ATOM      6  C   UNL     1      17.892 -13.907  21.283  1.00  0.00     0.000 C 
BRANCH   6   7
ATOM      7  C   UNL     1      19.194 -13.622  20.520  1.00  0.00     0.000 C 
BRANCH   7   8
ATOM      8  C   UNL     1      20.399 -13.423  21.456  1.00  0.00     0.000 C 
BRANCH   8   9
ATOM      9  C   UNL     1      20.881 -11.963  21.496  1.00  0.00     0.000 C 
BRANCH   9  10
ATOM     10  C   UNL     1      21.774 -11.679  22.716  1.00  0.00     0.000 C 
BRANCH  10  11
ATOM     11  C   UNL     1      21.772 -12.833  23.732  1.00  0.00     0.000 C 
BRANCH  11  12
ATOM     12  C   UNL     1      22.671 -12.569  24.961  1.00  0.00     0.006 C 
BRANCH  12  13
ATOM     13  C   UNL     1      21.849 -12.334  26.234  1.00  0.00     0.053 C 
BRANCH  13  14
ATOM     14  C   UNL     1      22.625 -11.505  27.208  1.00  0.00     0.041 C 
ATOM     15  O   UNL     1      22.321 -11.516  28.431  1.00  0.00    -0.550 OA
ATOM     16  O   UNL     1      23.722 -10.768  26.775  1.00  0.00    -0.550 OA
ENDBRANCH  13  14
ENDBRANCH  12  13
ENDBRANCH  11  12
ENDBRANCH  10  11
ENDBRANCH   9  10
ENDBRANCH   8   9
ENDBRANCH   7   8
ENDBRANCH   6   7
ENDBRANCH   5   6
ENDBRANCH   4   5
ENDBRANCH   3   4
ENDBRANCH   2   3
ENDBRANCH   1   2
BRANCH   1  17
ATOM     17  C   UNL     1      19.007 -16.896  23.551  1.00  0.00     0.000 C 
BRANCH  17  18
ATOM     18  C   UNL     1      19.465 -15.601  24.241  1.00  0.00     0.000 C 
BRANCH  18  19
ATOM     19  C   UNL     1      18.285 -14.754  24.740  1.00  0.00     0.000 C 
BRANCH  19  20
ATOM     20  C   UNL     1      17.052 -15.623  25.014  1.00  0.00     0.000 C 
BRANCH  20  21
ATOM     21  C   UNL     1      15.848 -15.135  24.199  1.00  0.00     0.000 C 
BRANCH  21  22
ATOM     22  C   UNL     1      14.661 -14.796  25.109  1.00  0.00    -0.000 C 
BRANCH  22  23
ATOM     23  C   UNL     1      14.878 -15.244  26.566  1.00  0.00    -0.000 C 
BRANCH  23  24
ATOM     24  C   UNL     1      14.841 -14.086  27.584  1.00  0.00    -0.000 C 
BRANCH  24  25
ATOM     25  C   UNL     1      16.230 -13.464  27.814  1.00  0.00    -0.000 C 
BRANCH  25  26
ATOM     26  C   UNL     1      16.217 -11.929  27.725  1.00  0.00    -0.000 C 
BRANCH  26  27
ATOM     27  C   UNL     1      16.973 -11.401  26.495  1.00  0.00    -0.000 C 
BRANCH  27  28
ATOM     28  C   UNL     1      16.104 -11.498  25.231  1.00  0.00    -0.000 C 
BRANCH  28  29
ATOM     29  C   UNL     1      16.938 -11.477  23.940  1.00  0.00    -0.003 C 
ATOM     30  C   UNL     1      18.383 -11.040  24.172  1.00  0.00     0.004 C 
ENDBRANCH  28  29
ENDBRANCH  27  28
ENDBRANCH  26  27
ENDBRANCH  25  26
ENDBRANCH  24  25
ENDBRANCH  23  24
ENDBRANCH  22  23
ENDBRANCH  21  22
ENDBRANCH  20  21
ENDBRANCH  19  20
ENDBRANCH  18  19
ENDBRANCH  17  18
ENDBRANCH   1  17
TORSDOF 26
ENDMDL
MODEL 8
REMARK VINA RESULT:    -5.473      2.770      7.472
REMARK INTER + INTRA:         -17.614
REMARK INTER:                 -13.316
REMARK INTRA:                  -4.297
REMARK UNBOUND:                -3.821
REMARK SMILES CCCCCCCCCCCCCCCCCCCCCCCCCCCC(=O)[O-]
REMARK SMILES IDX 15 1 16 2 17 3 18 4 19 5 20 6 21 7 22 8 23 9 24 10 25 11
REMARK SMILES IDX 26 12 27 13 28 14 29 15 30 16 14 17 13 18 12 19 11 20 10 21
REMARK SMILES IDX 9 22 8 23 7 24 6 25 5 26 4 27 3 28 2 29 1 30
REMARK H PARENT
REMARK Flexibility Score: inf
ROOT
ATOM      1  C   UNL     1      19.159 -16.638  21.853  1.00  0.00     0.000 C 
ENDROOT
BRANCH   1   2
ATOM      2  C   UNL     1      19.125 -16.900  23.371  1.00  0.00     0.000 C 
BRANCH   2   3
ATOM      3  C   UNL     1      18.888 -15.652  24.241  1.00  0.00     0.000 C 
BRANCH   3   4
ATOM      4  C   UNL     1      17.579 -15.718  25.042  1.00  0.00     0.000 C 
BRANCH   4   5
ATOM      5  C   UNL     1      16.459 -14.944  24.335  1.00  0.00     0.000 C 
BRANCH   5   6
ATOM      6  C   UNL     1      15.090 -15.287  24.940  1.00  0.00     0.000 C 
BRANCH   6   7
ATOM      7  C   UNL     1      15.096 -15.286  26.477  1.00  0.00     0.000 C 
BRANCH   7   8
ATOM      8  C   UNL     1      14.215 -14.175  27.073  1.00  0.00     0.000 C 
BRANCH   8   9
ATOM      9  C   UNL     1      14.971 -13.301  28.088  1.00  0.00     0.000 C 
BRANCH   9  10
ATOM     10  C   UNL     1      16.491 -13.526  28.030  1.00  0.00     0.000 C 
BRANCH  10  11
ATOM     11  C   UNL     1      17.268 -12.240  27.703  1.00  0.00     0.000 C 
BRANCH  11  12
ATOM     12  C   UNL     1      17.839 -12.218  26.267  1.00  0.00     0.006 C 
BRANCH  12  13
ATOM     13  C   UNL     1      17.067 -11.256  25.356  1.00  0.00     0.053 C 
BRANCH  13  14
ATOM     14  C   UNL     1      17.877 -10.028  25.089  1.00  0.00     0.041 C 
ATOM     15  O   UNL     1      18.655  -9.985  24.100  1.00  0.00    -0.550 OA
ATOM     16  O   UNL     1      17.726  -8.906  25.898  1.00  0.00    -0.550 OA
ENDBRANCH  13  14
ENDBRANCH  12  13
ENDBRANCH  11  12
ENDBRANCH  10  11
ENDBRANCH   9  10
ENDBRANCH   8   9
ENDBRANCH   7   8
ENDBRANCH   6   7
ENDBRANCH   5   6
ENDBRANCH   4   5
ENDBRANCH   3   4
ENDBRANCH   2   3
ENDBRANCH   1   2
BRANCH   1  17
ATOM     17  C   UNL     1      18.602 -17.813  21.030  1.00  0.00     0.000 C 
BRANCH  17  18
ATOM     18  C   UNL     1      17.248 -17.489  20.379  1.00  0.00     0.000 C 
BRANCH  18  19
ATOM     19  C   UNL     1      17.359 -16.396  19.305  1.00  0.00     0.000 C 
BRANCH  19  20
ATOM     20  C   UNL     1      16.110 -15.506  19.287  1.00  0.00     0.000 C 
BRANCH  20  21
ATOM     21  C   UNL     1      15.860 -14.889  20.669  1.00  0.00     0.000 C 
BRANCH  21  22
ATOM     22  C   UNL     1      16.322 -13.427  20.716  1.00  0.00    -0.000 C 
BRANCH  22  23
ATOM     23  C   UNL     1      15.601 -12.607  21.802  1.00  0.00    -0.000 C 
BRANCH  23  24
ATOM     24  C   UNL     1      14.070 -12.550  21.623  1.00  0.00    -0.000 C 
BRANCH  24  25
ATOM     25  C   UNL     1      13.315 -12.942  22.906  1.00  0.00    -0.000 C 
BRANCH  25  26
ATOM     26  C   UNL     1      13.510 -11.928  24.045  1.00  0.00    -0.000 C 
BRANCH  26  27
ATOM     27  C   UNL     1      12.370 -11.968  25.075  1.00  0.00    -0.000 C 
BRANCH  27  28
ATOM     28  C   UNL     1      11.180 -12.786  24.549  1.00  0.00    -0.000 C 
BRANCH  28  29
ATOM     29  C   UNL     1      10.013 -11.899  24.087  1.00  0.00    -0.003 C 
ATOM     30  C   UNL     1       9.084 -11.496  25.230  1.00  0.00     0.004 C 
ENDBRANCH  28  29
ENDBRANCH  27  28
ENDBRANCH  26  27
ENDBRANCH  25  26
ENDBRANCH  24  25
ENDBRANCH  23  24
ENDBRANCH  22  23
ENDBRANCH  21  22
ENDBRANCH  20  21
ENDBRANCH  19  20
ENDBRANCH  18  19
ENDBRANCH  17  18
ENDBRANCH   1  17
TORSDOF 26
ENDMDL
MODEL 9
REMARK VINA RESULT:    -5.445      3.290      8.306
REMARK INTER + INTRA:         -17.541
REMARK INTER:                 -13.388
REMARK INTRA:                  -4.154
REMARK UNBOUND:                -3.821
REMARK SMILES CCCCCCCCCCCCCCCCCCCCCCCCCCCC(=O)[O-]
REMARK SMILES IDX 15 1 16 2 17 3 18 4 19 5 20 6 21 7 22 8 23 9 24 10 25 11
REMARK SMILES IDX 26 12 27 13 28 14 29 15 30 16 14 17 13 18 12 19 11 20 10 21
REMARK SMILES IDX 9 22 8 23 7 24 6 25 5 26 4 27 3 28 2 29 1 30
REMARK H PARENT
REMARK Flexibility Score: inf
ROOT
ATOM      1  C   UNL     1      18.527 -15.641  24.684  1.00  0.00     0.000 C 
ENDROOT
BRANCH   1   2
ATOM      2  C   UNL     1      19.179 -14.832  23.546  1.00  0.00     0.000 C 
BRANCH   2   3
ATOM      3  C   UNL     1      19.416 -15.618  22.243  1.00  0.00     0.000 C 
BRANCH   3   4
ATOM      4  C   UNL     1      19.048 -17.105  22.363  1.00  0.00     0.000 C 
BRANCH   4   5
ATOM      5  C   UNL     1      18.720 -17.705  20.991  1.00  0.00     0.000 C 
BRANCH   5   6
ATOM      6  C   UNL     1      18.036 -16.668  20.089  1.00  0.00     0.000 C 
BRANCH   6   7
ATOM      7  C   UNL     1      16.521 -16.573  20.327  1.00  0.00     0.000 C 
BRANCH   7   8
ATOM      8  C   UNL     1      16.036 -15.122  20.493  1.00  0.00     0.000 C 
BRANCH   8   9
ATOM      9  C   UNL     1      16.975 -14.104  19.824  1.00  0.00     0.000 C 
BRANCH   9  10
ATOM     10  C   UNL     1      17.417 -12.996  20.793  1.00  0.00     0.000 C 
BRANCH  10  11
ATOM     11  C   UNL     1      16.407 -12.766  21.930  1.00  0.00     0.000 C 
BRANCH  11  12
ATOM     12  C   UNL     1      16.571 -11.397  22.628  1.00  0.00     0.006 C 
BRANCH  12  13
ATOM     13  C   UNL     1      17.303 -11.520  23.970  1.00  0.00     0.053 C 
BRANCH  13  14
ATOM     14  C   UNL     1      18.633 -10.839  23.902  1.00  0.00     0.041 C 
ATOM     15  O   UNL     1      19.016 -10.305  22.828  1.00  0.00    -0.550 OA
ATOM     16  O   UNL     1      19.421 -10.739  25.044  1.00  0.00    -0.550 OA
ENDBRANCH  13  14
ENDBRANCH  12  13
ENDBRANCH  11  12
ENDBRANCH  10  11
ENDBRANCH   9  10
ENDBRANCH   8   9
ENDBRANCH   7   8
ENDBRANCH   6   7
ENDBRANCH   5   6
ENDBRANCH   4   5
ENDBRANCH   3   4
ENDBRANCH   2   3
ENDBRANCH   1   2
BRANCH   1  17
ATOM     17  C   UNL     1      17.228 -15.002  25.205  1.00  0.00     0.000 C 
BRANCH  17  18
ATOM     18  C   UNL     1      16.029 -15.257  24.277  1.00  0.00     0.000 C 
BRANCH  18  19
ATOM     19  C   UNL     1      14.691 -15.255  25.032  1.00  0.00     0.000 C 
BRANCH  19  20
ATOM     20  C   UNL     1      14.796 -14.475  26.347  1.00  0.00     0.000 C 
BRANCH  20  21
ATOM     21  C   UNL     1      13.715 -13.389  26.425  1.00  0.00     0.000 C 
BRANCH  21  22
ATOM     22  C   UNL     1      13.987 -12.262  25.420  1.00  0.00    -0.000 C 
BRANCH  22  23
ATOM     23  C   UNL     1      12.949 -12.212  24.283  1.00  0.00    -0.000 C 
BRANCH  23  24
ATOM     24  C   UNL     1      11.596 -12.855  24.649  1.00  0.00    -0.000 C 
BRANCH  24  25
ATOM     25  C   UNL     1      10.605 -11.837  25.242  1.00  0.00    -0.000 C 
BRANCH  25  26
ATOM     26  C   UNL     1       9.137 -12.232  25.012  1.00  0.00    -0.000 C 
BRANCH  26  27
ATOM     27  C   UNL     1       8.536 -12.997  26.202  1.00  0.00    -0.000 C 
BRANCH  27  28
ATOM     28  C   UNL     1       9.228 -12.604  27.516  1.00  0.00    -0.000 C 
BRANCH  28  29
ATOM     29  C   UNL     1       8.432 -13.041  28.756  1.00  0.00    -0.003 C 
ATOM     30  C   UNL     1       8.178 -11.895  29.734  1.00  0.00     0.004 C 
ENDBRANCH  28  29
ENDBRANCH  27  28
ENDBRANCH  26  27
ENDBRANCH  25  26
ENDBRANCH  24  25
ENDBRANCH  23  24
ENDBRANCH  22  23
ENDBRANCH  21  22
ENDBRANCH  20  21
ENDBRANCH  19  20
ENDBRANCH  18  19
ENDBRANCH  17  18
ENDBRANCH   1  17
TORSDOF 26
ENDMDL
