MODEL 1
REMARK VINA RESULT:    -3.396      0.000      0.000
REMARK INTER + INTRA:          -3.853
REMARK INTER:                  -3.793
REMARK INTRA:                  -0.060
REMARK UNBOUND:                -0.060
REMARK SMILES CCCC(=O)[O-]
REMARK SMILES IDX 3 1 4 2 5 3 6 4 2 5 1 6
REMARK H PARENT
REMARK Flexibility Score: inf
ROOT
ATOM      1  C   UNL     1      12.176   2.502  -2.363  1.00  0.00     0.052 C 
ENDROOT
BRANCH   1   2
ATOM      2  C   UNL     1      11.573   1.748  -1.217  1.00  0.00     0.041 C 
ATOM      3  O   UNL     1      12.307   1.081  -0.441  1.00  0.00    -0.550 OA
ATOM      4  O   UNL     1      10.197   1.753  -1.028  1.00  0.00    -0.550 OA
ENDBRANCH   1   2
BRANCH   1   5
ATOM      5  C   UNL     1      11.344   2.350  -3.643  1.00  0.00     0.003 C 
ATOM      6  C   UNL     1      11.524   0.978  -4.293  1.00  0.00     0.004 C 
ENDBRANCH   1   5
TORSDOF 2
ENDMDL
MODEL 2
REMARK VINA RESULT:    -3.389      1.926      3.103
REMARK INTER + INTRA:          -3.846
REMARK INTER:                  -3.826
REMARK INTRA:                  -0.020
REMARK UNBOUND:                -0.060
REMARK SMILES CCCC(=O)[O-]
REMARK SMILES IDX 3 1 4 2 5 3 6 4 2 5 1 6
REMARK H PARENT
REMARK Flexibility Score: inf
ROOT
ATOM      1  C   UNL     1      12.242   1.984  -1.593  1.00  0.00     0.052 C 
ENDROOT
BRANCH   1   2
ATOM      2  C   UNL     1      11.247   1.634  -2.657  1.00  0.00     0.041 C 
ATOM      3  O   UNL     1      10.020   1.845  -2.472  1.00  0.00    -0.550 OA
ATOM      4  O   UNL     1      11.673   1.041  -3.839  1.00  0.00    -0.550 OA
ENDBRANCH   1   2
BRANCH   1   5
ATOM      5  C   UNL     1      11.970   1.224  -0.288  1.00  0.00     0.003 C 
ATOM      6  C   UNL     1      13.023   0.151  -0.011  1.00  0.00     0.004 C 
ENDBRANCH   1   5
TORSDOF 2
ENDMDL
MODEL 3
REMARK VINA RESULT:    -3.369      0.176      1.334
REMARK INTER + INTRA:          -3.822
REMARK INTER:                  -3.768
REMARK INTRA:                  -0.054
REMARK UNBOUND:                -0.060
REMARK SMILES CCCC(=O)[O-]
REMARK SMILES IDX 3 1 4 2 5 3 6 4 2 5 1 6
REMARK H PARENT
REMARK Flexibility Score: inf
ROOT
ATOM      1  C   UNL     1      12.245   2.460  -2.311  1.00  0.00     0.052 C 
ENDROOT
BRANCH   1   2
ATOM      2  C   UNL     1      11.674   1.663  -1.179  1.00  0.00     0.041 C 
ATOM      3  O   UNL     1      10.434   1.670  -0.960  1.00  0.00    -0.550 OA
ATOM      4  O   UNL     1      12.516   0.939  -0.343  1.00  0.00    -0.550 OA
ENDBRANCH   1   2
BRANCH   1   5
ATOM      5  C   UNL     1      11.406   2.317  -3.587  1.00  0.00     0.003 C 
ATOM      6  C   UNL     1      11.613   0.966  -4.270  1.00  0.00     0.004 C 
ENDBRANCH   1   5
TORSDOF 2
ENDMDL
MODEL 4
REMARK VINA RESULT:    -3.308     16.879     17.628
REMARK INTER + INTRA:          -3.755
REMARK INTER:                  -3.692
REMARK INTRA:                  -0.063
REMARK UNBOUND:                -0.060
REMARK SMILES CCCC(=O)[O-]
REMARK SMILES IDX 3 1 4 2 5 3 6 4 2 5 1 6
REMARK H PARENT
REMARK Flexibility Score: inf
ROOT
ATOM      1  C   UNL     1      26.092   3.166   8.609  1.00  0.00     0.052 C 
ENDROOT
BRANCH   1   2
ATOM      2  C   UNL     1      25.023   3.022   9.649  1.00  0.00     0.041 C 
ATOM      3  O   UNL     1      24.013   3.773   9.629  1.00  0.00    -0.550 OA
ATOM      4  O   UNL     1      25.160   2.081  10.661  1.00  0.00    -0.550 OA
ENDBRANCH   1   2
BRANCH   1   5
ATOM      5  C   UNL     1      25.622   2.665   7.238  1.00  0.00     0.003 C 
ATOM      6  C   UNL     1      25.200   1.196   7.270  1.00  0.00     0.004 C 
ENDBRANCH   1   5
TORSDOF 2
ENDMDL
MODEL 5
REMARK VINA RESULT:    -3.171      2.487      3.389
REMARK INTER + INTRA:          -3.602
REMARK INTER:                  -3.587
REMARK INTRA:                  -0.015
REMARK UNBOUND:                -0.060
REMARK SMILES CCCC(=O)[O-]
REMARK SMILES IDX 3 1 4 2 5 3 6 4 2 5 1 6
REMARK H PARENT
REMARK Flexibility Score: inf
ROOT
ATOM      1  C   UNL     1      11.811   1.422  -3.111  1.00  0.00     0.052 C 
ENDROOT
BRANCH   1   2
ATOM      2  C   UNL     1      11.388   2.277  -4.266  1.00  0.00     0.041 C 
ATOM      3  O   UNL     1      11.418   1.819  -5.439  1.00  0.00    -0.550 OA
ATOM      4  O   UNL     1      10.993   3.591  -4.051  1.00  0.00    -0.550 OA
ENDBRANCH   1   2
BRANCH   1   5
ATOM      5  C   UNL     1      12.104   2.261  -1.861  1.00  0.00     0.003 C 
ATOM      6  C   UNL     1      11.797   1.504  -0.569  1.00  0.00     0.004 C 
ENDBRANCH   1   5
TORSDOF 2
ENDMDL
MODEL 6
REMARK VINA RESULT:    -3.171      2.135      2.689
REMARK INTER + INTRA:          -3.601
REMARK INTER:                  -3.564
REMARK INTRA:                  -0.037
REMARK UNBOUND:                -0.060
REMARK SMILES CCCC(=O)[O-]
REMARK SMILES IDX 3 1 4 2 5 3 6 4 2 5 1 6
REMARK H PARENT
REMARK Flexibility Score: inf
ROOT
ATOM      1  C   UNL     1      11.845   1.254  -0.114  1.00  0.00     0.052 C 
ENDROOT
BRANCH   1   2
ATOM      2  C   UNL     1      12.785   0.197   0.379  1.00  0.00     0.041 C 
ATOM      3  O   UNL     1      13.748  -0.180  -0.339  1.00  0.00    -0.550 OA
ATOM      4  O   UNL     1      12.576  -0.396   1.617  1.00  0.00    -0.550 OA
ENDBRANCH   1   2
BRANCH   1   5
ATOM      5  C   UNL     1      12.325   1.871  -1.434  1.00  0.00     0.003 C 
ATOM      6  C   UNL     1      11.389   1.551  -2.599  1.00  0.00     0.004 C 
ENDBRANCH   1   5
TORSDOF 2
ENDMDL
MODEL 7
REMARK VINA RESULT:    -3.169      2.123      3.422
REMARK INTER + INTRA:          -3.600
REMARK INTER:                  -3.594
REMARK INTRA:                  -0.005
REMARK UNBOUND:                -0.060
REMARK SMILES CCCC(=O)[O-]
REMARK SMILES IDX 3 1 4 2 5 3 6 4 2 5 1 6
REMARK H PARENT
REMARK Flexibility Score: inf
ROOT
ATOM      1  C   UNL     1      10.346   2.057  -0.825  1.00  0.00     0.052 C 
ENDROOT
BRANCH   1   2
ATOM      2  C   UNL     1      11.767   1.810  -1.230  1.00  0.00     0.041 C 
ATOM      3  O   UNL     1      12.491   1.028  -0.559  1.00  0.00    -0.550 OA
ATOM      4  O   UNL     1      12.302   2.472  -2.327  1.00  0.00    -0.550 OA
ENDBRANCH   1   2
BRANCH   1   5
ATOM      5  C   UNL     1      10.255   2.706   0.562  1.00  0.00     0.003 C 
ATOM      6  C   UNL     1       8.896   3.363   0.807  1.00  0.00     0.004 C 
ENDBRANCH   1   5
TORSDOF 2
ENDMDL
MODEL 8
REMARK VINA RESULT:    -3.143     17.177     17.801
REMARK INTER + INTRA:          -3.571
REMARK INTER:                  -3.632
REMARK INTRA:                   0.061
REMARK UNBOUND:                -0.060
REMARK SMILES CCCC(=O)[O-]
REMARK SMILES IDX 3 1 4 2 5 3 6 4 2 5 1 6
REMARK H PARENT
REMARK Flexibility Score: inf
ROOT
ATOM      1  C   UNL     1      26.125   1.999   9.192  1.00  0.00     0.052 C 
ENDROOT
BRANCH   1   2
ATOM      2  C   UNL     1      25.678   1.970   7.762  1.00  0.00     0.041 C 
ATOM      3  O   UNL     1      25.263   0.898   7.249  1.00  0.00    -0.550 OA
ATOM      4  O   UNL     1      25.752   3.121   6.988  1.00  0.00    -0.550 OA
ENDBRANCH   1   2
BRANCH   1   5
ATOM      5  C   UNL     1      24.993   2.431  10.133  1.00  0.00     0.003 C 
ATOM      6  C   UNL     1      24.602   3.895   9.936  1.00  0.00     0.004 C 
ENDBRANCH   1   5
TORSDOF 2
ENDMDL
MODEL 9
REMARK VINA RESULT:    -3.108      1.861      3.023
REMARK INTER + INTRA:          -3.531
REMARK INTER:                  -3.518
REMARK INTRA:                  -0.013
REMARK UNBOUND:                -0.060
REMARK SMILES CCCC(=O)[O-]
REMARK SMILES IDX 3 1 4 2 5 3 6 4 2 5 1 6
REMARK H PARENT
REMARK Flexibility Score: inf
ROOT
ATOM      1  C   UNL     1      12.038   1.625  -1.766  1.00  0.00     0.052 C 
ENDROOT
BRANCH   1   2
ATOM      2  C   UNL     1      10.785   2.305  -2.224  1.00  0.00     0.041 C 
ATOM      3  O   UNL     1       9.675   2.000  -1.713  1.00  0.00    -0.550 OA
ATOM      4  O   UNL     1      10.838   3.251  -3.240  1.00  0.00    -0.550 OA
ENDBRANCH   1   2
BRANCH   1   5
ATOM      5  C   UNL     1      11.968   1.241  -0.283  1.00  0.00     0.003 C 
ATOM      6  C   UNL     1      12.966   0.142   0.081  1.00  0.00     0.004 C 
ENDBRANCH   1   5
TORSDOF 2
ENDMDL
