MODEL 1
REMARK VINA RESULT:    -4.383      0.000      0.000
REMARK INTER + INTRA:          -6.153
REMARK INTER:                  -5.920
REMARK INTRA:                  -0.232
REMARK UNBOUND:                -0.232
REMARK SMILES CCCCCCCC(=O)[O-]
REMARK SMILES IDX 5 1 6 2 7 3 8 4 9 5 10 6 4 7 3 8 2 9 1 10
REMARK H PARENT
REMARK Flexibility Score: inf
ROOT
ATOM      1  C   UNL     1       3.187  19.273  51.215  1.00  0.00     0.000 C 
ENDROOT
BRANCH   1   2
ATOM      2  C   UNL     1       4.288  18.701  52.125  1.00  0.00     0.006 C 
BRANCH   2   3
ATOM      3  C   UNL     1       3.902  18.762  53.609  1.00  0.00     0.053 C 
BRANCH   3   4
ATOM      4  C   UNL     1       4.986  18.218  54.490  1.00  0.00     0.041 C 
ATOM      5  O   UNL     1       5.113  18.636  55.671  1.00  0.00    -0.550 OA
ATOM      6  O   UNL     1       5.875  17.271  53.995  1.00  0.00    -0.550 OA
ENDBRANCH   3   4
ENDBRANCH   2   3
ENDBRANCH   1   2
BRANCH   1   7
ATOM      7  C   UNL     1       3.667  20.482  50.397  1.00  0.00     0.000 C 
BRANCH   7   8
ATOM      8  C   UNL     1       2.567  21.541  50.205  1.00  0.00    -0.000 C 
BRANCH   8   9
ATOM      9  C   UNL     1       1.208  21.083  50.757  1.00  0.00    -0.003 C 
ATOM     10  C   UNL     1       0.043  21.915  50.221  1.00  0.00     0.004 C 
ENDBRANCH   8   9
ENDBRANCH   7   8
ENDBRANCH   1   7
TORSDOF 6
ENDMDL
MODEL 2
REMARK VINA RESULT:    -4.114     12.487     13.662
REMARK INTER + INTRA:          -5.790
REMARK INTER:                  -5.360
REMARK INTRA:                  -0.430
REMARK UNBOUND:                -0.232
REMARK SMILES CCCCCCCC(=O)[O-]
REMARK SMILES IDX 5 1 6 2 7 3 8 4 9 5 10 6 4 7 3 8 2 9 1 10
REMARK H PARENT
REMARK Flexibility Score: inf
ROOT
ATOM      1  C   UNL     1      -5.948  16.463  61.860  1.00  0.00     0.000 C 
ENDROOT
BRANCH   1   2
ATOM      2  C   UNL     1      -5.564  16.452  63.350  1.00  0.00     0.006 C 
BRANCH   2   3
ATOM      3  C   UNL     1      -5.320  15.030  63.874  1.00  0.00     0.053 C 
BRANCH   3   4
ATOM      4  C   UNL     1      -3.982  14.902  64.537  1.00  0.00     0.041 C 
ATOM      5  O   UNL     1      -3.192  15.883  64.566  1.00  0.00    -0.550 OA
ATOM      6  O   UNL     1      -3.595  13.690  65.095  1.00  0.00    -0.550 OA
ENDBRANCH   3   4
ENDBRANCH   2   3
ENDBRANCH   1   2
BRANCH   1   7
ATOM      7  C   UNL     1      -4.965  15.665  60.990  1.00  0.00     0.000 C 
BRANCH   7   8
ATOM      8  C   UNL     1      -4.395  16.495  59.826  1.00  0.00    -0.000 C 
BRANCH   8   9
ATOM      9  C   UNL     1      -3.353  17.524  60.294  1.00  0.00    -0.003 C 
ATOM     10  C   UNL     1      -2.422  16.973  61.372  1.00  0.00     0.004 C 
ENDBRANCH   8   9
ENDBRANCH   7   8
ENDBRANCH   1   7
TORSDOF 6
ENDMDL
MODEL 3
REMARK VINA RESULT:    -3.874     15.713     16.407
REMARK INTER + INTRA:          -5.466
REMARK INTER:                  -5.092
REMARK INTRA:                  -0.374
REMARK UNBOUND:                -0.232
REMARK SMILES CCCCCCCC(=O)[O-]
REMARK SMILES IDX 5 1 6 2 7 3 8 4 9 5 10 6 4 7 3 8 2 9 1 10
REMARK H PARENT
REMARK Flexibility Score: inf
ROOT
ATOM      1  C   UNL     1       8.223   5.251  51.621  1.00  0.00     0.000 C 
ENDROOT
BRANCH   1   2
ATOM      2  C   UNL     1       9.607   5.702  51.122  1.00  0.00     0.006 C 
BRANCH   2   3
ATOM      3  C   UNL     1      10.702   5.484  52.175  1.00  0.00     0.053 C 
BRANCH   3   4
ATOM      4  C   UNL     1      11.815   4.627  51.652  1.00  0.00     0.041 C 
ATOM      5  O   UNL     1      11.886   3.412  51.977  1.00  0.00    -0.550 OA
ATOM      6  O   UNL     1      12.791   5.178  50.831  1.00  0.00    -0.550 OA
ENDBRANCH   3   4
ENDBRANCH   2   3
ENDBRANCH   1   2
BRANCH   1   7
ATOM      7  C   UNL     1       8.308   4.348  52.862  1.00  0.00     0.000 C 
BRANCH   7   8
ATOM      8  C   UNL     1       6.940   4.130  53.531  1.00  0.00    -0.000 C 
BRANCH   8   9
ATOM      9  C   UNL     1       6.905   4.644  54.979  1.00  0.00    -0.003 C 
ATOM     10  C   UNL     1       8.223   5.288  55.408  1.00  0.00     0.004 C 
ENDBRANCH   8   9
ENDBRANCH   7   8
ENDBRANCH   1   7
TORSDOF 6
ENDMDL
MODEL 4
REMARK VINA RESULT:    -3.771     12.609     14.296
REMARK INTER + INTRA:          -5.325
REMARK INTER:                  -5.251
REMARK INTRA:                  -0.074
REMARK UNBOUND:                -0.232
REMARK SMILES CCCCCCCC(=O)[O-]
REMARK SMILES IDX 5 1 6 2 7 3 8 4 9 5 10 6 4 7 3 8 2 9 1 10
REMARK H PARENT
REMARK Flexibility Score: inf
ROOT
ATOM      1  C   UNL     1      -6.072  16.559  63.162  1.00  0.00     0.000 C 
ENDROOT
BRANCH   1   2
ATOM      2  C   UNL     1      -6.094  16.544  61.623  1.00  0.00     0.006 C 
BRANCH   2   3
ATOM      3  C   UNL     1      -5.013  15.625  61.038  1.00  0.00     0.053 C 
BRANCH   3   4
ATOM      4  C   UNL     1      -4.188  16.325  60.001  1.00  0.00     0.041 C 
ATOM      5  O   UNL     1      -4.230  15.950  58.799  1.00  0.00    -0.550 OA
ATOM      6  O   UNL     1      -3.349  17.369  60.368  1.00  0.00    -0.550 OA
ENDBRANCH   3   4
ENDBRANCH   2   3
ENDBRANCH   1   2
BRANCH   1   7
ATOM      7  C   UNL     1      -5.249  15.404  63.752  1.00  0.00     0.000 C 
BRANCH   7   8
ATOM      8  C   UNL     1      -3.792  15.805  64.044  1.00  0.00    -0.000 C 
BRANCH   8   9
ATOM      9  C   UNL     1      -3.047  14.747  64.874  1.00  0.00    -0.003 C 
ATOM     10  C   UNL     1      -3.857  13.465  65.059  1.00  0.00     0.004 C 
ENDBRANCH   8   9
ENDBRANCH   7   8
ENDBRANCH   1   7
TORSDOF 6
ENDMDL
MODEL 5
REMARK VINA RESULT:    -3.761      3.380      5.592
REMARK INTER + INTRA:          -5.313
REMARK INTER:                  -5.466
REMARK INTRA:                   0.153
REMARK UNBOUND:                -0.232
REMARK SMILES CCCCCCCC(=O)[O-]
REMARK SMILES IDX 5 1 6 2 7 3 8 4 9 5 10 6 4 7 3 8 2 9 1 10
REMARK H PARENT
REMARK Flexibility Score: inf
ROOT
ATOM      1  C   UNL     1       3.128  19.531  51.788  1.00  0.00     0.000 C 
ENDROOT
BRANCH   1   2
ATOM      2  C   UNL     1       2.921  20.027  50.346  1.00  0.00     0.006 C 
BRANCH   2   3
ATOM      3  C   UNL     1       2.356  21.453  50.299  1.00  0.00     0.053 C 
BRANCH   3   4
ATOM      4  C   UNL     1       0.925  21.501  50.744  1.00  0.00     0.041 C 
ATOM      5  O   UNL     1       0.036  21.949  49.973  1.00  0.00    -0.550 OA
ATOM      6  O   UNL     1       0.580  21.081  52.023  1.00  0.00    -0.550 OA
ENDBRANCH   3   4
ENDBRANCH   2   3
ENDBRANCH   1   2
BRANCH   1   7
ATOM      7  C   UNL     1       4.029  18.289  51.861  1.00  0.00     0.000 C 
BRANCH   7   8
ATOM      8  C   UNL     1       4.999  18.331  53.055  1.00  0.00    -0.000 C 
BRANCH   8   9
ATOM      9  C   UNL     1       4.286  18.112  54.399  1.00  0.00    -0.003 C 
ATOM     10  C   UNL     1       5.091  18.640  55.586  1.00  0.00     0.004 C 
ENDBRANCH   8   9
ENDBRANCH   7   8
ENDBRANCH   1   7
TORSDOF 6
ENDMDL
MODEL 6
REMARK VINA RESULT:    -3.680     16.074     17.033
REMARK INTER + INTRA:          -5.203
REMARK INTER:                  -4.743
REMARK INTRA:                  -0.460
REMARK UNBOUND:                -0.232
REMARK SMILES CCCCCCCC(=O)[O-]
REMARK SMILES IDX 5 1 6 2 7 3 8 4 9 5 10 6 4 7 3 8 2 9 1 10
REMARK H PARENT
REMARK Flexibility Score: inf
ROOT
ATOM      1  C   UNL     1       9.857   5.864  51.590  1.00  0.00     0.000 C 
ENDROOT
BRANCH   1   2
ATOM      2  C   UNL     1      10.962   5.156  52.393  1.00  0.00     0.006 C 
BRANCH   2   3
ATOM      3  C   UNL     1      11.877   4.310  51.499  1.00  0.00     0.053 C 
BRANCH   3   4
ATOM      4  C   UNL     1      11.541   2.851  51.578  1.00  0.00     0.041 C 
ATOM      5  O   UNL     1      10.648   2.365  50.835  1.00  0.00    -0.550 OA
ATOM      6  O   UNL     1      12.192   2.036  52.496  1.00  0.00    -0.550 OA
ENDBRANCH   3   4
ENDBRANCH   2   3
ENDBRANCH   1   2
BRANCH   1   7
ATOM      7  C   UNL     1       8.476   5.221  51.792  1.00  0.00     0.000 C 
BRANCH   7   8
ATOM      8  C   UNL     1       8.467   4.182  52.928  1.00  0.00    -0.000 C 
BRANCH   8   9
ATOM      9  C   UNL     1       7.580   4.610  54.108  1.00  0.00    -0.003 C 
ATOM     10  C   UNL     1       8.349   5.392  55.171  1.00  0.00     0.004 C 
ENDBRANCH   8   9
ENDBRANCH   7   8
ENDBRANCH   1   7
TORSDOF 6
ENDMDL
MODEL 7
REMARK VINA RESULT:    -3.476     15.395     16.844
REMARK INTER + INTRA:          -4.928
REMARK INTER:                  -4.552
REMARK INTRA:                  -0.376
REMARK UNBOUND:                -0.232
REMARK SMILES CCCCCCCC(=O)[O-]
REMARK SMILES IDX 5 1 6 2 7 3 8 4 9 5 10 6 4 7 3 8 2 9 1 10
REMARK H PARENT
REMARK Flexibility Score: inf
ROOT
ATOM      1  C   UNL     1       8.853   4.895  53.331  1.00  0.00     0.000 C 
ENDROOT
BRANCH   1   2
ATOM      2  C   UNL     1       8.019   3.846  52.574  1.00  0.00     0.006 C 
BRANCH   2   3
ATOM      3  C   UNL     1       6.517   3.992  52.848  1.00  0.00     0.053 C 
BRANCH   3   4
ATOM      4  C   UNL     1       5.782   4.529  51.657  1.00  0.00     0.041 C 
ATOM      5  O   UNL     1       6.282   5.459  50.970  1.00  0.00    -0.550 OA
ATOM      6  O   UNL     1       4.532   4.023  51.324  1.00  0.00    -0.550 OA
ENDBRANCH   3   4
ENDBRANCH   2   3
ENDBRANCH   1   2
BRANCH   1   7
ATOM      7  C   UNL     1       9.976   5.490  52.469  1.00  0.00     0.000 C 
BRANCH   7   8
ATOM      8  C   UNL     1      10.489   4.507  51.402  1.00  0.00    -0.000 C 
BRANCH   8   9
ATOM      9  C   UNL     1      11.797   3.816  51.820  1.00  0.00    -0.003 C 
ATOM     10  C   UNL     1      11.616   2.323  52.088  1.00  0.00     0.004 C 
ENDBRANCH   8   9
ENDBRANCH   7   8
ENDBRANCH   1   7
TORSDOF 6
ENDMDL
MODEL 8
REMARK VINA RESULT:    -3.425     14.733     16.450
REMARK INTER + INTRA:          -4.859
REMARK INTER:                  -4.661
REMARK INTRA:                  -0.199
REMARK UNBOUND:                -0.232
REMARK SMILES CCCCCCCC(=O)[O-]
REMARK SMILES IDX 5 1 6 2 7 3 8 4 9 5 10 6 4 7 3 8 2 9 1 10
REMARK H PARENT
REMARK Flexibility Score: inf
ROOT
ATOM      1  C   UNL     1       8.515   4.806  53.170  1.00  0.00     0.000 C 
ENDROOT
BRANCH   1   2
ATOM      2  C   UNL     1       9.508   4.739  51.996  1.00  0.00     0.006 C 
BRANCH   2   3
ATOM      3  C   UNL     1       9.990   3.307  51.726  1.00  0.00     0.053 C 
BRANCH   3   4
ATOM      4  C   UNL     1      11.455   3.152  51.999  1.00  0.00     0.041 C 
ATOM      5  O   UNL     1      12.249   4.099  51.758  1.00  0.00    -0.550 OA
ATOM      6  O   UNL     1      11.948   1.949  52.490  1.00  0.00    -0.550 OA
ENDBRANCH   3   4
ENDBRANCH   2   3
ENDBRANCH   1   2
BRANCH   1   7
ATOM      7  C   UNL     1       7.177   4.122  52.851  1.00  0.00     0.000 C 
BRANCH   7   8
ATOM      8  C   UNL     1       6.511   4.686  51.584  1.00  0.00    -0.000 C 
BRANCH   8   9
ATOM      9  C   UNL     1       4.994   4.869  51.749  1.00  0.00    -0.003 C 
ATOM     10  C   UNL     1       4.463   6.095  51.006  1.00  0.00     0.004 C 
ENDBRANCH   8   9
ENDBRANCH   7   8
ENDBRANCH   1   7
TORSDOF 6
ENDMDL
MODEL 9
REMARK VINA RESULT:    -3.409     16.114     17.071
REMARK INTER + INTRA:          -4.836
REMARK INTER:                  -4.308
REMARK INTRA:                  -0.528
REMARK UNBOUND:                -0.232
REMARK SMILES CCCCCCCC(=O)[O-]
REMARK SMILES IDX 5 1 6 2 7 3 8 4 9 5 10 6 4 7 3 8 2 9 1 10
REMARK H PARENT
REMARK Flexibility Score: inf
ROOT
ATOM      1  C   UNL     1       8.842   5.019  52.834  1.00  0.00     0.000 C 
ENDROOT
BRANCH   1   2
ATOM      2  C   UNL     1       9.500   5.217  51.457  1.00  0.00     0.006 C 
BRANCH   2   3
ATOM      3  C   UNL     1      10.146   3.928  50.933  1.00  0.00     0.053 C 
BRANCH   3   4
ATOM      4  C   UNL     1      11.524   3.730  51.488  1.00  0.00     0.041 C 
ATOM      5  O   UNL     1      11.812   2.672  52.109  1.00  0.00    -0.550 OA
ATOM      6  O   UNL     1      12.482   4.727  51.346  1.00  0.00    -0.550 OA
ENDBRANCH   3   4
ENDBRANCH   2   3
ENDBRANCH   1   2
BRANCH   1   7
ATOM      7  C   UNL     1       7.949   3.769  52.887  1.00  0.00     0.000 C 
BRANCH   7   8
ATOM      8  C   UNL     1       6.507   4.052  52.433  1.00  0.00    -0.000 C 
BRANCH   8   9
ATOM      9  C   UNL     1       6.112   3.240  51.189  1.00  0.00    -0.003 C 
ATOM     10  C   UNL     1       6.952   1.974  51.021  1.00  0.00     0.004 C 
ENDBRANCH   8   9
ENDBRANCH   7   8
ENDBRANCH   1   7
TORSDOF 6
ENDMDL
