MODEL 1
REMARK VINA RESULT:    -3.940      0.000      0.000
REMARK INTER + INTRA:          -6.147
REMARK INTER:                  -5.552
REMARK INTRA:                  -0.595
REMARK UNBOUND:                -0.595
REMARK SMILES C=CCCCCCCC(=O)[O-]
REMARK SMILES IDX 6 1 7 2 8 3 9 4 10 5 11 6 5 7 4 8 3 9 2 10 1 11
REMARK H PARENT
REMARK Flexibility Score: inf
ROOT
ATOM      1  C   UNL     1       7.436   4.167  19.311  1.00  0.00     0.000 C 
ENDROOT
BRANCH   1   2
ATOM      2  C   UNL     1       5.967   3.707  19.302  1.00  0.00     0.006 C 
BRANCH   2   3
ATOM      3  C   UNL     1       5.662   2.662  20.384  1.00  0.00     0.053 C 
BRANCH   3   4
ATOM      4  C   UNL     1       4.796   3.253  21.450  1.00  0.00     0.041 C 
ATOM      5  O   UNL     1       4.364   4.430  21.335  1.00  0.00    -0.550 OA
ATOM      6  O   UNL     1       4.506   2.521  22.595  1.00  0.00    -0.550 OA
ENDBRANCH   3   4
ENDBRANCH   2   3
ENDBRANCH   1   2
BRANCH   1   7
ATOM      7  C   UNL     1       7.661   5.634  18.902  1.00  0.00     0.000 C 
BRANCH   7   8
ATOM      8  C   UNL     1       6.376   6.326  18.421  1.00  0.00     0.004 C 
BRANCH   8   9
ATOM      9  C   UNL     1       6.520   6.802  16.970  1.00  0.00     0.027 C 
BRANCH   9  10
ATOM     10  C   UNL     1       6.423   5.651  16.006  1.00  0.00    -0.035 C 
ATOM     11  C   UNL     1       5.284   4.974  15.831  1.00  0.00     0.004 C 
ENDBRANCH   9  10
ENDBRANCH   8   9
ENDBRANCH   7   8
ENDBRANCH   1   7
TORSDOF 7
ENDMDL
MODEL 2
REMARK VINA RESULT:    -3.921      0.911      1.521
REMARK INTER + INTRA:          -6.120
REMARK INTER:                  -5.360
REMARK INTRA:                  -0.760
REMARK UNBOUND:                -0.595
REMARK SMILES C=CCCCCCCC(=O)[O-]
REMARK SMILES IDX 6 1 7 2 8 3 9 4 10 5 11 6 5 7 4 8 3 9 2 10 1 11
REMARK H PARENT
REMARK Flexibility Score: inf
ROOT
ATOM      1  C   UNL     1       7.518   5.514  19.208  1.00  0.00     0.000 C 
ENDROOT
BRANCH   1   2
ATOM      2  C   UNL     1       7.229   4.003  19.256  1.00  0.00     0.006 C 
BRANCH   2   3
ATOM      3  C   UNL     1       5.729   3.680  19.228  1.00  0.00     0.053 C 
BRANCH   3   4
ATOM      4  C   UNL     1       5.238   3.366  20.606  1.00  0.00     0.041 C 
ATOM      5  O   UNL     1       4.509   4.187  21.221  1.00  0.00    -0.550 OA
ATOM      6  O   UNL     1       5.627   2.187  21.230  1.00  0.00    -0.550 OA
ENDBRANCH   3   4
ENDBRANCH   2   3
ENDBRANCH   1   2
BRANCH   1   7
ATOM      7  C   UNL     1       6.343   6.387  18.731  1.00  0.00     0.000 C 
BRANCH   7   8
ATOM      8  C   UNL     1       6.513   6.886  17.289  1.00  0.00     0.004 C 
BRANCH   8   9
ATOM      9  C   UNL     1       5.877   5.909  16.292  1.00  0.00     0.027 C 
BRANCH   9  10
ATOM     10  C   UNL     1       6.926   5.146  15.531  1.00  0.00    -0.035 C 
ATOM     11  C   UNL     1       8.202   5.544  15.499  1.00  0.00     0.004 C 
ENDBRANCH   9  10
ENDBRANCH   8   9
ENDBRANCH   7   8
ENDBRANCH   1   7
TORSDOF 7
ENDMDL
MODEL 3
REMARK VINA RESULT:    -3.911      5.693      7.626
REMARK INTER + INTRA:          -6.106
REMARK INTER:                  -5.671
REMARK INTRA:                  -0.435
REMARK UNBOUND:                -0.595
REMARK SMILES C=CCCCCCCC(=O)[O-]
REMARK SMILES IDX 6 1 7 2 8 3 9 4 10 5 11 6 5 7 4 8 3 9 2 10 1 11
REMARK H PARENT
REMARK Flexibility Score: inf
ROOT
ATOM      1  C   UNL     1       8.276   3.974  13.646  1.00  0.00     0.000 C 
ENDROOT
BRANCH   1   2
ATOM      2  C   UNL     1       9.307   4.255  12.538  1.00  0.00     0.006 C 
BRANCH   2   3
ATOM      3  C   UNL     1       9.270   5.707  12.040  1.00  0.00     0.053 C 
BRANCH   3   4
ATOM      4  C   UNL     1      10.505   6.435  12.464  1.00  0.00     0.041 C 
ATOM      5  O   UNL     1      10.509   7.113  13.525  1.00  0.00    -0.550 OA
ATOM      6  O   UNL     1      11.639   6.406  11.661  1.00  0.00    -0.550 OA
ENDBRANCH   3   4
ENDBRANCH   2   3
ENDBRANCH   1   2
BRANCH   1   7
ATOM      7  C   UNL     1       8.745   4.313  15.072  1.00  0.00     0.000 C 
BRANCH   7   8
ATOM      8  C   UNL     1       8.081   5.578  15.637  1.00  0.00     0.004 C 
BRANCH   8   9
ATOM      9  C   UNL     1       6.574   5.365  15.833  1.00  0.00     0.027 C 
BRANCH   9  10
ATOM     10  C   UNL     1       6.006   6.358  16.810  1.00  0.00    -0.035 C 
ATOM     11  C   UNL     1       6.387   7.639  16.813  1.00  0.00     0.004 C 
ENDBRANCH   9  10
ENDBRANCH   8   9
ENDBRANCH   7   8
ENDBRANCH   1   7
TORSDOF 7
ENDMDL
MODEL 4
REMARK VINA RESULT:    -3.833      4.700      6.558
REMARK INTER + INTRA:          -5.997
REMARK INTER:                  -5.557
REMARK INTRA:                  -0.441
REMARK UNBOUND:                -0.595
REMARK SMILES C=CCCCCCCC(=O)[O-]
REMARK SMILES IDX 6 1 7 2 8 3 9 4 10 5 11 6 5 7 4 8 3 9 2 10 1 11
REMARK H PARENT
REMARK Flexibility Score: inf
ROOT
ATOM      1  C   UNL     1       7.101   5.225  15.577  1.00  0.00     0.000 C 
ENDROOT
BRANCH   1   2
ATOM      2  C   UNL     1       8.467   5.923  15.706  1.00  0.00     0.006 C 
BRANCH   2   3
ATOM      3  C   UNL     1       9.423   5.583  14.555  1.00  0.00     0.053 C 
BRANCH   3   4
ATOM      4  C   UNL     1      10.297   6.756  14.240  1.00  0.00     0.041 C 
ATOM      5  O   UNL     1      10.754   7.473  15.168  1.00  0.00    -0.550 OA
ATOM      6  O   UNL     1      10.565   7.087  12.917  1.00  0.00    -0.550 OA
ENDBRANCH   3   4
ENDBRANCH   2   3
ENDBRANCH   1   2
BRANCH   1   7
ATOM      7  C   UNL     1       5.953   5.894  16.354  1.00  0.00     0.000 C 
BRANCH   7   8
ATOM      8  C   UNL     1       6.337   7.266  16.928  1.00  0.00     0.004 C 
BRANCH   8   9
ATOM      9  C   UNL     1       6.339   7.238  18.461  1.00  0.00     0.027 C 
BRANCH   9  10
ATOM     10  C   UNL     1       6.339   5.826  18.981  1.00  0.00    -0.035 C 
ATOM     11  C   UNL     1       7.353   5.341  19.704  1.00  0.00     0.004 C 
ENDBRANCH   9  10
ENDBRANCH   8   9
ENDBRANCH   7   8
ENDBRANCH   1   7
TORSDOF 7
ENDMDL
MODEL 5
REMARK VINA RESULT:    -3.810      5.699      7.551
REMARK INTER + INTRA:          -5.963
REMARK INTER:                  -5.500
REMARK INTRA:                  -0.463
REMARK UNBOUND:                -0.595
REMARK SMILES C=CCCCCCCC(=O)[O-]
REMARK SMILES IDX 6 1 7 2 8 3 9 4 10 5 11 6 5 7 4 8 3 9 2 10 1 11
REMARK H PARENT
REMARK Flexibility Score: inf
ROOT
ATOM      1  C   UNL     1       9.887   6.892  15.250  1.00  0.00     0.000 C 
ENDROOT
BRANCH   1   2
ATOM      2  C   UNL     1      10.943   6.569  14.177  1.00  0.00     0.006 C 
BRANCH   2   3
ATOM      3  C   UNL     1      10.449   6.846  12.750  1.00  0.00     0.053 C 
BRANCH   3   4
ATOM      4  C   UNL     1      10.100   5.565  12.061  1.00  0.00     0.041 C 
ATOM      5  O   UNL     1      11.010   4.795  11.656  1.00  0.00    -0.550 OA
ATOM      6  O   UNL     1       8.769   5.245  11.822  1.00  0.00    -0.550 OA
ENDBRANCH   3   4
ENDBRANCH   2   3
ENDBRANCH   1   2
BRANCH   1   7
ATOM      7  C   UNL     1       9.240   5.664  15.916  1.00  0.00     0.000 C 
BRANCH   7   8
ATOM      8  C   UNL     1       7.901   5.270  15.273  1.00  0.00     0.004 C 
BRANCH   8   9
ATOM      9  C   UNL     1       6.777   5.246  16.316  1.00  0.00     0.027 C 
BRANCH   9  10
ATOM     10  C   UNL     1       5.997   6.532  16.305  1.00  0.00    -0.035 C 
ATOM     11  C   UNL     1       6.369   7.588  17.036  1.00  0.00     0.004 C 
ENDBRANCH   9  10
ENDBRANCH   8   9
ENDBRANCH   7   8
ENDBRANCH   1   7
TORSDOF 7
ENDMDL
MODEL 6
REMARK VINA RESULT:    -3.782      1.688      1.957
REMARK INTER + INTRA:          -5.925
REMARK INTER:                  -5.506
REMARK INTRA:                  -0.419
REMARK UNBOUND:                -0.595
REMARK SMILES C=CCCCCCCC(=O)[O-]
REMARK SMILES IDX 6 1 7 2 8 3 9 4 10 5 11 6 5 7 4 8 3 9 2 10 1 11
REMARK H PARENT
REMARK Flexibility Score: inf
ROOT
ATOM      1  C   UNL     1       5.956   6.201  21.277  1.00  0.00     0.000 C 
ENDROOT
BRANCH   1   2
ATOM      2  C   UNL     1       4.567   5.558  21.111  1.00  0.00     0.006 C 
BRANCH   2   3
ATOM      3  C   UNL     1       4.512   4.112  21.622  1.00  0.00     0.053 C 
BRANCH   3   4
ATOM      4  C   UNL     1       5.567   3.285  20.958  1.00  0.00     0.041 C 
ATOM      5  O   UNL     1       5.462   2.981  19.741  1.00  0.00    -0.550 OA
ATOM      6  O   UNL     1       6.642   2.807  21.697  1.00  0.00    -0.550 OA
ENDBRANCH   3   4
ENDBRANCH   2   3
ENDBRANCH   1   2
BRANCH   1   7
ATOM      7  C   UNL     1       6.453   7.001  20.060  1.00  0.00     0.000 C 
BRANCH   7   8
ATOM      8  C   UNL     1       6.377   6.205  18.748  1.00  0.00     0.004 C 
BRANCH   8   9
ATOM      9  C   UNL     1       6.419   7.142  17.535  1.00  0.00     0.027 C 
BRANCH   9  10
ATOM     10  C   UNL     1       6.243   6.379  16.250  1.00  0.00    -0.035 C 
ATOM     11  C   UNL     1       5.647   5.183  16.218  1.00  0.00     0.004 C 
ENDBRANCH   9  10
ENDBRANCH   8   9
ENDBRANCH   7   8
ENDBRANCH   1   7
TORSDOF 7
ENDMDL
MODEL 7
REMARK VINA RESULT:    -3.775      1.507      2.104
REMARK INTER + INTRA:          -5.915
REMARK INTER:                  -5.512
REMARK INTRA:                  -0.403
REMARK UNBOUND:                -0.595
REMARK SMILES C=CCCCCCCC(=O)[O-]
REMARK SMILES IDX 6 1 7 2 8 3 9 4 10 5 11 6 5 7 4 8 3 9 2 10 1 11
REMARK H PARENT
REMARK Flexibility Score: inf
ROOT
ATOM      1  C   UNL     1       5.626   5.706  20.432  1.00  0.00     0.000 C 
ENDROOT
BRANCH   1   2
ATOM      2  C   UNL     1       4.567   5.359  21.494  1.00  0.00     0.006 C 
BRANCH   2   3
ATOM      3  C   UNL     1       4.465   3.853  21.767  1.00  0.00     0.053 C 
BRANCH   3   4
ATOM      4  C   UNL     1       4.410   3.592  23.239  1.00  0.00     0.041 C 
ATOM      5  O   UNL     1       3.714   2.645  23.689  1.00  0.00    -0.550 OA
ATOM      6  O   UNL     1       5.090   4.427  24.118  1.00  0.00    -0.550 OA
ENDBRANCH   3   4
ENDBRANCH   2   3
ENDBRANCH   1   2
BRANCH   1   7
ATOM      7  C   UNL     1       6.197   4.500  19.664  1.00  0.00     0.000 C 
BRANCH   7   8
ATOM      8  C   UNL     1       6.899   4.899  18.357  1.00  0.00     0.004 C 
BRANCH   8   9
ATOM      9  C   UNL     1       6.511   6.323  17.939  1.00  0.00     0.027 C 
BRANCH   9  10
ATOM     10  C   UNL     1       5.954   6.349  16.542  1.00  0.00    -0.035 C 
ATOM     11  C   UNL     1       5.585   5.230  15.911  1.00  0.00     0.004 C 
ENDBRANCH   9  10
ENDBRANCH   8   9
ENDBRANCH   7   8
ENDBRANCH   1   7
TORSDOF 7
ENDMDL
MODEL 8
REMARK VINA RESULT:    -3.727      2.107      3.250
REMARK INTER + INTRA:          -5.847
REMARK INTER:                  -5.475
REMARK INTRA:                  -0.372
REMARK UNBOUND:                -0.595
REMARK SMILES C=CCCCCCCC(=O)[O-]
REMARK SMILES IDX 6 1 7 2 8 3 9 4 10 5 11 6 5 7 4 8 3 9 2 10 1 11
REMARK H PARENT
REMARK Flexibility Score: inf
ROOT
ATOM      1  C   UNL     1       6.407   6.710  17.353  1.00  0.00     0.000 C 
ENDROOT
BRANCH   1   2
ATOM      2  C   UNL     1       6.386   6.212  18.809  1.00  0.00     0.006 C 
BRANCH   2   3
ATOM      3  C   UNL     1       6.416   4.682  18.919  1.00  0.00     0.053 C 
BRANCH   3   4
ATOM      4  C   UNL     1       5.593   4.226  20.081  1.00  0.00     0.041 C 
ATOM      5  O   UNL     1       5.345   3.002  20.240  1.00  0.00    -0.550 OA
ATOM      6  O   UNL     1       5.058   5.157  20.962  1.00  0.00    -0.550 OA
ENDBRANCH   3   4
ENDBRANCH   2   3
ENDBRANCH   1   2
BRANCH   1   7
ATOM      7  C   UNL     1       6.224   5.614  16.288  1.00  0.00     0.000 C 
BRANCH   7   8
ATOM      8  C   UNL     1       7.486   5.382  15.444  1.00  0.00     0.004 C 
BRANCH   8   9
ATOM      9  C   UNL     1       8.670   6.189  15.994  1.00  0.00     0.027 C 
BRANCH   9  10
ATOM     10  C   UNL     1       9.656   6.519  14.908  1.00  0.00    -0.035 C 
ATOM     11  C   UNL     1      10.755   7.240  15.151  1.00  0.00     0.004 C 
ENDBRANCH   9  10
ENDBRANCH   8   9
ENDBRANCH   7   8
ENDBRANCH   1   7
TORSDOF 7
ENDMDL
MODEL 9
REMARK VINA RESULT:    -3.656      3.177      4.747
REMARK INTER + INTRA:          -5.747
REMARK INTER:                  -5.340
REMARK INTRA:                  -0.407
REMARK UNBOUND:                -0.595
REMARK SMILES C=CCCCCCCC(=O)[O-]
REMARK SMILES IDX 6 1 7 2 8 3 9 4 10 5 11 6 5 7 4 8 3 9 2 10 1 11
REMARK H PARENT
REMARK Flexibility Score: inf
ROOT
ATOM      1  C   UNL     1       7.099   5.261  15.451  1.00  0.00     0.000 C 
ENDROOT
BRANCH   1   2
ATOM      2  C   UNL     1       5.970   5.808  16.344  1.00  0.00     0.006 C 
BRANCH   2   3
ATOM      3  C   UNL     1       6.419   6.983  17.223  1.00  0.00     0.053 C 
BRANCH   3   4
ATOM      4  C   UNL     1       6.402   6.591  18.666  1.00  0.00     0.041 C 
ATOM      5  O   UNL     1       6.303   5.379  18.992  1.00  0.00    -0.550 OA
ATOM      6  O   UNL     1       6.445   7.568  19.652  1.00  0.00    -0.550 OA
ENDBRANCH   3   4
ENDBRANCH   2   3
ENDBRANCH   1   2
BRANCH   1   7
ATOM      7  C   UNL     1       8.523   5.641  15.896  1.00  0.00     0.000 C 
BRANCH   7   8
ATOM      8  C   UNL     1       9.576   5.403  14.804  1.00  0.00     0.004 C 
BRANCH   8   9
ATOM      9  C   UNL     1       8.912   5.018  13.476  1.00  0.00     0.027 C 
BRANCH   9  10
ATOM     10  C   UNL     1       9.577   5.705  12.315  1.00  0.00    -0.035 C 
ATOM     11  C   UNL     1      10.489   6.665  12.493  1.00  0.00     0.004 C 
ENDBRANCH   9  10
ENDBRANCH   8   9
ENDBRANCH   7   8
ENDBRANCH   1   7
TORSDOF 7
ENDMDL
