MODEL 1
REMARK VINA RESULT:    -2.749      0.000      0.000
REMARK INTER + INTRA:          -8.153
REMARK INTER:                  -5.161
REMARK INTRA:                  -2.992
REMARK UNBOUND:                -2.992
REMARK SMILES CCCCCC=CCC=CCCCCCCCC(=O)OC
REMARK SMILES IDX 11 1 10 2 9 3 8 4 7 5 6 6 5 7 4 8 3 9 2 10 1 11 12 12 13 13
REMARK SMILES IDX 14 14 15 15 16 16 17 17 18 18 19 19 20 20 21 21
REMARK H PARENT
REMARK Flexibility Score: inf
ROOT
ATOM      1  C   UNL     1       9.670   7.598  -7.545  1.00  0.00     0.027 C 
ENDROOT
BRANCH   1   2
ATOM      2  C   UNL     1      10.514   7.232  -8.743  1.00  0.00    -0.031 C 
ATOM      3  C   UNL     1      10.253   6.213  -9.582  1.00  0.00    -0.027 C 
BRANCH   3   4
ATOM      4  C   UNL     1       9.124   5.226  -9.412  1.00  0.00     0.054 C 
BRANCH   4   5
ATOM      5  C   UNL     1       9.525   4.081  -8.517  1.00  0.00    -0.027 C 
ATOM      6  C   UNL     1       8.885   3.725  -7.387  1.00  0.00    -0.031 C 
BRANCH   6   7
ATOM      7  C   UNL     1       7.689   4.441  -6.803  1.00  0.00     0.027 C 
BRANCH   7   8
ATOM      8  C   UNL     1       6.434   3.560  -6.845  1.00  0.00     0.004 C 
BRANCH   8   9
ATOM      9  C   UNL     1       5.271   4.246  -7.576  1.00  0.00     0.000 C 
BRANCH   9  10
ATOM     10  C   UNL     1       5.565   4.372  -9.076  1.00  0.00    -0.003 C 
ATOM     11  C   UNL     1       5.835   3.007  -9.702  1.00  0.00     0.004 C 
ENDBRANCH   9  10
ENDBRANCH   8   9
ENDBRANCH   7   8
ENDBRANCH   6   7
ENDBRANCH   4   5
ENDBRANCH   3   4
ENDBRANCH   1   2
BRANCH   1  12
ATOM     12  C   UNL     1       8.904   8.916  -7.751  1.00  0.00     0.004 C 
BRANCH  12  13
ATOM     13  C   UNL     1       7.599   8.779  -8.559  1.00  0.00     0.000 C 
BRANCH  13  14
ATOM     14  C   UNL     1       6.689   7.654  -8.037  1.00  0.00     0.000 C 
BRANCH  14  15
ATOM     15  C   UNL     1       5.268   8.147  -7.721  1.00  0.00     0.001 C 
BRANCH  15  16
ATOM     16  C   UNL     1       4.800   7.731  -6.314  1.00  0.00     0.012 C 
BRANCH  16  17
ATOM     17  C   UNL     1       5.973   7.324  -5.411  1.00  0.00     0.123 C 
BRANCH  17  18
ATOM     18  C   UNL     1       5.539   7.136  -3.989  1.00  0.00     0.305 C 
ATOM     19  O   UNL     1       4.583   6.357  -3.723  1.00  0.00    -0.252 OA
BRANCH  18  20
ATOM     20  O   UNL     1       6.223   7.803  -2.967  1.00  0.00    -0.469 OA
ATOM     21  C   UNL     1       6.696   9.137  -3.106  1.00  0.00     0.282 C 
ENDBRANCH  18  20
ENDBRANCH  17  18
ENDBRANCH  16  17
ENDBRANCH  15  16
ENDBRANCH  14  15
ENDBRANCH  13  14
ENDBRANCH  12  13
ENDBRANCH   1  12
TORSDOF 15
ENDMDL
MODEL 2
REMARK VINA RESULT:    -2.706      1.582      4.800
REMARK INTER + INTRA:          -8.071
REMARK INTER:                  -5.981
REMARK INTRA:                  -2.090
REMARK UNBOUND:                -2.992
REMARK SMILES CCCCCC=CCC=CCCCCCCCC(=O)OC
REMARK SMILES IDX 11 1 10 2 9 3 8 4 7 5 6 6 5 7 4 8 3 9 2 10 1 11 12 12 13 13
REMARK SMILES IDX 14 14 15 15 16 16 17 17 18 18 19 19 20 20 21 21
REMARK H PARENT
REMARK Flexibility Score: inf
ROOT
ATOM      1  C   UNL     1       8.285   4.037  -9.553  1.00  0.00     0.027 C 
ENDROOT
BRANCH   1   2
ATOM      2  C   UNL     1       9.103   4.531 -10.721  1.00  0.00    -0.031 C 
ATOM      3  C   UNL     1       9.577   5.784 -10.850  1.00  0.00    -0.027 C 
BRANCH   3   4
ATOM      4  C   UNL     1       9.296   6.912  -9.889  1.00  0.00     0.054 C 
BRANCH   4   5
ATOM      5  C   UNL     1      10.473   7.169  -8.981  1.00  0.00    -0.027 C 
ATOM      6  C   UNL     1      10.416   7.842  -7.816  1.00  0.00    -0.031 C 
BRANCH   6   7
ATOM      7  C   UNL     1       9.175   8.491  -7.248  1.00  0.00     0.027 C 
BRANCH   7   8
ATOM      8  C   UNL     1       9.529   9.684  -6.350  1.00  0.00     0.004 C 
BRANCH   8   9
ATOM      9  C   UNL     1       9.504  11.012  -7.120  1.00  0.00     0.000 C 
BRANCH   9  10
ATOM     10  C   UNL     1      10.747  11.854  -6.800  1.00  0.00    -0.003 C 
ATOM     11  C   UNL     1      12.022  11.150  -7.258  1.00  0.00     0.004 C 
ENDBRANCH   9  10
ENDBRANCH   8   9
ENDBRANCH   7   8
ENDBRANCH   6   7
ENDBRANCH   4   5
ENDBRANCH   3   4
ENDBRANCH   1   2
BRANCH   1  12
ATOM     12  C   UNL     1       9.161   3.455  -8.431  1.00  0.00     0.004 C 
BRANCH  12  13
ATOM     13  C   UNL     1       9.005   4.156  -7.067  1.00  0.00     0.000 C 
BRANCH  13  14
ATOM     14  C   UNL     1       7.790   5.098  -7.016  1.00  0.00     0.000 C 
BRANCH  14  15
ATOM     15  C   UNL     1       6.648   4.541  -6.152  1.00  0.00     0.001 C 
BRANCH  15  16
ATOM     16  C   UNL     1       5.468   5.522  -6.029  1.00  0.00     0.012 C 
BRANCH  16  17
ATOM     17  C   UNL     1       5.891   6.859  -5.403  1.00  0.00     0.123 C 
BRANCH  17  18
ATOM     18  C   UNL     1       5.402   6.991  -3.993  1.00  0.00     0.305 C 
ATOM     19  O   UNL     1       4.383   6.346  -3.620  1.00  0.00    -0.252 OA
BRANCH  18  20
ATOM     20  O   UNL     1       6.101   7.803  -3.094  1.00  0.00    -0.469 OA
ATOM     21  C   UNL     1       6.789   8.979  -3.501  1.00  0.00     0.282 C 
ENDBRANCH  18  20
ENDBRANCH  17  18
ENDBRANCH  16  17
ENDBRANCH  15  16
ENDBRANCH  14  15
ENDBRANCH  13  14
ENDBRANCH  12  13
ENDBRANCH   1  12
TORSDOF 15
ENDMDL
MODEL 3
REMARK VINA RESULT:    -2.696     16.876     18.711
REMARK INTER + INTRA:          -8.053
REMARK INTER:                  -5.905
REMARK INTRA:                  -2.147
REMARK UNBOUND:                -2.992
REMARK SMILES CCCCCC=CCC=CCCCCCCCC(=O)OC
REMARK SMILES IDX 11 1 10 2 9 3 8 4 7 5 6 6 5 7 4 8 3 9 2 10 1 11 12 12 13 13
REMARK SMILES IDX 14 14 15 15 16 16 17 17 18 18 19 19 20 20 21 21
REMARK H PARENT
REMARK Flexibility Score: inf
ROOT
ATOM      1  C   UNL     1      18.809   3.201   8.201  1.00  0.00     0.027 C 
ENDROOT
BRANCH   1   2
ATOM      2  C   UNL     1      19.963   3.265   7.230  1.00  0.00    -0.031 C 
ATOM      3  C   UNL     1      20.397   2.232   6.485  1.00  0.00    -0.027 C 
BRANCH   3   4
ATOM      4  C   UNL     1      19.854   0.826   6.565  1.00  0.00     0.054 C 
BRANCH   4   5
ATOM      5  C   UNL     1      20.815  -0.170   5.967  1.00  0.00    -0.027 C 
ATOM      6  C   UNL     1      20.808  -0.574   4.683  1.00  0.00    -0.031 C 
BRANCH   6   7
ATOM      7  C   UNL     1      19.808  -0.132   3.639  1.00  0.00     0.027 C 
BRANCH   7   8
ATOM      8  C   UNL     1      20.331   1.067   2.836  1.00  0.00     0.004 C 
BRANCH   8   9
ATOM      9  C   UNL     1      21.690   0.776   2.184  1.00  0.00     0.000 C 
BRANCH   9  10
ATOM     10  C   UNL     1      21.779   1.419   0.794  1.00  0.00    -0.003 C 
ATOM     11  C   UNL     1      20.778   2.563   0.650  1.00  0.00     0.004 C 
ENDBRANCH   9  10
ENDBRANCH   8   9
ENDBRANCH   7   8
ENDBRANCH   6   7
ENDBRANCH   4   5
ENDBRANCH   3   4
ENDBRANCH   1   2
BRANCH   1  12
ATOM     12  C   UNL     1      17.454   3.448   7.516  1.00  0.00     0.004 C 
BRANCH  12  13
ATOM     13  C   UNL     1      16.350   2.444   7.900  1.00  0.00     0.000 C 
BRANCH  13  14
ATOM     14  C   UNL     1      16.854   1.329   8.832  1.00  0.00     0.000 C 
BRANCH  14  15
ATOM     15  C   UNL     1      16.541  -0.076   8.292  1.00  0.00     0.001 C 
BRANCH  15  16
ATOM     16  C   UNL     1      15.916  -0.041   6.886  1.00  0.00     0.012 C 
BRANCH  16  17
ATOM     17  C   UNL     1      16.629  -0.990   5.913  1.00  0.00     0.123 C 
BRANCH  17  18
ATOM     18  C   UNL     1      16.180  -2.409   6.093  1.00  0.00     0.305 C 
ATOM     19  O   UNL     1      14.947  -2.679   6.112  1.00  0.00    -0.252 OA
BRANCH  18  20
ATOM     20  O   UNL     1      17.135  -3.424   6.206  1.00  0.00    -0.469 OA
ATOM     21  C   UNL     1      18.509  -3.221   5.897  1.00  0.00     0.282 C 
ENDBRANCH  18  20
ENDBRANCH  17  18
ENDBRANCH  16  17
ENDBRANCH  15  16
ENDBRANCH  14  15
ENDBRANCH  13  14
ENDBRANCH  12  13
ENDBRANCH   1  12
TORSDOF 15
ENDMDL
MODEL 4
REMARK VINA RESULT:    -2.629      1.270      3.867
REMARK INTER + INTRA:          -7.926
REMARK INTER:                  -5.369
REMARK INTRA:                  -2.557
REMARK UNBOUND:                -2.992
REMARK SMILES CCCCCC=CCC=CCCCCCCCC(=O)OC
REMARK SMILES IDX 11 1 10 2 9 3 8 4 7 5 6 6 5 7 4 8 3 9 2 10 1 11 12 12 13 13
REMARK SMILES IDX 14 14 15 15 16 16 17 17 18 18 19 19 20 20 21 21
REMARK H PARENT
REMARK Flexibility Score: inf
ROOT
ATOM      1  C   UNL     1       8.091   4.776  -6.806  1.00  0.00     0.027 C 
ENDROOT
BRANCH   1   2
ATOM      2  C   UNL     1       9.157   3.764  -7.152  1.00  0.00    -0.031 C 
ATOM      3  C   UNL     1       9.273   3.149  -8.343  1.00  0.00    -0.027 C 
BRANCH   3   4
ATOM      4  C   UNL     1       8.308   3.310  -9.491  1.00  0.00     0.054 C 
BRANCH   4   5
ATOM      5  C   UNL     1       8.986   3.902 -10.702  1.00  0.00    -0.027 C 
ATOM      6  C   UNL     1       9.116   5.220 -10.946  1.00  0.00    -0.031 C 
BRANCH   6   7
ATOM      7  C   UNL     1       8.565   6.323 -10.072  1.00  0.00     0.027 C 
BRANCH   7   8
ATOM      8  C   UNL     1       9.608   7.423  -9.836  1.00  0.00     0.004 C 
BRANCH   8   9
ATOM      9  C   UNL     1      10.223   7.345  -8.431  1.00  0.00     0.000 C 
BRANCH   9  10
ATOM     10  C   UNL     1       9.353   8.090  -7.410  1.00  0.00    -0.003 C 
ATOM     11  C   UNL     1       9.963   9.442  -7.049  1.00  0.00     0.004 C 
ENDBRANCH   9  10
ENDBRANCH   8   9
ENDBRANCH   7   8
ENDBRANCH   6   7
ENDBRANCH   4   5
ENDBRANCH   3   4
ENDBRANCH   1   2
BRANCH   1  12
ATOM     12  C   UNL     1       6.826   4.118  -6.229  1.00  0.00     0.004 C 
BRANCH  12  13
ATOM     13  C   UNL     1       5.512   4.847  -6.570  1.00  0.00     0.000 C 
BRANCH  13  14
ATOM     14  C   UNL     1       5.631   5.740  -7.817  1.00  0.00     0.000 C 
BRANCH  14  15
ATOM     15  C   UNL     1       5.776   7.229  -7.461  1.00  0.00     0.001 C 
BRANCH  15  16
ATOM     16  C   UNL     1       5.201   7.562  -6.073  1.00  0.00     0.012 C 
BRANCH  16  17
ATOM     17  C   UNL     1       6.068   8.580  -5.318  1.00  0.00     0.123 C 
BRANCH  17  18
ATOM     18  C   UNL     1       6.299   8.165  -3.896  1.00  0.00     0.305 C 
ATOM     19  O   UNL     1       5.768   7.108  -3.457  1.00  0.00    -0.252 OA
BRANCH  18  20
ATOM     20  O   UNL     1       7.131   8.938  -3.080  1.00  0.00    -0.469 OA
ATOM     21  C   UNL     1       8.289   9.600  -3.575  1.00  0.00     0.282 C 
ENDBRANCH  18  20
ENDBRANCH  17  18
ENDBRANCH  16  17
ENDBRANCH  15  16
ENDBRANCH  14  15
ENDBRANCH  13  14
ENDBRANCH  12  13
ENDBRANCH   1  12
TORSDOF 15
ENDMDL
MODEL 5
REMARK VINA RESULT:    -2.624      1.588      3.381
REMARK INTER + INTRA:          -7.916
REMARK INTER:                  -4.868
REMARK INTRA:                  -3.049
REMARK UNBOUND:                -2.992
REMARK SMILES CCCCCC=CCC=CCCCCCCCC(=O)OC
REMARK SMILES IDX 11 1 10 2 9 3 8 4 7 5 6 6 5 7 4 8 3 9 2 10 1 11 12 12 13 13
REMARK SMILES IDX 14 14 15 15 16 16 17 17 18 18 19 19 20 20 21 21
REMARK H PARENT
REMARK Flexibility Score: inf
ROOT
ATOM      1  C   UNL     1       9.778   5.172  -9.286  1.00  0.00     0.027 C 
ENDROOT
BRANCH   1   2
ATOM      2  C   UNL     1       9.608   4.688  -7.866  1.00  0.00    -0.031 C 
ATOM      3  C   UNL     1       9.019   3.529  -7.517  1.00  0.00    -0.027 C 
BRANCH   3   4
ATOM      4  C   UNL     1       8.364   2.572  -8.481  1.00  0.00     0.054 C 
BRANCH   4   5
ATOM      5  C   UNL     1       6.872   2.511  -8.269  1.00  0.00    -0.027 C 
ATOM      6  C   UNL     1       5.961   3.180  -8.999  1.00  0.00    -0.031 C 
BRANCH   6   7
ATOM      7  C   UNL     1       6.282   4.140 -10.122  1.00  0.00     0.027 C 
BRANCH   7   8
ATOM      8  C   UNL     1       6.142   5.599  -9.668  1.00  0.00     0.004 C 
BRANCH   8   9
ATOM      9  C   UNL     1       5.442   5.715  -8.306  1.00  0.00     0.000 C 
BRANCH   9  10
ATOM     10  C   UNL     1       6.325   6.462  -7.299  1.00  0.00    -0.003 C 
ATOM     11  C   UNL     1       6.397   5.716  -5.969  1.00  0.00     0.004 C 
ENDBRANCH   9  10
ENDBRANCH   8   9
ENDBRANCH   7   8
ENDBRANCH   6   7
ENDBRANCH   4   5
ENDBRANCH   3   4
ENDBRANCH   1   2
BRANCH   1  12
ATOM     12  C   UNL     1      10.288   6.622  -9.351  1.00  0.00     0.004 C 
BRANCH  12  13
ATOM     13  C   UNL     1       9.240   7.649  -9.822  1.00  0.00     0.000 C 
BRANCH  13  14
ATOM     14  C   UNL     1       8.948   8.730  -8.768  1.00  0.00     0.000 C 
BRANCH  14  15
ATOM     15  C   UNL     1       9.467   8.346  -7.372  1.00  0.00     0.001 C 
BRANCH  15  16
ATOM     16  C   UNL     1       9.341   9.498  -6.359  1.00  0.00     0.012 C 
BRANCH  16  17
ATOM     17  C   UNL     1       7.948   9.550  -5.714  1.00  0.00     0.123 C 
BRANCH  17  18
ATOM     18  C   UNL     1       8.032   9.648  -4.221  1.00  0.00     0.305 C 
ATOM     19  O   UNL     1       8.621  10.630  -3.689  1.00  0.00    -0.252 OA
BRANCH  18  20
ATOM     20  O   UNL     1       7.427   8.665  -3.431  1.00  0.00    -0.469 OA
ATOM     21  C   UNL     1       6.022   8.614  -3.216  1.00  0.00     0.282 C 
ENDBRANCH  18  20
ENDBRANCH  17  18
ENDBRANCH  16  17
ENDBRANCH  15  16
ENDBRANCH  14  15
ENDBRANCH  13  14
ENDBRANCH  12  13
ENDBRANCH   1  12
TORSDOF 15
ENDMDL
MODEL 6
REMARK VINA RESULT:    -2.623      1.496      2.791
REMARK INTER + INTRA:          -7.916
REMARK INTER:                  -4.980
REMARK INTRA:                  -2.936
REMARK UNBOUND:                -2.992
REMARK SMILES CCCCCC=CCC=CCCCCCCCC(=O)OC
REMARK SMILES IDX 11 1 10 2 9 3 8 4 7 5 6 6 5 7 4 8 3 9 2 10 1 11 12 12 13 13
REMARK SMILES IDX 14 14 15 15 16 16 17 17 18 18 19 19 20 20 21 21
REMARK H PARENT
REMARK Flexibility Score: inf
ROOT
ATOM      1  C   UNL     1      10.152   7.639  -7.835  1.00  0.00     0.027 C 
ENDROOT
BRANCH   1   2
ATOM      2  C   UNL     1      10.578   6.729  -8.962  1.00  0.00    -0.031 C 
ATOM      3  C   UNL     1       9.816   6.416 -10.026  1.00  0.00    -0.027 C 
BRANCH   3   4
ATOM      4  C   UNL     1       8.387   6.858 -10.219  1.00  0.00     0.054 C 
BRANCH   4   5
ATOM      5  C   UNL     1       7.429   5.700 -10.089  1.00  0.00    -0.027 C 
ATOM      6  C   UNL     1       6.603   5.495  -9.046  1.00  0.00    -0.031 C 
BRANCH   6   7
ATOM      7  C   UNL     1       6.531   6.365  -7.812  1.00  0.00     0.027 C 
BRANCH   7   8
ATOM      8  C   UNL     1       7.172   5.672  -6.601  1.00  0.00     0.004 C 
BRANCH   8   9
ATOM      9  C   UNL     1       7.527   4.208  -6.895  1.00  0.00     0.000 C 
BRANCH   9  10
ATOM     10  C   UNL     1       9.048   4.007  -6.914  1.00  0.00    -0.003 C 
ATOM     11  C   UNL     1       9.478   3.162  -8.110  1.00  0.00     0.004 C 
ENDBRANCH   9  10
ENDBRANCH   8   9
ENDBRANCH   7   8
ENDBRANCH   6   7
ENDBRANCH   4   5
ENDBRANCH   3   4
ENDBRANCH   1   2
BRANCH   1  12
ATOM     12  C   UNL     1      10.580   9.097  -8.069  1.00  0.00     0.004 C 
BRANCH  12  13
ATOM     13  C   UNL     1       9.452  10.132  -7.890  1.00  0.00     0.000 C 
BRANCH  13  14
ATOM     14  C   UNL     1       8.148   9.509  -7.365  1.00  0.00     0.000 C 
BRANCH  14  15
ATOM     15  C   UNL     1       7.715  10.100  -6.014  1.00  0.00     0.001 C 
BRANCH  15  16
ATOM     16  C   UNL     1       8.406   9.411  -4.822  1.00  0.00     0.012 C 
BRANCH  16  17
ATOM     17  C   UNL     1       7.930   9.974  -3.475  1.00  0.00     0.123 C 
BRANCH  17  18
ATOM     18  C   UNL     1       6.703   9.267  -2.982  1.00  0.00     0.305 C 
ATOM     19  O   UNL     1       5.823   9.909  -2.344  1.00  0.00    -0.252 OA
BRANCH  18  20
ATOM     20  O   UNL     1       6.532   7.908  -3.263  1.00  0.00    -0.469 OA
ATOM     21  C   UNL     1       5.361   7.398  -3.889  1.00  0.00     0.282 C 
ENDBRANCH  18  20
ENDBRANCH  17  18
ENDBRANCH  16  17
ENDBRANCH  15  16
ENDBRANCH  14  15
ENDBRANCH  13  14
ENDBRANCH  12  13
ENDBRANCH   1  12
TORSDOF 15
ENDMDL
MODEL 7
REMARK VINA RESULT:    -2.591      1.489      3.966
REMARK INTER + INTRA:          -7.855
REMARK INTER:                  -5.082
REMARK INTRA:                  -2.773
REMARK UNBOUND:                -2.992
REMARK SMILES CCCCCC=CCC=CCCCCCCCC(=O)OC
REMARK SMILES IDX 11 1 10 2 9 3 8 4 7 5 6 6 5 7 4 8 3 9 2 10 1 11 12 12 13 13
REMARK SMILES IDX 14 14 15 15 16 16 17 17 18 18 19 19 20 20 21 21
REMARK H PARENT
REMARK Flexibility Score: inf
ROOT
ATOM      1  C   UNL     1       6.987   6.424  -6.736  1.00  0.00     0.027 C 
ENDROOT
BRANCH   1   2
ATOM      2  C   UNL     1       6.527   5.200  -5.980  1.00  0.00    -0.031 C 
ATOM      3  C   UNL     1       6.652   3.935  -6.420  1.00  0.00    -0.027 C 
BRANCH   3   4
ATOM      4  C   UNL     1       7.194   3.545  -7.773  1.00  0.00     0.054 C 
BRANCH   4   5
ATOM      5  C   UNL     1       8.687   3.338  -7.730  1.00  0.00    -0.027 C 
ATOM      6  C   UNL     1       9.584   4.038  -8.448  1.00  0.00    -0.031 C 
BRANCH   6   7
ATOM      7  C   UNL     1       9.242   5.116  -9.451  1.00  0.00     0.027 C 
BRANCH   7   8
ATOM      8  C   UNL     1      10.325   6.201  -9.498  1.00  0.00     0.004 C 
BRANCH   8   9
ATOM      9  C   UNL     1       9.771   7.587  -9.135  1.00  0.00     0.000 C 
BRANCH   9  10
ATOM     10  C   UNL     1      10.183   7.986  -7.712  1.00  0.00    -0.003 C 
ATOM     11  C   UNL     1      10.695   9.423  -7.668  1.00  0.00     0.004 C 
ENDBRANCH   9  10
ENDBRANCH   8   9
ENDBRANCH   7   8
ENDBRANCH   6   7
ENDBRANCH   4   5
ENDBRANCH   3   4
ENDBRANCH   1   2
BRANCH   1  12
ATOM     12  C   UNL     1       5.810   7.270  -7.249  1.00  0.00     0.004 C 
BRANCH  12  13
ATOM     13  C   UNL     1       6.126   8.118  -8.497  1.00  0.00     0.000 C 
BRANCH  13  14
ATOM     14  C   UNL     1       6.770   9.471  -8.151  1.00  0.00     0.000 C 
BRANCH  14  15
ATOM     15  C   UNL     1       6.360   9.979  -6.760  1.00  0.00     0.001 C 
BRANCH  15  16
ATOM     16  C   UNL     1       7.555  10.525  -5.956  1.00  0.00     0.012 C 
BRANCH  16  17
ATOM     17  C   UNL     1       8.047   9.524  -4.901  1.00  0.00     0.123 C 
BRANCH  17  18
ATOM     18  C   UNL     1       7.042   9.335  -3.805  1.00  0.00     0.305 C 
ATOM     19  O   UNL     1       6.641   8.174  -3.515  1.00  0.00    -0.252 OA
BRANCH  18  20
ATOM     20  O   UNL     1       6.583  10.447  -3.092  1.00  0.00    -0.469 OA
ATOM     21  C   UNL     1       6.241  10.384  -1.712  1.00  0.00     0.282 C 
ENDBRANCH  18  20
ENDBRANCH  17  18
ENDBRANCH  16  17
ENDBRANCH  15  16
ENDBRANCH  14  15
ENDBRANCH  13  14
ENDBRANCH  12  13
ENDBRANCH   1  12
TORSDOF 15
ENDMDL
MODEL 8
REMARK VINA RESULT:    -2.562      2.192      3.523
REMARK INTER + INTRA:          -7.801
REMARK INTER:                  -4.738
REMARK INTRA:                  -3.063
REMARK UNBOUND:                -2.992
REMARK SMILES CCCCCC=CCC=CCCCCCCCC(=O)OC
REMARK SMILES IDX 11 1 10 2 9 3 8 4 7 5 6 6 5 7 4 8 3 9 2 10 1 11 12 12 13 13
REMARK SMILES IDX 14 14 15 15 16 16 17 17 18 18 19 19 20 20 21 21
REMARK H PARENT
REMARK Flexibility Score: inf
ROOT
ATOM      1  C   UNL     1       7.643   6.328 -10.035  1.00  0.00     0.027 C 
ENDROOT
BRANCH   1   2
ATOM      2  C   UNL     1       9.120   6.067 -10.210  1.00  0.00    -0.031 C 
ATOM      3  C   UNL     1       9.905   5.463  -9.299  1.00  0.00    -0.027 C 
BRANCH   3   4
ATOM      4  C   UNL     1       9.452   5.028  -7.928  1.00  0.00     0.054 C 
BRANCH   4   5
ATOM      5  C   UNL     1       9.692   3.555  -7.710  1.00  0.00    -0.027 C 
ATOM      6  C   UNL     1       8.870   2.570  -8.120  1.00  0.00    -0.031 C 
BRANCH   6   7
ATOM      7  C   UNL     1       7.550   2.779  -8.825  1.00  0.00     0.027 C 
BRANCH   7   8
ATOM      8  C   UNL     1       6.376   2.746  -7.837  1.00  0.00     0.004 C 
BRANCH   8   9
ATOM      9  C   UNL     1       5.823   4.149  -7.550  1.00  0.00     0.000 C 
BRANCH   9  10
ATOM     10  C   UNL     1       6.272   4.642  -6.168  1.00  0.00    -0.003 C 
ATOM     11  C   UNL     1       6.449   6.158  -6.154  1.00  0.00     0.004 C 
ENDBRANCH   9  10
ENDBRANCH   8   9
ENDBRANCH   7   8
ENDBRANCH   6   7
ENDBRANCH   4   5
ENDBRANCH   3   4
ENDBRANCH   1   2
BRANCH   1  12
ATOM     12  C   UNL     1       7.345   7.802  -9.715  1.00  0.00     0.004 C 
BRANCH  12  13
ATOM     13  C   UNL     1       8.377   8.801 -10.273  1.00  0.00     0.000 C 
BRANCH  13  14
ATOM     14  C   UNL     1       8.933   9.749  -9.196  1.00  0.00     0.000 C 
BRANCH  14  15
ATOM     15  C   UNL     1      10.197   9.194  -8.520  1.00  0.00     0.001 C 
BRANCH  15  16
ATOM     16  C   UNL     1       9.913   8.619  -7.121  1.00  0.00     0.012 C 
BRANCH  16  17
ATOM     17  C   UNL     1       8.624   9.190  -6.512  1.00  0.00     0.123 C 
BRANCH  17  18
ATOM     18  C   UNL     1       8.910  10.066  -5.330  1.00  0.00     0.305 C 
ATOM     19  O   UNL     1       9.057   9.550  -4.188  1.00  0.00    -0.252 OA
BRANCH  18  20
ATOM     20  O   UNL     1       9.045  11.446  -5.513  1.00  0.00    -0.469 OA
ATOM     21  C   UNL     1      10.232  12.039  -6.024  1.00  0.00     0.282 C 
ENDBRANCH  18  20
ENDBRANCH  17  18
ENDBRANCH  16  17
ENDBRANCH  15  16
ENDBRANCH  14  15
ENDBRANCH  13  14
ENDBRANCH  12  13
ENDBRANCH   1  12
TORSDOF 15
ENDMDL
MODEL 9
REMARK VINA RESULT:    -2.558      1.461      3.490
REMARK INTER + INTRA:          -7.793
REMARK INTER:                  -5.091
REMARK INTRA:                  -2.702
REMARK UNBOUND:                -2.992
REMARK SMILES CCCCCC=CCC=CCCCCCCCC(=O)OC
REMARK SMILES IDX 11 1 10 2 9 3 8 4 7 5 6 6 5 7 4 8 3 9 2 10 1 11 12 12 13 13
REMARK SMILES IDX 14 14 15 15 16 16 17 17 18 18 19 19 20 20 21 21
REMARK H PARENT
REMARK Flexibility Score: inf
ROOT
ATOM      1  C   UNL     1       6.813   7.823  -7.798  1.00  0.00     0.027 C 
ENDROOT
BRANCH   1   2
ATOM      2  C   UNL     1       6.949   6.987  -6.548  1.00  0.00    -0.031 C 
ATOM      3  C   UNL     1       6.481   5.733  -6.410  1.00  0.00    -0.027 C 
BRANCH   3   4
ATOM      4  C   UNL     1       5.675   4.996  -7.451  1.00  0.00     0.054 C 
BRANCH   4   5
ATOM      5  C   UNL     1       5.689   3.508  -7.208  1.00  0.00    -0.027 C 
ATOM      6  C   UNL     1       6.539   2.640  -7.787  1.00  0.00    -0.031 C 
BRANCH   6   7
ATOM      7  C   UNL     1       7.589   3.005  -8.812  1.00  0.00     0.027 C 
BRANCH   7   8
ATOM      8  C   UNL     1       8.990   3.044  -8.188  1.00  0.00     0.004 C 
BRANCH   8   9
ATOM      9  C   UNL     1       9.520   4.478  -8.046  1.00  0.00     0.000 C 
BRANCH   9  10
ATOM     10  C   UNL     1       9.180   5.313  -9.288  1.00  0.00    -0.003 C 
ATOM     11  C   UNL     1      10.331   6.243  -9.660  1.00  0.00     0.004 C 
ENDBRANCH   9  10
ENDBRANCH   8   9
ENDBRANCH   7   8
ENDBRANCH   6   7
ENDBRANCH   4   5
ENDBRANCH   3   4
ENDBRANCH   1   2
BRANCH   1  12
ATOM     12  C   UNL     1       7.988   8.799  -7.978  1.00  0.00     0.004 C 
BRANCH  12  13
ATOM     13  C   UNL     1       9.164   8.572  -7.008  1.00  0.00     0.000 C 
BRANCH  13  14
ATOM     14  C   UNL     1       9.339   9.724  -6.003  1.00  0.00     0.000 C 
BRANCH  14  15
ATOM     15  C   UNL     1       8.120  10.660  -5.963  1.00  0.00     0.001 C 
BRANCH  15  16
ATOM     16  C   UNL     1       7.479  10.733  -4.565  1.00  0.00     0.012 C 
BRANCH  16  17
ATOM     17  C   UNL     1       7.619   9.412  -3.795  1.00  0.00     0.123 C 
BRANCH  17  18
ATOM     18  C   UNL     1       6.299   8.931  -3.274  1.00  0.00     0.305 C 
ATOM     19  O   UNL     1       6.135   7.708  -3.013  1.00  0.00    -0.252 OA
BRANCH  18  20
ATOM     20  O   UNL     1       5.270   9.853  -3.050  1.00  0.00    -0.469 OA
ATOM     21  C   UNL     1       4.837  10.214  -1.745  1.00  0.00     0.282 C 
ENDBRANCH  18  20
ENDBRANCH  17  18
ENDBRANCH  16  17
ENDBRANCH  15  16
ENDBRANCH  14  15
ENDBRANCH  13  14
ENDBRANCH  12  13
ENDBRANCH   1  12
TORSDOF 15
ENDMDL
