MODEL 1
REMARK VINA RESULT:    -0.398      0.000      0.000
REMARK INTER + INTRA:          -0.506
REMARK INTER:                  -0.457
REMARK INTRA:                  -0.049
REMARK UNBOUND:                -0.049
REMARK SMILES O=C([O-])c1cc(O)c(O)c(O)c1
REMARK SMILES IDX 4 1 5 2 12 3 6 4 10 5 8 6 2 7 1 8 3 9 7 10 11 12 9 14
REMARK H PARENT 7 11 11 13 9 15
REMARK Flexibility Score: inf
ROOT
ATOM      1  C   UNL     1      47.496  43.120  -6.960  1.00  0.00     0.005 A 
ATOM      2  C   UNL     1      47.501  41.973  -7.774  1.00  0.00     0.060 A 
ATOM      3  C   UNL     1      47.286  44.376  -7.553  1.00  0.00     0.060 A 
ATOM      4  C   UNL     1      47.301  42.080  -9.157  1.00  0.00     0.162 A 
ATOM      5  C   UNL     1      47.085  44.488  -8.937  1.00  0.00     0.162 A 
ATOM      6  C   UNL     1      47.093  43.337  -9.741  1.00  0.00     0.200 A 
ENDROOT
BRANCH   1   7
ATOM      7  C   UNL     1      47.706  43.009  -5.499  1.00  0.00     0.072 C 
ATOM      8  O   UNL     1      48.582  42.232  -5.035  1.00  0.00    -0.545 OA
ATOM      9  O   UNL     1      46.939  43.762  -4.618  1.00  0.00    -0.545 OA
ENDBRANCH   1   7
BRANCH   4  10
ATOM     10  O   UNL     1      47.308  40.940  -9.959  1.00  0.00    -0.504 OA
ATOM     11  H   UNL     1      48.120  40.682 -10.507  1.00  0.00     0.293 HD
ENDBRANCH   4  10
BRANCH   5  12
ATOM     12  O   UNL     1      46.879  45.740  -9.513  1.00  0.00    -0.504 OA
ATOM     13  H   UNL     1      46.222  46.405  -9.120  1.00  0.00     0.293 HD
ENDBRANCH   5  12
BRANCH   6  14
ATOM     14  O   UNL     1      46.896  43.423 -11.119  1.00  0.00    -0.502 OA
ATOM     15  H   UNL     1      47.477  42.918 -11.778  1.00  0.00     0.293 HD
ENDBRANCH   6  14
TORSDOF 4
ENDMDL
MODEL 2
REMARK VINA RESULT:    -0.149      0.219      2.602
REMARK INTER + INTRA:          -0.219
REMARK INTER:                  -0.171
REMARK INTRA:                  -0.049
REMARK UNBOUND:                -0.049
REMARK SMILES O=C([O-])c1cc(O)c(O)c(O)c1
REMARK SMILES IDX 4 1 5 2 12 3 6 4 10 5 8 6 2 7 1 8 3 9 7 10 11 12 9 14
REMARK H PARENT 7 11 11 13 9 15
REMARK Flexibility Score: inf
ROOT
ATOM      1  C   UNL     1      47.433  43.201  -6.761  1.00  0.00     0.005 A 
ATOM      2  C   UNL     1      47.242  44.432  -7.414  1.00  0.00     0.060 A 
ATOM      3  C   UNL     1      47.448  42.021  -7.522  1.00  0.00     0.060 A 
ATOM      4  C   UNL     1      47.068  44.481  -8.804  1.00  0.00     0.162 A 
ATOM      5  C   UNL     1      47.275  42.065  -8.913  1.00  0.00     0.162 A 
ATOM      6  C   UNL     1      47.084  43.299  -9.556  1.00  0.00     0.200 A 
ENDROOT
BRANCH   1   7
ATOM      7  C   UNL     1      47.617  43.146  -5.294  1.00  0.00     0.072 C 
ATOM      8  O   UNL     1      46.891  43.838  -4.531  1.00  0.00    -0.545 OA
ATOM      9  O   UNL     1      48.594  42.330  -4.736  1.00  0.00    -0.545 OA
ENDBRANCH   1   7
BRANCH   4  10
ATOM     10  O   UNL     1      46.878  45.703  -9.446  1.00  0.00    -0.504 OA
ATOM     11  H   UNL     1      46.805  45.768 -10.455  1.00  0.00     0.293 HD
ENDBRANCH   4  10
BRANCH   5  12
ATOM     12  O   UNL     1      47.292  40.886  -9.658  1.00  0.00    -0.504 OA
ATOM     13  H   UNL     1      46.693  40.758 -10.464  1.00  0.00     0.293 HD
ENDBRANCH   5  12
BRANCH   6  14
ATOM     14  O   UNL     1      46.909  43.369 -10.938  1.00  0.00    -0.502 OA
ATOM     15  H   UNL     1      46.583  44.211 -11.397  1.00  0.00     0.293 HD
ENDBRANCH   6  14
TORSDOF 4
ENDMDL
MODEL 3
REMARK VINA RESULT:     1.997      1.191      4.142
REMARK INTER + INTRA:           2.240
REMARK INTER:                   2.293
REMARK INTRA:                  -0.053
REMARK UNBOUND:                -0.049
REMARK SMILES O=C([O-])c1cc(O)c(O)c(O)c1
REMARK SMILES IDX 4 1 5 2 12 3 6 4 10 5 8 6 2 7 1 8 3 9 7 10 11 12 9 14
REMARK H PARENT 7 11 11 13 9 15
REMARK Flexibility Score: inf
ROOT
ATOM      1  C   UNL     1      46.946  43.871  -8.587  1.00  0.00     0.005 A 
ATOM      2  C   UNL     1      47.050  42.540  -8.144  1.00  0.00     0.060 A 
ATOM      3  C   UNL     1      46.889  44.903  -7.636  1.00  0.00     0.060 A 
ATOM      4  C   UNL     1      47.095  42.247  -6.774  1.00  0.00     0.162 A 
ATOM      5  C   UNL     1      46.933  44.615  -6.265  1.00  0.00     0.162 A 
ATOM      6  C   UNL     1      47.036  43.283  -5.832  1.00  0.00     0.200 A 
ENDROOT
BRANCH   1   7
ATOM      7  C   UNL     1      46.899  44.183 -10.033  1.00  0.00     0.072 C 
ATOM      8  O   UNL     1      46.875  43.257 -10.887  1.00  0.00    -0.545 OA
ATOM      9  O   UNL     1      46.881  45.502 -10.468  1.00  0.00    -0.545 OA
ENDBRANCH   1   7
BRANCH   4  10
ATOM     10  O   UNL     1      47.197  40.926  -6.340  1.00  0.00    -0.504 OA
ATOM     11  H   UNL     1      48.069  40.414  -6.398  1.00  0.00     0.293 HD
ENDBRANCH   4  10
BRANCH   5  12
ATOM     12  O   UNL     1      46.876  45.649  -5.331  1.00  0.00    -0.504 OA
ATOM     13  H   UNL     1      46.523  45.499  -4.393  1.00  0.00     0.293 HD
ENDBRANCH   5  12
BRANCH   6  14
ATOM     14  O   UNL     1      47.082  42.971  -4.473  1.00  0.00    -0.502 OA
ATOM     15  H   UNL     1      46.596  43.523  -3.778  1.00  0.00     0.293 HD
ENDBRANCH   6  14
TORSDOF 4
ENDMDL
