MODEL 1
REMARK VINA RESULT:     2.171      0.000      0.000
REMARK INTER + INTRA:           2.790
REMARK INTER:                   3.187
REMARK INTRA:                  -0.396
REMARK UNBOUND:                -0.396
REMARK SMILES Cc1cc2c(C(C)C)c(O)c(O)c(C=O)c2c(O)c1-c1c(C)cc2c(C(C)C)c(O)c(O)c(C=O)c2c1O
REMARK SMILES IDX 1 1 2 2 3 3 4 4 16 5 13 6 11 7 9 8 5 9 17 10 19 11 20 12
REMARK SMILES IDX 37 13 21 14 36 15 23 16 22 17 24 18 33 19 25 20 31 21 29 22
REMARK SMILES IDX 38 23 34 25 35 26 26 27 27 28 28 29 32 30 30 32 18 34 6 36
REMARK SMILES IDX 7 37 8 38 14 39 15 40 10 41 12 43
REMARK H PARENT 38 24 32 31 30 33 18 35 10 42 12 44
REMARK Flexibility Score: inf
ROOT
ATOM      1  C   UNL     1      47.988  11.107 124.524  1.00  0.00     0.045 C 
ATOM      2  C   UNL     1      47.043   9.941 124.687  1.00  0.00    -0.039 A 
ATOM      3  C   UNL     1      47.219   9.063 125.756  1.00  0.00     0.013 A 
ATOM      4  C   UNL     1      46.388   7.943 125.951  1.00  0.00    -0.006 A 
ATOM      5  C   UNL     1      45.290   7.742 125.058  1.00  0.00     0.039 A 
ATOM      6  C   UNL     1      44.429   6.623 125.263  1.00  0.00     0.072 A 
ATOM      7  C   UNL     1      44.553   5.856 126.433  1.00  0.00     0.169 A 
ATOM      8  C   UNL     1      45.592   6.093 127.337  1.00  0.00     0.162 A 
ATOM      9  C   UNL     1      46.608   7.034 127.036  1.00  0.00     0.008 A 
ATOM     10  C   UNL     1      45.060   8.692 124.016  1.00  0.00     0.132 A 
ATOM     11  C   UNL     1      45.954   9.766 123.819  1.00  0.00     0.031 A 
ENDROOT
BRANCH  11  12
ATOM     12  C   UNL     1      45.724  10.742 122.722  1.00  0.00     0.031 A 
ATOM     13  C   UNL     1      46.330  10.544 121.463  1.00  0.00     0.132 A 
ATOM     14  C   UNL     1      44.872  11.840 122.926  1.00  0.00    -0.039 A 
ATOM     15  C   UNL     1      46.165  11.505 120.425  1.00  0.00     0.039 A 
ATOM     16  C   UNL     1      44.609  12.713 121.868  1.00  0.00     0.013 A 
ATOM     17  C   UNL     1      44.154  12.037 124.239  1.00  0.00     0.045 C 
ATOM     18  C   UNL     1      45.261  12.591 120.620  1.00  0.00    -0.006 A 
ATOM     19  C   UNL     1      46.831  11.383 119.172  1.00  0.00     0.072 A 
ATOM     20  C   UNL     1      44.994  13.501 119.550  1.00  0.00     0.008 A 
ATOM     21  C   UNL     1      46.422  12.167 118.083  1.00  0.00     0.169 A 
ATOM     22  C   UNL     1      45.451  13.169 118.254  1.00  0.00     0.162 A 
BRANCH  13  23
ATOM     23  O   UNL     1      47.048   9.367 121.223  1.00  0.00    -0.507 OA
ATOM     24  H   UNL     1      47.420   8.775 121.955  1.00  0.00     0.293 HD
ENDBRANCH  13  23
BRANCH  19  25
ATOM     25  C   UNL     1      48.013  10.514 118.967  1.00  0.00     0.264 C 
ATOM     26  O   UNL     1      48.067   9.725 117.987  1.00  0.00    -0.298 OA
ENDBRANCH  19  25
BRANCH  20  27
ATOM     27  C   UNL     1      44.176  14.787 119.763  1.00  0.00     0.017 C 
ATOM     28  C   UNL     1      44.710  15.585 120.957  1.00  0.00     0.012 C 
ATOM     29  C   UNL     1      42.659  14.547 119.885  1.00  0.00     0.012 C 
ENDBRANCH  20  27
BRANCH  21  30
ATOM     30  O   UNL     1      47.039  11.959 116.842  1.00  0.00    -0.504 OA
ATOM     31  H   UNL     1      46.572  11.572 116.035  1.00  0.00     0.293 HD
ENDBRANCH  21  30
BRANCH  22  32
ATOM     32  O   UNL     1      44.918  13.840 117.150  1.00  0.00    -0.504 OA
ATOM     33  H   UNL     1      44.058  14.370 117.169  1.00  0.00     0.293 HD
ENDBRANCH  22  32
ENDBRANCH  11  12
BRANCH  10  34
ATOM     34  O   UNL     1      43.925   8.592 123.205  1.00  0.00    -0.507 OA
ATOM     35  H   UNL     1      43.824   7.925 122.452  1.00  0.00     0.293 HD
ENDBRANCH  10  34
BRANCH   9  36
ATOM     36  C   UNL     1      47.916   6.973 127.848  1.00  0.00     0.017 C 
ATOM     37  C   UNL     1      48.125   5.611 128.522  1.00  0.00     0.012 C 
ATOM     38  C   UNL     1      48.125   8.158 128.815  1.00  0.00     0.012 C 
ENDBRANCH   9  36
BRANCH   6  39
ATOM     39  C   UNL     1      43.438   6.187 124.251  1.00  0.00     0.264 C 
ATOM     40  O   UNL     1      42.246   5.935 124.573  1.00  0.00    -0.298 OA
ENDBRANCH   6  39
BRANCH   8  41
ATOM     41  O   UNL     1      45.588   5.363 128.532  1.00  0.00    -0.504 OA
ATOM     42  H   UNL     1      44.767   5.225 129.107  1.00  0.00     0.293 HD
ENDBRANCH   8  41
BRANCH   7  43
ATOM     43  O   UNL     1      43.639   4.827 126.683  1.00  0.00    -0.504 OA
ATOM     44  H   UNL     1      43.447   4.474 127.613  1.00  0.00     0.293 HD
ENDBRANCH   7  43
TORSDOF 11
ENDMDL
MODEL 2
REMARK VINA RESULT:     3.976      1.642      3.165
REMARK INTER + INTRA:           5.440
REMARK INTER:                   5.417
REMARK INTRA:                   0.022
REMARK UNBOUND:                -0.396
REMARK SMILES Cc1cc2c(C(C)C)c(O)c(O)c(C=O)c2c(O)c1-c1c(C)cc2c(C(C)C)c(O)c(O)c(C=O)c2c1O
REMARK SMILES IDX 1 1 2 2 3 3 4 4 16 5 13 6 11 7 9 8 5 9 17 10 19 11 20 12
REMARK SMILES IDX 37 13 21 14 36 15 23 16 22 17 24 18 33 19 25 20 31 21 29 22
REMARK SMILES IDX 38 23 34 25 35 26 26 27 27 28 28 29 32 30 30 32 18 34 6 36
REMARK SMILES IDX 7 37 8 38 14 39 15 40 10 41 12 43
REMARK H PARENT 38 24 32 31 30 33 18 35 10 42 12 44
REMARK Flexibility Score: inf
ROOT
ATOM      1  C   UNL     1      48.125  10.545 124.953  1.00  0.00     0.045 C 
ATOM      2  C   UNL     1      47.261   9.331 125.201  1.00  0.00    -0.039 A 
ATOM      3  C   UNL     1      47.358   8.661 126.420  1.00  0.00     0.013 A 
ATOM      4  C   UNL     1      46.598   7.509 126.705  1.00  0.00    -0.006 A 
ATOM      5  C   UNL     1      45.652   7.056 125.733  1.00  0.00     0.039 A 
ATOM      6  C   UNL     1      44.862   5.905 126.024  1.00  0.00     0.072 A 
ATOM      7  C   UNL     1      44.884   5.354 127.315  1.00  0.00     0.169 A 
ATOM      8  C   UNL     1      45.768   5.839 128.284  1.00  0.00     0.162 A 
ATOM      9  C   UNL     1      46.738   6.816 127.950  1.00  0.00     0.008 A 
ATOM     10  C   UNL     1      45.494   7.796 124.522  1.00  0.00     0.132 A 
ATOM     11  C   UNL     1      46.319   8.909 124.251  1.00  0.00     0.031 A 
ENDROOT
BRANCH  11  12
ATOM     12  C   UNL     1      46.166   9.665 122.981  1.00  0.00     0.031 A 
ATOM     13  C   UNL     1      45.188  10.677 122.874  1.00  0.00     0.132 A 
ATOM     14  C   UNL     1      47.023   9.400 121.899  1.00  0.00    -0.039 A 
ATOM     15  C   UNL     1      44.995  11.364 121.642  1.00  0.00     0.039 A 
ATOM     16  C   UNL     1      46.917  10.163 120.734  1.00  0.00     0.013 A 
ATOM     17  C   UNL     1      48.125   8.374 122.010  1.00  0.00     0.045 C 
ATOM     18  C   UNL     1      45.898  11.126 120.563  1.00  0.00    -0.006 A 
ATOM     19  C   UNL     1      43.960  12.328 121.471  1.00  0.00     0.072 A 
ATOM     20  C   UNL     1      45.791  11.890 119.358  1.00  0.00     0.008 A 
ATOM     21  C   UNL     1      43.983  13.191 120.365  1.00  0.00     0.169 A 
ATOM     22  C   UNL     1      44.943  13.021 119.352  1.00  0.00     0.162 A 
BRANCH  13  23
ATOM     23  O   UNL     1      44.448  11.039 124.005  1.00  0.00    -0.507 OA
ATOM     24  H   UNL     1      43.444  11.170 124.003  1.00  0.00     0.293 HD
ENDBRANCH  13  23
BRANCH  19  25
ATOM     25  C   UNL     1      42.788  12.423 122.371  1.00  0.00     0.264 C 
ATOM     26  O   UNL     1      42.058  11.419 122.584  1.00  0.00    -0.298 OA
ENDBRANCH  19  25
BRANCH  20  27
ATOM     27  C   UNL     1      46.615  11.547 118.105  1.00  0.00     0.017 C 
ATOM     28  C   UNL     1      46.052  10.310 117.400  1.00  0.00     0.012 C 
ATOM     29  C   UNL     1      48.125  11.399 118.375  1.00  0.00     0.012 C 
ENDBRANCH  20  27
BRANCH  21  30
ATOM     30  O   UNL     1      43.000  14.185 120.274  1.00  0.00    -0.504 OA
ATOM     31  H   UNL     1      43.142  15.147 120.547  1.00  0.00     0.293 HD
ENDBRANCH  21  30
BRANCH  22  32
ATOM     32  O   UNL     1      45.080  13.970 118.335  1.00  0.00    -0.504 OA
ATOM     33  H   UNL     1      45.966  14.268 117.953  1.00  0.00     0.293 HD
ENDBRANCH  22  32
ENDBRANCH  11  12
BRANCH  10  34
ATOM     34  O   UNL     1      44.492   7.452 123.608  1.00  0.00    -0.507 OA
ATOM     35  H   UNL     1      44.380   6.529 123.211  1.00  0.00     0.293 HD
ENDBRANCH  10  34
BRANCH   9  36
ATOM     36  C   UNL     1      47.923   7.020 128.913  1.00  0.00     0.017 C 
ATOM     37  C   UNL     1      48.046   5.885 129.939  1.00  0.00     0.012 C 
ATOM     38  C   UNL     1      47.990   8.420 129.558  1.00  0.00     0.012 C 
ENDBRANCH   9  36
BRANCH   6  39
ATOM     39  C   UNL     1      44.057   5.213 124.990  1.00  0.00     0.264 C 
ATOM     40  O   UNL     1      42.883   4.822 125.231  1.00  0.00    -0.298 OA
ENDBRANCH   6  39
BRANCH   8  41
ATOM     41  O   UNL     1      45.657   5.316 129.579  1.00  0.00    -0.504 OA
ATOM     42  H   UNL     1      44.788   4.997 129.986  1.00  0.00     0.293 HD
ENDBRANCH   8  41
BRANCH   7  43
ATOM     43  O   UNL     1      44.028   4.293 127.627  1.00  0.00    -0.504 OA
ATOM     44  H   UNL     1      43.081   4.429 127.958  1.00  0.00     0.293 HD
ENDBRANCH   7  43
TORSDOF 11
ENDMDL
MODEL 3
REMARK VINA RESULT:     4.058      1.480      9.094
REMARK INTER + INTRA:           5.560
REMARK INTER:                   6.169
REMARK INTRA:                  -0.609
REMARK UNBOUND:                -0.396
REMARK SMILES Cc1cc2c(C(C)C)c(O)c(O)c(C=O)c2c(O)c1-c1c(C)cc2c(C(C)C)c(O)c(O)c(C=O)c2c1O
REMARK SMILES IDX 1 1 2 2 3 3 4 4 16 5 13 6 11 7 9 8 5 9 17 10 19 11 20 12
REMARK SMILES IDX 37 13 21 14 36 15 23 16 22 17 24 18 33 19 25 20 31 21 29 22
REMARK SMILES IDX 38 23 34 25 35 26 26 27 27 28 28 29 32 30 30 32 18 34 6 36
REMARK SMILES IDX 7 37 8 38 14 39 15 40 10 41 12 43
REMARK H PARENT 38 24 32 31 30 33 18 35 10 42 12 44
REMARK Flexibility Score: inf
ROOT
ATOM      1  C   UNL     1      47.960   8.321 121.669  1.00  0.00     0.045 C 
ATOM      2  C   UNL     1      47.069   9.531 121.530  1.00  0.00    -0.039 A 
ATOM      3  C   UNL     1      46.967  10.166 120.292  1.00  0.00     0.013 A 
ATOM      4  C   UNL     1      46.173  11.313 120.100  1.00  0.00    -0.006 A 
ATOM      5  C   UNL     1      45.398  11.800 121.199  1.00  0.00     0.039 A 
ATOM      6  C   UNL     1      44.572  12.946 121.006  1.00  0.00     0.072 A 
ATOM      7  C   UNL     1      44.384  13.459 119.713  1.00  0.00     0.169 A 
ATOM      8  C   UNL     1      45.098  12.942 118.628  1.00  0.00     0.162 A 
ATOM      9  C   UNL     1      46.109  11.969 118.828  1.00  0.00     0.008 A 
ATOM     10  C   UNL     1      45.437  11.096 122.441  1.00  0.00     0.132 A 
ATOM     11  C   UNL     1      46.294   9.987 122.607  1.00  0.00     0.031 A 
ENDROOT
BRANCH  11  12
ATOM     12  C   UNL     1      46.350   9.269 123.907  1.00  0.00     0.031 A 
ATOM     13  C   UNL     1      45.562   8.116 124.112  1.00  0.00     0.132 A 
ATOM     14  C   UNL     1      47.217   9.714 124.918  1.00  0.00    -0.039 A 
ATOM     15  C   UNL     1      45.563   7.458 125.374  1.00  0.00     0.039 A 
ATOM     16  C   UNL     1      47.313   8.993 126.110  1.00  0.00     0.013 A 
ATOM     17  C   UNL     1      48.125  10.901 124.701  1.00  0.00     0.045 C 
ATOM     18  C   UNL     1      46.480   7.884 126.380  1.00  0.00    -0.006 A 
ATOM     19  C   UNL     1      44.715   6.346 125.645  1.00  0.00     0.072 A 
ATOM     20  C   UNL     1      46.578   7.164 127.612  1.00  0.00     0.008 A 
ATOM     21  C   UNL     1      44.950   5.544 126.772  1.00  0.00     0.169 A 
ATOM     22  C   UNL     1      45.931   5.910 127.711  1.00  0.00     0.162 A 
BRANCH  13  23
ATOM     23  O   UNL     1      44.822   7.592 123.046  1.00  0.00    -0.507 OA
ATOM     24  H   UNL     1      43.811   7.546 123.030  1.00  0.00     0.293 HD
ENDBRANCH  13  23
BRANCH  19  25
ATOM     25  C   UNL     1      43.521   6.024 124.831  1.00  0.00     0.264 C 
ATOM     26  O   UNL     1      42.414   5.779 125.382  1.00  0.00    -0.298 OA
ENDBRANCH  19  25
BRANCH  20  27
ATOM     27  C   UNL     1      47.411   7.687 128.795  1.00  0.00     0.017 C 
ATOM     28  C   UNL     1      48.095   6.535 129.536  1.00  0.00     0.012 C 
ATOM     29  C   UNL     1      46.619   8.584 129.765  1.00  0.00     0.012 C 
ENDBRANCH  20  27
BRANCH  21  30
ATOM     30  O   UNL     1      44.153   4.408 126.961  1.00  0.00    -0.504 OA
ATOM     31  H   UNL     1      44.393   3.645 127.578  1.00  0.00     0.293 HD
ENDBRANCH  21  30
BRANCH  22  32
ATOM     32  O   UNL     1      46.287   5.040 128.744  1.00  0.00    -0.504 OA
ATOM     33  H   UNL     1      47.061   4.392 128.699  1.00  0.00     0.293 HD
ENDBRANCH  22  32
ENDBRANCH  11  12
BRANCH  10  34
ATOM     34  O   UNL     1      44.598  11.472 123.495  1.00  0.00    -0.507 OA
ATOM     35  H   UNL     1      44.916  11.943 124.332  1.00  0.00     0.293 HD
ENDBRANCH  10  34
BRANCH   9  36
ATOM     36  C   UNL     1      47.121  11.730 117.692  1.00  0.00     0.017 C 
ATOM     37  C   UNL     1      47.808  13.025 117.237  1.00  0.00     0.012 C 
ATOM     38  C   UNL     1      46.576  10.896 116.514  1.00  0.00     0.012 C 
ENDBRANCH   9  36
BRANCH   6  39
ATOM     39  C   UNL     1      43.946  13.673 122.137  1.00  0.00     0.264 C 
ATOM     40  O   UNL     1      43.973  14.932 122.197  1.00  0.00    -0.298 OA
ENDBRANCH   6  39
BRANCH   8  41
ATOM     41  O   UNL     1      44.778  13.427 117.354  1.00  0.00    -0.504 OA
ATOM     42  H   UNL     1      43.866  13.781 117.096  1.00  0.00     0.293 HD
ENDBRANCH   8  41
BRANCH   7  43
ATOM     43  O   UNL     1      43.490  14.516 119.513  1.00  0.00    -0.504 OA
ATOM     44  H   UNL     1      42.945  14.925 120.262  1.00  0.00     0.293 HD
ENDBRANCH   7  43
TORSDOF 11
ENDMDL
