MODEL 1
REMARK VINA RESULT:    -4.437      0.000      0.000
REMARK INTER + INTRA:          -5.079
REMARK INTER:                  -4.955
REMARK INTRA:                  -0.124
REMARK UNBOUND:                -0.124
REMARK SMILES COc1cc2ccc(=O)oc2cc1OC
REMARK SMILES IDX 3 1 13 2 12 3 11 4 5 5 4 6 6 7 7 8 8 9 9 10 10 11 2 12 1 13
REMARK SMILES IDX 14 14 15 15
REMARK H PARENT
REMARK Flexibility Score: inf
ROOT
ATOM      1  C   UNL     1      -3.504  -9.653   8.587  1.00  0.00     0.161 A 
ATOM      2  C   UNL     1      -3.765 -10.441   7.454  1.00  0.00     0.164 A 
ATOM      3  C   UNL     1      -5.077 -10.524   6.947  1.00  0.00     0.098 A 
ATOM      4  C   UNL     1      -6.120  -9.830   7.566  1.00  0.00     0.142 A 
ATOM      5  C   UNL     1      -5.858  -9.041   8.704  1.00  0.00     0.022 A 
ATOM      6  C   UNL     1      -4.557  -8.953   9.211  1.00  0.00     0.062 A 
ATOM      7  C   UNL     1      -6.924  -8.358   9.299  1.00  0.00     0.019 A 
ATOM      8  C   UNL     1      -8.203  -8.476   8.757  1.00  0.00     0.094 A 
ATOM      9  C   UNL     1      -8.387  -9.278   7.626  1.00  0.00     0.336 A 
ATOM     10  O   UNL     1      -9.533  -9.398   7.121  1.00  0.00    -0.246 OA
ATOM     11  O   UNL     1      -7.355  -9.916   7.079  1.00  0.00    -0.423 OA
ENDROOT
BRANCH   1  12
ATOM     12  O   UNL     1      -2.185  -9.592   9.065  1.00  0.00    -0.493 OA
ATOM     13  C   UNL     1      -1.326  -8.465   8.926  1.00  0.00     0.278 C 
ENDBRANCH   1  12
BRANCH   2  14
ATOM     14  O   UNL     1      -2.693 -11.124   6.858  1.00  0.00    -0.493 OA
ATOM     15  C   UNL     1      -1.850 -10.579   5.847  1.00  0.00     0.278 C 
ENDBRANCH   2  14
TORSDOF 2
ENDMDL
MODEL 2
REMARK VINA RESULT:    -4.391     15.878     16.504
REMARK INTER + INTRA:          -5.028
REMARK INTER:                  -4.917
REMARK INTRA:                  -0.111
REMARK UNBOUND:                -0.124
REMARK SMILES COc1cc2ccc(=O)oc2cc1OC
REMARK SMILES IDX 3 1 13 2 12 3 11 4 5 5 4 6 6 7 7 8 8 9 9 10 10 11 2 12 1 13
REMARK SMILES IDX 14 14 15 15
REMARK H PARENT
REMARK Flexibility Score: inf
ROOT
ATOM      1  C   UNL     1       1.687  -4.536  -6.139  1.00  0.00     0.161 A 
ATOM      2  C   UNL     1       0.633  -4.036  -6.921  1.00  0.00     0.164 A 
ATOM      3  C   UNL     1       0.001  -2.830  -6.558  1.00  0.00     0.098 A 
ATOM      4  C   UNL     1       0.417  -2.129  -5.424  1.00  0.00     0.142 A 
ATOM      5  C   UNL     1       1.474  -2.630  -4.637  1.00  0.00     0.022 A 
ATOM      6  C   UNL     1       2.105  -3.827  -4.993  1.00  0.00     0.062 A 
ATOM      7  C   UNL     1       1.866  -1.903  -3.508  1.00  0.00     0.019 A 
ATOM      8  C   UNL     1       1.207  -0.715  -3.194  1.00  0.00     0.094 A 
ATOM      9  C   UNL     1       0.166  -0.279  -4.021  1.00  0.00     0.336 A 
ATOM     10  O   UNL     1      -0.442   0.790  -3.755  1.00  0.00    -0.246 OA
ATOM     11  O   UNL     1      -0.187  -0.990  -5.090  1.00  0.00    -0.423 OA
ENDROOT
BRANCH   1  12
ATOM     12  O   UNL     1       2.293  -5.740  -6.530  1.00  0.00    -0.493 OA
ATOM     13  C   UNL     1       3.089  -6.558  -5.678  1.00  0.00     0.278 C 
ENDBRANCH   1  12
BRANCH   2  14
ATOM     14  O   UNL     1       0.242  -4.768  -8.055  1.00  0.00    -0.493 OA
ATOM     15  C   UNL     1      -1.098  -5.150  -8.346  1.00  0.00     0.278 C 
ENDBRANCH   2  14
TORSDOF 2
ENDMDL
MODEL 3
REMARK VINA RESULT:    -4.356      2.037      6.221
REMARK INTER + INTRA:          -4.989
REMARK INTER:                  -4.836
REMARK INTRA:                  -0.153
REMARK UNBOUND:                -0.124
REMARK SMILES COc1cc2ccc(=O)oc2cc1OC
REMARK SMILES IDX 3 1 13 2 12 3 11 4 5 5 4 6 6 7 7 8 8 9 9 10 10 11 2 12 1 13
REMARK SMILES IDX 14 14 15 15
REMARK H PARENT
REMARK Flexibility Score: inf
ROOT
ATOM      1  C   UNL     1      -4.228 -10.339   7.502  1.00  0.00     0.161 A 
ATOM      2  C   UNL     1      -3.683  -9.768   8.664  1.00  0.00     0.164 A 
ATOM      3  C   UNL     1      -2.285  -9.655   8.800  1.00  0.00     0.098 A 
ATOM      4  C   UNL     1      -1.438 -10.108   7.786  1.00  0.00     0.142 A 
ATOM      5  C   UNL     1      -1.984 -10.682   6.620  1.00  0.00     0.022 A 
ATOM      6  C   UNL     1      -3.372 -10.796   6.479  1.00  0.00     0.062 A 
ATOM      7  C   UNL     1      -1.108 -11.125   5.623  1.00  0.00     0.019 A 
ATOM      8  C   UNL     1       0.267 -10.989   5.809  1.00  0.00     0.094 A 
ATOM      9  C   UNL     1       0.737 -10.411   6.993  1.00  0.00     0.336 A 
ATOM     10  O   UNL     1       1.974 -10.279   7.180  1.00  0.00    -0.246 OA
ATOM     11  O   UNL     1      -0.119  -9.997   7.924  1.00  0.00    -0.423 OA
ENDROOT
BRANCH   1  12
ATOM     12  O   UNL     1      -5.625 -10.435   7.400  1.00  0.00    -0.493 OA
ATOM     13  C   UNL     1      -6.438  -9.582   6.601  1.00  0.00     0.278 C 
ENDBRANCH   1  12
BRANCH   2  14
ATOM     14  O   UNL     1      -4.565  -9.323   9.663  1.00  0.00    -0.493 OA
ATOM     15  C   UNL     1      -5.042  -7.987   9.781  1.00  0.00     0.278 C 
ENDBRANCH   2  14
TORSDOF 2
ENDMDL
MODEL 4
REMARK VINA RESULT:    -4.323      3.867      5.697
REMARK INTER + INTRA:          -4.952
REMARK INTER:                  -4.812
REMARK INTRA:                  -0.140
REMARK UNBOUND:                -0.124
REMARK SMILES COc1cc2ccc(=O)oc2cc1OC
REMARK SMILES IDX 3 1 13 2 12 3 11 4 5 5 4 6 6 7 7 8 8 9 9 10 10 11 2 12 1 13
REMARK SMILES IDX 14 14 15 15
REMARK H PARENT
REMARK Flexibility Score: inf
ROOT
ATOM      1  C   UNL     1       0.757  -5.833   8.685  1.00  0.00     0.161 A 
ATOM      2  C   UNL     1       0.792  -7.198   9.013  1.00  0.00     0.164 A 
ATOM      3  C   UNL     1      -0.401  -7.871   9.342  1.00  0.00     0.098 A 
ATOM      4  C   UNL     1      -1.619  -7.187   9.348  1.00  0.00     0.142 A 
ATOM      5  C   UNL     1      -1.655  -5.816   9.020  1.00  0.00     0.022 A 
ATOM      6  C   UNL     1      -0.473  -5.143   8.691  1.00  0.00     0.062 A 
ATOM      7  C   UNL     1      -2.891  -5.161   9.034  1.00  0.00     0.019 A 
ATOM      8  C   UNL     1      -4.042  -5.874   9.369  1.00  0.00     0.094 A 
ATOM      9  C   UNL     1      -3.929  -7.232   9.683  1.00  0.00     0.336 A 
ATOM     10  O   UNL     1      -4.955  -7.894   9.987  1.00  0.00    -0.246 OA
ATOM     11  O   UNL     1      -2.741  -7.831   9.661  1.00  0.00    -0.423 OA
ENDROOT
BRANCH   1  12
ATOM     12  O   UNL     1       1.965  -5.195   8.361  1.00  0.00    -0.493 OA
ATOM     13  C   UNL     1       2.523  -4.104   9.086  1.00  0.00     0.278 C 
ENDBRANCH   1  12
BRANCH   2  14
ATOM     14  O   UNL     1       2.035  -7.854   8.997  1.00  0.00    -0.493 OA
ATOM     15  C   UNL     1       2.695  -8.360  10.153  1.00  0.00     0.278 C 
ENDBRANCH   2  14
TORSDOF 2
ENDMDL
MODEL 5
REMARK VINA RESULT:    -4.191      1.812      3.243
REMARK INTER + INTRA:          -4.805
REMARK INTER:                  -4.643
REMARK INTRA:                  -0.162
REMARK UNBOUND:                -0.124
REMARK SMILES COc1cc2ccc(=O)oc2cc1OC
REMARK SMILES IDX 3 1 13 2 12 3 11 4 5 5 4 6 6 7 7 8 8 9 9 10 10 11 2 12 1 13
REMARK SMILES IDX 14 14 15 15
REMARK H PARENT
REMARK Flexibility Score: inf
ROOT
ATOM      1  C   UNL     1      -2.711  -8.523   9.254  1.00  0.00     0.161 A 
ATOM      2  C   UNL     1      -3.657  -7.616   9.759  1.00  0.00     0.164 A 
ATOM      3  C   UNL     1      -5.030  -7.833   9.527  1.00  0.00     0.098 A 
ATOM      4  C   UNL     1      -5.456  -8.944   8.796  1.00  0.00     0.142 A 
ATOM      5  C   UNL     1      -4.508  -9.855   8.288  1.00  0.00     0.022 A 
ATOM      6  C   UNL     1      -3.143  -9.645   8.516  1.00  0.00     0.062 A 
ATOM      7  C   UNL     1      -4.967 -10.958   7.562  1.00  0.00     0.019 A 
ATOM      8  C   UNL     1      -6.337 -11.125   7.361  1.00  0.00     0.094 A 
ATOM      9  C   UNL     1      -7.219 -10.180   7.895  1.00  0.00     0.336 A 
ATOM     10  O   UNL     1      -8.459 -10.311   7.725  1.00  0.00    -0.246 OA
ATOM     11  O   UNL     1      -6.755  -9.139   8.583  1.00  0.00    -0.423 OA
ENDROOT
BRANCH   1  12
ATOM     12  O   UNL     1      -1.352  -8.277   9.504  1.00  0.00    -0.493 OA
ATOM     13  C   UNL     1      -0.418  -7.829   8.527  1.00  0.00     0.278 C 
ENDBRANCH   1  12
BRANCH   2  14
ATOM     14  O   UNL     1      -3.192  -6.509  10.489  1.00  0.00    -0.493 OA
ATOM     15  C   UNL     1      -3.032  -5.199   9.955  1.00  0.00     0.278 C 
ENDBRANCH   2  14
TORSDOF 2
ENDMDL
MODEL 6
REMARK VINA RESULT:    -4.086     15.809     16.626
REMARK INTER + INTRA:          -4.688
REMARK INTER:                  -4.586
REMARK INTRA:                  -0.102
REMARK UNBOUND:                -0.124
REMARK SMILES COc1cc2ccc(=O)oc2cc1OC
REMARK SMILES IDX 3 1 13 2 12 3 11 4 5 5 4 6 6 7 7 8 8 9 9 10 10 11 2 12 1 13
REMARK SMILES IDX 14 14 15 15
REMARK H PARENT
REMARK Flexibility Score: inf
ROOT
ATOM      1  C   UNL     1       0.784  -1.578  -4.504  1.00  0.00     0.161 A 
ATOM      2  C   UNL     1       1.008  -2.662  -5.369  1.00  0.00     0.164 A 
ATOM      3  C   UNL     1       2.158  -3.460  -5.209  1.00  0.00     0.098 A 
ATOM      4  C   UNL     1       3.079  -3.178  -4.197  1.00  0.00     0.142 A 
ATOM      5  C   UNL     1       2.856  -2.090  -3.329  1.00  0.00     0.022 A 
ATOM      6  C   UNL     1       1.714  -1.295  -3.482  1.00  0.00     0.062 A 
ATOM      7  C   UNL     1       3.796  -1.835  -2.325  1.00  0.00     0.019 A 
ATOM      8  C   UNL     1       4.918  -2.656  -2.213  1.00  0.00     0.094 A 
ATOM      9  C   UNL     1       5.073  -3.717  -3.110  1.00  0.00     0.336 A 
ATOM     10  O   UNL     1       6.078  -4.470  -3.025  1.00  0.00    -0.246 OA
ATOM     11  O   UNL     1       4.162  -3.938  -4.055  1.00  0.00    -0.423 OA
ENDROOT
BRANCH   1  12
ATOM     12  O   UNL     1      -0.373  -0.805  -4.691  1.00  0.00    -0.493 OA
ATOM     13  C   UNL     1      -0.571   0.497  -4.151  1.00  0.00     0.278 C 
ENDBRANCH   1  12
BRANCH   2  14
ATOM     14  O   UNL     1       0.061  -2.916  -6.375  1.00  0.00    -0.493 OA
ATOM     15  C   UNL     1       0.074  -4.057  -7.226  1.00  0.00     0.278 C 
ENDBRANCH   2  14
TORSDOF 2
ENDMDL
MODEL 7
REMARK VINA RESULT:    -4.081     15.776     17.209
REMARK INTER + INTRA:          -4.682
REMARK INTER:                  -4.562
REMARK INTRA:                  -0.121
REMARK UNBOUND:                -0.124
REMARK SMILES COc1cc2ccc(=O)oc2cc1OC
REMARK SMILES IDX 3 1 13 2 12 3 11 4 5 5 4 6 6 7 7 8 8 9 9 10 10 11 2 12 1 13
REMARK SMILES IDX 14 14 15 15
REMARK H PARENT
REMARK Flexibility Score: inf
ROOT
ATOM      1  C   UNL     1       5.338  -0.524  -3.033  1.00  0.00     0.161 A 
ATOM      2  C   UNL     1       5.010   0.837  -3.156  1.00  0.00     0.164 A 
ATOM      3  C   UNL     1       3.676   1.216  -3.407  1.00  0.00     0.098 A 
ATOM      4  C   UNL     1       2.679   0.247  -3.536  1.00  0.00     0.142 A 
ATOM      5  C   UNL     1       3.007  -1.119  -3.413  1.00  0.00     0.022 A 
ATOM      6  C   UNL     1       4.330  -1.501  -3.163  1.00  0.00     0.062 A 
ATOM      7  C   UNL     1       1.984  -2.064  -3.547  1.00  0.00     0.019 A 
ATOM      8  C   UNL     1       0.681  -1.634  -3.796  1.00  0.00     0.094 A 
ATOM      9  C   UNL     1       0.430  -0.262  -3.905  1.00  0.00     0.336 A 
ATOM     10  O   UNL     1      -0.738   0.146  -4.129  1.00  0.00    -0.246 OA
ATOM     11  O   UNL     1       1.422   0.616  -3.773  1.00  0.00    -0.423 OA
ENDROOT
BRANCH   1  12
ATOM     12  O   UNL     1       6.677  -0.866  -2.782  1.00  0.00    -0.493 OA
ATOM     13  C   UNL     1       7.093  -1.968  -1.983  1.00  0.00     0.278 C 
ENDBRANCH   1  12
BRANCH   2  14
ATOM     14  O   UNL     1       6.039   1.783  -3.020  1.00  0.00    -0.493 OA
ATOM     15  C   UNL     1       6.126   2.734  -1.963  1.00  0.00     0.278 C 
ENDBRANCH   2  14
TORSDOF 2
ENDMDL
MODEL 8
REMARK VINA RESULT:    -4.034     15.636     16.093
REMARK INTER + INTRA:          -4.629
REMARK INTER:                  -4.517
REMARK INTRA:                  -0.112
REMARK UNBOUND:                -0.124
REMARK SMILES COc1cc2ccc(=O)oc2cc1OC
REMARK SMILES IDX 3 1 13 2 12 3 11 4 5 5 4 6 6 7 7 8 8 9 9 10 10 11 2 12 1 13
REMARK SMILES IDX 14 14 15 15
REMARK H PARENT
REMARK Flexibility Score: inf
ROOT
ATOM      1  C   UNL     1       3.514  -3.905  -4.416  1.00  0.00     0.161 A 
ATOM      2  C   UNL     1       3.986  -3.060  -3.398  1.00  0.00     0.164 A 
ATOM      3  C   UNL     1       3.254  -1.908  -3.048  1.00  0.00     0.098 A 
ATOM      4  C   UNL     1       2.063  -1.599  -3.710  1.00  0.00     0.142 A 
ATOM      5  C   UNL     1       1.589  -2.446  -4.733  1.00  0.00     0.022 A 
ATOM      6  C   UNL     1       2.312  -3.592  -5.084  1.00  0.00     0.062 A 
ATOM      7  C   UNL     1       0.393  -2.109  -5.375  1.00  0.00     0.019 A 
ATOM      8  C   UNL     1      -0.291  -0.957  -4.990  1.00  0.00     0.094 A 
ATOM      9  C   UNL     1       0.240  -0.164  -3.966  1.00  0.00     0.336 A 
ATOM     10  O   UNL     1      -0.362   0.879  -3.604  1.00  0.00    -0.246 OA
ATOM     11  O   UNL     1       1.380  -0.509  -3.372  1.00  0.00    -0.423 OA
ENDROOT
BRANCH   1  12
ATOM     12  O   UNL     1       4.268  -5.045  -4.739  1.00  0.00    -0.493 OA
ATOM     13  C   UNL     1       3.715  -6.324  -5.030  1.00  0.00     0.278 C 
ENDBRANCH   1  12
BRANCH   2  14
ATOM     14  O   UNL     1       5.187  -3.402  -2.755  1.00  0.00    -0.493 OA
ATOM     15  C   UNL     1       5.409  -3.297  -1.352  1.00  0.00     0.278 C 
ENDBRANCH   2  14
TORSDOF 2
ENDMDL
MODEL 9
REMARK VINA RESULT:    -3.987     15.892     16.806
REMARK INTER + INTRA:          -4.577
REMARK INTER:                  -4.461
REMARK INTRA:                  -0.117
REMARK UNBOUND:                -0.124
REMARK SMILES COc1cc2ccc(=O)oc2cc1OC
REMARK SMILES IDX 3 1 13 2 12 3 11 4 5 5 4 6 6 7 7 8 8 9 9 10 10 11 2 12 1 13
REMARK SMILES IDX 14 14 15 15
REMARK H PARENT
REMARK Flexibility Score: inf
ROOT
ATOM      1  C   UNL     1       1.007  -1.574  -4.170  1.00  0.00     0.161 A 
ATOM      2  C   UNL     1       2.281  -2.041  -3.806  1.00  0.00     0.164 A 
ATOM      3  C   UNL     1       2.856  -3.122  -4.503  1.00  0.00     0.098 A 
ATOM      4  C   UNL     1       2.166  -3.734  -5.552  1.00  0.00     0.142 A 
ATOM      5  C   UNL     1       0.887  -3.267  -5.917  1.00  0.00     0.022 A 
ATOM      6  C   UNL     1       0.311  -2.193  -5.229  1.00  0.00     0.062 A 
ATOM      7  C   UNL     1       0.223  -3.901  -6.972  1.00  0.00     0.019 A 
ATOM      8  C   UNL     1       0.838  -4.968  -7.628  1.00  0.00     0.094 A 
ATOM      9  C   UNL     1       2.109  -5.377  -7.210  1.00  0.00     0.336 A 
ATOM     10  O   UNL     1       2.682  -6.337  -7.788  1.00  0.00    -0.246 OA
ATOM     11  O   UNL     1       2.719  -4.755  -6.203  1.00  0.00    -0.423 OA
ENDROOT
BRANCH   1  12
ATOM     12  O   UNL     1       0.464  -0.495  -3.455  1.00  0.00    -0.493 OA
ATOM     13  C   UNL     1      -0.369   0.512  -4.020  1.00  0.00     0.278 C 
ENDBRANCH   1  12
BRANCH   2  14
ATOM     14  O   UNL     1       2.945  -1.401  -2.747  1.00  0.00    -0.493 OA
ATOM     15  C   UNL     1       3.925  -0.380  -2.908  1.00  0.00     0.278 C 
ENDBRANCH   2  14
TORSDOF 2
ENDMDL
