MODEL 1
REMARK VINA RESULT:    41.420      0.000      0.000
REMARK INTER + INTRA:         117.452
REMARK INTER:                  98.323
REMARK INTRA:                  19.129
REMARK UNBOUND:                19.129
REMARK SMILES O=C(OC[C@H]1O[C@H](OC(=O)c2cc(O)c(O)c(O)c2)[C@H](OC(=O)c2cc(O)c(O)c(O)c2)[C@@H](OC(=O)c2cc(O)c(O)c(O)c2)[C@H]1OC(=O)c1cc(O)c(O)c(O)c1)c1cc(O)c(O)c(O)c1
REMARK SMILES IDX 5 1 46 2 33 3 20 4 7 5 6 6 4 7 3 8 2 9 1 10 59 11 60 12
REMARK SMILES IDX 61 13 67 14 63 15 65 16 62 17 64 19 66 21 47 23 48 24 49 25
REMARK SMILES IDX 50 26 58 27 51 28 56 29 52 30 54 31 57 32 53 34 55 36 34 38
REMARK SMILES IDX 35 39 36 40 37 41 45 42 38 43 43 44 39 45 41 46 44 47 40 49
REMARK SMILES IDX 42 51 8 53 9 54 10 55 11 56 19 57 12 58 17 59 13 60 15 61
REMARK SMILES IDX 18 62 14 64 16 66 21 68 22 69 23 70 24 71 32 72 25 73 30 74
REMARK SMILES IDX 26 75 28 76 31 77 27 79 29 81
REMARK H PARENT 62 18 64 20 66 22 57 33 53 35 55 37 44 48 40 50 42 52 18 63
REMARK H PARENT 14 65 16 67 31 78 27 80 29 82
REMARK Flexibility Score: inf
ROOT
ATOM      1  C   UNL     1      77.261  38.602  26.021  1.00  0.00     0.205 C 
ATOM      2  C   UNL     1      77.180  39.712  27.084  1.00  0.00     0.254 C 
ATOM      3  C   UNL     1      76.673  40.980  26.388  1.00  0.00     0.267 C 
ATOM      4  C   UNL     1      75.315  40.696  25.721  1.00  0.00     0.290 C 
ATOM      5  C   UNL     1      75.433  39.450  24.812  1.00  0.00     0.357 C 
ATOM      6  O   UNL     1      75.966  38.327  25.503  1.00  0.00    -0.329 OA
ENDROOT
BRANCH   1   7
ATOM      7  C   UNL     1      77.868  37.301  26.579  1.00  0.00     0.269 C 
BRANCH   7   8
ATOM      8  O   UNL     1      78.689  37.604  27.702  1.00  0.00    -0.459 OA
BRANCH   8   9
ATOM      9  C   UNL     1      78.201  37.578  29.016  1.00  0.00     0.338 C 
ATOM     10  O   UNL     1      77.624  38.597  29.494  1.00  0.00    -0.246 OA
BRANCH   9  11
ATOM     11  C   UNL     1      78.391  36.374  29.851  1.00  0.00     0.067 A 
ATOM     12  C   UNL     1      79.666  36.034  30.322  1.00  0.00     0.066 A 
ATOM     13  C   UNL     1      79.870  34.871  31.068  1.00  0.00     0.162 A 
ATOM     14  C   UNL     1      77.300  35.530  30.144  1.00  0.00     0.066 A 
ATOM     15  C   UNL     1      78.781  34.006  31.330  1.00  0.00     0.200 A 
ATOM     16  C   UNL     1      77.497  34.349  30.869  1.00  0.00     0.162 A 
BRANCH  13  17
ATOM     17  O   UNL     1      81.160  34.621  31.535  1.00  0.00    -0.504 OA
ATOM     18  H   UNL     1      81.775  33.933  31.134  1.00  0.00     0.293 HD
ENDBRANCH  13  17
BRANCH  15  19
ATOM     19  O   UNL     1      78.939  32.808  32.035  1.00  0.00    -0.502 OA
ATOM     20  H   UNL     1      78.250  32.416  32.657  1.00  0.00     0.293 HD
ENDBRANCH  15  19
BRANCH  16  21
ATOM     21  O   UNL     1      76.398  33.526  31.116  1.00  0.00    -0.504 OA
ATOM     22  H   UNL     1      75.521  33.891  31.465  1.00  0.00     0.293 HD
ENDBRANCH  16  21
ENDBRANCH   9  11
ENDBRANCH   8   9
ENDBRANCH   7   8
ENDBRANCH   1   7
BRANCH   2  23
ATOM     23  O   UNL     1      76.257  39.348  28.112  1.00  0.00    -0.452 OA
BRANCH  23  24
ATOM     24  C   UNL     1      75.226  38.412  27.950  1.00  0.00     0.338 C 
ATOM     25  O   UNL     1      74.694  38.257  26.821  1.00  0.00    -0.246 OA
BRANCH  24  26
ATOM     26  C   UNL     1      74.787  37.603  29.109  1.00  0.00     0.067 A 
ATOM     27  C   UNL     1      74.895  38.103  30.420  1.00  0.00     0.066 A 
ATOM     28  C   UNL     1      74.307  36.298  28.914  1.00  0.00     0.066 A 
ATOM     29  C   UNL     1      74.542  37.304  31.520  1.00  0.00     0.162 A 
ATOM     30  C   UNL     1      73.945  35.503  30.006  1.00  0.00     0.162 A 
ATOM     31  C   UNL     1      74.062  36.001  31.312  1.00  0.00     0.200 A 
BRANCH  29  32
ATOM     32  O   UNL     1      74.672  37.799  32.816  1.00  0.00    -0.504 OA
ATOM     33  H   UNL     1      75.571  38.082  33.186  1.00  0.00     0.293 HD
ENDBRANCH  29  32
BRANCH  30  34
ATOM     34  O   UNL     1      73.475  34.212  29.771  1.00  0.00    -0.504 OA
ATOM     35  H   UNL     1      73.706  33.435  30.382  1.00  0.00     0.293 HD
ENDBRANCH  30  34
BRANCH  31  36
ATOM     36  O   UNL     1      73.706  35.187  32.386  1.00  0.00    -0.502 OA
ATOM     37  H   UNL     1      73.000  34.466  32.309  1.00  0.00     0.293 HD
ENDBRANCH  31  36
ENDBRANCH  24  26
ENDBRANCH  23  24
ENDBRANCH   2  23
BRANCH   3  38
ATOM     38  O   UNL     1      76.577  42.056  27.320  1.00  0.00    -0.450 OA
BRANCH  38  39
ATOM     39  C   UNL     1      75.476  42.221  28.172  1.00  0.00     0.338 C 
ATOM     40  O   UNL     1      74.307  42.231  27.698  1.00  0.00    -0.246 OA
BRANCH  39  41
ATOM     41  C   UNL     1      75.679  42.362  29.631  1.00  0.00     0.067 A 
ATOM     42  C   UNL     1      76.960  42.204  30.188  1.00  0.00     0.066 A 
ATOM     43  C   UNL     1      74.596  42.659  30.474  1.00  0.00     0.066 A 
ATOM     44  C   UNL     1      77.157  42.335  31.565  1.00  0.00     0.162 A 
ATOM     45  C   UNL     1      74.779  42.789  31.854  1.00  0.00     0.162 A 
ATOM     46  C   UNL     1      76.073  42.616  32.412  1.00  0.00     0.200 A 
BRANCH  44  47
ATOM     47  O   UNL     1      78.439  42.187  32.098  1.00  0.00    -0.504 OA
ATOM     48  H   UNL     1      79.269  42.453  31.573  1.00  0.00     0.293 HD
ENDBRANCH  44  47
BRANCH  45  49
ATOM     49  O   UNL     1      73.657  43.085  32.628  1.00  0.00    -0.504 OA
ATOM     50  H   UNL     1      73.391  44.018  32.907  1.00  0.00     0.293 HD
ENDBRANCH  45  49
BRANCH  46  51
ATOM     51  O   UNL     1      76.324  42.708  33.783  1.00  0.00    -0.502 OA
ATOM     52  H   UNL     1      76.522  43.581  34.261  1.00  0.00     0.293 HD
ENDBRANCH  46  51
ENDBRANCH  39  41
ENDBRANCH  38  39
ENDBRANCH   3  38
BRANCH   5  53
ATOM     53  O   UNL     1      76.209  39.751  23.653  1.00  0.00    -0.428 OA
BRANCH  53  54
ATOM     54  C   UNL     1      75.650  39.967  22.389  1.00  0.00     0.340 C 
ATOM     55  O   UNL     1      76.324  40.505  21.473  1.00  0.00    -0.246 OA
BRANCH  54  56
ATOM     56  C   UNL     1      74.262  39.552  22.133  1.00  0.00     0.067 A 
ATOM     57  C   UNL     1      73.983  38.406  21.378  1.00  0.00     0.066 A 
ATOM     58  C   UNL     1      73.202  40.299  22.661  1.00  0.00     0.066 A 
ATOM     59  C   UNL     1      72.665  37.981  21.172  1.00  0.00     0.162 A 
ATOM     60  C   UNL     1      71.880  39.910  22.444  1.00  0.00     0.162 A 
ATOM     61  C   UNL     1      71.594  38.739  21.712  1.00  0.00     0.200 A 
BRANCH  59  62
ATOM     62  O   UNL     1      72.472  36.808  20.435  1.00  0.00    -0.504 OA
ATOM     63  H   UNL     1      71.836  36.730  19.650  1.00  0.00     0.293 HD
ENDBRANCH  59  62
BRANCH  60  64
ATOM     64  O   UNL     1      70.859  40.709  22.961  1.00  0.00    -0.504 OA
ATOM     65  H   UNL     1      69.926  40.346  23.128  1.00  0.00     0.293 HD
ENDBRANCH  60  64
BRANCH  61  66
ATOM     66  O   UNL     1      70.254  38.361  21.547  1.00  0.00    -0.502 OA
ATOM     67  H   UNL     1      69.652  38.060  22.302  1.00  0.00     0.293 HD
ENDBRANCH  61  66
ENDBRANCH  54  56
ENDBRANCH  53  54
ENDBRANCH   5  53
BRANCH   4  68
ATOM     68  O   UNL     1      74.924  41.802  24.910  1.00  0.00    -0.448 OA
BRANCH  68  69
ATOM     69  C   UNL     1      75.655  42.271  23.814  1.00  0.00     0.339 C 
ATOM     70  O   UNL     1      76.891  42.501  23.925  1.00  0.00    -0.246 OA
BRANCH  69  71
ATOM     71  C   UNL     1      74.966  42.508  22.528  1.00  0.00     0.067 A 
ATOM     72  C   UNL     1      75.680  42.540  21.323  1.00  0.00     0.066 A 
ATOM     73  C   UNL     1      73.575  42.698  22.497  1.00  0.00     0.066 A 
ATOM     74  C   UNL     1      75.020  42.743  20.103  1.00  0.00     0.162 A 
ATOM     75  C   UNL     1      72.906  42.898  21.286  1.00  0.00     0.162 A 
ATOM     76  C   UNL     1      73.626  42.921  20.082  1.00  0.00     0.200 A 
BRANCH  74  77
ATOM     77  O   UNL     1      75.741  42.760  18.909  1.00  0.00    -0.504 OA
ATOM     78  H   UNL     1      75.726  41.972  18.269  1.00  0.00     0.293 HD
ENDBRANCH  74  77
BRANCH  75  79
ATOM     79  O   UNL     1      71.521  43.071  21.297  1.00  0.00    -0.504 OA
ATOM     80  H   UNL     1      71.019  43.466  20.513  1.00  0.00     0.293 HD
ENDBRANCH  75  79
BRANCH  76  81
ATOM     81  O   UNL     1      72.951  43.121  18.876  1.00  0.00    -0.502 OA
ATOM     82  H   UNL     1      72.496  42.371  18.378  1.00  0.00     0.293 HD
ENDBRANCH  76  81
ENDBRANCH  69  71
ENDBRANCH  68  69
ENDBRANCH   4  68
TORSDOF 31
ENDMDL
MODEL 2
REMARK VINA RESULT:    44.159      1.308      3.244
REMARK INTER + INTRA:         123.954
REMARK INTER:                 114.113
REMARK INTRA:                   9.840
REMARK UNBOUND:                19.129
REMARK SMILES O=C(OC[C@H]1O[C@H](OC(=O)c2cc(O)c(O)c(O)c2)[C@H](OC(=O)c2cc(O)c(O)c(O)c2)[C@@H](OC(=O)c2cc(O)c(O)c(O)c2)[C@H]1OC(=O)c1cc(O)c(O)c(O)c1)c1cc(O)c(O)c(O)c1
REMARK SMILES IDX 5 1 46 2 33 3 20 4 7 5 6 6 4 7 3 8 2 9 1 10 59 11 60 12
REMARK SMILES IDX 61 13 67 14 63 15 65 16 62 17 64 19 66 21 47 23 48 24 49 25
REMARK SMILES IDX 50 26 58 27 51 28 56 29 52 30 54 31 57 32 53 34 55 36 34 38
REMARK SMILES IDX 35 39 36 40 37 41 45 42 38 43 43 44 39 45 41 46 44 47 40 49
REMARK SMILES IDX 42 51 8 53 9 54 10 55 11 56 19 57 12 58 17 59 13 60 15 61
REMARK SMILES IDX 18 62 14 64 16 66 21 68 22 69 23 70 24 71 32 72 25 73 30 74
REMARK SMILES IDX 26 75 28 76 31 77 27 79 29 81
REMARK H PARENT 62 18 64 20 66 22 57 33 53 35 55 37 44 48 40 50 42 52 18 63
REMARK H PARENT 14 65 16 67 31 78 27 80 29 82
REMARK Flexibility Score: inf
ROOT
ATOM      1  C   UNL     1      77.532  39.511  27.143  1.00  0.00     0.205 C 
ATOM      2  C   UNL     1      76.243  39.713  27.960  1.00  0.00     0.254 C 
ATOM      3  C   UNL     1      75.300  40.585  27.124  1.00  0.00     0.267 C 
ATOM      4  C   UNL     1      75.041  39.910  25.764  1.00  0.00     0.290 C 
ATOM      5  C   UNL     1      76.390  39.569  25.090  1.00  0.00     0.357 C 
ATOM      6  O   UNL     1      77.242  38.812  25.940  1.00  0.00    -0.329 OA
ENDROOT
BRANCH   1   7
ATOM      7  C   UNL     1      78.609  38.741  27.929  1.00  0.00     0.269 C 
BRANCH   7   8
ATOM      8  O   UNL     1      78.648  37.390  27.480  1.00  0.00    -0.459 OA
BRANCH   8   9
ATOM      9  C   UNL     1      79.627  36.484  27.913  1.00  0.00     0.338 C 
ATOM     10  O   UNL     1      80.651  36.275  27.200  1.00  0.00    -0.246 OA
BRANCH   9  11
ATOM     11  C   UNL     1      79.444  35.751  29.183  1.00  0.00     0.067 A 
ATOM     12  C   UNL     1      80.525  35.571  30.056  1.00  0.00     0.066 A 
ATOM     13  C   UNL     1      80.381  34.836  31.235  1.00  0.00     0.162 A 
ATOM     14  C   UNL     1      78.194  35.188  29.509  1.00  0.00     0.066 A 
ATOM     15  C   UNL     1      79.136  34.240  31.543  1.00  0.00     0.200 A 
ATOM     16  C   UNL     1      78.045  34.428  30.675  1.00  0.00     0.162 A 
BRANCH  13  17
ATOM     17  O   UNL     1      81.493  34.733  32.073  1.00  0.00    -0.504 OA
ATOM     18  H   UNL     1      82.110  35.501  32.276  1.00  0.00     0.293 HD
ENDBRANCH  13  17
BRANCH  15  19
ATOM     19  O   UNL     1      78.950  33.459  32.688  1.00  0.00    -0.502 OA
ATOM     20  H   UNL     1      78.826  32.458  32.683  1.00  0.00     0.293 HD
ENDBRANCH  15  19
BRANCH  16  21
ATOM     21  O   UNL     1      76.799  33.864  30.949  1.00  0.00    -0.504 OA
ATOM     22  H   UNL     1      76.481  33.699  31.896  1.00  0.00     0.293 HD
ENDBRANCH  16  21
ENDBRANCH   9  11
ENDBRANCH   8   9
ENDBRANCH   7   8
ENDBRANCH   1   7
BRANCH   2  23
ATOM     23  O   UNL     1      75.612  38.455  28.210  1.00  0.00    -0.452 OA
BRANCH  23  24
ATOM     24  C   UNL     1      76.058  37.525  29.159  1.00  0.00     0.338 C 
ATOM     25  O   UNL     1      77.282  37.249  29.238  1.00  0.00    -0.246 OA
BRANCH  24  26
ATOM     26  C   UNL     1      75.081  36.892  30.073  1.00  0.00     0.067 A 
ATOM     27  C   UNL     1      74.249  35.848  29.629  1.00  0.00     0.066 A 
ATOM     28  C   UNL     1      74.936  37.368  31.387  1.00  0.00     0.066 A 
ATOM     29  C   UNL     1      73.276  35.298  30.480  1.00  0.00     0.162 A 
ATOM     30  C   UNL     1      73.976  36.816  32.241  1.00  0.00     0.162 A 
ATOM     31  C   UNL     1      73.142  35.782  31.792  1.00  0.00     0.200 A 
BRANCH  29  32
ATOM     32  O   UNL     1      72.442  34.280  30.026  1.00  0.00    -0.504 OA
ATOM     33  H   UNL     1      72.040  33.602  30.662  1.00  0.00     0.293 HD
ENDBRANCH  29  32
BRANCH  30  34
ATOM     34  O   UNL     1      73.862  37.317  33.536  1.00  0.00    -0.504 OA
ATOM     35  H   UNL     1      73.308  38.141  33.749  1.00  0.00     0.293 HD
ENDBRANCH  30  34
BRANCH  31  36
ATOM     36  O   UNL     1      72.184  35.255  32.657  1.00  0.00    -0.502 OA
ATOM     37  H   UNL     1      71.192  35.396  32.516  1.00  0.00     0.293 HD
ENDBRANCH  31  36
ENDBRANCH  24  26
ENDBRANCH  23  24
ENDBRANCH   2  23
BRANCH   3  38
ATOM     38  O   UNL     1      74.080  40.815  27.827  1.00  0.00    -0.450 OA
BRANCH  38  39
ATOM     39  C   UNL     1      74.028  41.511  29.044  1.00  0.00     0.338 C 
ATOM     40  O   UNL     1      72.916  41.865  29.522  1.00  0.00    -0.246 OA
BRANCH  39  41
ATOM     41  C   UNL     1      75.276  41.814  29.780  1.00  0.00     0.067 A 
ATOM     42  C   UNL     1      75.255  41.976  31.176  1.00  0.00     0.066 A 
ATOM     43  C   UNL     1      76.494  41.940  29.092  1.00  0.00     0.066 A 
ATOM     44  C   UNL     1      76.430  42.264  31.875  1.00  0.00     0.162 A 
ATOM     45  C   UNL     1      77.676  42.231  29.780  1.00  0.00     0.162 A 
ATOM     46  C   UNL     1      77.646  42.406  31.188  1.00  0.00     0.200 A 
BRANCH  44  47
ATOM     47  O   UNL     1      76.392  42.408  33.264  1.00  0.00    -0.504 OA
ATOM     48  H   UNL     1      76.919  41.793  33.879  1.00  0.00     0.293 HD
ENDBRANCH  44  47
BRANCH  45  49
ATOM     49  O   UNL     1      78.847  42.342  29.031  1.00  0.00    -0.504 OA
ATOM     50  H   UNL     1      78.877  42.641  28.067  1.00  0.00     0.293 HD
ENDBRANCH  45  49
BRANCH  46  51
ATOM     51  O   UNL     1      78.784  42.721  31.936  1.00  0.00    -0.502 OA
ATOM     52  H   UNL     1      78.990  42.317  32.843  1.00  0.00     0.293 HD
ENDBRANCH  46  51
ENDBRANCH  39  41
ENDBRANCH  38  39
ENDBRANCH   3  38
BRANCH   5  53
ATOM     53  O   UNL     1      77.040  40.759  24.646  1.00  0.00    -0.428 OA
BRANCH  53  54
ATOM     54  C   UNL     1      76.360  41.950  24.371  1.00  0.00     0.340 C 
ATOM     55  O   UNL     1      76.053  42.742  25.298  1.00  0.00    -0.246 OA
BRANCH  54  56
ATOM     56  C   UNL     1      76.009  42.276  22.979  1.00  0.00     0.067 A 
ATOM     57  C   UNL     1      76.991  42.313  21.982  1.00  0.00     0.066 A 
ATOM     58  C   UNL     1      74.677  42.539  22.639  1.00  0.00     0.066 A 
ATOM     59  C   UNL     1      76.655  42.577  20.648  1.00  0.00     0.162 A 
ATOM     60  C   UNL     1      74.323  42.832  21.322  1.00  0.00     0.162 A 
ATOM     61  C   UNL     1      75.303  42.839  20.307  1.00  0.00     0.200 A 
BRANCH  59  62
ATOM     62  O   UNL     1      77.689  42.562  19.707  1.00  0.00    -0.504 OA
ATOM     63  H   UNL     1      78.119  43.396  19.324  1.00  0.00     0.293 HD
ENDBRANCH  59  62
BRANCH  60  64
ATOM     64  O   UNL     1      72.988  43.122  21.041  1.00  0.00    -0.504 OA
ATOM     65  H   UNL     1      72.238  42.868  21.676  1.00  0.00     0.293 HD
ENDBRANCH  60  64
BRANCH  61  66
ATOM     66  O   UNL     1      74.903  43.101  18.989  1.00  0.00    -0.502 OA
ATOM     67  H   UNL     1      75.456  42.876  18.173  1.00  0.00     0.293 HD
ENDBRANCH  61  66
ENDBRANCH  54  56
ENDBRANCH  53  54
ENDBRANCH   5  53
BRANCH   4  68
ATOM     68  O   UNL     1      74.326  40.795  24.905  1.00  0.00    -0.448 OA
BRANCH  68  69
ATOM     69  C   UNL     1      73.207  40.427  24.152  1.00  0.00     0.339 C 
ATOM     70  O   UNL     1      72.048  40.522  24.646  1.00  0.00    -0.246 OA
BRANCH  69  71
ATOM     71  C   UNL     1      73.390  39.910  22.780  1.00  0.00     0.067 A 
ATOM     72  C   UNL     1      74.666  39.602  22.290  1.00  0.00     0.066 A 
ATOM     73  C   UNL     1      72.278  39.713  21.945  1.00  0.00     0.066 A 
ATOM     74  C   UNL     1      74.834  39.092  20.995  1.00  0.00     0.162 A 
ATOM     75  C   UNL     1      72.434  39.201  20.654  1.00  0.00     0.162 A 
ATOM     76  C   UNL     1      73.713  38.887  20.173  1.00  0.00     0.200 A 
BRANCH  74  77
ATOM     77  O   UNL     1      76.109  38.777  20.524  1.00  0.00    -0.504 OA
ATOM     78  H   UNL     1      76.369  37.823  20.294  1.00  0.00     0.293 HD
ENDBRANCH  74  77
BRANCH  75  79
ATOM     79  O   UNL     1      71.301  39.007  19.861  1.00  0.00    -0.504 OA
ATOM     80  H   UNL     1      70.931  39.732  19.262  1.00  0.00     0.293 HD
ENDBRANCH  75  79
BRANCH  76  81
ATOM     81  O   UNL     1      73.860  38.376  18.882  1.00  0.00    -0.502 OA
ATOM     82  H   UNL     1      73.095  37.960  18.372  1.00  0.00     0.293 HD
ENDBRANCH  76  81
ENDBRANCH  69  71
ENDBRANCH  68  69
ENDBRANCH   4  68
TORSDOF 31
ENDMDL
