MODEL 1
REMARK VINA RESULT:    -3.651      0.000      0.000
REMARK INTER + INTRA:          -4.697
REMARK INTER:                  -4.931
REMARK INTRA:                   0.234
REMARK UNBOUND:                 0.234
REMARK SMILES C=C1C(=O)O[C@@H]2[C@H]1CCC(C)=CCC[C@]1(C)O[C@@H]21
REMARK SMILES IDX 6 1 7 2 2 3 1 4 3 5 4 6 5 7 8 8 9 9 10 10 11 11 12 12 18 14
REMARK SMILES IDX 15 15 17 16 16 17 14 18 13 19
REMARK H PARENT
REMARK Flexibility Score: 70.00
ROOT
ATOM      1  C   UNL     1       6.062   2.282  -4.655  1.00  0.00     0.216 C 
ATOM      2  C   UNL     1       4.947   3.233  -5.207  1.00  0.00     0.070 C 
ATOM      3  C   UNL     1       3.792   2.851  -4.323  1.00  0.00     0.037 C 
ATOM      4  C   UNL     1       2.683   3.562  -4.125  1.00  0.00     0.021 C 
ATOM      5  C   UNL     1       4.085   1.553  -3.758  1.00  0.00     0.334 C 
ATOM      6  O   UNL     1       3.289   0.840  -3.094  1.00  0.00    -0.247 OA
ATOM      7  O   UNL     1       5.377   1.181  -4.065  1.00  0.00    -0.455 OA
ENDROOT
BRANCH   2   8
ATOM      8  C   UNL     1       4.494   3.006  -6.682  1.00  0.00     0.017 C 
BRANCH   8   9
ATOM      9  C   UNL     1       5.269   3.721  -7.814  1.00  0.00     0.031 C 
BRANCH   9  10
ATOM     10  C   UNL     1       5.720   2.842  -8.970  1.00  0.00    -0.077 C 
ATOM     11  C   UNL     1       4.702   1.988  -9.684  1.00  0.00     0.039 C 
ATOM     12  C   UNL     1       7.027   2.665  -9.289  1.00  0.00    -0.028 CG0
ATOM     13  G   UNL     1       8.199   3.347  -8.607  1.00  0.00     0.000 G0
ENDBRANCH   9  10
ENDBRANCH   8   9
ENDBRANCH   2   8
BRANCH   1  14
ATOM     14  C   UNL     1       7.102   1.814  -5.677  1.00  0.00     0.192 C 
ATOM     15  C   UNL     1       8.165   2.790  -6.070  1.00  0.00     0.096 C 
ATOM     16  O   UNL     1       8.409   1.745  -5.150  1.00  0.00    -0.362 OA
ATOM     17  C   UNL     1       8.321   4.161  -5.387  1.00  0.00     0.045 C 
BRANCH  15  18
ATOM     18  C   UNL     1       8.844   2.566  -7.432  1.00  0.00     0.042 C 
BRANCH  18  19
ATOM     19  C   UNL     1       8.206   3.348  -8.608  1.00  0.00     0.030 CG0
ATOM     20  G   UNL     1       7.026   2.666  -9.276  1.00  0.00     0.000 G0
ENDBRANCH  18  19
ENDBRANCH  15  18
ENDBRANCH   1  14
TORSDOF 0
ENDMDL
MODEL 2
REMARK VINA RESULT:    -3.403      3.278      4.895
REMARK INTER + INTRA:          -4.362
REMARK INTER:                  -4.591
REMARK INTRA:                   0.229
REMARK UNBOUND:                 0.234
REMARK SMILES C=C1C(=O)O[C@@H]2[C@H]1CCC(C)=CCC[C@]1(C)O[C@@H]21
REMARK SMILES IDX 6 1 7 2 2 3 1 4 3 5 4 6 5 7 8 8 9 9 10 10 11 11 12 12 18 14
REMARK SMILES IDX 15 15 17 16 16 17 14 18 13 19
REMARK H PARENT
REMARK Flexibility Score: 70.00
ROOT
ATOM      1  C   UNL     1       5.933   2.258  -5.222  1.00  0.00     0.216 C 
ATOM      2  C   UNL     1       4.494   1.825  -4.779  1.00  0.00     0.070 C 
ATOM      3  C   UNL     1       3.936   3.143  -4.319  1.00  0.00     0.037 C 
ATOM      4  C   UNL     1       2.648   3.436  -4.146  1.00  0.00     0.021 C 
ATOM      5  C   UNL     1       5.052   4.024  -4.060  1.00  0.00     0.334 C 
ATOM      6  O   UNL     1       4.989   5.156  -3.514  1.00  0.00    -0.247 OA
ATOM      7  O   UNL     1       6.227   3.439  -4.483  1.00  0.00    -0.455 OA
ENDROOT
BRANCH   2   8
ATOM      8  C   UNL     1       4.393   0.837  -3.578  1.00  0.00     0.017 C 
BRANCH   8   9
ATOM      9  C   UNL     1       4.470  -0.682  -3.859  1.00  0.00     0.031 C 
BRANCH   9  10
ATOM     10  C   UNL     1       5.456  -1.468  -3.009  1.00  0.00    -0.077 C 
ATOM     11  C   UNL     1       5.385  -1.352  -1.507  1.00  0.00     0.039 C 
ATOM     12  C   UNL     1       6.505  -2.145  -3.541  1.00  0.00    -0.028 CG0
ATOM     13  G   UNL     1       6.806  -2.275  -5.022  1.00  0.00     0.000 G0
ENDBRANCH   9  10
ENDBRANCH   8   9
ENDBRANCH   2   8
BRANCH   1  14
ATOM     14  C   UNL     1       7.026   1.199  -5.049  1.00  0.00     0.192 C 
ATOM     15  C   UNL     1       7.089   0.107  -6.067  1.00  0.00     0.096 C 
ATOM     16  O   UNL     1       7.976   1.206  -6.092  1.00  0.00    -0.362 OA
ATOM     17  C   UNL     1       6.202   0.096  -7.326  1.00  0.00     0.045 C 
BRANCH  15  18
ATOM     18  C   UNL     1       7.766  -1.206  -5.636  1.00  0.00     0.042 C 
BRANCH  18  19
ATOM     19  C   UNL     1       6.803  -2.267  -5.046  1.00  0.00     0.030 CG0
ATOM     20  G   UNL     1       6.517  -2.130  -3.562  1.00  0.00     0.000 G0
ENDBRANCH  18  19
ENDBRANCH  15  18
ENDBRANCH   1  14
TORSDOF 0
ENDMDL
MODEL 3
REMARK VINA RESULT:    -3.336      2.827      4.133
REMARK INTER + INTRA:          -4.272
REMARK INTER:                  -4.517
REMARK INTRA:                   0.245
REMARK UNBOUND:                 0.234
REMARK SMILES C=C1C(=O)O[C@@H]2[C@H]1CCC(C)=CCC[C@]1(C)O[C@@H]21
REMARK SMILES IDX 6 1 7 2 2 3 1 4 3 5 4 6 5 7 8 8 9 9 10 10 11 11 12 12 18 14
REMARK SMILES IDX 15 15 17 16 16 17 14 18 13 19
REMARK H PARENT
REMARK Flexibility Score: 70.00
ROOT
ATOM      1  C   UNL     1       5.475   3.204  -6.873  1.00  0.00     0.216 C 
ATOM      2  C   UNL     1       4.566   2.521  -5.796  1.00  0.00     0.070 C 
ATOM      3  C   UNL     1       4.521   3.596  -4.746  1.00  0.00     0.037 C 
ATOM      4  C   UNL     1       3.633   3.696  -3.758  1.00  0.00     0.021 C 
ATOM      5  C   UNL     1       5.640   4.481  -4.979  1.00  0.00     0.334 C 
ATOM      6  O   UNL     1       6.021   5.406  -4.216  1.00  0.00    -0.247 OA
ATOM      7  O   UNL     1       6.261   4.160  -6.168  1.00  0.00    -0.455 OA
ENDROOT
BRANCH   2   8
ATOM      8  C   UNL     1       5.125   1.235  -5.116  1.00  0.00     0.017 C 
BRANCH   8   9
ATOM      9  C   UNL     1       4.859  -0.134  -5.785  1.00  0.00     0.031 C 
BRANCH   9  10
ATOM     10  C   UNL     1       6.072  -1.032  -5.970  1.00  0.00    -0.077 C 
ATOM     11  C   UNL     1       6.940  -1.349  -4.778  1.00  0.00     0.039 C 
ATOM     12  C   UNL     1       6.506  -1.434  -7.192  1.00  0.00    -0.028 CG0
ATOM     13  G   UNL     1       5.831  -1.115  -8.513  1.00  0.00     0.000 G0
ENDBRANCH   9  10
ENDBRANCH   8   9
ENDBRANCH   2   8
BRANCH   1  14
ATOM     14  C   UNL     1       6.349   2.258  -7.701  1.00  0.00     0.192 C 
ATOM     15  C   UNL     1       5.676   1.466  -8.775  1.00  0.00     0.096 C 
ATOM     16  O   UNL     1       6.432   2.624  -9.061  1.00  0.00    -0.362 OA
ATOM     17  C   UNL     1       4.198   1.675  -9.154  1.00  0.00     0.045 C 
BRANCH  15  18
ATOM     18  C   UNL     1       6.369   0.166  -9.217  1.00  0.00     0.042 C 
BRANCH  18  19
ATOM     19  C   UNL     1       5.849  -1.115  -8.519  1.00  0.00     0.030 CG0
ATOM     20  G   UNL     1       6.500  -1.438  -7.187  1.00  0.00     0.000 G0
ENDBRANCH  18  19
ENDBRANCH  15  18
ENDBRANCH   1  14
TORSDOF 0
ENDMDL
MODEL 4
REMARK VINA RESULT:    -3.258      6.705      7.991
REMARK INTER + INTRA:          -4.168
REMARK INTER:                  -4.557
REMARK INTRA:                   0.390
REMARK UNBOUND:                 0.234
REMARK SMILES C=C1C(=O)O[C@@H]2[C@H]1CCC(C)=CCC[C@]1(C)O[C@@H]21
REMARK SMILES IDX 6 1 7 2 2 3 1 4 3 5 4 6 5 7 8 8 9 9 10 10 11 11 12 12 18 14
REMARK SMILES IDX 15 15 17 16 16 17 14 18 13 19
REMARK H PARENT
REMARK Flexibility Score: 70.00
ROOT
ATOM      1  C   UNL     1       6.467  -2.658  -2.026  1.00  0.00     0.216 C 
ATOM      2  C   UNL     1       5.468  -3.817  -2.364  1.00  0.00     0.070 C 
ATOM      3  C   UNL     1       4.563  -3.762  -1.164  1.00  0.00     0.037 C 
ATOM      4  C   UNL     1       3.347  -4.298  -1.070  1.00  0.00     0.021 C 
ATOM      5  C   UNL     1       5.268  -3.058  -0.117  1.00  0.00     0.334 C 
ATOM      6  O   UNL     1       4.895  -2.950   1.080  1.00  0.00    -0.247 OA
ATOM      7  O   UNL     1       6.439  -2.522  -0.609  1.00  0.00    -0.455 OA
ENDROOT
BRANCH   2   8
ATOM      8  C   UNL     1       6.058  -5.258  -2.432  1.00  0.00     0.017 C 
BRANCH   8   9
ATOM      9  C   UNL     1       6.746  -5.717  -3.739  1.00  0.00     0.031 C 
BRANCH   9  10
ATOM     10  C   UNL     1       8.179  -6.207  -3.602  1.00  0.00    -0.077 C 
ATOM     11  C   UNL     1       8.500  -7.256  -2.566  1.00  0.00     0.039 C 
ATOM     12  C   UNL     1       9.217  -5.629  -4.257  1.00  0.00    -0.028 CG0
ATOM     13  G   UNL     1       9.103  -4.485  -5.248  1.00  0.00     0.000 G0
ENDBRANCH   9  10
ENDBRANCH   8   9
ENDBRANCH   2   8
BRANCH   1  14
ATOM     14  C   UNL     1       7.896  -2.841  -2.546  1.00  0.00     0.192 C 
ATOM     15  C   UNL     1       8.174  -2.418  -3.952  1.00  0.00     0.096 C 
ATOM     16  O   UNL     1       8.541  -1.622  -2.843  1.00  0.00    -0.362 OA
ATOM     17  C   UNL     1       7.130  -1.692  -4.819  1.00  0.00     0.045 C 
BRANCH  15  18
ATOM     18  C   UNL     1       9.378  -3.073  -4.649  1.00  0.00     0.042 C 
BRANCH  18  19
ATOM     19  C   UNL     1       9.097  -4.477  -5.242  1.00  0.00     0.030 CG0
ATOM     20  G   UNL     1       9.225  -5.632  -4.266  1.00  0.00     0.000 G0
ENDBRANCH  18  19
ENDBRANCH  15  18
ENDBRANCH   1  14
TORSDOF 0
ENDMDL
MODEL 5
REMARK VINA RESULT:    -3.142      1.791      1.954
REMARK INTER + INTRA:          -4.011
REMARK INTER:                  -4.253
REMARK INTRA:                   0.243
REMARK UNBOUND:                 0.234
REMARK SMILES C=C1C(=O)O[C@@H]2[C@H]1CCC(C)=CCC[C@]1(C)O[C@@H]21
REMARK SMILES IDX 6 1 7 2 2 3 1 4 3 5 4 6 5 7 8 8 9 9 10 10 11 11 12 12 18 14
REMARK SMILES IDX 15 15 17 16 16 17 14 18 13 19
REMARK H PARENT
REMARK Flexibility Score: 70.00
ROOT
ATOM      1  C   UNL     1       5.945   0.611  -4.427  1.00  0.00     0.216 C 
ATOM      2  C   UNL     1       5.348   1.949  -4.980  1.00  0.00     0.070 C 
ATOM      3  C   UNL     1       4.117   2.079  -4.126  1.00  0.00     0.037 C 
ATOM      4  C   UNL     1       3.405   3.188  -3.933  1.00  0.00     0.021 C 
ATOM      5  C   UNL     1       3.822   0.772  -3.584  1.00  0.00     0.334 C 
ATOM      6  O   UNL     1       2.783   0.453  -2.950  1.00  0.00    -0.247 OA
ATOM      7  O   UNL     1       4.846  -0.106  -3.874  1.00  0.00    -0.455 OA
ENDROOT
BRANCH   2   8
ATOM      8  C   UNL     1       4.881   1.951  -6.467  1.00  0.00     0.017 C 
BRANCH   8   9
ATOM      9  C   UNL     1       5.920   2.257  -7.570  1.00  0.00     0.031 C 
BRANCH   9  10
ATOM     10  C   UNL     1       6.004   1.247  -8.705  1.00  0.00    -0.077 C 
ATOM     11  C   UNL     1       4.744   0.860  -9.437  1.00  0.00     0.039 C 
ATOM     12  C   UNL     1       7.136   0.553  -8.985  1.00  0.00    -0.028 CG0
ATOM     13  G   UNL     1       8.468   0.721  -8.278  1.00  0.00     0.000 G0
ENDBRANCH   9  10
ENDBRANCH   8   9
ENDBRANCH   2   8
BRANCH   1  14
ATOM     14  C   UNL     1       6.719  -0.239  -5.439  1.00  0.00     0.192 C 
ATOM     15  C   UNL     1       8.123   0.170  -5.748  1.00  0.00     0.096 C 
ATOM     16  O   UNL     1       7.830  -0.902  -4.876  1.00  0.00    -0.362 OA
ATOM     17  C   UNL     1       8.839   1.305  -4.992  1.00  0.00     0.045 C 
BRANCH  15  18
ATOM     18  C   UNL     1       8.699  -0.289  -7.098  1.00  0.00     0.042 C 
BRANCH  18  19
ATOM     19  C   UNL     1       8.466   0.697  -8.270  1.00  0.00     0.030 CG0
ATOM     20  G   UNL     1       7.141   0.544  -8.994  1.00  0.00     0.000 G0
ENDBRANCH  18  19
ENDBRANCH  15  18
ENDBRANCH   1  14
TORSDOF 0
ENDMDL
MODEL 6
REMARK VINA RESULT:    -2.905      6.342      7.625
REMARK INTER + INTRA:          -3.690
REMARK INTER:                  -3.935
REMARK INTRA:                   0.245
REMARK UNBOUND:                 0.234
REMARK SMILES C=C1C(=O)O[C@@H]2[C@H]1CCC(C)=CCC[C@]1(C)O[C@@H]21
REMARK SMILES IDX 6 1 7 2 2 3 1 4 3 5 4 6 5 7 8 8 9 9 10 10 11 11 12 12 18 14
REMARK SMILES IDX 15 15 17 16 16 17 14 18 13 19
REMARK H PARENT
REMARK Flexibility Score: 70.00
ROOT
ATOM      1  C   UNL     1       6.140  -4.977  -2.433  1.00  0.00     0.216 C 
ATOM      2  C   UNL     1       6.579  -3.803  -1.494  1.00  0.00     0.070 C 
ATOM      3  C   UNL     1       5.340  -3.635  -0.659  1.00  0.00     0.037 C 
ATOM      4  C   UNL     1       5.258  -3.005   0.512  1.00  0.00     0.021 C 
ATOM      5  C   UNL     1       4.244  -4.247  -1.376  1.00  0.00     0.334 C 
ATOM      6  O   UNL     1       3.026  -4.172  -1.068  1.00  0.00    -0.247 OA
ATOM      7  O   UNL     1       4.718  -4.926  -2.479  1.00  0.00    -0.455 OA
ENDROOT
BRANCH   2   8
ATOM      8  C   UNL     1       6.868  -2.429  -2.172  1.00  0.00     0.017 C 
BRANCH   8   9
ATOM      9  C   UNL     1       8.281  -2.166  -2.743  1.00  0.00     0.031 C 
BRANCH   9  10
ATOM     10  C   UNL     1       8.338  -1.680  -4.183  1.00  0.00    -0.077 C 
ATOM     11  C   UNL     1       7.521  -0.478  -4.585  1.00  0.00     0.039 C 
ATOM     12  C   UNL     1       8.965  -2.375  -5.166  1.00  0.00    -0.028 CG0
ATOM     13  G   UNL     1       9.739  -3.666  -4.975  1.00  0.00     0.000 G0
ENDBRANCH   9  10
ENDBRANCH   8   9
ENDBRANCH   2   8
BRANCH   1  14
ATOM     14  C   UNL     1       6.749  -4.967  -3.838  1.00  0.00     0.192 C 
ATOM     15  C   UNL     1       8.145  -5.480  -3.984  1.00  0.00     0.096 C 
ATOM     16  O   UNL     1       7.020  -6.259  -4.337  1.00  0.00    -0.362 OA
ATOM     17  C   UNL     1       8.913  -6.133  -2.819  1.00  0.00     0.045 C 
BRANCH  15  18
ATOM     18  C   UNL     1       8.943  -4.986  -5.202  1.00  0.00     0.042 C 
BRANCH  18  19
ATOM     19  C   UNL     1       9.743  -3.680  -4.965  1.00  0.00     0.030 CG0
ATOM     20  G   UNL     1       8.963  -2.395  -5.167  1.00  0.00     0.000 G0
ENDBRANCH  18  19
ENDBRANCH  15  18
ENDBRANCH   1  14
TORSDOF 0
ENDMDL
MODEL 7
REMARK VINA RESULT:    -2.878      8.116      9.135
REMARK INTER + INTRA:          -3.653
REMARK INTER:                  -3.849
REMARK INTRA:                   0.196
REMARK UNBOUND:                 0.234
REMARK SMILES C=C1C(=O)O[C@@H]2[C@H]1CCC(C)=CCC[C@]1(C)O[C@@H]21
REMARK SMILES IDX 6 1 7 2 2 3 1 4 3 5 4 6 5 7 8 8 9 9 10 10 11 11 12 12 18 14
REMARK SMILES IDX 15 15 17 16 16 17 14 18 13 19
REMARK H PARENT
REMARK Flexibility Score: 70.00
ROOT
ATOM      1  C   UNL     1       6.817  -5.543  -2.370  1.00  0.00     0.216 C 
ATOM      2  C   UNL     1       7.509  -4.306  -3.037  1.00  0.00     0.070 C 
ATOM      3  C   UNL     1       6.748  -3.181  -2.393  1.00  0.00     0.037 C 
ATOM      4  C   UNL     1       7.127  -1.904  -2.338  1.00  0.00     0.021 C 
ATOM      5  C   UNL     1       5.513  -3.726  -1.879  1.00  0.00     0.334 C 
ATOM      6  O   UNL     1       4.550  -3.063  -1.413  1.00  0.00    -0.247 OA
ATOM      7  O   UNL     1       5.519  -5.101  -1.985  1.00  0.00    -0.455 OA
ENDROOT
BRANCH   2   8
ATOM      8  C   UNL     1       7.343  -4.153  -4.579  1.00  0.00     0.017 C 
BRANCH   8   9
ATOM      9  C   UNL     1       8.364  -4.851  -5.508  1.00  0.00     0.031 C 
BRANCH   9  10
ATOM     10  C   UNL     1       7.777  -5.689  -6.634  1.00  0.00    -0.077 C 
ATOM     11  C   UNL     1       6.785  -5.058  -7.578  1.00  0.00     0.039 C 
ATOM     12  C   UNL     1       7.980  -7.027  -6.733  1.00  0.00    -0.028 CG0
ATOM     13  G   UNL     1       8.851  -7.855  -5.806  1.00  0.00     0.000 G0
ENDBRANCH   9  10
ENDBRANCH   8   9
ENDBRANCH   2   8
BRANCH   1  14
ATOM     14  C   UNL     1       6.749  -6.809  -3.229  1.00  0.00     0.192 C 
ATOM     15  C   UNL     1       8.001  -7.613  -3.367  1.00  0.00     0.096 C 
ATOM     16  O   UNL     1       6.959  -7.994  -2.492  1.00  0.00    -0.362 OA
ATOM     17  C   UNL     1       9.282  -7.291  -2.576  1.00  0.00     0.045 C 
BRANCH  15  18
ATOM     18  C   UNL     1       8.112  -8.519  -4.605  1.00  0.00     0.042 C 
BRANCH  18  19
ATOM     19  C   UNL     1       8.846  -7.880  -5.810  1.00  0.00     0.030 CG0
ATOM     20  G   UNL     1       7.980  -7.026  -6.718  1.00  0.00     0.000 G0
ENDBRANCH  18  19
ENDBRANCH  15  18
ENDBRANCH   1  14
TORSDOF 0
ENDMDL
MODEL 8
REMARK VINA RESULT:    -2.869      2.856      4.178
REMARK INTER + INTRA:          -3.641
REMARK INTER:                  -3.889
REMARK INTRA:                   0.248
REMARK UNBOUND:                 0.234
REMARK SMILES C=C1C(=O)O[C@@H]2[C@H]1CCC(C)=CCC[C@]1(C)O[C@@H]21
REMARK SMILES IDX 6 1 7 2 2 3 1 4 3 5 4 6 5 7 8 8 9 9 10 10 11 11 12 12 18 14
REMARK SMILES IDX 15 15 17 16 16 17 14 18 13 19
REMARK H PARENT
REMARK Flexibility Score: 70.00
ROOT
ATOM      1  C   UNL     1       4.932   1.716  -6.337  1.00  0.00     0.216 C 
ATOM      2  C   UNL     1       4.814   0.664  -5.182  1.00  0.00     0.070 C 
ATOM      3  C   UNL     1       4.034   1.452  -4.166  1.00  0.00     0.037 C 
ATOM      4  C   UNL     1       3.367   0.954  -3.126  1.00  0.00     0.021 C 
ATOM      5  C   UNL     1       4.172   2.851  -4.499  1.00  0.00     0.334 C 
ATOM      6  O   UNL     1       3.790   3.820  -3.792  1.00  0.00    -0.247 OA
ATOM      7  O   UNL     1       4.808   2.991  -5.714  1.00  0.00    -0.455 OA
ENDROOT
BRANCH   2   8
ATOM      8  C   UNL     1       6.141   0.216  -4.499  1.00  0.00     0.017 C 
BRANCH   8   9
ATOM      9  C   UNL     1       6.919  -0.978  -5.100  1.00  0.00     0.031 C 
BRANCH   9  10
ATOM     10  C   UNL     1       8.409  -0.764  -5.314  1.00  0.00    -0.077 C 
ATOM     11  C   UNL     1       9.258  -0.304  -4.155  1.00  0.00     0.039 C 
ATOM     12  C   UNL     1       8.987  -0.808  -6.541  1.00  0.00    -0.028 CG0
ATOM     13  G   UNL     1       8.271  -1.137  -7.838  1.00  0.00     0.000 G0
ENDBRANCH   9  10
ENDBRANCH   8   9
ENDBRANCH   2   8
BRANCH   1  14
ATOM     14  C   UNL     1       6.200   1.626  -7.189  1.00  0.00     0.192 C 
ATOM     15  C   UNL     1       6.286   0.507  -8.177  1.00  0.00     0.096 C 
ATOM     16  O   UNL     1       5.962   1.826  -8.565  1.00  0.00    -0.362 OA
ATOM     17  C   UNL     1       5.107  -0.445  -8.452  1.00  0.00     0.045 C 
BRANCH  15  18
ATOM     18  C   UNL     1       7.695   0.076  -8.618  1.00  0.00     0.042 C 
BRANCH  18  19
ATOM     19  C   UNL     1       8.271  -1.137  -7.846  1.00  0.00     0.030 CG0
ATOM     20  G   UNL     1       8.984  -0.802  -6.548  1.00  0.00     0.000 G0
ENDBRANCH  18  19
ENDBRANCH  15  18
ENDBRANCH   1  14
TORSDOF 0
ENDMDL
