MODEL 1
REMARK VINA RESULT:    -4.541      0.000      0.000
REMARK INTER + INTRA:          -7.118
REMARK INTER:                  -6.134
REMARK INTRA:                  -0.984
REMARK UNBOUND:                -0.984
REMARK SMILES CC(=O)CCC=C(C)CCC=C(C)C
REMARK SMILES IDX 7 1 6 2 8 3 9 4 10 5 11 6 13 7 12 8 14 9 5 10 4 11 2 12 3 13
REMARK SMILES IDX 1 14
REMARK H PARENT
REMARK Flexibility Score: inf
ROOT
ATOM      1  C   UNL     1       2.053  11.849  15.285  1.00  0.00    -0.077 C 
ATOM      2  C   UNL     1       0.828  12.370  15.041  1.00  0.00    -0.028 C 
ATOM      3  C   UNL     1       3.252  12.725  15.565  1.00  0.00     0.039 C 
ENDROOT
BRANCH   1   4
ATOM      4  C   UNL     1       2.230  10.347  15.258  1.00  0.00     0.034 C 
BRANCH   4   5
ATOM      5  C   UNL     1       2.780   9.840  16.596  1.00  0.00     0.032 C 
BRANCH   5   6
ATOM      6  C   UNL     1       1.795   8.910  17.261  1.00  0.00    -0.028 C 
ATOM      7  C   UNL     1      -0.104   8.294  18.725  1.00  0.00     0.039 C 
ATOM      8  C   UNL     1       0.848   9.305  18.141  1.00  0.00    -0.080 C 
ATOM      9  C   UNL     1       0.732  10.737  18.604  1.00  0.00     0.039 C 
ENDBRANCH   5   6
ENDBRANCH   4   5
ENDBRANCH   1   4
BRANCH   2  10
ATOM     10  C   UNL     1       0.506  13.844  15.072  1.00  0.00     0.035 C 
BRANCH  10  11
ATOM     11  C   UNL     1      -0.209  14.271  13.786  1.00  0.00     0.079 C 
BRANCH  11  12
ATOM     12  C   UNL     1       0.782  14.516  12.681  1.00  0.00     0.130 C 
ATOM     13  O   UNL     1       0.532  14.138  11.547  1.00  0.00    -0.300 OA
ATOM     14  C   UNL     1       2.084  15.201  12.967  1.00  0.00     0.087 C 
ENDBRANCH  11  12
ENDBRANCH  10  11
ENDBRANCH   2  10
TORSDOF 6
ENDMDL
MODEL 2
REMARK VINA RESULT:    -4.520      3.300      6.115
REMARK INTER + INTRA:          -7.089
REMARK INTER:                  -6.196
REMARK INTRA:                  -0.893
REMARK UNBOUND:                -0.984
REMARK SMILES CC(=O)CCC=C(C)CCC=C(C)C
REMARK SMILES IDX 7 1 6 2 8 3 9 4 10 5 11 6 13 7 12 8 14 9 5 10 4 11 2 12 3 13
REMARK SMILES IDX 1 14
REMARK H PARENT
REMARK Flexibility Score: inf
ROOT
ATOM      1  C   UNL     1       2.443  10.187  16.478  1.00  0.00    -0.077 C 
ATOM      2  C   UNL     1       1.578   9.226  16.875  1.00  0.00    -0.028 C 
ATOM      3  C   UNL     1       3.492  10.749  17.409  1.00  0.00     0.039 C 
ENDROOT
BRANCH   1   4
ATOM      4  C   UNL     1       2.344  10.728  15.069  1.00  0.00     0.034 C 
BRANCH   4   5
ATOM      5  C   UNL     1       2.329  12.261  15.075  1.00  0.00     0.032 C 
BRANCH   5   6
ATOM      6  C   UNL     1       0.987  12.785  14.628  1.00  0.00    -0.028 C 
ATOM      7  C   UNL     1      -1.297  13.696  14.914  1.00  0.00     0.039 C 
ATOM      8  C   UNL     1      -0.003  13.160  15.470  1.00  0.00    -0.080 C 
ATOM      9  C   UNL     1       0.122  13.020  16.967  1.00  0.00     0.039 C 
ENDBRANCH   5   6
ENDBRANCH   4   5
ENDBRANCH   1   4
BRANCH   2  10
ATOM     10  C   UNL     1       1.589   8.576  18.236  1.00  0.00     0.035 C 
BRANCH  10  11
ATOM     11  C   UNL     1       0.172   8.174  18.659  1.00  0.00     0.079 C 
BRANCH  11  12
ATOM     12  C   UNL     1      -0.221   8.868  19.934  1.00  0.00     0.130 C 
ATOM     13  O   UNL     1      -0.051   8.308  21.007  1.00  0.00    -0.300 OA
ATOM     14  C   UNL     1      -0.843  10.231  19.896  1.00  0.00     0.087 C 
ENDBRANCH  11  12
ENDBRANCH  10  11
ENDBRANCH   2  10
TORSDOF 6
ENDMDL
MODEL 3
REMARK VINA RESULT:    -4.492      6.557      8.553
REMARK INTER + INTRA:          -7.052
REMARK INTER:                  -5.642
REMARK INTRA:                  -1.409
REMARK UNBOUND:                -0.984
REMARK SMILES CC(=O)CCC=C(C)CCC=C(C)C
REMARK SMILES IDX 7 1 6 2 8 3 9 4 10 5 11 6 13 7 12 8 14 9 5 10 4 11 2 12 3 13
REMARK SMILES IDX 1 14
REMARK H PARENT
REMARK Flexibility Score: inf
ROOT
ATOM      1  C   UNL     1       1.596  16.767  21.441  1.00  0.00    -0.077 C 
ATOM      2  C   UNL     1       2.762  16.332  21.971  1.00  0.00    -0.028 C 
ATOM      3  C   UNL     1       0.315  16.794  22.242  1.00  0.00     0.039 C 
ENDROOT
BRANCH   1   4
ATOM      4  C   UNL     1       1.570  17.221  19.998  1.00  0.00     0.034 C 
BRANCH   4   5
ATOM      5  C   UNL     1       2.229  16.178  19.088  1.00  0.00     0.032 C 
BRANCH   5   6
ATOM      6  C   UNL     1       1.373  14.939  18.986  1.00  0.00    -0.028 C 
ATOM      7  C   UNL     1       0.837  12.533  19.210  1.00  0.00     0.039 C 
ATOM      8  C   UNL     1       1.786  13.697  19.326  1.00  0.00    -0.080 C 
ATOM      9  C   UNL     1       3.198  13.419  19.783  1.00  0.00     0.039 C 
ENDBRANCH   5   6
ENDBRANCH   4   5
ENDBRANCH   1   4
BRANCH   2  10
ATOM     10  C   UNL     1       2.935  15.886  23.402  1.00  0.00     0.035 C 
BRANCH  10  11
ATOM     11  C   UNL     1       3.515  14.469  23.465  1.00  0.00     0.079 C 
BRANCH  11  12
ATOM     12  C   UNL     1       2.480  13.490  23.947  1.00  0.00     0.130 C 
ATOM     13  O   UNL     1       2.550  13.044  25.082  1.00  0.00    -0.300 OA
ATOM     14  C   UNL     1       1.378  13.040  23.037  1.00  0.00     0.087 C 
ENDBRANCH  11  12
ENDBRANCH  10  11
ENDBRANCH   2  10
TORSDOF 6
ENDMDL
MODEL 4
REMARK VINA RESULT:    -4.491      6.273      7.611
REMARK INTER + INTRA:          -7.050
REMARK INTER:                  -5.975
REMARK INTRA:                  -1.076
REMARK UNBOUND:                -0.984
REMARK SMILES CC(=O)CCC=C(C)CCC=C(C)C
REMARK SMILES IDX 7 1 6 2 8 3 9 4 10 5 11 6 13 7 12 8 14 9 5 10 4 11 2 12 3 13
REMARK SMILES IDX 1 14
REMARK H PARENT
REMARK Flexibility Score: inf
ROOT
ATOM      1  C   UNL     1       1.814  16.554  22.020  1.00  0.00    -0.077 C 
ATOM      2  C   UNL     1       2.503  16.338  20.876  1.00  0.00    -0.028 C 
ATOM      3  C   UNL     1       0.379  17.029  22.010  1.00  0.00     0.039 C 
ENDROOT
BRANCH   1   4
ATOM      4  C   UNL     1       2.505  16.332  23.347  1.00  0.00     0.034 C 
BRANCH   4   5
ATOM      5  C   UNL     1       3.462  15.137  23.269  1.00  0.00     0.032 C 
BRANCH   5   6
ATOM      6  C   UNL     1       3.199  14.165  24.393  1.00  0.00    -0.028 C 
ATOM      7  C   UNL     1       2.168  12.202  25.492  1.00  0.00     0.039 C 
ATOM      8  C   UNL     1       2.333  13.129  24.316  1.00  0.00    -0.080 C 
ATOM      9  C   UNL     1       1.481  12.884  23.095  1.00  0.00     0.039 C 
ENDBRANCH   5   6
ENDBRANCH   4   5
ENDBRANCH   1   4
BRANCH   2  10
ATOM     10  C   UNL     1       1.925  16.487  19.490  1.00  0.00     0.035 C 
BRANCH  10  11
ATOM     11  C   UNL     1       2.162  15.219  18.664  1.00  0.00     0.079 C 
BRANCH  11  12
ATOM     12  C   UNL     1       1.495  14.033  19.303  1.00  0.00     0.130 C 
ATOM     13  O   UNL     1       2.160  13.052  19.604  1.00  0.00    -0.300 OA
ATOM     14  C   UNL     1       0.018  14.035  19.553  1.00  0.00     0.087 C 
ENDBRANCH  11  12
ENDBRANCH  10  11
ENDBRANCH   2  10
TORSDOF 6
ENDMDL
MODEL 5
REMARK VINA RESULT:    -4.462      2.846      4.182
REMARK INTER + INTRA:          -7.010
REMARK INTER:                  -5.499
REMARK INTRA:                  -1.512
REMARK UNBOUND:                -0.984
REMARK SMILES CC(=O)CCC=C(C)CCC=C(C)C
REMARK SMILES IDX 7 1 6 2 8 3 9 4 10 5 11 6 13 7 12 8 14 9 5 10 4 11 2 12 3 13
REMARK SMILES IDX 1 14
REMARK H PARENT
REMARK Flexibility Score: inf
ROOT
ATOM      1  C   UNL     1       1.943   9.366  16.890  1.00  0.00    -0.077 C 
ATOM      2  C   UNL     1       1.674  10.461  16.144  1.00  0.00    -0.028 C 
ATOM      3  C   UNL     1       3.259   8.631  16.783  1.00  0.00     0.039 C 
ENDROOT
BRANCH   1   4
ATOM      4  C   UNL     1       0.888   8.850  17.844  1.00  0.00     0.034 C 
BRANCH   4   5
ATOM      5  C   UNL     1       0.547   9.906  18.901  1.00  0.00     0.032 C 
BRANCH   5   6
ATOM      6  C   UNL     1       1.745  10.197  19.772  1.00  0.00    -0.028 C 
ATOM      7  C   UNL     1       3.470  11.606  20.852  1.00  0.00     0.039 C 
ATOM      8  C   UNL     1       2.289  11.424  19.934  1.00  0.00    -0.080 C 
ATOM      9  C   UNL     1       1.779  12.632  19.186  1.00  0.00     0.039 C 
ENDBRANCH   5   6
ENDBRANCH   4   5
ENDBRANCH   1   4
BRANCH   2  10
ATOM     10  C   UNL     1       2.646  11.099  15.182  1.00  0.00     0.035 C 
BRANCH  10  11
ATOM     11  C   UNL     1       3.122  12.456  15.710  1.00  0.00     0.079 C 
BRANCH  11  12
ATOM     12  C   UNL     1       4.578  12.402  16.086  1.00  0.00     0.130 C 
ATOM     13  O   UNL     1       5.419  12.845  15.318  1.00  0.00    -0.300 OA
ATOM     14  C   UNL     1       5.005  11.788  17.384  1.00  0.00     0.087 C 
ENDBRANCH  11  12
ENDBRANCH  10  11
ENDBRANCH   2  10
TORSDOF 6
ENDMDL
MODEL 6
REMARK VINA RESULT:    -4.446      2.438      4.332
REMARK INTER + INTRA:          -6.990
REMARK INTER:                  -6.101
REMARK INTRA:                  -0.889
REMARK UNBOUND:                -0.984
REMARK SMILES CC(=O)CCC=C(C)CCC=C(C)C
REMARK SMILES IDX 7 1 6 2 8 3 9 4 10 5 11 6 13 7 12 8 14 9 5 10 4 11 2 12 3 13
REMARK SMILES IDX 1 14
REMARK H PARENT
REMARK Flexibility Score: inf
ROOT
ATOM      1  C   UNL     1       0.978   9.259  18.161  1.00  0.00    -0.077 C 
ATOM      2  C   UNL     1       1.961   8.978  17.275  1.00  0.00    -0.028 C 
ATOM      3  C   UNL     1       0.618  10.680  18.530  1.00  0.00     0.039 C 
ENDROOT
BRANCH   1   4
ATOM      4  C   UNL     1       0.229   8.118  18.814  1.00  0.00     0.034 C 
BRANCH   4   5
ATOM      5  C   UNL     1      -0.076   8.437  20.282  1.00  0.00     0.032 C 
BRANCH   5   6
ATOM      6  C   UNL     1       0.870   7.700  21.197  1.00  0.00    -0.028 C 
ATOM      7  C   UNL     1       2.737   7.457  22.804  1.00  0.00     0.039 C 
ATOM      8  C   UNL     1       1.868   8.287  21.896  1.00  0.00    -0.080 C 
ATOM      9  C   UNL     1       2.178   9.759  21.768  1.00  0.00     0.039 C 
ENDBRANCH   5   6
ENDBRANCH   4   5
ENDBRANCH   1   4
BRANCH   2  10
ATOM     10  C   UNL     1       2.760  10.017  16.528  1.00  0.00     0.035 C 
BRANCH  10  11
ATOM     11  C   UNL     1       2.068  10.394  15.214  1.00  0.00     0.079 C 
BRANCH  11  12
ATOM     12  C   UNL     1       2.064  11.885  15.021  1.00  0.00     0.130 C 
ATOM     13  O   UNL     1       3.120  12.480  14.869  1.00  0.00    -0.300 OA
ATOM     14  C   UNL     1       0.775  12.649  15.038  1.00  0.00     0.087 C 
ENDBRANCH  11  12
ENDBRANCH  10  11
ENDBRANCH   2  10
TORSDOF 6
ENDMDL
MODEL 7
REMARK VINA RESULT:    -4.429      3.354      4.042
REMARK INTER + INTRA:          -6.967
REMARK INTER:                  -5.994
REMARK INTRA:                  -0.973
REMARK UNBOUND:                -0.984
REMARK SMILES CC(=O)CCC=C(C)CCC=C(C)C
REMARK SMILES IDX 7 1 6 2 8 3 9 4 10 5 11 6 13 7 12 8 14 9 5 10 4 11 2 12 3 13
REMARK SMILES IDX 1 14
REMARK H PARENT
REMARK Flexibility Score: inf
ROOT
ATOM      1  C   UNL     1       1.834  12.053  15.849  1.00  0.00    -0.077 C 
ATOM      2  C   UNL     1       2.627  12.665  16.758  1.00  0.00    -0.028 C 
ATOM      3  C   UNL     1       0.580  12.705  15.315  1.00  0.00     0.039 C 
ENDROOT
BRANCH   1   4
ATOM      4  C   UNL     1       2.203  10.667  15.368  1.00  0.00     0.034 C 
BRANCH   4   5
ATOM      5  C   UNL     1       2.696   9.800  16.533  1.00  0.00     0.032 C 
BRANCH   5   6
ATOM      6  C   UNL     1       1.574   8.954  17.083  1.00  0.00    -0.028 C 
ATOM      7  C   UNL     1      -0.178   8.293  18.701  1.00  0.00     0.039 C 
ATOM      8  C   UNL     1       0.951   9.187  18.261  1.00  0.00    -0.080 C 
ATOM      9  C   UNL     1       1.379  10.298  19.188  1.00  0.00     0.039 C 
ENDBRANCH   5   6
ENDBRANCH   4   5
ENDBRANCH   1   4
BRANCH   2  10
ATOM     10  C   UNL     1       2.395  14.057  17.293  1.00  0.00     0.035 C 
BRANCH  10  11
ATOM     11  C   UNL     1       1.918  14.008  18.747  1.00  0.00     0.079 C 
BRANCH  11  12
ATOM     12  C   UNL     1       2.388  15.219  19.505  1.00  0.00     0.130 C 
ATOM     13  O   UNL     1       2.962  15.081  20.574  1.00  0.00    -0.300 OA
ATOM     14  C   UNL     1       2.137  16.595  18.967  1.00  0.00     0.087 C 
ENDBRANCH  11  12
ENDBRANCH  10  11
ENDBRANCH   2  10
TORSDOF 6
ENDMDL
MODEL 8
REMARK VINA RESULT:    -4.378      2.530      3.168
REMARK INTER + INTRA:          -6.898
REMARK INTER:                  -6.024
REMARK INTRA:                  -0.874
REMARK UNBOUND:                -0.984
REMARK SMILES CC(=O)CCC=C(C)CCC=C(C)C
REMARK SMILES IDX 7 1 6 2 8 3 9 4 10 5 11 6 13 7 12 8 14 9 5 10 4 11 2 12 3 13
REMARK SMILES IDX 1 14
REMARK H PARENT
REMARK Flexibility Score: inf
ROOT
ATOM      1  C   UNL     1       2.608  10.447  16.107  1.00  0.00    -0.077 C 
ATOM      2  C   UNL     1       2.361  11.173  14.993  1.00  0.00    -0.028 C 
ATOM      3  C   UNL     1       3.710  10.815  17.073  1.00  0.00     0.039 C 
ENDROOT
BRANCH   1   4
ATOM      4  C   UNL     1       1.768   9.220  16.384  1.00  0.00     0.034 C 
BRANCH   4   5
ATOM      5  C   UNL     1       1.902   8.788  17.849  1.00  0.00     0.032 C 
BRANCH   5   6
ATOM      6  C   UNL     1       0.565   8.836  18.546  1.00  0.00    -0.028 C 
ATOM      7  C   UNL     1      -1.229   9.824  19.936  1.00  0.00     0.039 C 
ATOM      8  C   UNL     1       0.139   9.869  19.308  1.00  0.00    -0.080 C 
ATOM      9  C   UNL     1       1.012  11.067  19.595  1.00  0.00     0.039 C 
ENDBRANCH   5   6
ENDBRANCH   4   5
ENDBRANCH   1   4
BRANCH   2  10
ATOM     10  C   UNL     1       3.098  12.435  14.616  1.00  0.00     0.035 C 
BRANCH  10  11
ATOM     11  C   UNL     1       3.969  12.207  13.377  1.00  0.00     0.079 C 
BRANCH  11  12
ATOM     12  C   UNL     1       5.325  12.833  13.556  1.00  0.00     0.130 C 
ATOM     13  O   UNL     1       5.952  13.213  12.578  1.00  0.00    -0.300 OA
ATOM     14  C   UNL     1       5.923  12.972  14.923  1.00  0.00     0.087 C 
ENDBRANCH  11  12
ENDBRANCH  10  11
ENDBRANCH   2  10
TORSDOF 6
ENDMDL
MODEL 9
REMARK VINA RESULT:    -4.347      2.122      3.193
REMARK INTER + INTRA:          -6.856
REMARK INTER:                  -5.951
REMARK INTRA:                  -0.905
REMARK UNBOUND:                -0.984
REMARK SMILES CC(=O)CCC=C(C)CCC=C(C)C
REMARK SMILES IDX 7 1 6 2 8 3 9 4 10 5 11 6 13 7 12 8 14 9 5 10 4 11 2 12 3 13
REMARK SMILES IDX 1 14
REMARK H PARENT
REMARK Flexibility Score: inf
ROOT
ATOM      1  C   UNL     1       2.608   9.939  16.735  1.00  0.00    -0.077 C 
ATOM      2  C   UNL     1       1.993  10.276  15.578  1.00  0.00    -0.028 C 
ATOM      3  C   UNL     1       3.727  10.772  17.316  1.00  0.00     0.039 C 
ENDROOT
BRANCH   1   4
ATOM      4  C   UNL     1       2.176   8.681  17.456  1.00  0.00     0.034 C 
BRANCH   4   5
ATOM      5  C   UNL     1       0.751   8.828  18.000  1.00  0.00     0.032 C 
BRANCH   5   6
ATOM      6  C   UNL     1       0.561   7.985  19.237  1.00  0.00    -0.028 C 
ATOM      7  C   UNL     1       0.521   7.504  21.664  1.00  0.00     0.039 C 
ATOM      8  C   UNL     1       0.769   8.425  20.499  1.00  0.00    -0.080 C 
ATOM      9  C   UNL     1       1.290   9.811  20.788  1.00  0.00     0.039 C 
ENDBRANCH   5   6
ENDBRANCH   4   5
ENDBRANCH   1   4
BRANCH   2  10
ATOM     10  C   UNL     1       2.300  11.518  14.778  1.00  0.00     0.035 C 
BRANCH  10  11
ATOM     11  C   UNL     1       1.126  12.501  14.827  1.00  0.00     0.079 C 
BRANCH  11  12
ATOM     12  C   UNL     1       1.104  13.242  16.136  1.00  0.00     0.130 C 
ATOM     13  O   UNL     1       1.988  14.044  16.394  1.00  0.00    -0.300 OA
ATOM     14  C   UNL     1       0.017  12.985  17.135  1.00  0.00     0.087 C 
ENDBRANCH  11  12
ENDBRANCH  10  11
ENDBRANCH   2  10
TORSDOF 6
ENDMDL
