MODEL 1
REMARK VINA RESULT:    -3.971      0.000      0.000
REMARK INTER + INTRA:          -8.545
REMARK INTER:                  -7.221
REMARK INTRA:                  -1.324
REMARK UNBOUND:                -1.324
REMARK SMILES CCCCCCCCCCCCCCCC(=O)[O-]
REMARK SMILES IDX 9 1 10 2 11 3 12 4 13 5 14 6 15 7 16 8 17 9 18 10 8 11 7 12
REMARK SMILES IDX 6 13 5 14 4 15 3 16 2 17 1 18
REMARK H PARENT
REMARK Flexibility Score: inf
ROOT
ATOM      1  C   UNL     1      22.059   5.921 -12.235  1.00  0.00     0.000 C 
ENDROOT
BRANCH   1   2
ATOM      2  C   UNL     1      20.767   5.501 -12.956  1.00  0.00     0.000 C 
BRANCH   2   3
ATOM      3  C   UNL     1      20.826   4.054 -13.476  1.00  0.00     0.000 C 
BRANCH   3   4
ATOM      4  C   UNL     1      19.523   3.621 -14.170  1.00  0.00     0.000 C 
BRANCH   4   5
ATOM      5  C   UNL     1      19.047   2.231 -13.724  1.00  0.00     0.000 C 
BRANCH   5   6
ATOM      6  C   UNL     1      18.727   1.346 -14.935  1.00  0.00     0.006 C 
BRANCH   6   7
ATOM      7  C   UNL     1      17.558   0.404 -14.634  1.00  0.00     0.053 C 
BRANCH   7   8
ATOM      8  C   UNL     1      17.228  -0.423 -15.837  1.00  0.00     0.041 C 
ATOM      9  O   UNL     1      17.117  -1.673 -15.735  1.00  0.00    -0.550 OA
ATOM     10  O   UNL     1      16.995   0.191 -17.061  1.00  0.00    -0.550 OA
ENDBRANCH   7   8
ENDBRANCH   6   7
ENDBRANCH   5   6
ENDBRANCH   4   5
ENDBRANCH   3   4
ENDBRANCH   2   3
ENDBRANCH   1   2
BRANCH   1  11
ATOM     11  C   UNL     1      21.830   7.069 -11.238  1.00  0.00     0.000 C 
BRANCH  11  12
ATOM     12  C   UNL     1      21.603   6.575  -9.798  1.00  0.00    -0.000 C 
BRANCH  12  13
ATOM     13  C   UNL     1      20.209   5.981  -9.526  1.00  0.00    -0.000 C 
BRANCH  13  14
ATOM     14  C   UNL     1      19.069   6.828 -10.116  1.00  0.00    -0.000 C 
BRANCH  14  15
ATOM     15  C   UNL     1      17.961   5.957 -10.745  1.00  0.00    -0.000 C 
BRANCH  15  16
ATOM     16  C   UNL     1      18.304   4.457 -10.784  1.00  0.00    -0.000 C 
BRANCH  16  17
ATOM     17  C   UNL     1      17.061   3.560 -10.794  1.00  0.00    -0.003 C 
ATOM     18  C   UNL     1      15.782   4.392 -10.848  1.00  0.00     0.004 C 
ENDBRANCH  16  17
ENDBRANCH  15  16
ENDBRANCH  14  15
ENDBRANCH  13  14
ENDBRANCH  12  13
ENDBRANCH  11  12
ENDBRANCH   1  11
TORSDOF 14
ENDMDL
MODEL 2
REMARK VINA RESULT:    -3.785      2.708      5.471
REMARK INTER + INTRA:          -8.207
REMARK INTER:                  -6.994
REMARK INTRA:                  -1.213
REMARK UNBOUND:                -1.324
REMARK SMILES CCCCCCCCCCCCCCCC(=O)[O-]
REMARK SMILES IDX 9 1 10 2 11 3 12 4 13 5 14 6 15 7 16 8 17 9 18 10 8 11 7 12
REMARK SMILES IDX 6 13 5 14 4 15 3 16 2 17 1 18
REMARK H PARENT
REMARK Flexibility Score: inf
ROOT
ATOM      1  C   UNL     1      21.781   6.664 -12.379  1.00  0.00     0.000 C 
ENDROOT
BRANCH   1   2
ATOM      2  C   UNL     1      21.768   7.121 -10.911  1.00  0.00     0.000 C 
BRANCH   2   3
ATOM      3  C   UNL     1      21.556   5.951  -9.932  1.00  0.00     0.000 C 
BRANCH   3   4
ATOM      4  C   UNL     1      20.119   5.889  -9.389  1.00  0.00     0.000 C 
BRANCH   4   5
ATOM      5  C   UNL     1      19.193   6.928 -10.039  1.00  0.00     0.000 C 
BRANCH   5   6
ATOM      6  C   UNL     1      18.253   6.266 -11.054  1.00  0.00     0.006 C 
BRANCH   6   7
ATOM      7  C   UNL     1      18.097   4.771 -10.765  1.00  0.00     0.053 C 
BRANCH   7   8
ATOM      8  C   UNL     1      16.658   4.429 -10.538  1.00  0.00     0.041 C 
ATOM      9  O   UNL     1      15.949   5.142  -9.779  1.00  0.00    -0.550 OA
ATOM     10  O   UNL     1      16.085   3.353 -11.205  1.00  0.00    -0.550 OA
ENDBRANCH   7   8
ENDBRANCH   6   7
ENDBRANCH   5   6
ENDBRANCH   4   5
ENDBRANCH   3   4
ENDBRANCH   2   3
ENDBRANCH   1   2
BRANCH   1  11
ATOM     11  C   UNL     1      22.576   5.364 -12.584  1.00  0.00     0.000 C 
BRANCH  11  12
ATOM     12  C   UNL     1      21.788   4.298 -13.368  1.00  0.00    -0.000 C 
BRANCH  12  13
ATOM     13  C   UNL     1      20.294   4.612 -13.571  1.00  0.00    -0.000 C 
BRANCH  13  14
ATOM     14  C   UNL     1      19.384   3.403 -13.297  1.00  0.00    -0.000 C 
BRANCH  14  15
ATOM     15  C   UNL     1      19.439   2.361 -14.435  1.00  0.00    -0.000 C 
BRANCH  15  16
ATOM     16  C   UNL     1      18.392   1.242 -14.296  1.00  0.00    -0.000 C 
BRANCH  16  17
ATOM     17  C   UNL     1      17.887   0.725 -15.648  1.00  0.00    -0.003 C 
ATOM     18  C   UNL     1      17.145  -0.599 -15.488  1.00  0.00     0.004 C 
ENDBRANCH  16  17
ENDBRANCH  15  16
ENDBRANCH  14  15
ENDBRANCH  13  14
ENDBRANCH  12  13
ENDBRANCH  11  12
ENDBRANCH   1  11
TORSDOF 14
ENDMDL
MODEL 3
REMARK VINA RESULT:    -2.940      1.933      4.677
REMARK INTER + INTRA:          -6.670
REMARK INTER:                  -5.517
REMARK INTRA:                  -1.153
REMARK UNBOUND:                -1.324
REMARK SMILES CCCCCCCCCCCCCCCC(=O)[O-]
REMARK SMILES IDX 9 1 10 2 11 3 12 4 13 5 14 6 15 7 16 8 17 9 18 10 8 11 7 12
REMARK SMILES IDX 6 13 5 14 4 15 3 16 2 17 1 18
REMARK H PARENT
REMARK Flexibility Score: inf
ROOT
ATOM      1  C   UNL     1      19.844   5.671  -9.372  1.00  0.00     0.000 C 
ENDROOT
BRANCH   1   2
ATOM      2  C   UNL     1      19.036   6.802 -10.029  1.00  0.00     0.000 C 
BRANCH   2   3
ATOM      3  C   UNL     1      18.140   6.298 -11.174  1.00  0.00     0.000 C 
BRANCH   3   4
ATOM      4  C   UNL     1      17.110   5.258 -10.704  1.00  0.00     0.000 C 
BRANCH   4   5
ATOM      5  C   UNL     1      17.577   3.813 -10.938  1.00  0.00     0.000 C 
BRANCH   5   6
ATOM      6  C   UNL     1      18.390   3.703 -12.234  1.00  0.00     0.006 C 
BRANCH   6   7
ATOM      7  C   UNL     1      18.520   2.243 -12.679  1.00  0.00     0.053 C 
BRANCH   7   8
ATOM      8  C   UNL     1      18.890   2.167 -14.127  1.00  0.00     0.041 C 
ATOM      9  O   UNL     1      19.760   2.945 -14.600  1.00  0.00    -0.550 OA
ATOM     10  O   UNL     1      18.311   1.204 -14.943  1.00  0.00    -0.550 OA
ENDBRANCH   7   8
ENDBRANCH   6   7
ENDBRANCH   5   6
ENDBRANCH   4   5
ENDBRANCH   3   4
ENDBRANCH   2   3
ENDBRANCH   1   2
BRANCH   1  11
ATOM     11  C   UNL     1      21.345   5.753  -9.698  1.00  0.00     0.000 C 
BRANCH  11  12
ATOM     12  C   UNL     1      21.760   7.125 -10.262  1.00  0.00    -0.000 C 
BRANCH  12  13
ATOM     13  C   UNL     1      22.235   7.111 -11.726  1.00  0.00    -0.000 C 
BRANCH  13  14
ATOM     14  C   UNL     1      21.289   6.332 -12.657  1.00  0.00    -0.000 C 
BRANCH  14  15
ATOM     15  C   UNL     1      21.828   4.924 -12.991  1.00  0.00    -0.000 C 
BRANCH  15  16
ATOM     16  C   UNL     1      23.350   4.789 -12.809  1.00  0.00    -0.000 C 
BRANCH  16  17
ATOM     17  C   UNL     1      24.144   5.304 -14.016  1.00  0.00    -0.003 C 
ATOM     18  C   UNL     1      25.523   4.654 -14.085  1.00  0.00     0.004 C 
ENDBRANCH  16  17
ENDBRANCH  15  16
ENDBRANCH  14  15
ENDBRANCH  13  14
ENDBRANCH  12  13
ENDBRANCH  11  12
ENDBRANCH   1  11
TORSDOF 14
ENDMDL
MODEL 4
REMARK VINA RESULT:    -2.908      4.017      7.120
REMARK INTER + INTRA:          -6.612
REMARK INTER:                  -5.436
REMARK INTRA:                  -1.177
REMARK UNBOUND:                -1.324
REMARK SMILES CCCCCCCCCCCCCCCC(=O)[O-]
REMARK SMILES IDX 9 1 10 2 11 3 12 4 13 5 14 6 15 7 16 8 17 9 18 10 8 11 7 12
REMARK SMILES IDX 6 13 5 14 4 15 3 16 2 17 1 18
REMARK H PARENT
REMARK Flexibility Score: inf
ROOT
ATOM      1  C   UNL     1      21.937   5.298 -11.341  1.00  0.00     0.000 C 
ENDROOT
BRANCH   1   2
ATOM      2  C   UNL     1      21.986   6.394 -10.263  1.00  0.00     0.000 C 
BRANCH   2   3
ATOM      3  C   UNL     1      21.286   5.970  -8.960  1.00  0.00     0.000 C 
BRANCH   3   4
ATOM      4  C   UNL     1      19.771   5.775  -9.140  1.00  0.00     0.000 C 
BRANCH   4   5
ATOM      5  C   UNL     1      19.125   6.888  -9.979  1.00  0.00     0.000 C 
BRANCH   5   6
ATOM      6  C   UNL     1      18.290   6.298 -11.122  1.00  0.00     0.006 C 
BRANCH   6   7
ATOM      7  C   UNL     1      18.367   4.769 -11.127  1.00  0.00     0.053 C 
BRANCH   7   8
ATOM      8  C   UNL     1      17.022   4.175 -10.849  1.00  0.00     0.041 C 
ATOM      9  O   UNL     1      16.780   2.980 -11.163  1.00  0.00    -0.550 OA
ATOM     10  O   UNL     1      16.051   4.926 -10.199  1.00  0.00    -0.550 OA
ENDBRANCH   7   8
ENDBRANCH   6   7
ENDBRANCH   5   6
ENDBRANCH   4   5
ENDBRANCH   3   4
ENDBRANCH   2   3
ENDBRANCH   1   2
BRANCH   1  11
ATOM     11  C   UNL     1      21.835   5.875 -12.763  1.00  0.00     0.000 C 
BRANCH  11  12
ATOM     12  C   UNL     1      22.806   7.046 -13.004  1.00  0.00    -0.000 C 
BRANCH  12  13
ATOM     13  C   UNL     1      24.235   6.634 -13.401  1.00  0.00    -0.000 C 
BRANCH  13  14
ATOM     14  C   UNL     1      24.290   5.282 -14.132  1.00  0.00    -0.000 C 
BRANCH  14  15
ATOM     15  C   UNL     1      25.592   4.508 -13.832  1.00  0.00    -0.000 C 
BRANCH  15  16
ATOM     16  C   UNL     1      26.717   4.781 -14.846  1.00  0.00    -0.000 C 
BRANCH  16  17
ATOM     17  C   UNL     1      27.885   3.795 -14.721  1.00  0.00    -0.003 C 
ATOM     18  C   UNL     1      28.991   4.124 -15.721  1.00  0.00     0.004 C 
ENDBRANCH  16  17
ENDBRANCH  15  16
ENDBRANCH  14  15
ENDBRANCH  13  14
ENDBRANCH  12  13
ENDBRANCH  11  12
ENDBRANCH   1  11
TORSDOF 14
ENDMDL
MODEL 5
REMARK VINA RESULT:    -2.710      1.088      3.536
REMARK INTER + INTRA:          -6.252
REMARK INTER:                  -5.401
REMARK INTRA:                  -0.851
REMARK UNBOUND:                -1.324
REMARK SMILES CCCCCCCCCCCCCCCC(=O)[O-]
REMARK SMILES IDX 9 1 10 2 11 3 12 4 13 5 14 6 15 7 16 8 17 9 18 10 8 11 7 12
REMARK SMILES IDX 6 13 5 14 4 15 3 16 2 17 1 18
REMARK H PARENT
REMARK Flexibility Score: inf
ROOT
ATOM      1  C   UNL     1      18.657   4.778 -11.131  1.00  0.00     0.000 C 
ENDROOT
BRANCH   1   2
ATOM      2  C   UNL     1      19.222   5.080 -12.529  1.00  0.00     0.000 C 
BRANCH   2   3
ATOM      3  C   UNL     1      20.093   3.934 -13.073  1.00  0.00     0.000 C 
BRANCH   3   4
ATOM      4  C   UNL     1      19.457   3.232 -14.285  1.00  0.00     0.000 C 
BRANCH   4   5
ATOM      5  C   UNL     1      18.866   1.859 -13.932  1.00  0.00     0.000 C 
BRANCH   5   6
ATOM      6  C   UNL     1      18.633   1.021 -15.196  1.00  0.00     0.006 C 
BRANCH   6   7
ATOM      7  C   UNL     1      17.271   0.323 -15.149  1.00  0.00     0.053 C 
BRANCH   7   8
ATOM      8  C   UNL     1      17.159  -0.681 -16.253  1.00  0.00     0.041 C 
ATOM      9  O   UNL     1      17.023  -1.904 -15.986  1.00  0.00    -0.550 OA
ATOM     10  O   UNL     1      17.154  -0.261 -17.577  1.00  0.00    -0.550 OA
ENDBRANCH   7   8
ENDBRANCH   6   7
ENDBRANCH   5   6
ENDBRANCH   4   5
ENDBRANCH   3   4
ENDBRANCH   2   3
ENDBRANCH   1   2
BRANCH   1  11
ATOM     11  C   UNL     1      18.142   6.040 -10.419  1.00  0.00     0.000 C 
BRANCH  11  12
ATOM     12  C   UNL     1      19.269   7.027 -10.061  1.00  0.00    -0.000 C 
BRANCH  12  13
ATOM     13  C   UNL     1      20.584   6.373  -9.598  1.00  0.00    -0.000 C 
BRANCH  13  14
ATOM     14  C   UNL     1      21.827   6.992 -10.260  1.00  0.00    -0.000 C 
BRANCH  14  15
ATOM     15  C   UNL     1      21.668   7.125 -11.790  1.00  0.00    -0.000 C 
BRANCH  15  16
ATOM     16  C   UNL     1      22.974   6.882 -12.568  1.00  0.00    -0.000 C 
BRANCH  16  17
ATOM     17  C   UNL     1      23.141   5.424 -13.014  1.00  0.00    -0.003 C 
ATOM     18  C   UNL     1      24.432   5.237 -13.807  1.00  0.00     0.004 C 
ENDBRANCH  16  17
ENDBRANCH  15  16
ENDBRANCH  14  15
ENDBRANCH  13  14
ENDBRANCH  12  13
ENDBRANCH  11  12
ENDBRANCH   1  11
TORSDOF 14
ENDMDL
MODEL 6
REMARK VINA RESULT:    -2.683      3.337      6.279
REMARK INTER + INTRA:          -6.202
REMARK INTER:                  -5.341
REMARK INTRA:                  -0.861
REMARK UNBOUND:                -1.324
REMARK SMILES CCCCCCCCCCCCCCCC(=O)[O-]
REMARK SMILES IDX 9 1 10 2 11 3 12 4 13 5 14 6 15 7 16 8 17 9 18 10 8 11 7 12
REMARK SMILES IDX 6 13 5 14 4 15 3 16 2 17 1 18
REMARK H PARENT
REMARK Flexibility Score: inf
ROOT
ATOM      1  C   UNL     1      21.171   5.633  -9.987  1.00  0.00     0.000 C 
ENDROOT
BRANCH   1   2
ATOM      2  C   UNL     1      20.630   7.072  -9.997  1.00  0.00     0.000 C 
BRANCH   2   3
ATOM      3  C   UNL     1      19.092   7.124  -9.951  1.00  0.00     0.000 C 
BRANCH   3   4
ATOM      4  C   UNL     1      18.448   6.728 -11.290  1.00  0.00     0.000 C 
BRANCH   4   5
ATOM      5  C   UNL     1      17.531   5.501 -11.167  1.00  0.00     0.000 C 
BRANCH   5   6
ATOM      6  C   UNL     1      18.352   4.220 -10.978  1.00  0.00     0.006 C 
BRANCH   6   7
ATOM      7  C   UNL     1      17.886   3.122 -11.938  1.00  0.00     0.053 C 
BRANCH   7   8
ATOM      8  C   UNL     1      18.859   2.962 -13.064  1.00  0.00     0.041 C 
ATOM      9  O   UNL     1      18.820   1.937 -13.794  1.00  0.00    -0.550 OA
ATOM     10  O   UNL     1      19.777   3.968 -13.338  1.00  0.00    -0.550 OA
ENDBRANCH   7   8
ENDBRANCH   6   7
ENDBRANCH   5   6
ENDBRANCH   4   5
ENDBRANCH   3   4
ENDBRANCH   2   3
ENDBRANCH   1   2
BRANCH   1  11
ATOM     11  C   UNL     1      21.871   5.257 -11.304  1.00  0.00     0.000 C 
BRANCH  11  12
ATOM     12  C   UNL     1      21.990   6.444 -12.277  1.00  0.00    -0.000 C 
BRANCH  12  13
ATOM     13  C   UNL     1      23.358   6.583 -12.970  1.00  0.00    -0.000 C 
BRANCH  13  14
ATOM     14  C   UNL     1      23.951   5.232 -13.404  1.00  0.00    -0.000 C 
BRANCH  14  15
ATOM     15  C   UNL     1      25.093   5.399 -14.430  1.00  0.00    -0.000 C 
BRANCH  15  16
ATOM     16  C   UNL     1      26.102   4.237 -14.422  1.00  0.00    -0.000 C 
BRANCH  16  17
ATOM     17  C   UNL     1      27.539   4.692 -14.708  1.00  0.00    -0.003 C 
ATOM     18  C   UNL     1      28.427   3.507 -15.078  1.00  0.00     0.004 C 
ENDBRANCH  16  17
ENDBRANCH  15  16
ENDBRANCH  14  15
ENDBRANCH  13  14
ENDBRANCH  12  13
ENDBRANCH  11  12
ENDBRANCH   1  11
TORSDOF 14
ENDMDL
MODEL 7
REMARK VINA RESULT:    -2.535      4.699      7.579
REMARK INTER + INTRA:          -5.933
REMARK INTER:                  -5.469
REMARK INTRA:                  -0.464
REMARK UNBOUND:                -1.324
REMARK SMILES CCCCCCCCCCCCCCCC(=O)[O-]
REMARK SMILES IDX 9 1 10 2 11 3 12 4 13 5 14 6 15 7 16 8 17 9 18 10 8 11 7 12
REMARK SMILES IDX 6 13 5 14 4 15 3 16 2 17 1 18
REMARK H PARENT
REMARK Flexibility Score: inf
ROOT
ATOM      1  C   UNL     1      21.966   6.025 -11.635  1.00  0.00     0.000 C 
ENDROOT
BRANCH   1   2
ATOM      2  C   UNL     1      21.074   7.125 -12.234  1.00  0.00     0.000 C 
BRANCH   2   3
ATOM      3  C   UNL     1      19.826   6.557 -12.932  1.00  0.00     0.000 C 
BRANCH   3   4
ATOM      4  C   UNL     1      18.559   6.681 -12.069  1.00  0.00     0.000 C 
BRANCH   4   5
ATOM      5  C   UNL     1      18.855   6.593 -10.564  1.00  0.00     0.000 C 
BRANCH   5   6
ATOM      6  C   UNL     1      18.660   5.161 -10.050  1.00  0.00     0.006 C 
BRANCH   6   7
ATOM      7  C   UNL     1      17.773   4.352 -11.001  1.00  0.00     0.053 C 
BRANCH   7   8
ATOM      8  C   UNL     1      16.339   4.443 -10.585  1.00  0.00     0.041 C 
ATOM      9  O   UNL     1      15.997   5.220  -9.655  1.00  0.00    -0.550 OA
ATOM     10  O   UNL     1      15.372   3.707 -11.258  1.00  0.00    -0.550 OA
ENDBRANCH   7   8
ENDBRANCH   6   7
ENDBRANCH   5   6
ENDBRANCH   4   5
ENDBRANCH   3   4
ENDBRANCH   2   3
ENDBRANCH   1   2
BRANCH   1  11
ATOM     11  C   UNL     1      22.566   5.103 -12.711  1.00  0.00     0.000 C 
BRANCH  11  12
ATOM     12  C   UNL     1      23.818   5.700 -13.379  1.00  0.00    -0.000 C 
BRANCH  12  13
ATOM     13  C   UNL     1      24.586   4.736 -14.302  1.00  0.00    -0.000 C 
BRANCH  13  14
ATOM     14  C   UNL     1      26.001   5.233 -14.646  1.00  0.00    -0.000 C 
BRANCH  14  15
ATOM     15  C   UNL     1      27.066   4.130 -14.466  1.00  0.00    -0.000 C 
BRANCH  15  16
ATOM     16  C   UNL     1      28.353   4.381 -15.271  1.00  0.00    -0.000 C 
BRANCH  16  17
ATOM     17  C   UNL     1      29.358   3.227 -15.166  1.00  0.00    -0.003 C 
ATOM     18  C   UNL     1      29.268   2.542 -13.805  1.00  0.00     0.004 C 
ENDBRANCH  16  17
ENDBRANCH  15  16
ENDBRANCH  14  15
ENDBRANCH  13  14
ENDBRANCH  12  13
ENDBRANCH  11  12
ENDBRANCH   1  11
TORSDOF 14
ENDMDL
MODEL 8
REMARK VINA RESULT:    -2.403      3.162      6.729
REMARK INTER + INTRA:          -5.693
REMARK INTER:                  -5.233
REMARK INTRA:                  -0.460
REMARK UNBOUND:                -1.324
REMARK SMILES CCCCCCCCCCCCCCCC(=O)[O-]
REMARK SMILES IDX 9 1 10 2 11 3 12 4 13 5 14 6 15 7 16 8 17 9 18 10 8 11 7 12
REMARK SMILES IDX 6 13 5 14 4 15 3 16 2 17 1 18
REMARK H PARENT
REMARK Flexibility Score: inf
ROOT
ATOM      1  C   UNL     1      17.660   4.399 -10.704  1.00  0.00     0.000 C 
ENDROOT
BRANCH   1   2
ATOM      2  C   UNL     1      18.959   5.141 -10.350  1.00  0.00     0.000 C 
BRANCH   2   3
ATOM      3  C   UNL     1      18.854   6.659 -10.588  1.00  0.00     0.000 C 
BRANCH   3   4
ATOM      4  C   UNL     1      18.829   7.022 -12.082  1.00  0.00     0.000 C 
BRANCH   4   5
ATOM      5  C   UNL     1      20.232   7.060 -12.707  1.00  0.00     0.000 C 
BRANCH   5   6
ATOM      6  C   UNL     1      21.314   7.117 -11.622  1.00  0.00     0.006 C 
BRANCH   6   7
ATOM      7  C   UNL     1      22.715   7.117 -12.242  1.00  0.00     0.053 C 
BRANCH   7   8
ATOM      8  C   UNL     1      22.980   5.819 -12.937  1.00  0.00     0.041 C 
ATOM      9  O   UNL     1      23.966   5.706 -13.713  1.00  0.00    -0.550 OA
ATOM     10  O   UNL     1      22.169   4.719 -12.690  1.00  0.00    -0.550 OA
ENDBRANCH   7   8
ENDBRANCH   6   7
ENDBRANCH   5   6
ENDBRANCH   4   5
ENDBRANCH   3   4
ENDBRANCH   2   3
ENDBRANCH   1   2
BRANCH   1  11
ATOM     11  C   UNL     1      17.848   3.400 -11.858  1.00  0.00     0.000 C 
BRANCH  11  12
ATOM     12  C   UNL     1      19.151   3.633 -12.644  1.00  0.00    -0.000 C 
BRANCH  12  13
ATOM     13  C   UNL     1      19.330   2.741 -13.886  1.00  0.00    -0.000 C 
BRANCH  13  14
ATOM     14  C   UNL     1      18.463   1.471 -13.844  1.00  0.00    -0.000 C 
BRANCH  14  15
ATOM     15  C   UNL     1      18.271   0.850 -15.244  1.00  0.00    -0.000 C 
BRANCH  15  16
ATOM     16  C   UNL     1      17.144  -0.197 -15.303  1.00  0.00    -0.000 C 
BRANCH  16  17
ATOM     17  C   UNL     1      17.086  -0.937 -16.645  1.00  0.00    -0.003 C 
ATOM     18  C   UNL     1      17.051   0.044 -17.814  1.00  0.00     0.004 C 
ENDBRANCH  16  17
ENDBRANCH  15  16
ENDBRANCH  14  15
ENDBRANCH  13  14
ENDBRANCH  12  13
ENDBRANCH  11  12
ENDBRANCH   1  11
TORSDOF 14
ENDMDL
MODEL 9
REMARK VINA RESULT:    -1.779      5.250      6.586
REMARK INTER + INTRA:          -4.558
REMARK INTER:                  -4.222
REMARK INTRA:                  -0.336
REMARK UNBOUND:                -1.324
REMARK SMILES CCCCCCCCCCCCCCCC(=O)[O-]
REMARK SMILES IDX 9 1 10 2 11 3 12 4 13 5 14 6 15 7 16 8 17 9 18 10 8 11 7 12
REMARK SMILES IDX 6 13 5 14 4 15 3 16 2 17 1 18
REMARK H PARENT
REMARK Flexibility Score: inf
ROOT
ATOM      1  C   UNL     1      21.088   6.437 -12.150  1.00  0.00     0.000 C 
ENDROOT
BRANCH   1   2
ATOM      2  C   UNL     1      21.980   5.346 -12.766  1.00  0.00     0.000 C 
BRANCH   2   3
ATOM      3  C   UNL     1      23.301   5.909 -13.320  1.00  0.00     0.000 C 
BRANCH   3   4
ATOM      4  C   UNL     1      24.423   4.858 -13.353  1.00  0.00     0.000 C 
BRANCH   4   5
ATOM      5  C   UNL     1      25.410   5.079 -14.510  1.00  0.00     0.000 C 
BRANCH   5   6
ATOM      6  C   UNL     1      26.539   4.041 -14.474  1.00  0.00     0.006 C 
BRANCH   6   7
ATOM      7  C   UNL     1      27.863   4.653 -14.938  1.00  0.00     0.053 C 
BRANCH   7   8
ATOM      8  C   UNL     1      28.909   3.593 -15.081  1.00  0.00     0.041 C 
ATOM      9  O   UNL     1      29.626   3.546 -16.115  1.00  0.00    -0.550 OA
ATOM     10  O   UNL     1      29.127   2.688 -14.050  1.00  0.00    -0.550 OA
ENDBRANCH   7   8
ENDBRANCH   6   7
ENDBRANCH   5   6
ENDBRANCH   4   5
ENDBRANCH   3   4
ENDBRANCH   2   3
ENDBRANCH   1   2
BRANCH   1  11
ATOM     11  C   UNL     1      21.749   7.125 -10.943  1.00  0.00     0.000 C 
BRANCH  11  12
ATOM     12  C   UNL     1      21.557   6.343  -9.631  1.00  0.00    -0.000 C 
BRANCH  12  13
ATOM     13  C   UNL     1      20.165   5.712  -9.446  1.00  0.00    -0.000 C 
BRANCH  13  14
ATOM     14  C   UNL     1      19.021   6.642  -9.885  1.00  0.00    -0.000 C 
BRANCH  14  15
ATOM     15  C   UNL     1      18.097   5.977 -10.929  1.00  0.00    -0.000 C 
BRANCH  15  16
ATOM     16  C   UNL     1      18.309   4.459 -11.059  1.00  0.00    -0.000 C 
BRANCH  16  17
ATOM     17  C   UNL     1      17.035   3.652 -10.776  1.00  0.00    -0.003 C 
ATOM     18  C   UNL     1      15.867   4.572 -10.430  1.00  0.00     0.004 C 
ENDBRANCH  16  17
ENDBRANCH  15  16
ENDBRANCH  14  15
ENDBRANCH  13  14
ENDBRANCH  12  13
ENDBRANCH  11  12
ENDBRANCH   1  11
TORSDOF 14
ENDMDL
