MODEL 1
REMARK VINA RESULT:    -3.953      0.000      0.000
REMARK INTER + INTRA:         -16.638
REMARK INTER:                 -10.425
REMARK INTRA:                  -6.214
REMARK UNBOUND:                -6.214
REMARK SMILES CCCCCCCCCCCCCCCCCCCCCCCCCCCCCC(=O)[O-]
REMARK SMILES IDX 16 1 17 2 18 3 19 4 20 5 21 6 22 7 23 8 24 9 25 10 26 11
REMARK SMILES IDX 27 12 28 13 29 14 30 15 31 16 32 17 15 18 14 19 13 20 12 21
REMARK SMILES IDX 11 22 10 23 9 24 8 25 7 26 6 27 5 28 4 29 3 30 2 31 1 32
REMARK H PARENT
REMARK Flexibility Score: inf
ROOT
ATOM      1  C   UNL     1      24.253   9.372  14.406  1.00  0.00     0.000 C 
ENDROOT
BRANCH   1   2
ATOM      2  C   UNL     1      23.918  10.790  14.897  1.00  0.00     0.000 C 
BRANCH   2   3
ATOM      3  C   UNL     1      25.069  11.438  15.682  1.00  0.00     0.000 C 
BRANCH   3   4
ATOM      4  C   UNL     1      26.280  10.493  15.755  1.00  0.00     0.000 C 
BRANCH   4   5
ATOM      5  C   UNL     1      26.923  10.437  17.153  1.00  0.00     0.000 C 
BRANCH   5   6
ATOM      6  C   UNL     1      25.926  10.374  18.325  1.00  0.00     0.000 C 
BRANCH   6   7
ATOM      7  C   UNL     1      25.258   8.994  18.468  1.00  0.00     0.000 C 
BRANCH   7   8
ATOM      8  C   UNL     1      23.769   9.101  18.842  1.00  0.00     0.000 C 
BRANCH   8   9
ATOM      9  C   UNL     1      22.854   8.421  17.808  1.00  0.00     0.000 C 
BRANCH   9  10
ATOM     10  C   UNL     1      21.583   9.234  17.515  1.00  0.00     0.000 C 
BRANCH  10  11
ATOM     11  C   UNL     1      21.614  10.637  18.134  1.00  0.00     0.000 C 
BRANCH  11  12
ATOM     12  C   UNL     1      20.588  11.558  17.454  1.00  0.00     0.000 C 
BRANCH  12  13
ATOM     13  C   UNL     1      20.385  11.225  15.964  1.00  0.00     0.006 C 
BRANCH  13  14
ATOM     14  C   UNL     1      20.588  12.419  15.017  1.00  0.00     0.053 C 
BRANCH  14  15
ATOM     15  C   UNL     1      20.678  11.988  13.585  1.00  0.00     0.041 C 
ATOM     16  O   UNL     1      20.946  12.832  12.687  1.00  0.00    -0.550 OA
ATOM     17  O   UNL     1      20.441  10.663  13.237  1.00  0.00    -0.550 OA
ENDBRANCH  14  15
ENDBRANCH  13  14
ENDBRANCH  12  13
ENDBRANCH  11  12
ENDBRANCH  10  11
ENDBRANCH   9  10
ENDBRANCH   8   9
ENDBRANCH   7   8
ENDBRANCH   6   7
ENDBRANCH   5   6
ENDBRANCH   4   5
ENDBRANCH   3   4
ENDBRANCH   2   3
ENDBRANCH   1   2
BRANCH   1  18
ATOM     18  C   UNL     1      23.002   8.493  14.233  1.00  0.00     0.000 C 
BRANCH  18  19
ATOM     19  C   UNL     1      23.234   7.306  13.276  1.00  0.00     0.000 C 
BRANCH  19  20
ATOM     20  C   UNL     1      22.705   5.955  13.797  1.00  0.00     0.000 C 
BRANCH  20  21
ATOM     21  C   UNL     1      23.246   5.608  15.193  1.00  0.00     0.000 C 
BRANCH  21  22
ATOM     22  C   UNL     1      24.771   5.386  15.204  1.00  0.00     0.000 C 
BRANCH  22  23
ATOM     23  C   UNL     1      25.579   6.455  15.963  1.00  0.00     0.000 C 
BRANCH  23  24
ATOM     24  C   UNL     1      26.835   6.909  15.203  1.00  0.00    -0.000 C 
BRANCH  24  25
ATOM     25  C   UNL     1      27.108   6.027  13.973  1.00  0.00    -0.000 C 
BRANCH  25  26
ATOM     26  C   UNL     1      28.087   6.693  12.984  1.00  0.00    -0.000 C 
BRANCH  26  27
ATOM     27  C   UNL     1      28.207   8.210  13.208  1.00  0.00    -0.000 C 
BRANCH  27  28
ATOM     28  C   UNL     1      28.079   8.998  11.894  1.00  0.00    -0.000 C 
BRANCH  28  29
ATOM     29  C   UNL     1      26.887   9.970  11.890  1.00  0.00    -0.000 C 
BRANCH  29  30
ATOM     30  C   UNL     1      27.201  11.398  12.387  1.00  0.00    -0.000 C 
BRANCH  30  31
ATOM     31  C   UNL     1      26.127  12.453  12.062  1.00  0.00    -0.003 C 
ATOM     32  C   UNL     1      26.241  13.708  12.931  1.00  0.00     0.004 C 
ENDBRANCH  30  31
ENDBRANCH  29  30
ENDBRANCH  28  29
ENDBRANCH  27  28
ENDBRANCH  26  27
ENDBRANCH  25  26
ENDBRANCH  24  25
ENDBRANCH  23  24
ENDBRANCH  22  23
ENDBRANCH  21  22
ENDBRANCH  20  21
ENDBRANCH  19  20
ENDBRANCH  18  19
ENDBRANCH   1  18
TORSDOF 28
ENDMDL
MODEL 2
REMARK VINA RESULT:    -3.916      6.752      9.744
REMARK INTER + INTRA:         -16.540
REMARK INTER:                 -14.205
REMARK INTRA:                  -2.335
REMARK UNBOUND:                -6.214
REMARK SMILES CCCCCCCCCCCCCCCCCCCCCCCCCCCCCC(=O)[O-]
REMARK SMILES IDX 16 1 17 2 18 3 19 4 20 5 21 6 22 7 23 8 24 9 25 10 26 11
REMARK SMILES IDX 27 12 28 13 29 14 30 15 31 16 32 17 15 18 14 19 13 20 12 21
REMARK SMILES IDX 11 22 10 23 9 24 8 25 7 26 6 27 5 28 4 29 3 30 2 31 1 32
REMARK H PARENT
REMARK Flexibility Score: inf
ROOT
ATOM      1  C   UNL     1      18.973  11.548  10.714  1.00  0.00     0.000 C 
ENDROOT
BRANCH   1   2
ATOM      2  C   UNL     1      19.606  11.223  12.077  1.00  0.00     0.000 C 
BRANCH   2   3
ATOM      3  C   UNL     1      20.121  12.473  12.810  1.00  0.00     0.000 C 
BRANCH   3   4
ATOM      4  C   UNL     1      21.295  12.118  13.736  1.00  0.00     0.000 C 
BRANCH   4   5
ATOM      5  C   UNL     1      21.381  10.615  14.059  1.00  0.00     0.000 C 
BRANCH   5   6
ATOM      6  C   UNL     1      22.794  10.101  14.391  1.00  0.00     0.000 C 
BRANCH   6   7
ATOM      7  C   UNL     1      22.841   9.277  15.691  1.00  0.00     0.000 C 
BRANCH   7   8
ATOM      8  C   UNL     1      23.351   7.844  15.459  1.00  0.00     0.000 C 
BRANCH   8   9
ATOM      9  C   UNL     1      23.289   7.433  13.977  1.00  0.00     0.000 C 
BRANCH   9  10
ATOM     10  C   UNL     1      22.853   5.971  13.785  1.00  0.00     0.000 C 
BRANCH  10  11
ATOM     11  C   UNL     1      23.671   4.987  14.632  1.00  0.00     0.000 C 
BRANCH  11  12
ATOM     12  C   UNL     1      24.432   3.996  13.735  1.00  0.00     0.000 C 
BRANCH  12  13
ATOM     13  C   UNL     1      25.953   4.237  13.740  1.00  0.00     0.006 C 
BRANCH  13  14
ATOM     14  C   UNL     1      26.785   3.037  13.259  1.00  0.00     0.053 C 
BRANCH  14  15
ATOM     15  C   UNL     1      26.408   2.615  11.872  1.00  0.00     0.041 C 
ATOM     16  O   UNL     1      26.836   3.258  10.876  1.00  0.00    -0.550 OA
ATOM     17  O   UNL     1      25.562   1.528  11.678  1.00  0.00    -0.550 OA
ENDBRANCH  14  15
ENDBRANCH  13  14
ENDBRANCH  12  13
ENDBRANCH  11  12
ENDBRANCH  10  11
ENDBRANCH   9  10
ENDBRANCH   8   9
ENDBRANCH   7   8
ENDBRANCH   6   7
ENDBRANCH   5   6
ENDBRANCH   4   5
ENDBRANCH   3   4
ENDBRANCH   2   3
ENDBRANCH   1   2
BRANCH   1  18
ATOM     18  C   UNL     1      18.432  10.298   9.998  1.00  0.00     0.000 C 
BRANCH  18  19
ATOM     19  C   UNL     1      17.050   9.861  10.521  1.00  0.00     0.000 C 
BRANCH  19  20
ATOM     20  C   UNL     1      15.858  10.545   9.822  1.00  0.00     0.000 C 
BRANCH  20  21
ATOM     21  C   UNL     1      15.550   9.931   8.447  1.00  0.00     0.000 C 
BRANCH  21  22
ATOM     22  C   UNL     1      15.322   8.409   8.510  1.00  0.00     0.000 C 
BRANCH  22  23
ATOM     23  C   UNL     1      16.063   7.594   7.433  1.00  0.00     0.000 C 
BRANCH  23  24
ATOM     24  C   UNL     1      17.541   7.993   7.291  1.00  0.00    -0.000 C 
BRANCH  24  25
ATOM     25  C   UNL     1      17.970   8.078   5.817  1.00  0.00    -0.000 C 
BRANCH  25  26
ATOM     26  C   UNL     1      17.014   7.303   4.886  1.00  0.00    -0.000 C 
BRANCH  26  27
ATOM     27  C   UNL     1      17.656   6.974   3.527  1.00  0.00    -0.000 C 
BRANCH  27  28
ATOM     28  C   UNL     1      18.800   7.942   3.182  1.00  0.00    -0.000 C 
BRANCH  28  29
ATOM     29  C   UNL     1      20.067   7.222   2.687  1.00  0.00    -0.000 C 
BRANCH  29  30
ATOM     30  C   UNL     1      20.257   5.785   3.217  1.00  0.00    -0.000 C 
BRANCH  30  31
ATOM     31  C   UNL     1      21.319   5.631   4.320  1.00  0.00    -0.003 C 
ATOM     32  C   UNL     1      20.724   5.651   5.730  1.00  0.00     0.004 C 
ENDBRANCH  30  31
ENDBRANCH  29  30
ENDBRANCH  28  29
ENDBRANCH  27  28
ENDBRANCH  26  27
ENDBRANCH  25  26
ENDBRANCH  24  25
ENDBRANCH  23  24
ENDBRANCH  22  23
ENDBRANCH  21  22
ENDBRANCH  20  21
ENDBRANCH  19  20
ENDBRANCH  18  19
ENDBRANCH   1  18
TORSDOF 28
ENDMDL
MODEL 3
REMARK VINA RESULT:    -3.881      2.511      6.395
REMARK INTER + INTRA:         -16.447
REMARK INTER:                 -11.748
REMARK INTRA:                  -4.699
REMARK UNBOUND:                -6.214
REMARK SMILES CCCCCCCCCCCCCCCCCCCCCCCCCCCCCC(=O)[O-]
REMARK SMILES IDX 16 1 17 2 18 3 19 4 20 5 21 6 22 7 23 8 24 9 25 10 26 11
REMARK SMILES IDX 27 12 28 13 29 14 30 15 31 16 32 17 15 18 14 19 13 20 12 21
REMARK SMILES IDX 11 22 10 23 9 24 8 25 7 26 6 27 5 28 4 29 3 30 2 31 1 32
REMARK H PARENT
REMARK Flexibility Score: inf
ROOT
ATOM      1  C   UNL     1      26.594   3.438  13.498  1.00  0.00     0.000 C 
ENDROOT
BRANCH   1   2
ATOM      2  C   UNL     1      27.378   4.669  13.013  1.00  0.00     0.000 C 
BRANCH   2   3
ATOM      3  C   UNL     1      27.169   5.900  13.910  1.00  0.00     0.000 C 
BRANCH   3   4
ATOM      4  C   UNL     1      27.928   7.116  13.354  1.00  0.00     0.000 C 
BRANCH   4   5
ATOM      5  C   UNL     1      27.009   8.307  13.027  1.00  0.00     0.000 C 
BRANCH   5   6
ATOM      6  C   UNL     1      27.601   9.334  12.044  1.00  0.00     0.000 C 
BRANCH   6   7
ATOM      7  C   UNL     1      29.102   9.115  11.782  1.00  0.00     0.000 C 
BRANCH   7   8
ATOM      8  C   UNL     1      29.981  10.150  12.506  1.00  0.00     0.000 C 
BRANCH   8   9
ATOM      9  C   UNL     1      29.175  11.368  12.990  1.00  0.00     0.000 C 
BRANCH   9  10
ATOM     10  C   UNL     1      29.755  12.700  12.489  1.00  0.00     0.000 C 
BRANCH  10  11
ATOM     11  C   UNL     1      28.674  13.699  12.055  1.00  0.00     0.000 C 
BRANCH  11  12
ATOM     12  C   UNL     1      27.296  13.019  11.992  1.00  0.00     0.000 C 
BRANCH  12  13
ATOM     13  C   UNL     1      26.169  13.905  12.553  1.00  0.00     0.006 C 
BRANCH  13  14
ATOM     14  C   UNL     1      25.186  14.424  11.491  1.00  0.00     0.053 C 
BRANCH  14  15
ATOM     15  C   UNL     1      25.603  15.755  10.945  1.00  0.00     0.041 C 
ATOM     16  O   UNL     1      25.005  16.803  11.309  1.00  0.00    -0.550 OA
ATOM     17  O   UNL     1      26.632  15.837  10.013  1.00  0.00    -0.550 OA
ENDBRANCH  14  15
ENDBRANCH  13  14
ENDBRANCH  12  13
ENDBRANCH  11  12
ENDBRANCH  10  11
ENDBRANCH   9  10
ENDBRANCH   8   9
ENDBRANCH   7   8
ENDBRANCH   6   7
ENDBRANCH   5   6
ENDBRANCH   4   5
ENDBRANCH   3   4
ENDBRANCH   2   3
ENDBRANCH   1   2
BRANCH   1  18
ATOM     18  C   UNL     1      25.074   3.593  13.319  1.00  0.00     0.000 C 
BRANCH  18  19
ATOM     19  C   UNL     1      24.301   3.476  14.648  1.00  0.00     0.000 C 
BRANCH  19  20
ATOM     20  C   UNL     1      23.537   4.752  15.055  1.00  0.00     0.000 C 
BRANCH  20  21
ATOM     21  C   UNL     1      23.223   5.661  13.856  1.00  0.00     0.000 C 
BRANCH  21  22
ATOM     22  C   UNL     1      23.585   7.136  14.113  1.00  0.00     0.000 C 
BRANCH  22  23
ATOM     23  C   UNL     1      23.869   7.489  15.585  1.00  0.00     0.000 C 
BRANCH  23  24
ATOM     24  C   UNL     1      22.956   8.604  16.120  1.00  0.00    -0.000 C 
BRANCH  24  25
ATOM     25  C   UNL     1      22.623   8.404  17.608  1.00  0.00    -0.000 C 
BRANCH  25  26
ATOM     26  C   UNL     1      23.304   9.457  18.505  1.00  0.00    -0.000 C 
BRANCH  26  27
ATOM     27  C   UNL     1      24.462   8.868  19.328  1.00  0.00    -0.000 C 
BRANCH  27  28
ATOM     28  C   UNL     1      25.786   8.877  18.545  1.00  0.00    -0.000 C 
BRANCH  28  29
ATOM     29  C   UNL     1      26.001  10.172  17.743  1.00  0.00    -0.000 C 
BRANCH  29  30
ATOM     30  C   UNL     1      26.408   9.972  16.267  1.00  0.00    -0.000 C 
BRANCH  30  31
ATOM     31  C   UNL     1      26.209  11.203  15.363  1.00  0.00    -0.003 C 
ATOM     32  C   UNL     1      25.096  11.011  14.330  1.00  0.00     0.004 C 
ENDBRANCH  30  31
ENDBRANCH  29  30
ENDBRANCH  28  29
ENDBRANCH  27  28
ENDBRANCH  26  27
ENDBRANCH  25  26
ENDBRANCH  24  25
ENDBRANCH  23  24
ENDBRANCH  22  23
ENDBRANCH  21  22
ENDBRANCH  20  21
ENDBRANCH  19  20
ENDBRANCH  18  19
ENDBRANCH   1  18
TORSDOF 28
ENDMDL
MODEL 4
REMARK VINA RESULT:    -3.853      3.063      7.227
REMARK INTER + INTRA:         -16.373
REMARK INTER:                 -10.725
REMARK INTRA:                  -5.648
REMARK UNBOUND:                -6.214
REMARK SMILES CCCCCCCCCCCCCCCCCCCCCCCCCCCCCC(=O)[O-]
REMARK SMILES IDX 16 1 17 2 18 3 19 4 20 5 21 6 22 7 23 8 24 9 25 10 26 11
REMARK SMILES IDX 27 12 28 13 29 14 30 15 31 16 32 17 15 18 14 19 13 20 12 21
REMARK SMILES IDX 11 22 10 23 9 24 8 25 7 26 6 27 5 28 4 29 3 30 2 31 1 32
REMARK H PARENT
REMARK Flexibility Score: inf
ROOT
ATOM      1  C   UNL     1      29.593   7.728  13.013  1.00  0.00     0.000 C 
ENDROOT
BRANCH   1   2
ATOM      2  C   UNL     1      29.882   7.795  14.522  1.00  0.00     0.000 C 
BRANCH   2   3
ATOM      3  C   UNL     1      29.251   9.023  15.197  1.00  0.00     0.000 C 
BRANCH   3   4
ATOM      4  C   UNL     1      28.441   8.610  16.436  1.00  0.00     0.000 C 
BRANCH   4   5
ATOM      5  C   UNL     1      26.920   8.745  16.240  1.00  0.00     0.000 C 
BRANCH   5   6
ATOM      6  C   UNL     1      26.211   7.468  15.751  1.00  0.00     0.000 C 
BRANCH   6   7
ATOM      7  C   UNL     1      25.925   7.485  14.239  1.00  0.00     0.000 C 
BRANCH   7   8
ATOM      8  C   UNL     1      24.522   8.030  13.914  1.00  0.00     0.000 C 
BRANCH   8   9
ATOM      9  C   UNL     1      23.421   7.347  14.744  1.00  0.00     0.000 C 
BRANCH   9  10
ATOM     10  C   UNL     1      23.173   5.892  14.316  1.00  0.00     0.000 C 
BRANCH  10  11
ATOM     11  C   UNL     1      23.562   4.875  15.397  1.00  0.00     0.000 C 
BRANCH  11  12
ATOM     12  C   UNL     1      24.132   3.595  14.764  1.00  0.00     0.000 C 
BRANCH  12  13
ATOM     13  C   UNL     1      25.116   3.886  13.616  1.00  0.00     0.006 C 
BRANCH  13  14
ATOM     14  C   UNL     1      26.106   2.745  13.327  1.00  0.00     0.053 C 
BRANCH  14  15
ATOM     15  C   UNL     1      27.472   3.261  12.994  1.00  0.00     0.041 C 
ATOM     16  O   UNL     1      28.368   2.466  12.599  1.00  0.00    -0.550 OA
ATOM     17  O   UNL     1      27.766   4.611  13.143  1.00  0.00    -0.550 OA
ENDBRANCH  14  15
ENDBRANCH  13  14
ENDBRANCH  12  13
ENDBRANCH  11  12
ENDBRANCH  10  11
ENDBRANCH   9  10
ENDBRANCH   8   9
ENDBRANCH   7   8
ENDBRANCH   6   7
ENDBRANCH   5   6
ENDBRANCH   4   5
ENDBRANCH   3   4
ENDBRANCH   2   3
ENDBRANCH   1   2
BRANCH   1  18
ATOM     18  C   UNL     1      29.253   9.103  12.412  1.00  0.00     0.000 C 
BRANCH  18  19
ATOM     19  C   UNL     1      27.887   9.122  11.697  1.00  0.00     0.000 C 
BRANCH  19  20
ATOM     20  C   UNL     1      26.984  10.312  12.079  1.00  0.00     0.000 C 
BRANCH  20  21
ATOM     21  C   UNL     1      27.779  11.496  12.651  1.00  0.00     0.000 C 
BRANCH  21  22
ATOM     22  C   UNL     1      27.238  11.977  14.011  1.00  0.00     0.000 C 
BRANCH  22  23
ATOM     23  C   UNL     1      25.704  12.077  14.103  1.00  0.00     0.000 C 
BRANCH  23  24
ATOM     24  C   UNL     1      25.134  11.418  15.369  1.00  0.00    -0.000 C 
BRANCH  24  25
ATOM     25  C   UNL     1      23.664  11.801  15.600  1.00  0.00    -0.000 C 
BRANCH  25  26
ATOM     26  C   UNL     1      22.757  11.365  14.432  1.00  0.00    -0.000 C 
BRANCH  26  27
ATOM     27  C   UNL     1      21.532  10.563  14.905  1.00  0.00    -0.000 C 
BRANCH  27  28
ATOM     28  C   UNL     1      21.203  10.836  16.382  1.00  0.00    -0.000 C 
BRANCH  28  29
ATOM     29  C   UNL     1      21.267   9.571  17.256  1.00  0.00    -0.000 C 
BRANCH  29  30
ATOM     30  C   UNL     1      22.316   9.604  18.387  1.00  0.00    -0.000 C 
BRANCH  30  31
ATOM     31  C   UNL     1      23.642   8.888  18.070  1.00  0.00    -0.003 C 
ATOM     32  C   UNL     1      24.635   8.927  19.234  1.00  0.00     0.004 C 
ENDBRANCH  30  31
ENDBRANCH  29  30
ENDBRANCH  28  29
ENDBRANCH  27  28
ENDBRANCH  26  27
ENDBRANCH  25  26
ENDBRANCH  24  25
ENDBRANCH  23  24
ENDBRANCH  22  23
ENDBRANCH  21  22
ENDBRANCH  20  21
ENDBRANCH  19  20
ENDBRANCH  18  19
ENDBRANCH   1  18
TORSDOF 28
ENDMDL
MODEL 5
REMARK VINA RESULT:    -3.851      1.934      3.393
REMARK INTER + INTRA:         -16.368
REMARK INTER:                 -12.296
REMARK INTRA:                  -4.072
REMARK UNBOUND:                -6.214
REMARK SMILES CCCCCCCCCCCCCCCCCCCCCCCCCCCCCC(=O)[O-]
REMARK SMILES IDX 16 1 17 2 18 3 19 4 20 5 21 6 22 7 23 8 24 9 25 10 26 11
REMARK SMILES IDX 27 12 28 13 29 14 30 15 31 16 32 17 15 18 14 19 13 20 12 21
REMARK SMILES IDX 11 22 10 23 9 24 8 25 7 26 6 27 5 28 4 29 3 30 2 31 1 32
REMARK H PARENT
REMARK Flexibility Score: inf
ROOT
ATOM      1  C   UNL     1      23.062   5.857  14.122  1.00  0.00     0.000 C 
ENDROOT
BRANCH   1   2
ATOM      2  C   UNL     1      23.471   7.242  14.650  1.00  0.00     0.000 C 
BRANCH   2   3
ATOM      3  C   UNL     1      23.939   7.209  16.114  1.00  0.00     0.000 C 
BRANCH   3   4
ATOM      4  C   UNL     1      24.416   8.599  16.566  1.00  0.00     0.000 C 
BRANCH   4   5
ATOM      5  C   UNL     1      23.622   9.152  17.764  1.00  0.00     0.000 C 
BRANCH   5   6
ATOM      6  C   UNL     1      22.127   8.782  17.780  1.00  0.00     0.000 C 
BRANCH   6   7
ATOM      7  C   UNL     1      21.249   9.806  17.038  1.00  0.00     0.000 C 
BRANCH   7   8
ATOM      8  C   UNL     1      21.953  11.164  16.863  1.00  0.00     0.000 C 
BRANCH   8   9
ATOM      9  C   UNL     1      22.282  11.468  15.391  1.00  0.00     0.000 C 
BRANCH   9  10
ATOM     10  C   UNL     1      21.660  10.450  14.422  1.00  0.00     0.000 C 
BRANCH  10  11
ATOM     11  C   UNL     1      20.919  11.111  13.252  1.00  0.00     0.000 C 
BRANCH  11  12
ATOM     12  C   UNL     1      20.149  12.355  13.727  1.00  0.00     0.000 C 
BRANCH  12  13
ATOM     13  C   UNL     1      20.156  13.491  12.689  1.00  0.00     0.006 C 
BRANCH  13  14
ATOM     14  C   UNL     1      18.780  13.796  12.076  1.00  0.00     0.053 C 
BRANCH  14  15
ATOM     15  C   UNL     1      18.388  12.782  11.045  1.00  0.00     0.041 C 
ATOM     16  O   UNL     1      17.173  12.501  10.864  1.00  0.00    -0.550 OA
ATOM     17  O   UNL     1      19.365  12.127  10.302  1.00  0.00    -0.550 OA
ENDBRANCH  14  15
ENDBRANCH  13  14
ENDBRANCH  12  13
ENDBRANCH  11  12
ENDBRANCH  10  11
ENDBRANCH   9  10
ENDBRANCH   8   9
ENDBRANCH   7   8
ENDBRANCH   6   7
ENDBRANCH   5   6
ENDBRANCH   4   5
ENDBRANCH   3   4
ENDBRANCH   2   3
ENDBRANCH   1   2
BRANCH   1  18
ATOM     18  C   UNL     1      23.249   4.744  15.169  1.00  0.00     0.000 C 
BRANCH  18  19
ATOM     19  C   UNL     1      24.355   3.741  14.784  1.00  0.00     0.000 C 
BRANCH  19  20
ATOM     20  C   UNL     1      24.738   3.757  13.291  1.00  0.00     0.000 C 
BRANCH  20  21
ATOM     21  C   UNL     1      25.733   2.645  12.924  1.00  0.00     0.000 C 
BRANCH  21  22
ATOM     22  C   UNL     1      27.098   3.194  12.466  1.00  0.00     0.000 C 
BRANCH  22  23
ATOM     23  C   UNL     1      27.783   4.150  13.461  1.00  0.00     0.000 C 
BRANCH  23  24
ATOM     24  C   UNL     1      27.771   5.613  12.991  1.00  0.00    -0.000 C 
BRANCH  24  25
ATOM     25  C   UNL     1      27.098   6.537  14.019  1.00  0.00    -0.000 C 
BRANCH  25  26
ATOM     26  C   UNL     1      27.354   8.028  13.718  1.00  0.00    -0.000 C 
BRANCH  26  27
ATOM     27  C   UNL     1      28.342   8.232  12.556  1.00  0.00    -0.000 C 
BRANCH  27  28
ATOM     28  C   UNL     1      28.069   9.538  11.792  1.00  0.00    -0.000 C 
BRANCH  28  29
ATOM     29  C   UNL     1      26.657  10.096  12.040  1.00  0.00    -0.000 C 
BRANCH  29  30
ATOM     30  C   UNL     1      26.561  11.635  12.114  1.00  0.00    -0.000 C 
BRANCH  30  31
ATOM     31  C   UNL     1      25.746  12.182  13.300  1.00  0.00    -0.003 C 
ATOM     32  C   UNL     1      25.884  11.330  14.564  1.00  0.00     0.004 C 
ENDBRANCH  30  31
ENDBRANCH  29  30
ENDBRANCH  28  29
ENDBRANCH  27  28
ENDBRANCH  26  27
ENDBRANCH  25  26
ENDBRANCH  24  25
ENDBRANCH  23  24
ENDBRANCH  22  23
ENDBRANCH  21  22
ENDBRANCH  20  21
ENDBRANCH  19  20
ENDBRANCH  18  19
ENDBRANCH   1  18
TORSDOF 28
ENDMDL
MODEL 6
REMARK VINA RESULT:    -3.833      3.292      6.383
REMARK INTER + INTRA:         -16.321
REMARK INTER:                 -10.822
REMARK INTRA:                  -5.499
REMARK UNBOUND:                -6.214
REMARK SMILES CCCCCCCCCCCCCCCCCCCCCCCCCCCCCC(=O)[O-]
REMARK SMILES IDX 16 1 17 2 18 3 19 4 20 5 21 6 22 7 23 8 24 9 25 10 26 11
REMARK SMILES IDX 27 12 28 13 29 14 30 15 31 16 32 17 15 18 14 19 13 20 12 21
REMARK SMILES IDX 11 22 10 23 9 24 8 25 7 26 6 27 5 28 4 29 3 30 2 31 1 32
REMARK H PARENT
REMARK Flexibility Score: inf
ROOT
ATOM      1  C   UNL     1      28.278   5.939  14.178  1.00  0.00     0.000 C 
ENDROOT
BRANCH   1   2
ATOM      2  C   UNL     1      27.297   5.194  13.256  1.00  0.00     0.000 C 
BRANCH   2   3
ATOM      3  C   UNL     1      27.637   3.703  13.105  1.00  0.00     0.000 C 
BRANCH   3   4
ATOM      4  C   UNL     1      26.418   2.829  13.440  1.00  0.00     0.000 C 
BRANCH   4   5
ATOM      5  C   UNL     1      25.088   3.605  13.415  1.00  0.00     0.000 C 
BRANCH   5   6
ATOM      6  C   UNL     1      24.311   3.608  14.744  1.00  0.00     0.000 C 
BRANCH   6   7
ATOM      7  C   UNL     1      23.415   4.848  14.911  1.00  0.00     0.000 C 
BRANCH   7   8
ATOM      8  C   UNL     1      23.283   5.655  13.607  1.00  0.00     0.000 C 
BRANCH   8   9
ATOM      9  C   UNL     1      23.168   7.168  13.863  1.00  0.00     0.000 C 
BRANCH   9  10
ATOM     10  C   UNL     1      24.516   7.813  14.221  1.00  0.00     0.000 C 
BRANCH  10  11
ATOM     11  C   UNL     1      24.611   8.223  15.697  1.00  0.00     0.000 C 
BRANCH  11  12
ATOM     12  C   UNL     1      25.680   7.393  16.426  1.00  0.00     0.000 C 
BRANCH  12  13
ATOM     13  C   UNL     1      26.956   8.200  16.728  1.00  0.00     0.006 C 
BRANCH  13  14
ATOM     14  C   UNL     1      26.900   9.007  18.035  1.00  0.00     0.053 C 
BRANCH  14  15
ATOM     15  C   UNL     1      26.145   8.284  19.108  1.00  0.00     0.041 C 
ATOM     16  O   UNL     1      24.998   8.679  19.450  1.00  0.00    -0.550 OA
ATOM     17  O   UNL     1      26.717   7.192  19.750  1.00  0.00    -0.550 OA
ENDBRANCH  14  15
ENDBRANCH  13  14
ENDBRANCH  12  13
ENDBRANCH  11  12
ENDBRANCH  10  11
ENDBRANCH   9  10
ENDBRANCH   8   9
ENDBRANCH   7   8
ENDBRANCH   6   7
ENDBRANCH   5   6
ENDBRANCH   4   5
ENDBRANCH   3   4
ENDBRANCH   2   3
ENDBRANCH   1   2
BRANCH   1  18
ATOM     18  C   UNL     1      28.799   7.247  13.557  1.00  0.00     0.000 C 
BRANCH  18  19
ATOM     19  C   UNL     1      27.790   7.890  12.584  1.00  0.00     0.000 C 
BRANCH  19  20
ATOM     20  C   UNL     1      28.396   8.957  11.651  1.00  0.00     0.000 C 
BRANCH  20  21
ATOM     21  C   UNL     1      29.806   9.388  12.083  1.00  0.00     0.000 C 
BRANCH  21  22
ATOM     22  C   UNL     1      29.896  10.889  12.415  1.00  0.00     0.000 C 
BRANCH  22  23
ATOM     23  C   UNL     1      30.156  11.214  13.898  1.00  0.00     0.000 C 
BRANCH  23  24
ATOM     24  C   UNL     1      29.063  10.668  14.832  1.00  0.00    -0.000 C 
BRANCH  24  25
ATOM     25  C   UNL     1      28.249  11.799  15.481  1.00  0.00    -0.000 C 
BRANCH  25  26
ATOM     26  C   UNL     1      26.733  11.627  15.259  1.00  0.00    -0.000 C 
BRANCH  26  27
ATOM     27  C   UNL     1      26.400  11.120  13.845  1.00  0.00    -0.000 C 
BRANCH  27  28
ATOM     28  C   UNL     1      25.660  12.181  13.013  1.00  0.00    -0.000 C 
BRANCH  28  29
ATOM     29  C   UNL     1      26.491  12.703  11.828  1.00  0.00    -0.000 C 
BRANCH  29  30
ATOM     30  C   UNL     1      27.644  13.659  12.203  1.00  0.00    -0.000 C 
BRANCH  30  31
ATOM     31  C   UNL     1      27.347  15.154  11.991  1.00  0.00    -0.003 C 
ATOM     32  C   UNL     1      27.033  15.500  10.534  1.00  0.00     0.004 C 
ENDBRANCH  30  31
ENDBRANCH  29  30
ENDBRANCH  28  29
ENDBRANCH  27  28
ENDBRANCH  26  27
ENDBRANCH  25  26
ENDBRANCH  24  25
ENDBRANCH  23  24
ENDBRANCH  22  23
ENDBRANCH  21  22
ENDBRANCH  20  21
ENDBRANCH  19  20
ENDBRANCH  18  19
ENDBRANCH   1  18
TORSDOF 28
ENDMDL
MODEL 7
REMARK VINA RESULT:    -3.831      1.884      5.221
REMARK INTER + INTRA:         -16.315
REMARK INTER:                 -11.994
REMARK INTRA:                  -4.321
REMARK UNBOUND:                -6.214
REMARK SMILES CCCCCCCCCCCCCCCCCCCCCCCCCCCCCC(=O)[O-]
REMARK SMILES IDX 16 1 17 2 18 3 19 4 20 5 21 6 22 7 23 8 24 9 25 10 26 11
REMARK SMILES IDX 27 12 28 13 29 14 30 15 31 16 32 17 15 18 14 19 13 20 12 21
REMARK SMILES IDX 11 22 10 23 9 24 8 25 7 26 6 27 5 28 4 29 3 30 2 31 1 32
REMARK H PARENT
REMARK Flexibility Score: inf
ROOT
ATOM      1  C   UNL     1      27.668   3.919  13.242  1.00  0.00     0.000 C 
ENDROOT
BRANCH   1   2
ATOM      2  C   UNL     1      26.407   3.043  13.334  1.00  0.00     0.000 C 
BRANCH   2   3
ATOM      3  C   UNL     1      25.107   3.862  13.307  1.00  0.00     0.000 C 
BRANCH   3   4
ATOM      4  C   UNL     1      24.343   3.718  14.633  1.00  0.00     0.000 C 
BRANCH   4   5
ATOM      5  C   UNL     1      23.553   4.981  15.019  1.00  0.00     0.000 C 
BRANCH   5   6
ATOM      6  C   UNL     1      23.076   5.838  13.831  1.00  0.00     0.000 C 
BRANCH   6   7
ATOM      7  C   UNL     1      23.257   7.348  14.072  1.00  0.00     0.000 C 
BRANCH   7   8
ATOM      8  C   UNL     1      24.729   7.786  13.967  1.00  0.00     0.000 C 
BRANCH   8   9
ATOM      9  C   UNL     1      25.137   8.746  15.098  1.00  0.00     0.000 C 
BRANCH   9  10
ATOM     10  C   UNL     1      25.087   8.084  16.485  1.00  0.00     0.000 C 
BRANCH  10  11
ATOM     11  C   UNL     1      24.739   9.070  17.607  1.00  0.00     0.000 C 
BRANCH  11  12
ATOM     12  C   UNL     1      23.406   8.691  18.274  1.00  0.00     0.000 C 
BRANCH  12  13
ATOM     13  C   UNL     1      22.204   8.833  17.323  1.00  0.00     0.006 C 
BRANCH  13  14
ATOM     14  C   UNL     1      21.708  10.277  17.142  1.00  0.00     0.053 C 
BRANCH  14  15
ATOM     15  C   UNL     1      22.142  10.859  15.832  1.00  0.00     0.041 C 
ATOM     16  O   UNL     1      21.569  10.511  14.765  1.00  0.00    -0.550 OA
ATOM     17  O   UNL     1      23.197  11.764  15.784  1.00  0.00    -0.550 OA
ENDBRANCH  14  15
ENDBRANCH  13  14
ENDBRANCH  12  13
ENDBRANCH  11  12
ENDBRANCH  10  11
ENDBRANCH   9  10
ENDBRANCH   8   9
ENDBRANCH   7   8
ENDBRANCH   6   7
ENDBRANCH   5   6
ENDBRANCH   4   5
ENDBRANCH   3   4
ENDBRANCH   2   3
ENDBRANCH   1   2
BRANCH   1  18
ATOM     18  C   UNL     1      27.349   5.424  13.293  1.00  0.00     0.000 C 
BRANCH  18  19
ATOM     19  C   UNL     1      28.320   6.209  14.197  1.00  0.00     0.000 C 
BRANCH  19  20
ATOM     20  C   UNL     1      28.458   7.702  13.838  1.00  0.00     0.000 C 
BRANCH  20  21
ATOM     21  C   UNL     1      28.012   8.007  12.399  1.00  0.00     0.000 C 
BRANCH  21  22
ATOM     22  C   UNL     1      28.983   8.948  11.660  1.00  0.00     0.000 C 
BRANCH  22  23
ATOM     23  C   UNL     1      30.374   9.086  12.305  1.00  0.00     0.000 C 
BRANCH  23  24
ATOM     24  C   UNL     1      30.609  10.468  12.935  1.00  0.00    -0.000 C 
BRANCH  24  25
ATOM     25  C   UNL     1      29.568  11.496  12.461  1.00  0.00    -0.000 C 
BRANCH  25  26
ATOM     26  C   UNL     1      28.686  12.008  13.618  1.00  0.00    -0.000 C 
BRANCH  26  27
ATOM     27  C   UNL     1      27.228  11.532  13.501  1.00  0.00    -0.000 C 
BRANCH  27  28
ATOM     28  C   UNL     1      26.458  12.301  12.415  1.00  0.00    -0.000 C 
BRANCH  28  29
ATOM     29  C   UNL     1      26.767  13.808  12.412  1.00  0.00    -0.000 C 
BRANCH  29  30
ATOM     30  C   UNL     1      27.102  14.409  11.030  1.00  0.00    -0.000 C 
BRANCH  30  31
ATOM     31  C   UNL     1      26.263  15.636  10.630  1.00  0.00    -0.003 C 
ATOM     32  C   UNL     1      24.780  15.485  10.980  1.00  0.00     0.004 C 
ENDBRANCH  30  31
ENDBRANCH  29  30
ENDBRANCH  28  29
ENDBRANCH  27  28
ENDBRANCH  26  27
ENDBRANCH  25  26
ENDBRANCH  24  25
ENDBRANCH  23  24
ENDBRANCH  22  23
ENDBRANCH  21  22
ENDBRANCH  20  21
ENDBRANCH  19  20
ENDBRANCH  18  19
ENDBRANCH   1  18
TORSDOF 28
ENDMDL
MODEL 8
REMARK VINA RESULT:    -3.757      3.705      8.563
REMARK INTER + INTRA:         -16.119
REMARK INTER:                 -11.836
REMARK INTRA:                  -4.284
REMARK UNBOUND:                -6.214
REMARK SMILES CCCCCCCCCCCCCCCCCCCCCCCCCCCCCC(=O)[O-]
REMARK SMILES IDX 16 1 17 2 18 3 19 4 20 5 21 6 22 7 23 8 24 9 25 10 26 11
REMARK SMILES IDX 27 12 28 13 29 14 30 15 31 16 32 17 15 18 14 19 13 20 12 21
REMARK SMILES IDX 11 22 10 23 9 24 8 25 7 26 6 27 5 28 4 29 3 30 2 31 1 32
REMARK H PARENT
REMARK Flexibility Score: inf
ROOT
ATOM      1  C   UNL     1      19.770  13.220  13.152  1.00  0.00     0.000 C 
ENDROOT
BRANCH   1   2
ATOM      2  C   UNL     1      20.473  14.576  12.972  1.00  0.00     0.000 C 
BRANCH   2   3
ATOM      3  C   UNL     1      21.879  14.443  12.365  1.00  0.00     0.000 C 
BRANCH   3   4
ATOM      4  C   UNL     1      22.940  14.312  13.469  1.00  0.00     0.000 C 
BRANCH   4   5
ATOM      5  C   UNL     1      23.484  12.880  13.622  1.00  0.00     0.000 C 
BRANCH   5   6
ATOM      6  C   UNL     1      23.277  12.251  15.013  1.00  0.00     0.000 C 
BRANCH   6   7
ATOM      7  C   UNL     1      22.175  11.176  15.025  1.00  0.00     0.000 C 
BRANCH   7   8
ATOM      8  C   UNL     1      20.914  11.638  15.776  1.00  0.00     0.000 C 
BRANCH   8   9
ATOM      9  C   UNL     1      20.452  10.616  16.831  1.00  0.00     0.000 C 
BRANCH   9  10
ATOM     10  C   UNL     1      21.539  10.310  17.874  1.00  0.00     0.000 C 
BRANCH  10  11
ATOM     11  C   UNL     1      21.758   8.806  18.087  1.00  0.00     0.000 C 
BRANCH  11  12
ATOM     12  C   UNL     1      23.234   8.433  17.869  1.00  0.00     0.000 C 
BRANCH  12  13
ATOM     13  C   UNL     1      23.601   8.303  16.379  1.00  0.00     0.006 C 
BRANCH  13  14
ATOM     14  C   UNL     1      23.297   6.924  15.771  1.00  0.00     0.053 C 
BRANCH  14  15
ATOM     15  C   UNL     1      24.530   6.266  15.231  1.00  0.00     0.041 C 
ATOM     16  O   UNL     1      24.644   5.011  15.267  1.00  0.00    -0.550 OA
ATOM     17  O   UNL     1      25.563   7.037  14.711  1.00  0.00    -0.550 OA
ENDBRANCH  14  15
ENDBRANCH  13  14
ENDBRANCH  12  13
ENDBRANCH  11  12
ENDBRANCH  10  11
ENDBRANCH   9  10
ENDBRANCH   8   9
ENDBRANCH   7   8
ENDBRANCH   6   7
ENDBRANCH   5   6
ENDBRANCH   4   5
ENDBRANCH   3   4
ENDBRANCH   2   3
ENDBRANCH   1   2
BRANCH   1  18
ATOM     18  C   UNL     1      19.787  12.368  11.870  1.00  0.00     0.000 C 
BRANCH  18  19
ATOM     19  C   UNL     1      19.567  10.867  12.147  1.00  0.00     0.000 C 
BRANCH  19  20
ATOM     20  C   UNL     1      18.521  10.198  11.234  1.00  0.00     0.000 C 
BRANCH  20  21
ATOM     21  C   UNL     1      17.936  11.168  10.195  1.00  0.00     0.000 C 
BRANCH  21  22
ATOM     22  C   UNL     1      16.396  11.153  10.164  1.00  0.00     0.000 C 
BRANCH  22  23
ATOM     23  C   UNL     1      15.730  12.541  10.181  1.00  0.00     0.000 C 
BRANCH  23  24
ATOM     24  C   UNL     1      16.669  13.651  10.680  1.00  0.00    -0.000 C 
BRANCH  24  25
ATOM     25  C   UNL     1      16.362  14.047  12.134  1.00  0.00    -0.000 C 
BRANCH  25  26
ATOM     26  C   UNL     1      16.528  15.561  12.373  1.00  0.00    -0.000 C 
BRANCH  26  27
ATOM     27  C   UNL     1      17.121  15.876  13.757  1.00  0.00    -0.000 C 
BRANCH  27  28
ATOM     28  C   UNL     1      16.885  14.732  14.757  1.00  0.00    -0.000 C 
BRANCH  28  29
ATOM     29  C   UNL     1      17.381  15.063  16.176  1.00  0.00    -0.000 C 
BRANCH  29  30
ATOM     30  C   UNL     1      18.438  14.094  16.747  1.00  0.00    -0.000 C 
BRANCH  30  31
ATOM     31  C   UNL     1      17.925  13.137  17.838  1.00  0.00    -0.003 C 
ATOM     32  C   UNL     1      16.423  12.860  17.733  1.00  0.00     0.004 C 
ENDBRANCH  30  31
ENDBRANCH  29  30
ENDBRANCH  28  29
ENDBRANCH  27  28
ENDBRANCH  26  27
ENDBRANCH  25  26
ENDBRANCH  24  25
ENDBRANCH  23  24
ENDBRANCH  22  23
ENDBRANCH  21  22
ENDBRANCH  20  21
ENDBRANCH  19  20
ENDBRANCH  18  19
ENDBRANCH   1  18
TORSDOF 28
ENDMDL
MODEL 9
REMARK VINA RESULT:    -3.750      3.035      6.838
REMARK INTER + INTRA:         -16.101
REMARK INTER:                 -10.617
REMARK INTRA:                  -5.485
REMARK UNBOUND:                -6.214
REMARK SMILES CCCCCCCCCCCCCCCCCCCCCCCCCCCCCC(=O)[O-]
REMARK SMILES IDX 16 1 17 2 18 3 19 4 20 5 21 6 22 7 23 8 24 9 25 10 26 11
REMARK SMILES IDX 27 12 28 13 29 14 30 15 31 16 32 17 15 18 14 19 13 20 12 21
REMARK SMILES IDX 11 22 10 23 9 24 8 25 7 26 6 27 5 28 4 29 3 30 2 31 1 32
REMARK H PARENT
REMARK Flexibility Score: inf
ROOT
ATOM      1  C   UNL     1      28.170   7.114  15.279  1.00  0.00     0.000 C 
ENDROOT
BRANCH   1   2
ATOM      2  C   UNL     1      27.822   6.158  14.126  1.00  0.00     0.000 C 
BRANCH   2   3
ATOM      3  C   UNL     1      28.121   6.757  12.743  1.00  0.00     0.000 C 
BRANCH   3   4
ATOM      4  C   UNL     1      28.487   8.245  12.860  1.00  0.00     0.000 C 
BRANCH   4   5
ATOM      5  C   UNL     1      27.697   9.143  11.890  1.00  0.00     0.000 C 
BRANCH   5   6
ATOM      6  C   UNL     1      26.778  10.179  12.565  1.00  0.00     0.000 C 
BRANCH   6   7
ATOM      7  C   UNL     1      26.473   9.839  14.035  1.00  0.00     0.000 C 
BRANCH   7   8
ATOM      8  C   UNL     1      24.997   9.458  14.255  1.00  0.00     0.000 C 
BRANCH   8   9
ATOM      9  C   UNL     1      24.736   7.961  14.012  1.00  0.00     0.000 C 
BRANCH   9  10
ATOM     10  C   UNL     1      23.492   7.449  14.755  1.00  0.00     0.000 C 
BRANCH  10  11
ATOM     11  C   UNL     1      23.755   6.159  15.544  1.00  0.00     0.000 C 
BRANCH  11  12
ATOM     12  C   UNL     1      23.257   4.931  14.765  1.00  0.00     0.000 C 
BRANCH  12  13
ATOM     13  C   UNL     1      24.339   3.847  14.608  1.00  0.00     0.006 C 
BRANCH  13  14
ATOM     14  C   UNL     1      25.061   3.867  13.250  1.00  0.00     0.053 C 
BRANCH  14  15
ATOM     15  C   UNL     1      25.811   2.596  12.996  1.00  0.00     0.041 C 
ATOM     16  O   UNL     1      25.791   2.068  11.851  1.00  0.00    -0.550 OA
ATOM     17  O   UNL     1      26.511   1.979  14.027  1.00  0.00    -0.550 OA
ENDBRANCH  14  15
ENDBRANCH  13  14
ENDBRANCH  12  13
ENDBRANCH  11  12
ENDBRANCH  10  11
ENDBRANCH   9  10
ENDBRANCH   8   9
ENDBRANCH   7   8
ENDBRANCH   6   7
ENDBRANCH   5   6
ENDBRANCH   4   5
ENDBRANCH   3   4
ENDBRANCH   2   3
ENDBRANCH   1   2
BRANCH   1  18
ATOM     18  C   UNL     1      27.270   6.911  16.511  1.00  0.00     0.000 C 
BRANCH  18  19
ATOM     19  C   UNL     1      27.150   8.180  17.379  1.00  0.00     0.000 C 
BRANCH  19  20
ATOM     20  C   UNL     1      25.753   8.402  17.993  1.00  0.00     0.000 C 
BRANCH  20  21
ATOM     21  C   UNL     1      25.343   9.883  18.007  1.00  0.00     0.000 C 
BRANCH  21  22
ATOM     22  C   UNL     1      23.871  10.099  17.607  1.00  0.00     0.000 C 
BRANCH  22  23
ATOM     23  C   UNL     1      22.918   8.950  17.986  1.00  0.00     0.000 C 
BRANCH  23  24
ATOM     24  C   UNL     1      21.436   9.321  17.818  1.00  0.00    -0.000 C 
BRANCH  24  25
ATOM     25  C   UNL     1      21.093  10.638  18.532  1.00  0.00    -0.000 C 
BRANCH  25  26
ATOM     26  C   UNL     1      20.807  11.782  17.539  1.00  0.00    -0.000 C 
BRANCH  26  27
ATOM     27  C   UNL     1      20.168  11.280  16.232  1.00  0.00    -0.000 C 
BRANCH  27  28
ATOM     28  C   UNL     1      20.711  12.026  15.002  1.00  0.00    -0.000 C 
BRANCH  28  29
ATOM     29  C   UNL     1      22.174  11.672  14.682  1.00  0.00    -0.000 C 
BRANCH  29  30
ATOM     30  C   UNL     1      23.189  12.815  14.896  1.00  0.00    -0.000 C 
BRANCH  30  31
ATOM     31  C   UNL     1      24.320  12.887  13.854  1.00  0.00    -0.003 C 
ATOM     32  C   UNL     1      24.159  14.054  12.877  1.00  0.00     0.004 C 
ENDBRANCH  30  31
ENDBRANCH  29  30
ENDBRANCH  28  29
ENDBRANCH  27  28
ENDBRANCH  26  27
ENDBRANCH  25  26
ENDBRANCH  24  25
ENDBRANCH  23  24
ENDBRANCH  22  23
ENDBRANCH  21  22
ENDBRANCH  20  21
ENDBRANCH  19  20
ENDBRANCH  18  19
ENDBRANCH   1  18
TORSDOF 28
ENDMDL
