MODEL 1
REMARK VINA RESULT:    -4.198      0.000      0.000
REMARK INTER + INTRA:          -5.059
REMARK INTER:                  -5.057
REMARK INTRA:                  -0.003
REMARK UNBOUND:                -0.003
REMARK SMILES OCC(O)CO
REMARK SMILES IDX 3 1 5 2 6 3 2 5 1 6 4 8
REMARK H PARENT 6 4 1 7 4 9
REMARK Flexibility Score: inf
ROOT
ATOM      1  C   UNL     1      35.765   8.615  46.083  1.00  0.00     0.165 C 
ENDROOT
BRANCH   1   2
ATOM      2  C   UNL     1      36.452   7.809  44.967  1.00  0.00     0.190 C 
BRANCH   2   3
ATOM      3  O   UNL     1      36.570   8.586  43.805  1.00  0.00    -0.394 OA
ATOM      4  H   UNL     1      37.526   8.560  43.539  1.00  0.00     0.210 HD
ENDBRANCH   2   3
ENDBRANCH   1   2
BRANCH   1   5
ATOM      5  C   UNL     1      34.941   7.715  47.018  1.00  0.00     0.190 C 
BRANCH   5   6
ATOM      6  O   UNL     1      34.402   8.460  48.075  1.00  0.00    -0.394 OA
ATOM      7  H   UNL     1      35.074   8.427  48.804  1.00  0.00     0.210 HD
ENDBRANCH   5   6
ENDBRANCH   1   5
BRANCH   1   8
ATOM      8  O   UNL     1      36.700   9.368  46.816  1.00  0.00    -0.388 OA
ATOM      9  H   UNL     1      37.173   9.965  46.180  1.00  0.00     0.211 HD
ENDBRANCH   1   8
TORSDOF 5
ENDMDL
MODEL 2
REMARK VINA RESULT:    -4.100      6.380      6.950
REMARK INTER + INTRA:          -4.942
REMARK INTER:                  -4.939
REMARK INTRA:                  -0.003
REMARK UNBOUND:                -0.003
REMARK SMILES OCC(O)CO
REMARK SMILES IDX 3 1 5 2 6 3 2 5 1 6 4 8
REMARK H PARENT 6 4 1 7 4 9
REMARK Flexibility Score: inf
ROOT
ATOM      1  C   UNL     1      35.160  14.828  46.620  1.00  0.00     0.165 C 
ENDROOT
BRANCH   1   2
ATOM      2  C   UNL     1      36.448  15.670  46.627  1.00  0.00     0.190 C 
BRANCH   2   3
ATOM      3  O   UNL     1      37.559  14.866  46.334  1.00  0.00    -0.394 OA
ATOM      4  H   UNL     1      37.213  14.057  45.873  1.00  0.00     0.210 HD
ENDBRANCH   2   3
ENDBRANCH   1   2
BRANCH   1   5
ATOM      5  C   UNL     1      34.105  15.401  45.660  1.00  0.00     0.190 C 
BRANCH   5   6
ATOM      6  O   UNL     1      32.958  15.795  46.363  1.00  0.00    -0.394 OA
ATOM      7  H   UNL     1      32.377  14.992  46.413  1.00  0.00     0.210 HD
ENDBRANCH   5   6
ENDBRANCH   1   5
BRANCH   1   8
ATOM      8  O   UNL     1      35.433  13.483  46.313  1.00  0.00    -0.388 OA
ATOM      9  H   UNL     1      36.304  13.451  45.838  1.00  0.00     0.211 HD
ENDBRANCH   1   8
TORSDOF 5
ENDMDL
MODEL 3
REMARK VINA RESULT:    -3.962      6.253      7.135
REMARK INTER + INTRA:          -4.776
REMARK INTER:                  -4.773
REMARK INTRA:                  -0.002
REMARK UNBOUND:                -0.003
REMARK SMILES OCC(O)CO
REMARK SMILES IDX 3 1 5 2 6 3 2 5 1 6 4 8
REMARK H PARENT 6 4 1 7 4 9
REMARK Flexibility Score: inf
ROOT
ATOM      1  C   UNL     1      35.320  14.498  46.035  1.00  0.00     0.165 C 
ENDROOT
BRANCH   1   2
ATOM      2  C   UNL     1      34.033  15.169  45.523  1.00  0.00     0.190 C 
BRANCH   2   3
ATOM      3  O   UNL     1      33.303  15.707  46.593  1.00  0.00    -0.394 OA
ATOM      4  H   UNL     1      33.606  15.233  47.412  1.00  0.00     0.210 HD
ENDBRANCH   2   3
ENDBRANCH   1   2
BRANCH   1   5
ATOM      5  C   UNL     1      36.512  15.469  46.038  1.00  0.00     0.190 C 
BRANCH   5   6
ATOM      6  O   UNL     1      37.702  14.789  46.332  1.00  0.00    -0.394 OA
ATOM      7  H   UNL     1      38.107  15.265  47.102  1.00  0.00     0.210 HD
ENDBRANCH   5   6
ENDBRANCH   1   5
BRANCH   1   8
ATOM      8  O   UNL     1      35.129  13.940  47.312  1.00  0.00    -0.388 OA
ATOM      9  H   UNL     1      35.927  14.159  47.861  1.00  0.00     0.211 HD
ENDBRANCH   1   8
TORSDOF 5
ENDMDL
MODEL 4
REMARK VINA RESULT:    -3.950      1.362      2.277
REMARK INTER + INTRA:          -4.761
REMARK INTER:                  -4.542
REMARK INTRA:                  -0.219
REMARK UNBOUND:                -0.003
REMARK SMILES OCC(O)CO
REMARK SMILES IDX 3 1 5 2 6 3 2 5 1 6 4 8
REMARK H PARENT 6 4 1 7 4 9
REMARK Flexibility Score: inf
ROOT
ATOM      1  C   UNL     1      36.418   7.844  44.702  1.00  0.00     0.165 C 
ENDROOT
BRANCH   1   2
ATOM      2  C   UNL     1      37.837   7.249  44.746  1.00  0.00     0.190 C 
BRANCH   2   3
ATOM      3  O   UNL     1      38.796   8.259  44.580  1.00  0.00    -0.394 OA
ATOM      4  H   UNL     1      39.662   7.885  44.888  1.00  0.00     0.210 HD
ENDBRANCH   2   3
ENDBRANCH   1   2
BRANCH   1   5
ATOM      5  C   UNL     1      35.939   8.292  46.093  1.00  0.00     0.190 C 
BRANCH   5   6
ATOM      6  O   UNL     1      36.827   9.224  46.645  1.00  0.00    -0.394 OA
ATOM      7  H   UNL     1      37.658   8.723  46.852  1.00  0.00     0.210 HD
ENDBRANCH   5   6
ENDBRANCH   1   5
BRANCH   1   8
ATOM      8  O   UNL     1      36.341   8.907  43.783  1.00  0.00    -0.388 OA
ATOM      9  H   UNL     1      35.390   9.187  43.724  1.00  0.00     0.211 HD
ENDBRANCH   1   8
TORSDOF 5
ENDMDL
MODEL 5
REMARK VINA RESULT:    -3.840      1.377      3.171
REMARK INTER + INTRA:          -4.629
REMARK INTER:                  -4.414
REMARK INTRA:                  -0.215
REMARK UNBOUND:                -0.003
REMARK SMILES OCC(O)CO
REMARK SMILES IDX 3 1 5 2 6 3 2 5 1 6 4 8
REMARK H PARENT 6 4 1 7 4 9
REMARK Flexibility Score: inf
ROOT
ATOM      1  C   UNL     1      35.652   7.469  45.510  1.00  0.00     0.165 C 
ENDROOT
BRANCH   1   2
ATOM      2  C   UNL     1      35.532   8.684  46.447  1.00  0.00     0.190 C 
BRANCH   2   3
ATOM      3  O   UNL     1      36.799   9.228  46.705  1.00  0.00    -0.394 OA
ATOM      4  H   UNL     1      37.461   8.514  46.512  1.00  0.00     0.210 HD
ENDBRANCH   2   3
ENDBRANCH   1   2
BRANCH   1   5
ATOM      5  C   UNL     1      36.961   7.490  44.705  1.00  0.00     0.190 C 
BRANCH   5   6
ATOM      6  O   UNL     1      36.939   8.516  43.751  1.00  0.00    -0.394 OA
ATOM      7  H   UNL     1      36.836   8.071  42.871  1.00  0.00     0.210 HD
ENDBRANCH   5   6
ENDBRANCH   1   5
BRANCH   1   8
ATOM      8  O   UNL     1      35.525   6.262  46.222  1.00  0.00    -0.388 OA
ATOM      9  H   UNL     1      36.271   5.668  45.946  1.00  0.00     0.211 HD
ENDBRANCH   1   8
TORSDOF 5
ENDMDL
MODEL 6
REMARK VINA RESULT:    -3.781      1.575      3.003
REMARK INTER + INTRA:          -4.557
REMARK INTER:                  -4.549
REMARK INTRA:                  -0.009
REMARK UNBOUND:                -0.003
REMARK SMILES OCC(O)CO
REMARK SMILES IDX 3 1 5 2 6 3 2 5 1 6 4 8
REMARK H PARENT 6 4 1 7 4 9
REMARK Flexibility Score: inf
ROOT
ATOM      1  C   UNL     1      36.652   7.832  44.897  1.00  0.00     0.165 C 
ENDROOT
BRANCH   1   2
ATOM      2  C   UNL     1      35.799   8.434  46.028  1.00  0.00     0.190 C 
BRANCH   2   3
ATOM      3  O   UNL     1      36.563   9.329  46.791  1.00  0.00    -0.394 OA
ATOM      4  H   UNL     1      37.303   9.642  46.209  1.00  0.00     0.210 HD
ENDBRANCH   2   3
ENDBRANCH   1   2
BRANCH   1   5
ATOM      5  C   UNL     1      36.232   6.390  44.566  1.00  0.00     0.190 C 
BRANCH   5   6
ATOM      6  O   UNL     1      36.706   5.502  45.540  1.00  0.00    -0.394 OA
ATOM      7  H   UNL     1      37.254   4.831  45.057  1.00  0.00     0.210 HD
ENDBRANCH   5   6
ENDBRANCH   1   5
BRANCH   1   8
ATOM      8  O   UNL     1      36.611   8.638  43.745  1.00  0.00    -0.388 OA
ATOM      9  H   UNL     1      35.679   8.633  43.404  1.00  0.00     0.211 HD
ENDBRANCH   1   8
TORSDOF 5
ENDMDL
MODEL 7
REMARK VINA RESULT:    -3.740      1.359      2.041
REMARK INTER + INTRA:          -4.508
REMARK INTER:                  -4.289
REMARK INTRA:                  -0.219
REMARK UNBOUND:                -0.003
REMARK SMILES OCC(O)CO
REMARK SMILES IDX 3 1 5 2 6 3 2 5 1 6 4 8
REMARK H PARENT 6 4 1 7 4 9
REMARK Flexibility Score: inf
ROOT
ATOM      1  C   UNL     1      35.977   7.248  45.813  1.00  0.00     0.165 C 
ENDROOT
BRANCH   1   2
ATOM      2  C   UNL     1      36.331   7.272  44.315  1.00  0.00     0.190 C 
BRANCH   2   3
ATOM      3  O   UNL     1      36.499   8.592  43.874  1.00  0.00    -0.394 OA
ATOM      4  H   UNL     1      37.343   8.924  44.280  1.00  0.00     0.210 HD
ENDBRANCH   2   3
ENDBRANCH   1   2
BRANCH   1   5
ATOM      5  C   UNL     1      35.557   8.636  46.326  1.00  0.00     0.190 C 
BRANCH   5   6
ATOM      6  O   UNL     1      36.671   9.353  46.783  1.00  0.00    -0.394 OA
ATOM      7  H   UNL     1      37.400   9.169  46.136  1.00  0.00     0.210 HD
ENDBRANCH   5   6
ENDBRANCH   1   5
BRANCH   1   8
ATOM      8  O   UNL     1      34.981   6.294  46.086  1.00  0.00    -0.388 OA
ATOM      9  H   UNL     1      35.177   5.487  45.543  1.00  0.00     0.211 HD
ENDBRANCH   1   8
TORSDOF 5
ENDMDL
MODEL 8
REMARK VINA RESULT:    -3.700      2.664      4.163
REMARK INTER + INTRA:          -4.460
REMARK INTER:                  -4.247
REMARK INTRA:                  -0.214
REMARK UNBOUND:                -0.003
REMARK SMILES OCC(O)CO
REMARK SMILES IDX 3 1 5 2 6 3 2 5 1 6 4 8
REMARK H PARENT 6 4 1 7 4 9
REMARK Flexibility Score: inf
ROOT
ATOM      1  C   UNL     1      38.348   7.330  44.480  1.00  0.00     0.165 C 
ENDROOT
BRANCH   1   2
ATOM      2  C   UNL     1      36.943   7.797  44.901  1.00  0.00     0.190 C 
BRANCH   2   3
ATOM      3  O   UNL     1      36.389   8.627  43.915  1.00  0.00    -0.394 OA
ATOM      4  H   UNL     1      35.477   8.868  44.224  1.00  0.00     0.210 HD
ENDBRANCH   2   3
ENDBRANCH   1   2
BRANCH   1   5
ATOM      5  C   UNL     1      38.436   7.062  42.969  1.00  0.00     0.190 C 
BRANCH   5   6
ATOM      6  O   UNL     1      38.649   8.256  42.267  1.00  0.00    -0.394 OA
ATOM      7  H   UNL     1      38.389   8.988  42.884  1.00  0.00     0.210 HD
ENDBRANCH   5   6
ENDBRANCH   1   5
BRANCH   1   8
ATOM      8  O   UNL     1      39.332   8.252  44.880  1.00  0.00    -0.388 OA
ATOM      9  H   UNL     1      39.493   8.122  45.851  1.00  0.00     0.211 HD
ENDBRANCH   1   8
TORSDOF 5
ENDMDL
MODEL 9
REMARK VINA RESULT:    -3.268      6.419      7.233
REMARK INTER + INTRA:          -3.939
REMARK INTER:                  -3.746
REMARK INTRA:                  -0.193
REMARK UNBOUND:                -0.003
REMARK SMILES OCC(O)CO
REMARK SMILES IDX 3 1 5 2 6 3 2 5 1 6 4 8
REMARK H PARENT 6 4 1 7 4 9
REMARK Flexibility Score: inf
ROOT
ATOM      1  C   UNL     1      35.280  15.810  46.580  1.00  0.00     0.165 C 
ENDROOT
BRANCH   1   2
ATOM      2  C   UNL     1      35.100  14.381  47.122  1.00  0.00     0.190 C 
BRANCH   2   3
ATOM      3  O   UNL     1      35.305  13.442  46.101  1.00  0.00    -0.394 OA
ATOM      4  H   UNL     1      34.667  13.666  45.374  1.00  0.00     0.210 HD
ENDBRANCH   2   3
ENDBRANCH   1   2
BRANCH   1   5
ATOM      5  C   UNL     1      36.681  16.027  45.986  1.00  0.00     0.190 C 
BRANCH   5   6
ATOM      6  O   UNL     1      37.545  14.991  46.366  1.00  0.00    -0.394 OA
ATOM      7  H   UNL     1      36.980  14.316  46.824  1.00  0.00     0.210 HD
ENDBRANCH   5   6
ENDBRANCH   1   5
BRANCH   1   8
ATOM      8  O   UNL     1      34.286  16.125  45.636  1.00  0.00    -0.388 OA
ATOM      9  H   UNL     1      34.592  16.921  45.127  1.00  0.00     0.211 HD
ENDBRANCH   1   8
TORSDOF 5
ENDMDL
