MODEL 1
REMARK VINA RESULT:    -4.338      0.000      0.000
REMARK INTER + INTRA:          -5.335
REMARK INTER:                  -5.099
REMARK INTRA:                  -0.236
REMARK UNBOUND:                -0.236
REMARK SMILES O=c1c(O)c(-c2ccc(O)cc2)oc2cc(O)cc(O)c12
REMARK SMILES IDX 5 1 3 2 2 3 1 4 21 5 19 6 18 7 16 8 15 9 14 10 13 11 6 12
REMARK SMILES IDX 7 13 8 14 9 15 12 16 11 17 10 18 4 20 20 22 17 24
REMARK H PARENT 10 19 4 21 20 23 17 25
REMARK Flexibility Score: inf
ROOT
ATOM      1  C   UNL     1      -6.107   8.212  -2.603  1.00  0.00     0.180 A 
ATOM      2  C   UNL     1      -7.398   8.362  -3.138  1.00  0.00     0.208 A 
ATOM      3  C   UNL     1      -8.256   9.329  -2.588  1.00  0.00     0.238 A 
ATOM      4  O   UNL     1      -9.428   9.422  -3.036  1.00  0.00    -0.285 OA
ATOM      5  C   UNL     1      -7.806  10.144  -1.521  1.00  0.00     0.111 A 
ATOM      6  C   UNL     1      -8.576  11.182  -0.914  1.00  0.00     0.134 A 
ATOM      7  C   UNL     1      -8.080  11.837   0.220  1.00  0.00     0.093 A 
ATOM      8  C   UNL     1      -6.816  11.537   0.729  1.00  0.00     0.123 A 
ATOM      9  C   UNL     1      -6.031  10.566   0.107  1.00  0.00     0.094 A 
ATOM     10  C   UNL     1      -6.513   9.870  -1.004  1.00  0.00     0.146 A 
ATOM     11  O   UNL     1      -5.738   8.946  -1.559  1.00  0.00    -0.452 OA
ENDROOT
BRANCH   1  12
ATOM     12  C   UNL     1      -5.138   7.233  -3.146  1.00  0.00     0.021 A 
ATOM     13  C   UNL     1      -4.892   6.008  -2.498  1.00  0.00     0.016 A 
ATOM     14  C   UNL     1      -3.991   5.089  -3.044  1.00  0.00     0.047 A 
ATOM     15  C   UNL     1      -3.335   5.374  -4.244  1.00  0.00     0.115 A 
ATOM     16  C   UNL     1      -4.491   7.502  -4.363  1.00  0.00     0.016 A 
ATOM     17  C   UNL     1      -3.590   6.582  -4.906  1.00  0.00     0.047 A 
BRANCH  15  18
ATOM     18  O   UNL     1      -2.438   4.449  -4.775  1.00  0.00    -0.508 OA
ATOM     19  H   UNL     1      -1.440   4.617  -4.771  1.00  0.00     0.293 HD
ENDBRANCH  15  18
ENDBRANCH   1  12
BRANCH   2  20
ATOM     20  O   UNL     1      -7.829   7.533  -4.178  1.00  0.00    -0.502 OA
ATOM     21  H   UNL     1      -7.264   6.773  -4.538  1.00  0.00     0.293 HD
ENDBRANCH   2  20
BRANCH   6  22
ATOM     22  O   UNL     1      -9.811  11.622  -1.398  1.00  0.00    -0.507 OA
ATOM     23  H   UNL     1     -10.271  11.255  -2.218  1.00  0.00     0.293 HD
ENDBRANCH   6  22
BRANCH   8  24
ATOM     24  O   UNL     1      -6.348  12.220   1.850  1.00  0.00    -0.508 OA
ATOM     25  H   UNL     1      -6.016  11.726   2.670  1.00  0.00     0.293 HD
ENDBRANCH   8  24
TORSDOF 5
ENDMDL
MODEL 2
REMARK VINA RESULT:    -4.312      4.395      8.619
REMARK INTER + INTRA:          -5.304
REMARK INTER:                  -5.100
REMARK INTRA:                  -0.204
REMARK UNBOUND:                -0.236
REMARK SMILES O=c1c(O)c(-c2ccc(O)cc2)oc2cc(O)cc(O)c12
REMARK SMILES IDX 5 1 3 2 2 3 1 4 21 5 19 6 18 7 16 8 15 9 14 10 13 11 6 12
REMARK SMILES IDX 7 13 8 14 9 15 12 16 11 17 10 18 4 20 20 22 17 24
REMARK H PARENT 10 19 4 21 20 23 17 25
REMARK Flexibility Score: inf
ROOT
ATOM      1  C   UNL     1      -3.850  13.061   2.319  1.00  0.00     0.180 A 
ATOM      2  C   UNL     1      -3.582  11.770   2.805  1.00  0.00     0.208 A 
ATOM      3  C   UNL     1      -4.174  10.666   2.170  1.00  0.00     0.238 A 
ATOM      4  O   UNL     1      -3.974   9.517   2.644  1.00  0.00    -0.285 OA
ATOM      5  C   UNL     1      -5.014  10.866   1.048  1.00  0.00     0.111 A 
ATOM      6  C   UNL     1      -5.634   9.817   0.303  1.00  0.00     0.134 A 
ATOM      7  C   UNL     1      -6.548  10.137  -0.709  1.00  0.00     0.093 A 
ATOM      8  C   UNL     1      -6.815  11.463  -1.045  1.00  0.00     0.123 A 
ATOM      9  C   UNL     1      -6.169  12.495  -0.363  1.00  0.00     0.094 A 
ATOM     10  C   UNL     1      -5.279  12.209   0.675  1.00  0.00     0.146 A 
ATOM     11  O   UNL     1      -4.694  13.220   1.305  1.00  0.00    -0.452 OA
ENDROOT
BRANCH   1  12
ATOM     12  C   UNL     1      -3.243  14.271   2.919  1.00  0.00     0.021 A 
ATOM     13  C   UNL     1      -3.654  14.751   4.176  1.00  0.00     0.016 A 
ATOM     14  C   UNL     1      -3.048  15.881   4.734  1.00  0.00     0.047 A 
ATOM     15  C   UNL     1      -2.020  16.537   4.051  1.00  0.00     0.115 A 
ATOM     16  C   UNL     1      -2.195  14.924   2.249  1.00  0.00     0.016 A 
ATOM     17  C   UNL     1      -1.592  16.054   2.808  1.00  0.00     0.047 A 
BRANCH  15  18
ATOM     18  O   UNL     1      -1.427  17.664   4.618  1.00  0.00    -0.508 OA
ATOM     19  H   UNL     1      -1.493  17.854   5.611  1.00  0.00     0.293 HD
ENDBRANCH  15  18
ENDBRANCH   1  12
BRANCH   2  20
ATOM     20  O   UNL     1      -2.768  11.597   3.928  1.00  0.00    -0.502 OA
ATOM     21  H   UNL     1      -1.785  11.362   3.857  1.00  0.00     0.293 HD
ENDBRANCH   2  20
BRANCH   6  22
ATOM     22  O   UNL     1      -5.368   8.459   0.497  1.00  0.00    -0.507 OA
ATOM     23  H   UNL     1      -4.496   8.005   0.266  1.00  0.00     0.293 HD
ENDBRANCH   6  22
BRANCH   8  24
ATOM     24  O   UNL     1      -7.720  11.744  -2.068  1.00  0.00    -0.508 OA
ATOM     25  H   UNL     1      -7.896  11.083  -2.814  1.00  0.00     0.293 HD
ENDBRANCH   8  24
TORSDOF 5
ENDMDL
MODEL 3
REMARK VINA RESULT:    -4.222      4.665      7.733
REMARK INTER + INTRA:          -5.198
REMARK INTER:                  -4.906
REMARK INTRA:                  -0.293
REMARK UNBOUND:                -0.236
REMARK SMILES O=c1c(O)c(-c2ccc(O)cc2)oc2cc(O)cc(O)c12
REMARK SMILES IDX 5 1 3 2 2 3 1 4 21 5 19 6 18 7 16 8 15 9 14 10 13 11 6 12
REMARK SMILES IDX 7 13 8 14 9 15 12 16 11 17 10 18 4 20 20 22 17 24
REMARK H PARENT 10 19 4 21 20 23 17 25
REMARK Flexibility Score: inf
ROOT
ATOM      1  C   UNL     1      -4.834  11.877   1.768  1.00  0.00     0.180 A 
ATOM      2  C   UNL     1      -4.061  10.746   2.081  1.00  0.00     0.208 A 
ATOM      3  C   UNL     1      -2.907  10.905   2.866  1.00  0.00     0.238 A 
ATOM      4  O   UNL     1      -2.190   9.897   3.098  1.00  0.00    -0.285 OA
ATOM      5  C   UNL     1      -2.549  12.190   3.339  1.00  0.00     0.111 A 
ATOM      6  C   UNL     1      -1.424  12.461   4.175  1.00  0.00     0.134 A 
ATOM      7  C   UNL     1      -1.092  13.788   4.476  1.00  0.00     0.093 A 
ATOM      8  C   UNL     1      -1.880  14.847   4.027  1.00  0.00     0.123 A 
ATOM      9  C   UNL     1      -3.016  14.589   3.259  1.00  0.00     0.094 A 
ATOM     10  C   UNL     1      -3.353  13.279   2.912  1.00  0.00     0.146 A 
ATOM     11  O   UNL     1      -4.437  13.078   2.172  1.00  0.00    -0.452 OA
ENDROOT
BRANCH   1  12
ATOM     12  C   UNL     1      -6.077  11.785   0.967  1.00  0.00     0.021 A 
ATOM     13  C   UNL     1      -7.334  11.631   1.580  1.00  0.00     0.016 A 
ATOM     14  C   UNL     1      -8.495  11.571   0.805  1.00  0.00     0.047 A 
ATOM     15  C   UNL     1      -8.419  11.677  -0.587  1.00  0.00     0.115 A 
ATOM     16  C   UNL     1      -6.010  11.913  -0.430  1.00  0.00     0.016 A 
ATOM     17  C   UNL     1      -7.173  11.852  -1.203  1.00  0.00     0.047 A 
BRANCH  15  18
ATOM     18  O   UNL     1      -9.585  11.615  -1.347  1.00  0.00    -0.508 OA
ATOM     19  H   UNL     1     -10.416  11.147  -1.005  1.00  0.00     0.293 HD
ENDBRANCH  15  18
ENDBRANCH   1  12
BRANCH   2  20
ATOM     20  O   UNL     1      -4.420   9.489   1.585  1.00  0.00    -0.502 OA
ATOM     21  H   UNL     1      -5.168   8.938   1.989  1.00  0.00     0.293 HD
ENDBRANCH   2  20
BRANCH   6  22
ATOM     22  O   UNL     1      -0.623  11.472   4.752  1.00  0.00    -0.507 OA
ATOM     23  H   UNL     1      -0.119  10.767   4.235  1.00  0.00     0.293 HD
ENDBRANCH   6  22
BRANCH   8  24
ATOM     24  O   UNL     1      -1.527  16.155   4.358  1.00  0.00    -0.508 OA
ATOM     25  H   UNL     1      -1.968  16.642   5.129  1.00  0.00     0.293 HD
ENDBRANCH   8  24
TORSDOF 5
ENDMDL
MODEL 4
REMARK VINA RESULT:    -4.217      9.116     11.072
REMARK INTER + INTRA:          -5.192
REMARK INTER:                  -4.930
REMARK INTRA:                  -0.263
REMARK UNBOUND:                -0.236
REMARK SMILES O=c1c(O)c(-c2ccc(O)cc2)oc2cc(O)cc(O)c12
REMARK SMILES IDX 5 1 3 2 2 3 1 4 21 5 19 6 18 7 16 8 15 9 14 10 13 11 6 12
REMARK SMILES IDX 7 13 8 14 9 15 12 16 11 17 10 18 4 20 20 22 17 24
REMARK H PARENT 10 19 4 21 20 23 17 25
REMARK Flexibility Score: inf
ROOT
ATOM      1  C   UNL     1       3.068   6.224   2.163  1.00  0.00     0.180 A 
ATOM      2  C   UNL     1       2.218   7.331   2.323  1.00  0.00     0.208 A 
ATOM      3  C   UNL     1       0.873   7.115   2.667  1.00  0.00     0.238 A 
ATOM      4  O   UNL     1       0.104   8.107   2.755  1.00  0.00    -0.285 OA
ATOM      5  C   UNL     1       0.400   5.794   2.861  1.00  0.00     0.111 A 
ATOM      6  C   UNL     1      -0.932   5.460   3.250  1.00  0.00     0.134 A 
ATOM      7  C   UNL     1      -1.324   4.116   3.287  1.00  0.00     0.093 A 
ATOM      8  C   UNL     1      -0.416   3.094   3.013  1.00  0.00     0.123 A 
ATOM      9  C   UNL     1       0.905   3.407   2.690  1.00  0.00     0.094 A 
ATOM     10  C   UNL     1       1.316   4.740   2.609  1.00  0.00     0.146 A 
ATOM     11  O   UNL     1       2.579   4.995   2.289  1.00  0.00    -0.452 OA
ENDROOT
BRANCH   1  12
ATOM     12  C   UNL     1       4.502   6.373   1.827  1.00  0.00     0.021 A 
ATOM     13  C   UNL     1       5.502   6.259   2.810  1.00  0.00     0.016 A 
ATOM     14  C   UNL     1       6.851   6.379   2.464  1.00  0.00     0.047 A 
ATOM     15  C   UNL     1       7.219   6.603   1.134  1.00  0.00     0.115 A 
ATOM     16  C   UNL     1       4.882   6.576   0.489  1.00  0.00     0.016 A 
ATOM     17  C   UNL     1       6.231   6.698   0.146  1.00  0.00     0.047 A 
BRANCH  15  18
ATOM     18  O   UNL     1       8.568   6.722   0.804  1.00  0.00    -0.508 OA
ATOM     19  H   UNL     1       9.215   5.954   0.933  1.00  0.00     0.293 HD
ENDBRANCH  15  18
ENDBRANCH   1  12
BRANCH   2  20
ATOM     20  O   UNL     1       2.700   8.625   2.104  1.00  0.00    -0.502 OA
ATOM     21  H   UNL     1       3.667   8.813   1.868  1.00  0.00     0.293 HD
ENDBRANCH   2  20
BRANCH   6  22
ATOM     22  O   UNL     1      -1.892   6.400   3.634  1.00  0.00    -0.507 OA
ATOM     23  H   UNL     1      -2.556   6.831   3.008  1.00  0.00     0.293 HD
ENDBRANCH   6  22
BRANCH   8  24
ATOM     24  O   UNL     1      -0.837   1.766   3.074  1.00  0.00    -0.508 OA
ATOM     25  H   UNL     1      -0.664   1.193   3.890  1.00  0.00     0.293 HD
ENDBRANCH   8  24
TORSDOF 5
ENDMDL
MODEL 5
REMARK VINA RESULT:    -4.185      1.855      7.109
REMARK INTER + INTRA:          -5.154
REMARK INTER:                  -4.871
REMARK INTRA:                  -0.283
REMARK UNBOUND:                -0.236
REMARK SMILES O=c1c(O)c(-c2ccc(O)cc2)oc2cc(O)cc(O)c12
REMARK SMILES IDX 5 1 3 2 2 3 1 4 21 5 19 6 18 7 16 8 15 9 14 10 13 11 6 12
REMARK SMILES IDX 7 13 8 14 9 15 12 16 11 17 10 18 4 20 20 22 17 24
REMARK H PARENT 10 19 4 21 20 23 17 25
REMARK Flexibility Score: inf
ROOT
ATOM      1  C   UNL     1      -6.369   8.223  -3.232  1.00  0.00     0.180 A 
ATOM      2  C   UNL     1      -5.848   7.211  -2.408  1.00  0.00     0.208 A 
ATOM      3  C   UNL     1      -4.831   6.380  -2.908  1.00  0.00     0.238 A 
ATOM      4  O   UNL     1      -4.408   5.441  -2.186  1.00  0.00    -0.285 OA
ATOM      5  C   UNL     1      -4.338   6.584  -4.220  1.00  0.00     0.111 A 
ATOM      6  C   UNL     1      -3.282   5.829  -4.814  1.00  0.00     0.134 A 
ATOM      7  C   UNL     1      -2.963   6.031  -6.163  1.00  0.00     0.093 A 
ATOM      8  C   UNL     1      -3.617   7.004  -6.919  1.00  0.00     0.123 A 
ATOM      9  C   UNL     1      -4.609   7.789  -6.331  1.00  0.00     0.094 A 
ATOM     10  C   UNL     1      -4.974   7.586  -4.998  1.00  0.00     0.146 A 
ATOM     11  O   UNL     1      -5.931   8.347  -4.479  1.00  0.00    -0.452 OA
ENDROOT
BRANCH   1  12
ATOM     12  C   UNL     1      -7.423   9.153  -2.766  1.00  0.00     0.021 A 
ATOM     13  C   UNL     1      -8.787   8.889  -2.994  1.00  0.00     0.016 A 
ATOM     14  C   UNL     1      -9.765   9.770  -2.522  1.00  0.00     0.047 A 
ATOM     15  C   UNL     1      -9.397  10.915  -1.810  1.00  0.00     0.115 A 
ATOM     16  C   UNL     1      -7.063  10.295  -2.031  1.00  0.00     0.016 A 
ATOM     17  C   UNL     1      -8.043  11.174  -1.562  1.00  0.00     0.047 A 
BRANCH  15  18
ATOM     18  O   UNL     1     -10.383  11.784  -1.348  1.00  0.00    -0.508 OA
ATOM     19  H   UNL     1     -10.339  12.191  -0.422  1.00  0.00     0.293 HD
ENDBRANCH  15  18
ENDBRANCH   1  12
BRANCH   2  20
ATOM     20  O   UNL     1      -6.365   7.013  -1.125  1.00  0.00    -0.502 OA
ATOM     21  H   UNL     1      -6.827   6.154  -0.850  1.00  0.00     0.293 HD
ENDBRANCH   2  20
BRANCH   6  22
ATOM     22  O   UNL     1      -2.504   4.897  -4.123  1.00  0.00    -0.507 OA
ATOM     23  H   UNL     1      -2.378   4.883  -3.121  1.00  0.00     0.293 HD
ENDBRANCH   6  22
BRANCH   8  24
ATOM     24  O   UNL     1      -3.263   7.188  -8.255  1.00  0.00    -0.508 OA
ATOM     25  H   UNL     1      -2.456   7.741  -8.517  1.00  0.00     0.293 HD
ENDBRANCH   8  24
TORSDOF 5
ENDMDL
MODEL 6
REMARK VINA RESULT:    -4.180      8.547      9.864
REMARK INTER + INTRA:          -5.148
REMARK INTER:                  -4.855
REMARK INTRA:                  -0.294
REMARK UNBOUND:                -0.236
REMARK SMILES O=c1c(O)c(-c2ccc(O)cc2)oc2cc(O)cc(O)c12
REMARK SMILES IDX 5 1 3 2 2 3 1 4 21 5 19 6 18 7 16 8 15 9 14 10 13 11 6 12
REMARK SMILES IDX 7 13 8 14 9 15 12 16 11 17 10 18 4 20 20 22 17 24
REMARK H PARENT 10 19 4 21 20 23 17 25
REMARK Flexibility Score: inf
ROOT
ATOM      1  C   UNL     1      -0.287   3.862   3.216  1.00  0.00     0.180 A 
ATOM      2  C   UNL     1       0.797   4.170   2.377  1.00  0.00     0.208 A 
ATOM      3  C   UNL     1       1.174   5.514   2.214  1.00  0.00     0.238 A 
ATOM      4  O   UNL     1       2.110   5.787   1.419  1.00  0.00    -0.285 OA
ATOM      5  C   UNL     1       0.470   6.530   2.905  1.00  0.00     0.111 A 
ATOM      6  C   UNL     1       0.791   7.920   2.846  1.00  0.00     0.134 A 
ATOM      7  C   UNL     1      -0.053   8.850   3.467  1.00  0.00     0.093 A 
ATOM      8  C   UNL     1      -1.166   8.436   4.199  1.00  0.00     0.123 A 
ATOM      9  C   UNL     1      -1.454   7.075   4.313  1.00  0.00     0.094 A 
ATOM     10  C   UNL     1      -0.652   6.126   3.674  1.00  0.00     0.146 A 
ATOM     11  O   UNL     1      -0.967   4.843   3.799  1.00  0.00    -0.452 OA
ENDROOT
BRANCH   1  12
ATOM     12  C   UNL     1      -0.726   2.469   3.457  1.00  0.00     0.021 A 
ATOM     13  C   UNL     1      -0.116   1.667   4.440  1.00  0.00     0.016 A 
ATOM     14  C   UNL     1      -0.564   0.363   4.666  1.00  0.00     0.047 A 
ATOM     15  C   UNL     1      -1.632  -0.153   3.926  1.00  0.00     0.115 A 
ATOM     16  C   UNL     1      -1.812   1.950   2.733  1.00  0.00     0.016 A 
ATOM     17  C   UNL     1      -2.258   0.645   2.960  1.00  0.00     0.047 A 
BRANCH  15  18
ATOM     18  O   UNL     1      -2.067  -1.456   4.161  1.00  0.00    -0.508 OA
ATOM     19  H   UNL     1      -3.052  -1.686   4.203  1.00  0.00     0.293 HD
ENDBRANCH  15  18
ENDBRANCH   1  12
BRANCH   2  20
ATOM     20  O   UNL     1       1.464   3.153   1.687  1.00  0.00    -0.502 OA
ATOM     21  H   UNL     1       1.141   2.799   0.794  1.00  0.00     0.293 HD
ENDBRANCH   2  20
BRANCH   6  22
ATOM     22  O   UNL     1       1.929   8.433   2.219  1.00  0.00    -0.507 OA
ATOM     23  H   UNL     1       2.857   8.045   2.306  1.00  0.00     0.293 HD
ENDBRANCH   6  22
BRANCH   8  24
ATOM     24  O   UNL     1      -1.974   9.388   4.817  1.00  0.00    -0.508 OA
ATOM     25  H   UNL     1      -1.828   9.661   5.781  1.00  0.00     0.293 HD
ENDBRANCH   8  24
TORSDOF 5
ENDMDL
MODEL 7
REMARK VINA RESULT:    -4.149     10.138     11.551
REMARK INTER + INTRA:          -5.112
REMARK INTER:                  -4.836
REMARK INTRA:                  -0.276
REMARK UNBOUND:                -0.236
REMARK SMILES O=c1c(O)c(-c2ccc(O)cc2)oc2cc(O)cc(O)c12
REMARK SMILES IDX 5 1 3 2 2 3 1 4 21 5 19 6 18 7 16 8 15 9 14 10 13 11 6 12
REMARK SMILES IDX 7 13 8 14 9 15 12 16 11 17 10 18 4 20 20 22 17 24
REMARK H PARENT 10 19 4 21 20 23 17 25
REMARK Flexibility Score: inf
ROOT
ATOM      1  C   UNL     1       3.052   6.409   2.419  1.00  0.00     0.180 A 
ATOM      2  C   UNL     1       4.261   6.297   1.711  1.00  0.00     0.208 A 
ATOM      3  C   UNL     1       5.014   7.457   1.459  1.00  0.00     0.238 A 
ATOM      4  O   UNL     1       6.067   7.357   0.778  1.00  0.00    -0.285 OA
ATOM      5  C   UNL     1       4.555   8.710   1.932  1.00  0.00     0.111 A 
ATOM      6  C   UNL     1       5.256   9.943   1.769  1.00  0.00     0.134 A 
ATOM      7  C   UNL     1       4.646  11.141   2.163  1.00  0.00     0.093 A 
ATOM      8  C   UNL     1       3.391  11.144   2.771  1.00  0.00     0.123 A 
ATOM      9  C   UNL     1       2.723   9.938   2.989  1.00  0.00     0.094 A 
ATOM     10  C   UNL     1       3.290   8.730   2.575  1.00  0.00     0.146 A 
ATOM     11  O   UNL     1       2.617   7.607   2.792  1.00  0.00    -0.452 OA
ENDROOT
BRANCH   1  12
ATOM     12  C   UNL     1       2.218   5.230   2.745  1.00  0.00     0.021 A 
ATOM     13  C   UNL     1       2.291   4.604   4.003  1.00  0.00     0.016 A 
ATOM     14  C   UNL     1       1.476   3.508   4.296  1.00  0.00     0.047 A 
ATOM     15  C   UNL     1       0.570   3.030   3.344  1.00  0.00     0.115 A 
ATOM     16  C   UNL     1       1.290   4.757   1.802  1.00  0.00     0.016 A 
ATOM     17  C   UNL     1       0.476   3.660   2.097  1.00  0.00     0.047 A 
BRANCH  15  18
ATOM     18  O   UNL     1      -0.235   1.935   3.649  1.00  0.00    -0.508 OA
ATOM     19  H   UNL     1       0.033   0.992   3.394  1.00  0.00     0.293 HD
ENDBRANCH  15  18
ENDBRANCH   1  12
BRANCH   2  20
ATOM     20  O   UNL     1       4.685   5.053   1.235  1.00  0.00    -0.502 OA
ATOM     21  H   UNL     1       4.452   4.184   1.700  1.00  0.00     0.293 HD
ENDBRANCH   2  20
BRANCH   6  22
ATOM     22  O   UNL     1       6.552  10.042   1.256  1.00  0.00    -0.507 OA
ATOM     23  H   UNL     1       7.028   9.309   0.751  1.00  0.00     0.293 HD
ENDBRANCH   6  22
BRANCH   8  24
ATOM     24  O   UNL     1       2.821  12.354   3.164  1.00  0.00    -0.508 OA
ATOM     25  H   UNL     1       3.128  12.837   4.000  1.00  0.00     0.293 HD
ENDBRANCH   8  24
TORSDOF 5
ENDMDL
MODEL 8
REMARK VINA RESULT:    -4.116     10.130     11.844
REMARK INTER + INTRA:          -5.074
REMARK INTER:                  -4.806
REMARK INTRA:                  -0.268
REMARK UNBOUND:                -0.236
REMARK SMILES O=c1c(O)c(-c2ccc(O)cc2)oc2cc(O)cc(O)c12
REMARK SMILES IDX 5 1 3 2 2 3 1 4 21 5 19 6 18 7 16 8 15 9 14 10 13 11 6 12
REMARK SMILES IDX 7 13 8 14 9 15 12 16 11 17 10 18 4 20 20 22 17 24
REMARK H PARENT 10 19 4 21 20 23 17 25
REMARK Flexibility Score: inf
ROOT
ATOM      1  C   UNL     1       2.691   6.137   2.714  1.00  0.00     0.180 A 
ATOM      2  C   UNL     1       1.927   5.406   1.788  1.00  0.00     0.208 A 
ATOM      3  C   UNL     1       1.245   4.257   2.223  1.00  0.00     0.238 A 
ATOM      4  O   UNL     1       0.607   3.577   1.378  1.00  0.00    -0.285 OA
ATOM      5  C   UNL     1       1.322   3.864   3.581  1.00  0.00     0.111 A 
ATOM      6  C   UNL     1       0.639   2.742   4.139  1.00  0.00     0.134 A 
ATOM      7  C   UNL     1       0.892   2.371   5.466  1.00  0.00     0.093 A 
ATOM      8  C   UNL     1       1.750   3.118   6.272  1.00  0.00     0.123 A 
ATOM      9  C   UNL     1       2.377   4.252   5.753  1.00  0.00     0.094 A 
ATOM     10  C   UNL     1       2.173   4.626   4.423  1.00  0.00     0.146 A 
ATOM     11  O   UNL     1       2.797   5.706   3.966  1.00  0.00    -0.452 OA
ENDROOT
BRANCH   1  12
ATOM     12  C   UNL     1       3.417   7.371   2.337  1.00  0.00     0.021 A 
ATOM     13  C   UNL     1       2.887   8.646   2.607  1.00  0.00     0.016 A 
ATOM     14  C   UNL     1       3.602   9.797   2.264  1.00  0.00     0.047 A 
ATOM     15  C   UNL     1       4.858   9.690   1.659  1.00  0.00     0.115 A 
ATOM     16  C   UNL     1       4.689   7.273   1.748  1.00  0.00     0.016 A 
ATOM     17  C   UNL     1       5.402   8.425   1.405  1.00  0.00     0.047 A 
BRANCH  15  18
ATOM     18  O   UNL     1       5.559  10.846   1.321  1.00  0.00    -0.508 OA
ATOM     19  H   UNL     1       5.916  11.476   2.029  1.00  0.00     0.293 HD
ENDBRANCH  15  18
ENDBRANCH   1  12
BRANCH   2  20
ATOM     20  O   UNL     1       1.882   5.799   0.447  1.00  0.00    -0.502 OA
ATOM     21  H   UNL     1       1.212   5.417  -0.210  1.00  0.00     0.293 HD
ENDBRANCH   2  20
BRANCH   6  22
ATOM     22  O   UNL     1      -0.308   1.982   3.449  1.00  0.00    -0.507 OA
ATOM     23  H   UNL     1      -0.300   1.820   2.453  1.00  0.00     0.293 HD
ENDBRANCH   6  22
BRANCH   8  24
ATOM     24  O   UNL     1       1.967   2.727   7.592  1.00  0.00    -0.508 OA
ATOM     25  H   UNL     1       1.246   2.824   8.297  1.00  0.00     0.293 HD
ENDBRANCH   8  24
TORSDOF 5
ENDMDL
MODEL 9
REMARK VINA RESULT:    -4.078      4.973      8.356
REMARK INTER + INTRA:          -5.029
REMARK INTER:                  -4.730
REMARK INTRA:                  -0.300
REMARK UNBOUND:                -0.236
REMARK SMILES O=c1c(O)c(-c2ccc(O)cc2)oc2cc(O)cc(O)c12
REMARK SMILES IDX 5 1 3 2 2 3 1 4 21 5 19 6 18 7 16 8 15 9 14 10 13 11 6 12
REMARK SMILES IDX 7 13 8 14 9 15 12 16 11 17 10 18 4 20 20 22 17 24
REMARK H PARENT 10 19 4 21 20 23 17 25
REMARK Flexibility Score: inf
ROOT
ATOM      1  C   UNL     1      -4.209  11.829   2.115  1.00  0.00     0.180 A 
ATOM      2  C   UNL     1      -3.667  12.987   2.698  1.00  0.00     0.208 A 
ATOM      3  C   UNL     1      -2.483  12.883   3.447  1.00  0.00     0.238 A 
ATOM      4  O   UNL     1      -2.032  13.913   4.012  1.00  0.00    -0.285 OA
ATOM      5  C   UNL     1      -1.848  11.625   3.590  1.00  0.00     0.111 A 
ATOM      6  C   UNL     1      -0.624  11.410   4.293  1.00  0.00     0.134 A 
ATOM      7  C   UNL     1      -0.156  10.103   4.481  1.00  0.00     0.093 A 
ATOM      8  C   UNL     1      -0.832   9.012   3.937  1.00  0.00     0.123 A 
ATOM      9  C   UNL     1      -1.998   9.216   3.197  1.00  0.00     0.094 A 
ATOM     10  C   UNL     1      -2.509  10.504   3.023  1.00  0.00     0.146 A 
ATOM     11  O   UNL     1      -3.626  10.653   2.321  1.00  0.00    -0.452 OA
ENDROOT
BRANCH   1  12
ATOM     12  C   UNL     1      -5.439  11.864   1.291  1.00  0.00     0.021 A 
ATOM     13  C   UNL     1      -5.387  12.109  -0.094  1.00  0.00     0.016 A 
ATOM     14  C   UNL     1      -6.560  12.111  -0.855  1.00  0.00     0.047 A 
ATOM     15  C   UNL     1      -7.793  11.859  -0.249  1.00  0.00     0.115 A 
ATOM     16  C   UNL     1      -6.680  11.589   1.889  1.00  0.00     0.016 A 
ATOM     17  C   UNL     1      -7.851  11.594   1.126  1.00  0.00     0.047 A 
BRANCH  15  18
ATOM     18  O   UNL     1      -8.954  11.867  -1.020  1.00  0.00    -0.508 OA
ATOM     19  H   UNL     1      -9.306  12.720  -1.438  1.00  0.00     0.293 HD
ENDBRANCH  15  18
ENDBRANCH   1  12
BRANCH   2  20
ATOM     20  O   UNL     1      -4.321  14.215   2.563  1.00  0.00    -0.502 OA
ATOM     21  H   UNL     1      -4.152  14.839   1.783  1.00  0.00     0.293 HD
ENDBRANCH   2  20
BRANCH   6  22
ATOM     22  O   UNL     1       0.177  12.438   4.798  1.00  0.00    -0.507 OA
ATOM     23  H   UNL     1      -0.171  13.253   5.282  1.00  0.00     0.293 HD
ENDBRANCH   6  22
BRANCH   8  24
ATOM     24  O   UNL     1      -0.329   7.726   4.131  1.00  0.00    -0.508 OA
ATOM     25  H   UNL     1       0.651   7.514   3.988  1.00  0.00     0.293 HD
ENDBRANCH   8  24
TORSDOF 5
ENDMDL
