MODEL 1
REMARK VINA RESULT:    -5.020      0.000      0.000
REMARK INTER + INTRA:          -9.877
REMARK INTER:                  -7.661
REMARK INTRA:                  -2.216
REMARK UNBOUND:                -2.216
REMARK SMILES CC(=O)CCC=C(C)CCC=C(C)CCC=C(C)C
REMARK SMILES IDX 10 1 11 2 12 3 13 4 14 5 15 6 16 7 18 8 17 9 19 10 9 11 7 12
REMARK SMILES IDX 6 13 8 14 5 15 4 16 2 17 3 18 1 19
REMARK H PARENT
REMARK Flexibility Score: inf
ROOT
ATOM      1  C   UNL     1     -16.663  14.020 -29.228  1.00  0.00     0.032 C 
ENDROOT
BRANCH   1   2
ATOM      2  C   UNL     1     -15.451  13.803 -30.099  1.00  0.00    -0.028 C 
ATOM      3  C   UNL     1     -15.490  13.655 -31.443  1.00  0.00    -0.077 C 
ATOM      4  C   UNL     1     -16.795  13.636 -32.206  1.00  0.00     0.039 C 
BRANCH   3   5
ATOM      5  C   UNL     1     -14.193  13.484 -32.203  1.00  0.00     0.034 C 
BRANCH   5   6
ATOM      6  C   UNL     1     -12.991  13.754 -31.291  1.00  0.00     0.032 C 
BRANCH   6   7
ATOM      7  C   UNL     1     -12.033  14.721 -31.943  1.00  0.00    -0.028 C 
ATOM      8  C   UNL     1     -10.166  15.439 -33.370  1.00  0.00     0.039 C 
ATOM      9  C   UNL     1     -11.018  14.358 -32.758  1.00  0.00    -0.080 C 
ATOM     10  C   UNL     1     -10.709  12.909 -33.056  1.00  0.00     0.039 C 
ENDBRANCH   6   7
ENDBRANCH   5   6
ENDBRANCH   3   5
ENDBRANCH   1   2
BRANCH   1  11
ATOM     11  C   UNL     1     -16.920  12.799 -28.340  1.00  0.00     0.034 C 
BRANCH  11  12
ATOM     12  C   UNL     1     -17.675  11.732 -29.108  1.00  0.00    -0.077 C 
ATOM     13  C   UNL     1     -17.173  10.498 -29.344  1.00  0.00    -0.028 C 
ATOM     14  C   UNL     1     -19.016  12.083 -29.698  1.00  0.00     0.039 C 
BRANCH  13  15
ATOM     15  C   UNL     1     -15.859   9.983 -28.809  1.00  0.00     0.035 C 
BRANCH  15  16
ATOM     16  C   UNL     1     -14.709  10.230 -29.795  1.00  0.00     0.079 C 
BRANCH  16  17
ATOM     17  C   UNL     1     -13.492  10.788 -29.100  1.00  0.00     0.130 C 
ATOM     18  O   UNL     1     -12.400  10.708 -29.642  1.00  0.00    -0.300 OA
ATOM     19  C   UNL     1     -13.595  11.442 -27.755  1.00  0.00     0.087 C 
ENDBRANCH  16  17
ENDBRANCH  15  16
ENDBRANCH  13  15
ENDBRANCH  11  12
ENDBRANCH   1  11
TORSDOF 9
ENDMDL
MODEL 2
REMARK VINA RESULT:    -4.953      1.808      2.621
REMARK INTER + INTRA:          -9.776
REMARK INTER:                  -7.744
REMARK INTRA:                  -2.032
REMARK UNBOUND:                -2.216
REMARK SMILES CC(=O)CCC=C(C)CCC=C(C)CCC=C(C)C
REMARK SMILES IDX 10 1 11 2 12 3 13 4 14 5 15 6 16 7 18 8 17 9 19 10 9 11 7 12
REMARK SMILES IDX 6 13 8 14 5 15 4 16 2 17 3 18 1 19
REMARK H PARENT
REMARK Flexibility Score: inf
ROOT
ATOM      1  C   UNL     1     -17.229  12.938 -29.070  1.00  0.00     0.032 C 
ENDROOT
BRANCH   1   2
ATOM      2  C   UNL     1     -16.219  14.010 -29.395  1.00  0.00    -0.028 C 
ATOM      3  C   UNL     1     -15.799  14.313 -30.645  1.00  0.00    -0.077 C 
ATOM      4  C   UNL     1     -16.276  13.542 -31.855  1.00  0.00     0.039 C 
BRANCH   3   5
ATOM      5  C   UNL     1     -14.810  15.442 -30.835  1.00  0.00     0.034 C 
BRANCH   5   6
ATOM      6  C   UNL     1     -13.385  14.975 -30.522  1.00  0.00     0.032 C 
BRANCH   6   7
ATOM      7  C   UNL     1     -12.655  14.599 -31.788  1.00  0.00    -0.028 C 
ATOM      8  C   UNL     1     -11.713  13.106 -33.497  1.00  0.00     0.039 C 
ATOM      9  C   UNL     1     -12.421  13.329 -32.186  1.00  0.00    -0.080 C 
ATOM     10  C   UNL     1     -12.832  12.139 -31.350  1.00  0.00     0.039 C 
ENDBRANCH   6   7
ENDBRANCH   5   6
ENDBRANCH   3   5
ENDBRANCH   1   2
BRANCH   1  11
ATOM     11  C   UNL     1     -16.664  11.954 -28.040  1.00  0.00     0.034 C 
BRANCH  11  12
ATOM     12  C   UNL     1     -15.689  10.998 -28.696  1.00  0.00    -0.077 C 
ATOM     13  C   UNL     1     -14.392  10.895 -28.324  1.00  0.00    -0.028 C 
ATOM     14  C   UNL     1     -16.164  10.176 -29.866  1.00  0.00     0.039 C 
BRANCH  13  15
ATOM     15  C   UNL     1     -13.765  11.629 -27.165  1.00  0.00     0.035 C 
BRANCH  15  16
ATOM     16  C   UNL     1     -12.905  10.697 -26.301  1.00  0.00     0.079 C 
BRANCH  16  17
ATOM     17  C   UNL     1     -11.509  11.241 -26.119  1.00  0.00     0.130 C 
ATOM     18  O   UNL     1     -11.336  12.233 -25.428  1.00  0.00    -0.300 OA
ATOM     19  C   UNL     1     -10.327  10.586 -26.769  1.00  0.00     0.087 C 
ENDBRANCH  16  17
ENDBRANCH  15  16
ENDBRANCH  13  15
ENDBRANCH  11  12
ENDBRANCH   1  11
TORSDOF 9
ENDMDL
MODEL 3
REMARK VINA RESULT:    -4.574      1.349      5.355
REMARK INTER + INTRA:          -9.196
REMARK INTER:                  -7.106
REMARK INTRA:                  -2.091
REMARK UNBOUND:                -2.216
REMARK SMILES CC(=O)CCC=C(C)CCC=C(C)CCC=C(C)C
REMARK SMILES IDX 10 1 11 2 12 3 13 4 14 5 15 6 16 7 18 8 17 9 19 10 9 11 7 12
REMARK SMILES IDX 6 13 8 14 5 15 4 16 2 17 3 18 1 19
REMARK H PARENT
REMARK Flexibility Score: inf
ROOT
ATOM      1  C   UNL     1     -13.492  15.149 -31.864  1.00  0.00     0.032 C 
ENDROOT
BRANCH   1   2
ATOM      2  C   UNL     1     -14.461  15.030 -30.715  1.00  0.00    -0.028 C 
ATOM      3  C   UNL     1     -15.560  14.241 -30.718  1.00  0.00    -0.077 C 
ATOM      4  C   UNL     1     -15.956  13.431 -31.931  1.00  0.00     0.039 C 
BRANCH   3   5
ATOM      5  C   UNL     1     -16.427  14.182 -29.480  1.00  0.00     0.034 C 
BRANCH   5   6
ATOM      6  C   UNL     1     -16.216  12.862 -28.731  1.00  0.00     0.032 C 
BRANCH   6   7
ATOM      7  C   UNL     1     -17.438  11.984 -28.841  1.00  0.00    -0.028 C 
ATOM      8  C   UNL     1     -18.708   9.904 -29.154  1.00  0.00     0.039 C 
ATOM      9  C   UNL     1     -17.406  10.661 -29.115  1.00  0.00    -0.080 C 
ATOM     10  C   UNL     1     -16.113   9.933 -29.397  1.00  0.00     0.039 C 
ENDBRANCH   6   7
ENDBRANCH   5   6
ENDBRANCH   3   5
ENDBRANCH   1   2
BRANCH   1  11
ATOM     11  C   UNL     1     -12.181  14.422 -31.548  1.00  0.00     0.034 C 
BRANCH  11  12
ATOM     12  C   UNL     1     -12.165  13.050 -32.190  1.00  0.00    -0.077 C 
ATOM     13  C   UNL     1     -12.481  11.918 -31.520  1.00  0.00    -0.028 C 
ATOM     14  C   UNL     1     -11.707  12.930 -33.620  1.00  0.00     0.039 C 
BRANCH  13  15
ATOM     15  C   UNL     1     -12.976  11.866 -30.095  1.00  0.00     0.035 C 
BRANCH  15  16
ATOM     16  C   UNL     1     -12.450  10.629 -29.356  1.00  0.00     0.079 C 
BRANCH  16  17
ATOM     17  C   UNL     1     -12.314  10.882 -27.875  1.00  0.00     0.130 C 
ATOM     18  O   UNL     1     -11.204  10.890 -27.365  1.00  0.00    -0.300 OA
ATOM     19  C   UNL     1     -13.517  11.128 -27.014  1.00  0.00     0.087 C 
ENDBRANCH  16  17
ENDBRANCH  15  16
ENDBRANCH  13  15
ENDBRANCH  11  12
ENDBRANCH   1  11
TORSDOF 9
ENDMDL
MODEL 4
REMARK VINA RESULT:    -4.548      2.572      3.871
REMARK INTER + INTRA:          -9.157
REMARK INTER:                  -7.856
REMARK INTRA:                  -1.301
REMARK UNBOUND:                -2.216
REMARK SMILES CC(=O)CCC=C(C)CCC=C(C)CCC=C(C)C
REMARK SMILES IDX 10 1 11 2 12 3 13 4 14 5 15 6 16 7 18 8 17 9 19 10 9 11 7 12
REMARK SMILES IDX 6 13 8 14 5 15 4 16 2 17 3 18 1 19
REMARK H PARENT
REMARK Flexibility Score: inf
ROOT
ATOM      1  C   UNL     1     -16.996  13.242 -28.828  1.00  0.00     0.032 C 
ENDROOT
BRANCH   1   2
ATOM      2  C   UNL     1     -15.869  13.919 -29.567  1.00  0.00    -0.028 C 
ATOM      3  C   UNL     1     -15.786  14.016 -30.914  1.00  0.00    -0.077 C 
ATOM      4  C   UNL     1     -16.816  13.386 -31.824  1.00  0.00     0.039 C 
BRANCH   3   5
ATOM      5  C   UNL     1     -14.621  14.760 -31.527  1.00  0.00     0.034 C 
BRANCH   5   6
ATOM      6  C   UNL     1     -13.312  13.991 -31.314  1.00  0.00     0.032 C 
BRANCH   6   7
ATOM      7  C   UNL     1     -12.138  14.777 -31.843  1.00  0.00    -0.028 C 
ATOM      8  C   UNL     1     -10.217  15.273 -33.292  1.00  0.00     0.039 C 
ATOM      9  C   UNL     1     -11.328  14.361 -32.842  1.00  0.00    -0.080 C 
ATOM     10  C   UNL     1     -11.496  13.012 -33.500  1.00  0.00     0.039 C 
ENDBRANCH   6   7
ENDBRANCH   5   6
ENDBRANCH   3   5
ENDBRANCH   1   2
BRANCH   1  11
ATOM     11  C   UNL     1     -16.510  11.949 -28.164  1.00  0.00     0.034 C 
BRANCH  11  12
ATOM     12  C   UNL     1     -16.462  10.819 -29.172  1.00  0.00    -0.077 C 
ATOM     13  C   UNL     1     -17.518  10.014 -29.431  1.00  0.00    -0.028 C 
ATOM     14  C   UNL     1     -15.156  10.531 -29.867  1.00  0.00     0.039 C 
BRANCH  13  15
ATOM     15  C   UNL     1     -18.896  10.179 -28.837  1.00  0.00     0.035 C 
BRANCH  15  16
ATOM     16  C   UNL     1     -19.756  11.145 -29.663  1.00  0.00     0.079 C 
BRANCH  16  17
ATOM     17  C   UNL     1     -21.227  10.949 -29.390  1.00  0.00     0.130 C 
ATOM     18  O   UNL     1     -22.042  11.677 -29.935  1.00  0.00    -0.300 OA
ATOM     19  C   UNL     1     -21.711   9.875 -28.462  1.00  0.00     0.087 C 
ENDBRANCH  16  17
ENDBRANCH  15  16
ENDBRANCH  13  15
ENDBRANCH  11  12
ENDBRANCH   1  11
TORSDOF 9
ENDMDL
MODEL 5
REMARK VINA RESULT:    -4.545     10.349     12.330
REMARK INTER + INTRA:          -9.153
REMARK INTER:                  -7.823
REMARK INTRA:                  -1.330
REMARK UNBOUND:                -2.216
REMARK SMILES CC(=O)CCC=C(C)CCC=C(C)CCC=C(C)C
REMARK SMILES IDX 10 1 11 2 12 3 13 4 14 5 15 6 16 7 18 8 17 9 19 10 9 11 7 12
REMARK SMILES IDX 6 13 8 14 5 15 4 16 2 17 3 18 1 19
REMARK H PARENT
REMARK Flexibility Score: inf
ROOT
ATOM      1  C   UNL     1     -25.305  12.935 -29.901  1.00  0.00     0.032 C 
ENDROOT
BRANCH   1   2
ATOM      2  C   UNL     1     -25.740  14.374 -30.015  1.00  0.00    -0.028 C 
ATOM      3  C   UNL     1     -25.046  15.335 -30.668  1.00  0.00    -0.077 C 
ATOM      4  C   UNL     1     -23.706  15.054 -31.309  1.00  0.00     0.039 C 
BRANCH   3   5
ATOM      5  C   UNL     1     -25.617  16.734 -30.742  1.00  0.00     0.034 C 
BRANCH   5   6
ATOM      6  C   UNL     1     -24.508  17.760 -30.998  1.00  0.00     0.032 C 
BRANCH   6   7
ATOM      7  C   UNL     1     -24.756  18.504 -32.287  1.00  0.00    -0.028 C 
ATOM      8  C   UNL     1     -24.248  20.003 -34.167  1.00  0.00     0.039 C 
ATOM      9  C   UNL     1     -23.879  19.362 -32.854  1.00  0.00    -0.080 C 
ATOM     10  C   UNL     1     -22.558  19.703 -32.205  1.00  0.00     0.039 C 
ENDBRANCH   6   7
ENDBRANCH   5   6
ENDBRANCH   3   5
ENDBRANCH   1   2
BRANCH   1  11
ATOM     11  C   UNL     1     -25.996  12.073 -30.962  1.00  0.00     0.034 C 
BRANCH  11  12
ATOM     12  C   UNL     1     -26.184  10.656 -30.457  1.00  0.00    -0.077 C 
ATOM     13  C   UNL     1     -27.375  10.015 -30.483  1.00  0.00    -0.028 C 
ATOM     14  C   UNL     1     -25.007   9.953 -29.831  1.00  0.00     0.039 C 
BRANCH  13  15
ATOM     15  C   UNL     1     -28.641  10.568 -31.091  1.00  0.00     0.035 C 
BRANCH  15  16
ATOM     16  C   UNL     1     -29.607  11.085 -30.017  1.00  0.00     0.079 C 
BRANCH  16  17
ATOM     17  C   UNL     1     -29.273  12.496 -29.603  1.00  0.00     0.130 C 
ATOM     18  O   UNL     1     -28.891  12.715 -28.464  1.00  0.00    -0.300 OA
ATOM     19  C   UNL     1     -29.398  13.640 -30.565  1.00  0.00     0.087 C 
ENDBRANCH  16  17
ENDBRANCH  15  16
ENDBRANCH  13  15
ENDBRANCH  11  12
ENDBRANCH   1  11
TORSDOF 9
ENDMDL
MODEL 6
REMARK VINA RESULT:    -4.498     11.661     14.830
REMARK INTER + INTRA:          -9.080
REMARK INTER:                  -8.289
REMARK INTRA:                  -0.792
REMARK UNBOUND:                -2.216
REMARK SMILES CC(=O)CCC=C(C)CCC=C(C)CCC=C(C)C
REMARK SMILES IDX 10 1 11 2 12 3 13 4 14 5 15 6 16 7 18 8 17 9 19 10 9 11 7 12
REMARK SMILES IDX 6 13 8 14 5 15 4 16 2 17 3 18 1 19
REMARK H PARENT
REMARK Flexibility Score: inf
ROOT
ATOM      1  C   UNL     1     -29.068  16.194 -33.182  1.00  0.00     0.032 C 
ENDROOT
BRANCH   1   2
ATOM      2  C   UNL     1     -29.654  15.324 -32.099  1.00  0.00    -0.028 C 
ATOM      3  C   UNL     1     -28.955  14.411 -31.387  1.00  0.00    -0.077 C 
ATOM      4  C   UNL     1     -27.494  14.134 -31.662  1.00  0.00     0.039 C 
BRANCH   3   5
ATOM      5  C   UNL     1     -29.657  13.632 -30.297  1.00  0.00     0.034 C 
BRANCH   5   6
ATOM      6  C   UNL     1     -29.287  12.146 -30.366  1.00  0.00     0.032 C 
BRANCH   6   7
ATOM      7  C   UNL     1     -28.493  11.736 -29.151  1.00  0.00    -0.028 C 
ATOM      8  C   UNL     1     -26.600  10.795 -27.897  1.00  0.00     0.039 C 
ATOM      9  C   UNL     1     -27.298  11.106 -29.196  1.00  0.00    -0.080 C 
ATOM     10  C   UNL     1     -26.658  10.697 -30.502  1.00  0.00     0.039 C 
ENDBRANCH   6   7
ENDBRANCH   5   6
ENDBRANCH   3   5
ENDBRANCH   1   2
BRANCH   1  11
ATOM     11  C   UNL     1     -28.264  17.349 -32.576  1.00  0.00     0.034 C 
BRANCH  11  12
ATOM     12  C   UNL     1     -28.557  18.643 -33.308  1.00  0.00    -0.077 C 
ATOM     13  C   UNL     1     -27.601  19.550 -33.615  1.00  0.00    -0.028 C 
ATOM     14  C   UNL     1     -29.988  18.970 -33.646  1.00  0.00     0.039 C 
BRANCH  13  15
ATOM     15  C   UNL     1     -26.124  19.367 -33.365  1.00  0.00     0.035 C 
BRANCH  15  16
ATOM     16  C   UNL     1     -25.278  20.247 -34.294  1.00  0.00     0.079 C 
BRANCH  16  17
ATOM     17  C   UNL     1     -23.805  19.957 -34.145  1.00  0.00     0.130 C 
ATOM     18  O   UNL     1     -23.284  19.110 -34.854  1.00  0.00    -0.300 OA
ATOM     19  C   UNL     1     -22.965  20.690 -33.142  1.00  0.00     0.087 C 
ENDBRANCH  16  17
ENDBRANCH  15  16
ENDBRANCH  13  15
ENDBRANCH  11  12
ENDBRANCH   1  11
TORSDOF 9
ENDMDL
MODEL 7
REMARK VINA RESULT:    -4.490      2.016      6.229
REMARK INTER + INTRA:          -9.069
REMARK INTER:                  -7.049
REMARK INTRA:                  -2.020
REMARK UNBOUND:                -2.216
REMARK SMILES CC(=O)CCC=C(C)CCC=C(C)CCC=C(C)C
REMARK SMILES IDX 10 1 11 2 12 3 13 4 14 5 15 6 16 7 18 8 17 9 19 10 9 11 7 12
REMARK SMILES IDX 6 13 8 14 5 15 4 16 2 17 3 18 1 19
REMARK H PARENT
REMARK Flexibility Score: inf
ROOT
ATOM      1  C   UNL     1     -16.539  13.519 -31.621  1.00  0.00     0.032 C 
ENDROOT
BRANCH   1   2
ATOM      2  C   UNL     1     -16.803  12.320 -30.746  1.00  0.00    -0.028 C 
ATOM      3  C   UNL     1     -16.972  12.373 -29.405  1.00  0.00    -0.077 C 
ATOM      4  C   UNL     1     -16.850  13.669 -28.636  1.00  0.00     0.039 C 
BRANCH   3   5
ATOM      5  C   UNL     1     -17.273  11.097 -28.650  1.00  0.00     0.034 C 
BRANCH   5   6
ATOM      6  C   UNL     1     -18.129  10.152 -29.500  1.00  0.00     0.032 C 
BRANCH   6   7
ATOM      7  C   UNL     1     -19.450   9.875 -28.826  1.00  0.00    -0.028 C 
ATOM      8  C   UNL     1     -21.838  10.166 -28.323  1.00  0.00     0.039 C 
ATOM      9  C   UNL     1     -20.580  10.585 -29.040  1.00  0.00    -0.080 C 
ATOM     10  C   UNL     1     -20.611  11.784 -29.958  1.00  0.00     0.039 C 
ENDBRANCH   6   7
ENDBRANCH   5   6
ENDBRANCH   3   5
ENDBRANCH   1   2
BRANCH   1  11
ATOM     11  C   UNL     1     -15.108  13.488 -32.168  1.00  0.00     0.034 C 
BRANCH  11  12
ATOM     12  C   UNL     1     -14.129  13.991 -31.126  1.00  0.00    -0.077 C 
ATOM     13  C   UNL     1     -13.288  13.175 -30.450  1.00  0.00    -0.028 C 
ATOM     14  C   UNL     1     -14.142  15.456 -30.774  1.00  0.00     0.039 C 
BRANCH  13  15
ATOM     15  C   UNL     1     -13.137  11.694 -30.695  1.00  0.00     0.035 C 
BRANCH  15  16
ATOM     16  C   UNL     1     -13.642  10.868 -29.505  1.00  0.00     0.079 C 
BRANCH  16  17
ATOM     17  C   UNL     1     -12.699  10.952 -28.331  1.00  0.00     0.130 C 
ATOM     18  O   UNL     1     -12.898  11.783 -27.458  1.00  0.00    -0.300 OA
ATOM     19  C   UNL     1     -11.519  10.034 -28.212  1.00  0.00     0.087 C 
ENDBRANCH  16  17
ENDBRANCH  15  16
ENDBRANCH  13  15
ENDBRANCH  11  12
ENDBRANCH   1  11
TORSDOF 9
ENDMDL
MODEL 8
REMARK VINA RESULT:    -4.490      1.070      1.643
REMARK INTER + INTRA:          -9.069
REMARK INTER:                  -7.080
REMARK INTRA:                  -1.989
REMARK UNBOUND:                -2.216
REMARK SMILES CC(=O)CCC=C(C)CCC=C(C)CCC=C(C)C
REMARK SMILES IDX 10 1 11 2 12 3 13 4 14 5 15 6 16 7 18 8 17 9 19 10 9 11 7 12
REMARK SMILES IDX 6 13 8 14 5 15 4 16 2 17 3 18 1 19
REMARK H PARENT
REMARK Flexibility Score: inf
ROOT
ATOM      1  C   UNL     1     -17.743  13.007 -31.413  1.00  0.00     0.032 C 
ENDROOT
BRANCH   1   2
ATOM      2  C   UNL     1     -16.342  13.563 -31.417  1.00  0.00    -0.028 C 
ATOM      3  C   UNL     1     -15.728  14.102 -30.338  1.00  0.00    -0.077 C 
ATOM      4  C   UNL     1     -16.435  14.250 -29.010  1.00  0.00     0.039 C 
BRANCH   3   5
ATOM      5  C   UNL     1     -14.301  14.587 -30.469  1.00  0.00     0.034 C 
BRANCH   5   6
ATOM      6  C   UNL     1     -13.667  14.067 -31.764  1.00  0.00     0.032 C 
BRANCH   6   7
ATOM      7  C   UNL     1     -12.344  14.746 -32.020  1.00  0.00    -0.028 C 
ATOM      8  C   UNL     1     -10.152  15.103 -33.071  1.00  0.00     0.039 C 
ATOM      9  C   UNL     1     -11.412  14.297 -32.889  1.00  0.00    -0.080 C 
ATOM     10  C   UNL     1     -11.592  13.013 -33.664  1.00  0.00     0.039 C 
ENDBRANCH   6   7
ENDBRANCH   5   6
ENDBRANCH   3   5
ENDBRANCH   1   2
BRANCH   1  11
ATOM     11  C   UNL     1     -17.730  11.504 -31.117  1.00  0.00     0.034 C 
BRANCH  11  12
ATOM     12  C   UNL     1     -18.451  11.211 -29.816  1.00  0.00    -0.077 C 
ATOM     13  C   UNL     1     -17.910  10.470 -28.822  1.00  0.00    -0.028 C 
ATOM     14  C   UNL     1     -19.864  11.707 -29.650  1.00  0.00     0.039 C 
BRANCH  13  15
ATOM     15  C   UNL     1     -16.505   9.919 -28.823  1.00  0.00     0.035 C 
BRANCH  15  16
ATOM     16  C   UNL     1     -15.508  10.908 -28.206  1.00  0.00     0.079 C 
BRANCH  16  17
ATOM     17  C   UNL     1     -14.263  11.039 -29.048  1.00  0.00     0.130 C 
ATOM     18  O   UNL     1     -14.334  10.872 -30.256  1.00  0.00    -0.300 OA
ATOM     19  C   UNL     1     -12.937  11.372 -28.433  1.00  0.00     0.087 C 
ENDBRANCH  16  17
ENDBRANCH  15  16
ENDBRANCH  13  15
ENDBRANCH  11  12
ENDBRANCH   1  11
TORSDOF 9
ENDMDL
MODEL 9
REMARK VINA RESULT:    -4.357      1.918      5.478
REMARK INTER + INTRA:          -8.866
REMARK INTER:                  -7.452
REMARK INTRA:                  -1.413
REMARK UNBOUND:                -2.216
REMARK SMILES CC(=O)CCC=C(C)CCC=C(C)CCC=C(C)C
REMARK SMILES IDX 10 1 11 2 12 3 13 4 14 5 15 6 16 7 18 8 17 9 19 10 9 11 7 12
REMARK SMILES IDX 6 13 8 14 5 15 4 16 2 17 3 18 1 19
REMARK H PARENT
REMARK Flexibility Score: inf
ROOT
ATOM      1  C   UNL     1     -15.209  11.098 -30.753  1.00  0.00     0.032 C 
ENDROOT
BRANCH   1   2
ATOM      2  C   UNL     1     -14.471  11.365 -29.466  1.00  0.00    -0.028 C 
ATOM      3  C   UNL     1     -15.067  11.648 -28.285  1.00  0.00    -0.077 C 
ATOM      4  C   UNL     1     -16.568  11.783 -28.162  1.00  0.00     0.039 C 
BRANCH   3   5
ATOM      5  C   UNL     1     -14.208  11.855 -27.057  1.00  0.00     0.034 C 
BRANCH   5   6
ATOM      6  C   UNL     1     -13.718  10.511 -26.505  1.00  0.00     0.032 C 
BRANCH   6   7
ATOM      7  C   UNL     1     -12.329  10.203 -27.007  1.00  0.00    -0.028 C 
ATOM      8  C   UNL     1      -9.875  10.313 -27.084  1.00  0.00     0.039 C 
ATOM      9  C   UNL     1     -11.198  10.748 -26.507  1.00  0.00    -0.080 C 
ATOM     10  C   UNL     1     -11.226  11.783 -25.407  1.00  0.00     0.039 C 
ENDBRANCH   6   7
ENDBRANCH   5   6
ENDBRANCH   3   5
ENDBRANCH   1   2
BRANCH   1  11
ATOM     11  C   UNL     1     -14.791  12.098 -31.836  1.00  0.00     0.034 C 
BRANCH  11  12
ATOM     12  C   UNL     1     -15.458  13.439 -31.608  1.00  0.00    -0.077 C 
ATOM     13  C   UNL     1     -14.784  14.539 -31.199  1.00  0.00    -0.028 C 
ATOM     14  C   UNL     1     -16.953  13.537 -31.773  1.00  0.00     0.039 C 
BRANCH  13  15
ATOM     15  C   UNL     1     -13.289  14.614 -31.008  1.00  0.00     0.035 C 
BRANCH  15  16
ATOM     16  C   UNL     1     -12.580  15.107 -32.276  1.00  0.00     0.079 C 
BRANCH  16  17
ATOM     17  C   UNL     1     -11.406  14.229 -32.632  1.00  0.00     0.130 C 
ATOM     18  O   UNL     1     -11.535  13.014 -32.610  1.00  0.00    -0.300 OA
ATOM     19  C   UNL     1     -10.080  14.817 -33.014  1.00  0.00     0.087 C 
ENDBRANCH  16  17
ENDBRANCH  15  16
ENDBRANCH  13  15
ENDBRANCH  11  12
ENDBRANCH   1  11
TORSDOF 9
ENDMDL
