MODEL 1
REMARK VINA RESULT:    -3.617      0.000      0.000
REMARK INTER + INTRA:          -4.186
REMARK INTER:                  -4.040
REMARK INTRA:                  -0.146
REMARK UNBOUND:                -0.146
REMARK SMILES O=C([O-])C=Cc1ccccc1
REMARK SMILES IDX 4 1 5 2 2 3 1 4 3 5 6 6 7 7 11 8 8 9 10 10 9 11
REMARK H PARENT
REMARK Flexibility Score: inf
ROOT
ATOM      1  C   UNL     1       8.308  -3.285  -2.141  1.00  0.00     0.025 C 
ATOM      2  C   UNL     1       7.597  -2.376  -2.823  1.00  0.00     0.010 C 
ENDROOT
BRANCH   1   3
ATOM      3  C   UNL     1       8.276  -4.716  -2.486  1.00  0.00     0.064 C 
ATOM      4  O   UNL     1       9.177  -5.480  -2.054  1.00  0.00    -0.545 OA
ATOM      5  O   UNL     1       7.262  -5.239  -3.282  1.00  0.00    -0.545 OA
ENDBRANCH   1   3
BRANCH   2   6
ATOM      6  C   UNL     1       7.580  -0.917  -2.533  1.00  0.00    -0.026 A 
ATOM      7  C   UNL     1       6.848   0.018  -3.299  1.00  0.00     0.008 A 
ATOM      8  C   UNL     1       8.335  -0.448  -1.442  1.00  0.00     0.008 A 
ATOM      9  C   UNL     1       6.876   1.378  -2.971  1.00  0.00     0.001 A 
ATOM     10  C   UNL     1       8.358   0.912  -1.121  1.00  0.00     0.001 A 
ATOM     11  C   UNL     1       7.630   1.825  -1.885  1.00  0.00     0.000 A 
ENDBRANCH   2   6
TORSDOF 2
ENDMDL
MODEL 2
REMARK VINA RESULT:    -3.594      1.051      1.869
REMARK INTER + INTRA:          -4.160
REMARK INTER:                  -4.015
REMARK INTRA:                  -0.145
REMARK UNBOUND:                -0.146
REMARK SMILES O=C([O-])C=Cc1ccccc1
REMARK SMILES IDX 4 1 5 2 2 3 1 4 3 5 6 6 7 7 11 8 8 9 10 10 9 11
REMARK H PARENT
REMARK Flexibility Score: inf
ROOT
ATOM      1  C   UNL     1       7.295  -3.660  -3.613  1.00  0.00     0.025 C 
ATOM      2  C   UNL     1       7.877  -3.003  -2.600  1.00  0.00     0.010 C 
ENDROOT
BRANCH   1   3
ATOM      3  C   UNL     1       7.418  -5.120  -3.765  1.00  0.00     0.064 C 
ATOM      4  O   UNL     1       8.491  -5.611  -4.200  1.00  0.00    -0.545 OA
ATOM      5  O   UNL     1       6.366  -5.967  -3.433  1.00  0.00    -0.545 OA
ENDBRANCH   1   3
BRANCH   2   6
ATOM      6  C   UNL     1       7.796  -1.533  -2.382  1.00  0.00    -0.026 A 
ATOM      7  C   UNL     1       8.468  -0.866  -1.333  1.00  0.00     0.008 A 
ATOM      8  C   UNL     1       7.008  -0.773  -3.267  1.00  0.00     0.008 A 
ATOM      9  C   UNL     1       8.349   0.520  -1.186  1.00  0.00     0.001 A 
ATOM     10  C   UNL     1       6.894   0.611  -3.113  1.00  0.00     0.001 A 
ATOM     11  C   UNL     1       7.563   1.258  -2.073  1.00  0.00     0.000 A 
ENDBRANCH   2   6
TORSDOF 2
ENDMDL
MODEL 3
REMARK VINA RESULT:    -3.584      1.438      2.331
REMARK INTER + INTRA:          -4.150
REMARK INTER:                  -4.003
REMARK INTRA:                  -0.147
REMARK UNBOUND:                -0.146
REMARK SMILES O=C([O-])C=Cc1ccccc1
REMARK SMILES IDX 4 1 5 2 2 3 1 4 3 5 6 6 7 7 11 8 8 9 10 10 9 11
REMARK H PARENT
REMARK Flexibility Score: inf
ROOT
ATOM      1  C   UNL     1       8.689  -4.106  -1.669  1.00  0.00     0.025 C 
ATOM      2  C   UNL     1       8.741  -2.801  -1.366  1.00  0.00     0.010 C 
ENDROOT
BRANCH   1   3
ATOM      3  C   UNL     1       9.432  -5.114  -0.892  1.00  0.00     0.064 C 
ATOM      4  O   UNL     1      10.566  -4.828  -0.429  1.00  0.00    -0.545 OA
ATOM      5  O   UNL     1       8.899  -6.378  -0.662  1.00  0.00    -0.545 OA
ENDBRANCH   1   3
BRANCH   2   6
ATOM      6  C   UNL     1       8.019  -1.728  -2.102  1.00  0.00    -0.026 A 
ATOM      7  C   UNL     1       8.048  -0.368  -1.718  1.00  0.00     0.008 A 
ATOM      8  C   UNL     1       7.269  -2.090  -3.237  1.00  0.00     0.008 A 
ATOM      9  C   UNL     1       7.347   0.591  -2.456  1.00  0.00     0.001 A 
ATOM     10  C   UNL     1       6.570  -1.126  -3.969  1.00  0.00     0.001 A 
ATOM     11  C   UNL     1       6.608   0.213  -3.579  1.00  0.00     0.000 A 
ENDBRANCH   2   6
TORSDOF 2
ENDMDL
MODEL 4
REMARK VINA RESULT:    -3.572      1.663      2.176
REMARK INTER + INTRA:          -4.136
REMARK INTER:                  -4.004
REMARK INTRA:                  -0.132
REMARK UNBOUND:                -0.146
REMARK SMILES O=C([O-])C=Cc1ccccc1
REMARK SMILES IDX 4 1 5 2 2 3 1 4 3 5 6 6 7 7 11 8 8 9 10 10 9 11
REMARK H PARENT
REMARK Flexibility Score: inf
ROOT
ATOM      1  C   UNL     1       8.728  -3.850  -1.380  1.00  0.00     0.025 C 
ATOM      2  C   UNL     1       8.785  -2.517  -1.253  1.00  0.00     0.010 C 
ENDROOT
BRANCH   1   3
ATOM      3  C   UNL     1       9.526  -4.747  -0.526  1.00  0.00     0.064 C 
ATOM      4  O   UNL     1      10.782  -4.695  -0.573  1.00  0.00    -0.545 OA
ATOM      5  O   UNL     1       8.913  -5.651   0.335  1.00  0.00    -0.545 OA
ENDBRANCH   1   3
BRANCH   2   6
ATOM      6  C   UNL     1       8.010  -1.550  -2.077  1.00  0.00    -0.026 A 
ATOM      7  C   UNL     1       7.265  -1.925  -3.218  1.00  0.00     0.008 A 
ATOM      8  C   UNL     1       8.024  -0.194  -1.699  1.00  0.00     0.008 A 
ATOM      9  C   UNL     1       6.557  -0.965  -3.949  1.00  0.00     0.001 A 
ATOM     10  C   UNL     1       7.314   0.759  -2.435  1.00  0.00     0.001 A 
ATOM     11  C   UNL     1       6.582   0.375  -3.559  1.00  0.00     0.000 A 
ENDBRANCH   2   6
TORSDOF 2
ENDMDL
MODEL 5
REMARK VINA RESULT:    -3.563      3.643      5.562
REMARK INTER + INTRA:          -4.126
REMARK INTER:                  -3.980
REMARK INTRA:                  -0.146
REMARK UNBOUND:                -0.146
REMARK SMILES O=C([O-])C=Cc1ccccc1
REMARK SMILES IDX 4 1 5 2 2 3 1 4 3 5 6 6 7 7 11 8 8 9 10 10 9 11
REMARK H PARENT
REMARK Flexibility Score: inf
ROOT
ATOM      1  C   UNL     1       7.247   0.857  -2.509  1.00  0.00     0.025 C 
ATOM      2  C   UNL     1       7.917  -0.085  -1.829  1.00  0.00     0.010 C 
ENDROOT
BRANCH   1   3
ATOM      3  C   UNL     1       7.283   2.275  -2.113  1.00  0.00     0.064 C 
ATOM      4  O   UNL     1       6.697   3.133  -2.822  1.00  0.00    -0.545 OA
ATOM      5  O   UNL     1       7.956   2.682  -0.966  1.00  0.00    -0.545 OA
ENDBRANCH   1   3
BRANCH   2   6
ATOM      6  C   UNL     1       7.927  -1.533  -2.169  1.00  0.00    -0.026 A 
ATOM      7  C   UNL     1       8.609  -2.506  -1.403  1.00  0.00     0.008 A 
ATOM      8  C   UNL     1       7.223  -1.952  -3.314  1.00  0.00     0.008 A 
ATOM      9  C   UNL     1       8.578  -3.853  -1.779  1.00  0.00     0.001 A 
ATOM     10  C   UNL     1       7.197  -3.300  -3.683  1.00  0.00     0.001 A 
ATOM     11  C   UNL     1       7.874  -4.249  -2.917  1.00  0.00     0.000 A 
ENDBRANCH   2   6
TORSDOF 2
ENDMDL
MODEL 6
REMARK VINA RESULT:    -3.460      2.097      3.019
REMARK INTER + INTRA:          -4.011
REMARK INTER:                  -3.877
REMARK INTRA:                  -0.134
REMARK UNBOUND:                -0.146
REMARK SMILES O=C([O-])C=Cc1ccccc1
REMARK SMILES IDX 4 1 5 2 2 3 1 4 3 5 6 6 7 7 11 8 8 9 10 10 9 11
REMARK H PARENT
REMARK Flexibility Score: inf
ROOT
ATOM      1  C   UNL     1       9.233  -2.401  -0.134  1.00  0.00     0.025 C 
ATOM      2  C   UNL     1       8.743  -2.551  -1.373  1.00  0.00     0.010 C 
ENDROOT
BRANCH   1   3
ATOM      3  C   UNL     1       9.974  -3.478   0.544  1.00  0.00     0.064 C 
ATOM      4  O   UNL     1      10.632  -4.305  -0.139  1.00  0.00    -0.545 OA
ATOM      5  O   UNL     1       9.961  -3.595   1.930  1.00  0.00    -0.545 OA
ENDBRANCH   1   3
BRANCH   2   6
ATOM      6  C   UNL     1       7.986  -1.511  -2.120  1.00  0.00    -0.026 A 
ATOM      7  C   UNL     1       7.985  -0.144  -1.762  1.00  0.00     0.008 A 
ATOM      8  C   UNL     1       7.232  -1.913  -3.239  1.00  0.00     0.008 A 
ATOM      9  C   UNL     1       7.251   0.784  -2.509  1.00  0.00     0.001 A 
ATOM     10  C   UNL     1       6.501  -0.980  -3.981  1.00  0.00     0.001 A 
ATOM     11  C   UNL     1       6.510   0.367  -3.616  1.00  0.00     0.000 A 
ENDBRANCH   2   6
TORSDOF 2
ENDMDL
MODEL 7
REMARK VINA RESULT:    -3.439      1.820      2.295
REMARK INTER + INTRA:          -3.987
REMARK INTER:                  -3.854
REMARK INTRA:                  -0.133
REMARK UNBOUND:                -0.146
REMARK SMILES O=C([O-])C=Cc1ccccc1
REMARK SMILES IDX 4 1 5 2 2 3 1 4 3 5 6 6 7 7 11 8 8 9 10 10 9 11
REMARK H PARENT
REMARK Flexibility Score: inf
ROOT
ATOM      1  C   UNL     1       6.422  -2.520  -4.383  1.00  0.00     0.025 C 
ATOM      2  C   UNL     1       7.275  -2.499  -3.349  1.00  0.00     0.010 C 
ENDROOT
BRANCH   1   3
ATOM      3  C   UNL     1       6.122  -3.761  -5.117  1.00  0.00     0.064 C 
ATOM      4  O   UNL     1       7.066  -4.487  -5.524  1.00  0.00    -0.545 OA
ATOM      5  O   UNL     1       4.809  -4.146  -5.368  1.00  0.00    -0.545 OA
ENDBRANCH   1   3
BRANCH   2   6
ATOM      6  C   UNL     1       7.627  -1.287  -2.561  1.00  0.00    -0.026 A 
ATOM      7  C   UNL     1       7.172   0.011  -2.889  1.00  0.00     0.008 A 
ATOM      8  C   UNL     1       8.455  -1.444  -1.434  1.00  0.00     0.008 A 
ATOM      9  C   UNL     1       7.541   1.109  -2.104  1.00  0.00     0.001 A 
ATOM     10  C   UNL     1       8.819  -0.342  -0.655  1.00  0.00     0.001 A 
ATOM     11  C   UNL     1       8.363   0.933  -0.990  1.00  0.00     0.000 A 
ENDBRANCH   2   6
TORSDOF 2
ENDMDL
MODEL 8
REMARK VINA RESULT:    -3.427      3.514      4.748
REMARK INTER + INTRA:          -3.974
REMARK INTER:                  -3.843
REMARK INTRA:                  -0.131
REMARK UNBOUND:                -0.146
REMARK SMILES O=C([O-])C=Cc1ccccc1
REMARK SMILES IDX 4 1 5 2 2 3 1 4 3 5 6 6 7 7 11 8 8 9 10 10 9 11
REMARK H PARENT
REMARK Flexibility Score: inf
ROOT
ATOM      1  C   UNL     1       9.104  -0.547   0.478  1.00  0.00     0.025 C 
ATOM      2  C   UNL     1       8.733   0.116  -0.626  1.00  0.00     0.010 C 
ENDROOT
BRANCH   1   3
ATOM      3  C   UNL     1       9.805   0.121   1.588  1.00  0.00     0.064 C 
ATOM      4  O   UNL     1       9.445  -0.100   2.773  1.00  0.00    -0.545 OA
ATOM      5  O   UNL     1      10.861   0.994   1.347  1.00  0.00    -0.545 OA
ENDBRANCH   1   3
BRANCH   2   6
ATOM      6  C   UNL     1       8.023  -0.490  -1.785  1.00  0.00    -0.026 A 
ATOM      7  C   UNL     1       8.080  -1.867  -2.095  1.00  0.00     0.008 A 
ATOM      8  C   UNL     1       7.259   0.355  -2.611  1.00  0.00     0.008 A 
ATOM      9  C   UNL     1       7.386  -2.373  -3.201  1.00  0.00     0.001 A 
ATOM     10  C   UNL     1       6.569  -0.158  -3.714  1.00  0.00     0.001 A 
ATOM     11  C   UNL     1       6.633  -1.520  -4.009  1.00  0.00     0.000 A 
ENDBRANCH   2   6
TORSDOF 2
ENDMDL
MODEL 9
REMARK VINA RESULT:    -3.415      4.064      5.448
REMARK INTER + INTRA:          -3.960
REMARK INTER:                  -3.815
REMARK INTRA:                  -0.145
REMARK UNBOUND:                -0.146
REMARK SMILES O=C([O-])C=Cc1ccccc1
REMARK SMILES IDX 4 1 5 2 2 3 1 4 3 5 6 6 7 7 11 8 8 9 10 10 9 11
REMARK H PARENT
REMARK Flexibility Score: inf
ROOT
ATOM      1  C   UNL     1       6.493   1.767  -3.322  1.00  0.00     0.025 C 
ATOM      2  C   UNL     1       6.486   0.461  -3.627  1.00  0.00     0.010 C 
ENDROOT
BRANCH   1   3
ATOM      3  C   UNL     1       5.727   2.752  -4.104  1.00  0.00     0.064 C 
ATOM      4  O   UNL     1       6.224   3.234  -5.154  1.00  0.00    -0.545 OA
ATOM      5  O   UNL     1       4.459   3.158  -3.701  1.00  0.00    -0.545 OA
ENDBRANCH   1   3
BRANCH   2   6
ATOM      6  C   UNL     1       7.233  -0.590  -2.885  1.00  0.00    -0.026 A 
ATOM      7  C   UNL     1       7.243  -1.951  -3.265  1.00  0.00     0.008 A 
ATOM      8  C   UNL     1       7.965  -0.205  -1.746  1.00  0.00     0.008 A 
ATOM      9  C   UNL     1       7.968  -2.889  -2.522  1.00  0.00     0.001 A 
ATOM     10  C   UNL     1       8.687  -1.148  -1.009  1.00  0.00     0.001 A 
ATOM     11  C   UNL     1       8.688  -2.489  -1.396  1.00  0.00     0.000 A 
ENDBRANCH   2   6
TORSDOF 2
ENDMDL
