MODEL 1
REMARK VINA RESULT:    -5.656      0.000      0.000
REMARK INTER + INTRA:          -5.656
REMARK INTER:                  -5.656
REMARK INTRA:                   0.000
REMARK UNBOUND:                 0.000
REMARK SMILES CC1=CC(=O)[C@@H]2C[C@H]1C2(C)C
REMARK SMILES IDX 1 1 2 2 3 3 4 4 5 5 6 6 7 7 8 8 9 9 10 10 11 11
REMARK H PARENT
REMARK Flexibility Score: inf
ROOT
ATOM      1  C   UNL     1     -13.715 -15.679  31.511  1.00  0.00     0.040 C 
ATOM      2  C   UNL     1     -12.669 -16.316  30.651  1.00  0.00    -0.066 C 
ATOM      3  C   UNL     1     -11.847 -17.285  31.138  1.00  0.00     0.047 C 
ATOM      4  C   UNL     1     -10.861 -17.867  30.171  1.00  0.00     0.159 C 
ATOM      5  O   UNL     1     -10.073 -18.796  30.489  1.00  0.00    -0.295 OA
ATOM      6  C   UNL     1     -10.880 -17.254  28.770  1.00  0.00     0.067 C 
ATOM      7  C   UNL     1     -10.929 -15.731  29.025  1.00  0.00     0.021 C 
ATOM      8  C   UNL     1     -12.458 -15.894  29.182  1.00  0.00     0.022 C 
ATOM      9  C   UNL     1     -12.356 -17.165  28.288  1.00  0.00    -0.019 C 
ATOM     10  C   UNL     1     -13.306 -18.357  28.595  1.00  0.00     0.012 C 
ATOM     11  C   UNL     1     -12.464 -16.834  26.778  1.00  0.00     0.012 C 
ENDROOT
TORSDOF 0
ENDMDL
MODEL 2
REMARK VINA RESULT:    -5.522      1.897      3.493
REMARK INTER + INTRA:          -5.522
REMARK INTER:                  -5.522
REMARK INTRA:                   0.000
REMARK UNBOUND:                 0.000
REMARK SMILES CC1=CC(=O)[C@@H]2C[C@H]1C2(C)C
REMARK SMILES IDX 1 1 2 2 3 3 4 4 5 5 6 6 7 7 8 8 9 9 10 10 11 11
REMARK H PARENT
REMARK Flexibility Score: inf
ROOT
ATOM      1  C   UNL     1     -11.371 -17.252  26.105  1.00  0.00     0.040 C 
ATOM      2  C   UNL     1     -11.486 -16.870  27.547  1.00  0.00    -0.066 C 
ATOM      3  C   UNL     1     -12.588 -16.228  28.024  1.00  0.00     0.047 C 
ATOM      4  C   UNL     1     -12.598 -15.928  29.492  1.00  0.00     0.159 C 
ATOM      5  O   UNL     1     -13.575 -15.373  30.059  1.00  0.00    -0.295 OA
ATOM      6  C   UNL     1     -11.338 -16.344  30.253  1.00  0.00     0.067 C 
ATOM      7  C   UNL     1     -10.178 -15.858  29.357  1.00  0.00     0.021 C 
ATOM      8  C   UNL     1     -10.359 -17.168  28.559  1.00  0.00     0.022 C 
ATOM      9  C   UNL     1     -10.970 -17.799  29.844  1.00  0.00    -0.019 C 
ATOM     10  C   UNL     1     -12.121 -18.832  29.680  1.00  0.00     0.012 C 
ATOM     11  C   UNL     1      -9.891 -18.416  30.769  1.00  0.00     0.012 C 
ENDROOT
TORSDOF 0
ENDMDL
MODEL 3
REMARK VINA RESULT:    -5.428      1.751      2.284
REMARK INTER + INTRA:          -5.428
REMARK INTER:                  -5.428
REMARK INTRA:                   0.000
REMARK UNBOUND:                 0.000
REMARK SMILES CC1=CC(=O)[C@@H]2C[C@H]1C2(C)C
REMARK SMILES IDX 1 1 2 2 3 3 4 4 5 5 6 6 7 7 8 8 9 9 10 10 11 11
REMARK H PARENT
REMARK Flexibility Score: inf
ROOT
ATOM      1  C   UNL     1     -14.454 -15.034  32.021  1.00  0.00     0.040 C 
ATOM      2  C   UNL     1     -13.203 -15.815  31.761  1.00  0.00    -0.066 C 
ATOM      3  C   UNL     1     -12.253 -15.970  32.724  1.00  0.00     0.047 C 
ATOM      4  C   UNL     1     -11.062 -16.799  32.352  1.00  0.00     0.159 C 
ATOM      5  O   UNL     1     -10.134 -17.049  33.166  1.00  0.00    -0.295 OA
ATOM      6  C   UNL     1     -11.052 -17.322  30.915  1.00  0.00     0.067 C 
ATOM      7  C   UNL     1     -11.456 -16.098  30.065  1.00  0.00     0.021 C 
ATOM      8  C   UNL     1     -12.921 -16.464  30.390  1.00  0.00     0.022 C 
ATOM      9  C   UNL     1     -12.448 -17.932  30.600  1.00  0.00    -0.019 C 
ATOM     10  C   UNL     1     -13.148 -18.780  31.699  1.00  0.00     0.012 C 
ATOM     11  C   UNL     1     -12.451 -18.747  29.282  1.00  0.00     0.012 C 
ENDROOT
TORSDOF 0
ENDMDL
MODEL 4
REMARK VINA RESULT:    -5.426      1.262      2.965
REMARK INTER + INTRA:          -5.426
REMARK INTER:                  -5.426
REMARK INTRA:                   0.000
REMARK UNBOUND:                 0.000
REMARK SMILES CC1=CC(=O)[C@@H]2C[C@H]1C2(C)C
REMARK SMILES IDX 1 1 2 2 3 3 4 4 5 5 6 6 7 7 8 8 9 9 10 10 11 11
REMARK H PARENT
REMARK Flexibility Score: inf
ROOT
ATOM      1  C   UNL     1     -13.623 -16.374  26.411  1.00  0.00     0.040 C 
ATOM      2  C   UNL     1     -13.079 -16.744  27.755  1.00  0.00    -0.066 C 
ATOM      3  C   UNL     1     -13.250 -17.994  28.267  1.00  0.00     0.047 C 
ATOM      4  C   UNL     1     -12.631 -18.252  29.608  1.00  0.00     0.159 C 
ATOM      5  O   UNL     1     -12.685 -19.377  30.169  1.00  0.00    -0.295 OA
ATOM      6  C   UNL     1     -11.927 -17.052  30.244  1.00  0.00     0.067 C 
ATOM      7  C   UNL     1     -12.917 -15.884  30.045  1.00  0.00     0.021 C 
ATOM      8  C   UNL     1     -12.315 -15.729  28.631  1.00  0.00     0.022 C 
ATOM      9  C   UNL     1     -11.014 -16.388  29.174  1.00  0.00    -0.019 C 
ATOM     10  C   UNL     1     -10.204 -17.311  28.220  1.00  0.00     0.012 C 
ATOM     11  C   UNL     1     -10.041 -15.352  29.791  1.00  0.00     0.012 C 
ENDROOT
TORSDOF 0
ENDMDL
MODEL 5
REMARK VINA RESULT:    -5.416      1.696      3.513
REMARK INTER + INTRA:          -5.416
REMARK INTER:                  -5.416
REMARK INTRA:                   0.000
REMARK UNBOUND:                 0.000
REMARK SMILES CC1=CC(=O)[C@@H]2C[C@H]1C2(C)C
REMARK SMILES IDX 1 1 2 2 3 3 4 4 5 5 6 6 7 7 8 8 9 9 10 10 11 11
REMARK H PARENT
REMARK Flexibility Score: inf
ROOT
ATOM      1  C   UNL     1     -12.896 -15.394  28.528  1.00  0.00     0.040 C 
ATOM      2  C   UNL     1     -12.820 -16.346  29.680  1.00  0.00    -0.066 C 
ATOM      3  C   UNL     1     -12.954 -17.689  29.499  1.00  0.00     0.047 C 
ATOM      4  C   UNL     1     -12.827 -18.539  30.726  1.00  0.00     0.159 C 
ATOM      5  O   UNL     1     -12.893 -19.796  30.685  1.00  0.00    -0.295 OA
ATOM      6  C   UNL     1     -12.610 -17.774  32.033  1.00  0.00     0.067 C 
ATOM      7  C   UNL     1     -13.641 -16.626  31.973  1.00  0.00     0.021 C 
ATOM      8  C   UNL     1     -12.604 -15.854  31.127  1.00  0.00     0.022 C 
ATOM      9  C   UNL     1     -11.496 -16.712  31.806  1.00  0.00    -0.019 C 
ATOM     10  C   UNL     1     -10.255 -17.113  30.959  1.00  0.00     0.012 C 
ATOM     11  C   UNL     1     -10.998 -16.088  33.134  1.00  0.00     0.012 C 
ENDROOT
TORSDOF 0
ENDMDL
MODEL 6
REMARK VINA RESULT:    -5.408      2.157      3.443
REMARK INTER + INTRA:          -5.408
REMARK INTER:                  -5.408
REMARK INTRA:                   0.000
REMARK UNBOUND:                 0.000
REMARK SMILES CC1=CC(=O)[C@@H]2C[C@H]1C2(C)C
REMARK SMILES IDX 1 1 2 2 3 3 4 4 5 5 6 6 7 7 8 8 9 9 10 10 11 11
REMARK H PARENT
REMARK Flexibility Score: inf
ROOT
ATOM      1  C   UNL     1     -12.062 -19.881  31.649  1.00  0.00     0.040 C 
ATOM      2  C   UNL     1     -12.400 -18.475  31.261  1.00  0.00    -0.066 C 
ATOM      3  C   UNL     1     -13.303 -17.744  31.969  1.00  0.00     0.047 C 
ATOM      4  C   UNL     1     -13.533 -16.339  31.500  1.00  0.00     0.159 C 
ATOM      5  O   UNL     1     -14.314 -15.550  32.093  1.00  0.00    -0.295 OA
ATOM      6  C   UNL     1     -12.750 -15.930  30.252  1.00  0.00     0.067 C 
ATOM      7  C   UNL     1     -12.930 -17.122  29.286  1.00  0.00     0.021 C 
ATOM      8  C   UNL     1     -11.757 -17.794  30.035  1.00  0.00     0.022 C 
ATOM      9  C   UNL     1     -11.269 -16.370  30.430  1.00  0.00    -0.019 C 
ATOM     10  C   UNL     1     -10.605 -16.181  31.823  1.00  0.00     0.012 C 
ATOM     11  C   UNL     1     -10.337 -15.747  29.359  1.00  0.00     0.012 C 
ENDROOT
TORSDOF 0
ENDMDL
MODEL 7
REMARK VINA RESULT:    -5.303      1.660      2.519
REMARK INTER + INTRA:          -5.303
REMARK INTER:                  -5.303
REMARK INTRA:                   0.000
REMARK UNBOUND:                 0.000
REMARK SMILES CC1=CC(=O)[C@@H]2C[C@H]1C2(C)C
REMARK SMILES IDX 1 1 2 2 3 3 4 4 5 5 6 6 7 7 8 8 9 9 10 10 11 11
REMARK H PARENT
REMARK Flexibility Score: inf
ROOT
ATOM      1  C   UNL     1     -10.021 -15.751  32.714  1.00  0.00     0.040 C 
ATOM      2  C   UNL     1     -10.925 -16.517  31.800  1.00  0.00    -0.066 C 
ATOM      3  C   UNL     1     -11.612 -17.609  32.236  1.00  0.00     0.047 C 
ATOM      4  C   UNL     1     -12.508 -18.272  31.234  1.00  0.00     0.159 C 
ATOM      5  O   UNL     1     -13.225 -19.265  31.525  1.00  0.00    -0.295 OA
ATOM      6  C   UNL     1     -12.492 -17.657  29.834  1.00  0.00     0.067 C 
ATOM      7  C   UNL     1     -10.993 -17.446  29.531  1.00  0.00     0.021 C 
ATOM      8  C   UNL     1     -11.108 -16.122  30.319  1.00  0.00     0.022 C 
ATOM      9  C   UNL     1     -12.625 -16.113  29.970  1.00  0.00    -0.019 C 
ATOM     10  C   UNL     1     -13.619 -15.547  31.024  1.00  0.00     0.012 C 
ATOM     11  C   UNL     1     -12.913 -15.424  28.612  1.00  0.00     0.012 C 
ENDROOT
TORSDOF 0
ENDMDL
MODEL 8
REMARK VINA RESULT:    -5.271      1.498      2.318
REMARK INTER + INTRA:          -5.271
REMARK INTER:                  -5.271
REMARK INTRA:                   0.000
REMARK UNBOUND:                 0.000
REMARK SMILES CC1=CC(=O)[C@@H]2C[C@H]1C2(C)C
REMARK SMILES IDX 1 1 2 2 3 3 4 4 5 5 6 6 7 7 8 8 9 9 10 10 11 11
REMARK H PARENT
REMARK Flexibility Score: inf
ROOT
ATOM      1  C   UNL     1     -14.393 -16.140  32.737  1.00  0.00     0.040 C 
ATOM      2  C   UNL     1     -13.226 -16.858  32.136  1.00  0.00    -0.066 C 
ATOM      3  C   UNL     1     -13.201 -18.216  32.043  1.00  0.00     0.047 C 
ATOM      4  C   UNL     1     -11.991 -18.815  31.393  1.00  0.00     0.159 C 
ATOM      5  O   UNL     1     -11.867 -20.054  31.214  1.00  0.00    -0.295 OA
ATOM      6  C   UNL     1     -10.918 -17.814  30.963  1.00  0.00     0.067 C 
ATOM      7  C   UNL     1     -10.774 -16.869  32.175  1.00  0.00     0.021 C 
ATOM      8  C   UNL     1     -11.989 -16.100  31.610  1.00  0.00     0.022 C 
ATOM      9  C   UNL     1     -11.607 -16.645  30.203  1.00  0.00    -0.019 C 
ATOM     10  C   UNL     1     -12.754 -16.985  29.210  1.00  0.00     0.012 C 
ATOM     11  C   UNL     1     -10.587 -15.734  29.474  1.00  0.00     0.012 C 
ENDROOT
TORSDOF 0
ENDMDL
MODEL 9
REMARK VINA RESULT:    -5.219      2.076      3.765
REMARK INTER + INTRA:          -5.219
REMARK INTER:                  -5.219
REMARK INTRA:                   0.000
REMARK UNBOUND:                 0.000
REMARK SMILES CC1=CC(=O)[C@@H]2C[C@H]1C2(C)C
REMARK SMILES IDX 1 1 2 2 3 3 4 4 5 5 6 6 7 7 8 8 9 9 10 10 11 11
REMARK H PARENT
REMARK Flexibility Score: inf
ROOT
ATOM      1  C   UNL     1     -12.553 -20.276  31.270  1.00  0.00     0.040 C 
ATOM      2  C   UNL     1     -12.318 -18.835  30.943  1.00  0.00    -0.066 C 
ATOM      3  C   UNL     1     -12.889 -18.255  29.851  1.00  0.00     0.047 C 
ATOM      4  C   UNL     1     -12.603 -16.798  29.648  1.00  0.00     0.159 C 
ATOM      5  O   UNL     1     -13.102 -16.139  28.699  1.00  0.00    -0.295 OA
ATOM      6  C   UNL     1     -11.663 -16.166  30.677  1.00  0.00     0.067 C 
ATOM      7  C   UNL     1     -10.510 -17.184  30.809  1.00  0.00     0.021 C 
ATOM      8  C   UNL     1     -11.408 -17.942  31.812  1.00  0.00     0.022 C 
ATOM      9  C   UNL     1     -12.128 -16.592  32.099  1.00  0.00    -0.019 C 
ATOM     10  C   UNL     1     -13.653 -16.622  32.399  1.00  0.00     0.012 C 
ATOM     11  C   UNL     1     -11.429 -15.776  33.216  1.00  0.00     0.012 C 
ENDROOT
TORSDOF 0
ENDMDL
