MODEL 1
REMARK VINA RESULT:    -4.186      0.000      0.000
REMARK INTER + INTRA:          -6.551
REMARK INTER:                  -6.389
REMARK INTRA:                  -0.163
REMARK UNBOUND:                -0.163
REMARK SMILES CC1=CCC[C@@H](C)C(=O)C[C@H](C(C)C)C(=O)C1
REMARK SMILES IDX 8 1 9 2 6 3 7 4 5 5 4 6 3 7 2 8 1 9 10 11 11 12 15 13 16 14
REMARK SMILES IDX 17 15 12 17 13 18 14 19
REMARK H PARENT
REMARK Flexibility Score: 70.00
ROOT
ATOM      1  C   UNL     1     251.157 258.493 247.245  1.00  0.00     0.136 C 
ATOM      2  O   UNL     1     251.393 259.611 246.807  1.00  0.00    -0.299 OA
ENDROOT
BRANCH   1   3
ATOM      3  C   UNL     1     252.290 257.517 247.476  1.00  0.00     0.053 C 
ATOM      4  C   UNL     1     253.465 258.249 248.132  1.00  0.00     0.016 C 
BRANCH   3   5
ATOM      5  C   UNL     1     252.747 256.843 246.161  1.00  0.00     0.015 C 
BRANCH   5   6
ATOM      6  C   UNL     1     252.664 255.310 246.203  1.00  0.00     0.028 C 
BRANCH   6   7
ATOM      7  C   UNL     1     252.063 254.829 247.502  1.00  0.00    -0.028 C 
ATOM      8  C   UNL     1     250.754 254.561 247.717  1.00  0.00    -0.070 CG0
ATOM      9  C   UNL     1     250.345 254.095 249.091  1.00  0.00     0.039 C 
ATOM     10  G   UNL     1     249.681 254.743 246.661  1.00  0.00     0.000 G0
ENDBRANCH   6   7
ENDBRANCH   5   6
ENDBRANCH   3   5
ENDBRANCH   1   3
BRANCH   1  11
ATOM     11  C   UNL     1     249.735 258.128 247.586  1.00  0.00     0.087 C 
BRANCH  11  12
ATOM     12  C   UNL     1     249.061 257.313 246.452  1.00  0.00     0.066 C 
BRANCH  12  13
ATOM     13  C   UNL     1     248.759 255.910 246.958  1.00  0.00     0.140 C 
ATOM     14  O   UNL     1     247.718 255.703 247.567  1.00  0.00    -0.299 OA
BRANCH  13  15
ATOM     15  C   UNL     1     249.666 254.748 246.646  1.00  0.00     0.106 CG0
ATOM     16  G   UNL     1     250.719 254.574 247.724  1.00  0.00     0.000 G0
ENDBRANCH  13  15
ENDBRANCH  12  13
BRANCH  12  17
ATOM     17  C   UNL     1     247.755 257.995 245.925  1.00  0.00    -0.006 C 
ATOM     18  C   UNL     1     247.951 259.500 245.659  1.00  0.00     0.008 C 
ATOM     19  C   UNL     1     247.256 257.330 244.626  1.00  0.00     0.008 C 
ENDBRANCH  12  17
ENDBRANCH  11  12
ENDBRANCH   1  11
TORSDOF 1
ENDMDL
MODEL 2
REMARK VINA RESULT:    -4.180      1.763      2.278
REMARK INTER + INTRA:          -6.543
REMARK INTER:                  -6.444
REMARK INTRA:                  -0.098
REMARK UNBOUND:                -0.163
REMARK SMILES CC1=CCC[C@@H](C)C(=O)C[C@H](C(C)C)C(=O)C1
REMARK SMILES IDX 8 1 9 2 6 3 7 4 5 5 4 6 3 7 2 8 1 9 10 11 11 12 15 13 16 14
REMARK SMILES IDX 17 15 12 17 13 18 14 19
REMARK H PARENT
REMARK Flexibility Score: 70.00
ROOT
ATOM      1  C   UNL     1     250.987 258.480 247.187  1.00  0.00     0.136 C 
ATOM      2  O   UNL     1     250.321 259.325 246.605  1.00  0.00    -0.299 OA
ENDROOT
BRANCH   1   3
ATOM      3  C   UNL     1     252.399 258.803 247.630  1.00  0.00     0.053 C 
ATOM      4  C   UNL     1     253.239 259.186 246.409  1.00  0.00     0.016 C 
BRANCH   3   5
ATOM      5  C   UNL     1     253.053 257.619 248.379  1.00  0.00     0.015 C 
BRANCH   5   6
ATOM      6  C   UNL     1     254.049 256.830 247.516  1.00  0.00     0.028 C 
BRANCH   6   7
ATOM      7  C   UNL     1     253.889 255.343 247.716  1.00  0.00    -0.028 C 
ATOM      8  C   UNL     1     253.110 254.523 246.972  1.00  0.00    -0.070 CG0
ATOM      9  C   UNL     1     253.077 253.060 247.333  1.00  0.00     0.039 C 
ATOM     10  G   UNL     1     252.244 255.010 245.826  1.00  0.00     0.000 G0
ENDBRANCH   6   7
ENDBRANCH   5   6
ENDBRANCH   3   5
ENDBRANCH   1   3
BRANCH   1  11
ATOM     11  C   UNL     1     250.366 257.140 247.488  1.00  0.00     0.087 C 
BRANCH  11  12
ATOM     12  C   UNL     1     250.007 256.367 246.193  1.00  0.00     0.066 C 
BRANCH  12  13
ATOM     13  C   UNL     1     250.780 255.057 246.164  1.00  0.00     0.140 C 
ATOM     14  O   UNL     1     250.187 254.005 246.357  1.00  0.00    -0.299 OA
BRANCH  13  15
ATOM     15  C   UNL     1     252.245 255.015 245.809  1.00  0.00     0.106 CG0
ATOM     16  G   UNL     1     253.074 254.511 246.975  1.00  0.00     0.000 G0
ENDBRANCH  13  15
ENDBRANCH  12  13
BRANCH  12  17
ATOM     17  C   UNL     1     248.471 256.095 246.069  1.00  0.00    -0.006 C 
ATOM     18  C   UNL     1     247.750 256.199 247.427  1.00  0.00     0.008 C 
ATOM     19  C   UNL     1     247.802 257.076 245.085  1.00  0.00     0.008 C 
ENDBRANCH  12  17
ENDBRANCH  11  12
ENDBRANCH   1  11
TORSDOF 1
ENDMDL
MODEL 3
REMARK VINA RESULT:    -4.105      2.919      5.093
REMARK INTER + INTRA:          -6.428
REMARK INTER:                  -6.459
REMARK INTRA:                   0.031
REMARK UNBOUND:                -0.163
REMARK SMILES CC1=CCC[C@@H](C)C(=O)C[C@H](C(C)C)C(=O)C1
REMARK SMILES IDX 8 1 9 2 6 3 7 4 5 5 4 6 3 7 2 8 1 9 10 11 11 12 15 13 16 14
REMARK SMILES IDX 17 15 12 17 13 18 14 19
REMARK H PARENT
REMARK Flexibility Score: 70.00
ROOT
ATOM      1  C   UNL     1     251.906 257.056 246.604  1.00  0.00     0.136 C 
ATOM      2  O   UNL     1     251.054 257.569 247.316  1.00  0.00    -0.299 OA
ENDROOT
BRANCH   1   3
ATOM      3  C   UNL     1     251.641 255.712 245.958  1.00  0.00     0.053 C 
ATOM      4  C   UNL     1     250.329 255.137 246.501  1.00  0.00     0.016 C 
BRANCH   3   5
ATOM      5  C   UNL     1     252.801 254.718 246.200  1.00  0.00     0.015 C 
BRANCH   5   6
ATOM      6  C   UNL     1     253.096 254.480 247.688  1.00  0.00     0.028 C 
BRANCH   6   7
ATOM      7  C   UNL     1     254.568 254.636 247.987  1.00  0.00    -0.028 C 
ATOM      8  C   UNL     1     255.138 255.674 248.641  1.00  0.00    -0.070 CG0
ATOM      9  C   UNL     1     256.632 255.652 248.837  1.00  0.00     0.039 C 
ATOM     10  G   UNL     1     254.355 256.870 249.149  1.00  0.00     0.000 G0
ENDBRANCH   6   7
ENDBRANCH   5   6
ENDBRANCH   3   5
ENDBRANCH   1   3
BRANCH   1  11
ATOM     11  C   UNL     1     253.192 257.800 246.351  1.00  0.00     0.087 C 
BRANCH  11  12
ATOM     12  C   UNL     1     253.539 258.763 247.516  1.00  0.00     0.066 C 
BRANCH  12  13
ATOM     13  C   UNL     1     254.610 258.124 248.388  1.00  0.00     0.140 C 
ATOM     14  O   UNL     1     255.689 258.685 248.521  1.00  0.00    -0.299 OA
BRANCH  13  15
ATOM     15  C   UNL     1     254.342 256.863 249.168  1.00  0.00     0.106 CG0
ATOM     16  G   UNL     1     255.153 255.702 248.625  1.00  0.00     0.000 G0
ENDBRANCH  13  15
ENDBRANCH  12  13
BRANCH  12  17
ATOM     17  C   UNL     1     254.015 260.164 247.007  1.00  0.00    -0.006 C 
ATOM     18  C   UNL     1     254.410 260.139 245.518  1.00  0.00     0.008 C 
ATOM     19  C   UNL     1     252.925 261.236 247.205  1.00  0.00     0.008 C 
ENDBRANCH  12  17
ENDBRANCH  11  12
ENDBRANCH   1  11
TORSDOF 1
ENDMDL
MODEL 4
REMARK VINA RESULT:    -4.002      3.230      4.460
REMARK INTER + INTRA:          -6.270
REMARK INTER:                  -6.102
REMARK INTRA:                  -0.168
REMARK UNBOUND:                -0.163
REMARK SMILES CC1=CCC[C@@H](C)C(=O)C[C@H](C(C)C)C(=O)C1
REMARK SMILES IDX 8 1 9 2 6 3 7 4 5 5 4 6 3 7 2 8 1 9 10 11 11 12 15 13 16 14
REMARK SMILES IDX 17 15 12 17 13 18 14 19
REMARK H PARENT
REMARK Flexibility Score: 70.00
ROOT
ATOM      1  C   UNL     1     254.983 256.825 249.122  1.00  0.00     0.136 C 
ATOM      2  O   UNL     1     255.339 257.992 249.034  1.00  0.00    -0.299 OA
ENDROOT
BRANCH   1   3
ATOM      3  C   UNL     1     255.877 255.811 249.805  1.00  0.00     0.053 C 
ATOM      4  C   UNL     1     257.019 255.423 248.860  1.00  0.00     0.016 C 
BRANCH   3   5
ATOM      5  C   UNL     1     255.092 254.552 250.240  1.00  0.00     0.015 C 
BRANCH   5   6
ATOM      6  C   UNL     1     255.269 253.364 249.281  1.00  0.00     0.028 C 
BRANCH   6   7
ATOM      7  C   UNL     1     253.939 252.749 248.919  1.00  0.00    -0.028 C 
ATOM      8  C   UNL     1     253.279 252.922 247.750  1.00  0.00    -0.070 CG0
ATOM      9  C   UNL     1     251.953 252.226 247.578  1.00  0.00     0.039 C 
ATOM     10  G   UNL     1     253.787 253.808 246.629  1.00  0.00     0.000 G0
ENDBRANCH   6   7
ENDBRANCH   5   6
ENDBRANCH   3   5
ENDBRANCH   1   3
BRANCH   1  11
ATOM     11  C   UNL     1     253.633 256.431 248.581  1.00  0.00     0.087 C 
BRANCH  11  12
ATOM     12  C   UNL     1     253.612 256.424 247.031  1.00  0.00     0.066 C 
BRANCH  12  13
ATOM     13  C   UNL     1     253.007 255.115 246.546  1.00  0.00     0.140 C 
ATOM     14  O   UNL     1     251.908 255.123 246.010  1.00  0.00    -0.299 OA
BRANCH  13  15
ATOM     15  C   UNL     1     253.771 253.817 246.627  1.00  0.00     0.106 CG0
ATOM     16  G   UNL     1     253.253 252.949 247.758  1.00  0.00     0.000 G0
ENDBRANCH  13  15
ENDBRANCH  12  13
BRANCH  12  17
ATOM     17  C   UNL     1     252.822 257.639 246.441  1.00  0.00    -0.006 C 
ATOM     18  C   UNL     1     251.815 258.224 247.450  1.00  0.00     0.008 C 
ATOM     19  C   UNL     1     253.774 258.767 245.993  1.00  0.00     0.008 C 
ENDBRANCH  12  17
ENDBRANCH  11  12
ENDBRANCH   1  11
TORSDOF 1
ENDMDL
MODEL 5
REMARK VINA RESULT:    -3.976      2.007      4.484
REMARK INTER + INTRA:          -6.230
REMARK INTER:                  -6.342
REMARK INTRA:                   0.112
REMARK UNBOUND:                -0.163
REMARK SMILES CC1=CCC[C@@H](C)C(=O)C[C@H](C(C)C)C(=O)C1
REMARK SMILES IDX 8 1 9 2 6 3 7 4 5 5 4 6 3 7 2 8 1 9 10 11 11 12 15 13 16 14
REMARK SMILES IDX 17 15 12 17 13 18 14 19
REMARK H PARENT
REMARK Flexibility Score: 70.00
ROOT
ATOM      1  C   UNL     1     250.407 258.335 247.125  1.00  0.00     0.136 C 
ATOM      2  O   UNL     1     249.476 259.018 247.531  1.00  0.00    -0.299 OA
ENDROOT
BRANCH   1   3
ATOM      3  C   UNL     1     250.231 256.841 246.957  1.00  0.00     0.053 C 
ATOM      4  C   UNL     1     249.167 256.571 245.888  1.00  0.00     0.016 C 
BRANCH   3   5
ATOM      5  C   UNL     1     249.840 256.154 248.285  1.00  0.00     0.015 C 
BRANCH   5   6
ATOM      6  C   UNL     1     251.046 255.608 249.066  1.00  0.00     0.028 C 
BRANCH   6   7
ATOM      7  C   UNL     1     251.860 254.657 248.222  1.00  0.00    -0.028 C 
ATOM      8  C   UNL     1     253.117 254.876 247.772  1.00  0.00    -0.070 CG0
ATOM      9  C   UNL     1     253.764 253.804 246.934  1.00  0.00     0.039 C 
ATOM     10  G   UNL     1     253.886 256.156 248.036  1.00  0.00     0.000 G0
ENDBRANCH   6   7
ENDBRANCH   5   6
ENDBRANCH   3   5
ENDBRANCH   1   3
BRANCH   1  11
ATOM     11  C   UNL     1     251.703 259.011 246.759  1.00  0.00     0.087 C 
BRANCH  11  12
ATOM     12  C   UNL     1     252.869 258.559 247.676  1.00  0.00     0.066 C 
BRANCH  12  13
ATOM     13  C   UNL     1     253.467 257.274 247.123  1.00  0.00     0.140 C 
ATOM     14  O   UNL     1     253.666 257.172 245.921  1.00  0.00    -0.299 OA
BRANCH  13  15
ATOM     15  C   UNL     1     253.909 256.156 248.033  1.00  0.00     0.106 CG0
ATOM     16  G   UNL     1     253.122 254.888 247.761  1.00  0.00     0.000 G0
ENDBRANCH  13  15
ENDBRANCH  12  13
BRANCH  12  17
ATOM     17  C   UNL     1     253.974 259.656 247.819  1.00  0.00    -0.006 C 
ATOM     18  C   UNL     1     253.413 261.077 247.612  1.00  0.00     0.008 C 
ATOM     19  C   UNL     1     254.654 259.596 249.201  1.00  0.00     0.008 C 
ENDBRANCH  12  17
ENDBRANCH  11  12
ENDBRANCH   1  11
TORSDOF 1
ENDMDL
MODEL 6
REMARK VINA RESULT:    -3.952      2.331      3.946
REMARK INTER + INTRA:          -6.194
REMARK INTER:                  -6.038
REMARK INTRA:                  -0.156
REMARK UNBOUND:                -0.163
REMARK SMILES CC1=CCC[C@@H](C)C(=O)C[C@H](C(C)C)C(=O)C1
REMARK SMILES IDX 8 1 9 2 6 3 7 4 5 5 4 6 3 7 2 8 1 9 10 11 11 12 15 13 16 14
REMARK SMILES IDX 17 15 12 17 13 18 14 19
REMARK H PARENT
REMARK Flexibility Score: 70.00
ROOT
ATOM      1  C   UNL     1     254.488 257.095 248.935  1.00  0.00     0.136 C 
ATOM      2  O   UNL     1     255.662 257.379 249.134  1.00  0.00    -0.299 OA
ENDROOT
BRANCH   1   3
ATOM      3  C   UNL     1     254.040 255.650 248.994  1.00  0.00     0.053 C 
ATOM      4  C   UNL     1     254.576 255.004 250.276  1.00  0.00     0.016 C 
BRANCH   3   5
ATOM      5  C   UNL     1     254.508 254.850 247.757  1.00  0.00     0.015 C 
BRANCH   5   6
ATOM      6  C   UNL     1     253.347 254.315 246.905  1.00  0.00     0.028 C 
BRANCH   6   7
ATOM      7  C   UNL     1     252.024 254.484 247.612  1.00  0.00    -0.028 C 
ATOM      8  C   UNL     1     251.116 255.458 247.370  1.00  0.00    -0.070 CG0
ATOM      9  C   UNL     1     249.851 255.464 248.189  1.00  0.00     0.039 C 
ATOM     10  G   UNL     1     251.327 256.559 246.348  1.00  0.00     0.000 G0
ENDBRANCH   6   7
ENDBRANCH   5   6
ENDBRANCH   3   5
ENDBRANCH   1   3
BRANCH   1  11
ATOM     11  C   UNL     1     253.502 258.204 248.674  1.00  0.00     0.087 C 
BRANCH  11  12
ATOM     12  C   UNL     1     253.136 258.309 247.171  1.00  0.00     0.066 C 
BRANCH  12  13
ATOM     13  C   UNL     1     251.689 257.880 246.979  1.00  0.00     0.140 C 
ATOM     14  O   UNL     1     250.789 258.649 247.286  1.00  0.00    -0.299 OA
BRANCH  13  15
ATOM     15  C   UNL     1     251.337 256.564 246.332  1.00  0.00     0.106 CG0
ATOM     16  G   UNL     1     251.111 255.487 247.376  1.00  0.00     0.000 G0
ENDBRANCH  13  15
ENDBRANCH  12  13
BRANCH  12  17
ATOM     17  C   UNL     1     253.356 259.751 246.605  1.00  0.00    -0.006 C 
ATOM     18  C   UNL     1     253.708 260.764 247.712  1.00  0.00     0.008 C 
ATOM     19  C   UNL     1     254.476 259.777 245.546  1.00  0.00     0.008 C 
ENDBRANCH  12  17
ENDBRANCH  11  12
ENDBRANCH   1  11
TORSDOF 1
ENDMDL
MODEL 7
REMARK VINA RESULT:    -3.905      6.550      9.360
REMARK INTER + INTRA:          -6.123
REMARK INTER:                  -6.173
REMARK INTRA:                   0.050
REMARK UNBOUND:                -0.163
REMARK SMILES CC1=CCC[C@@H](C)C(=O)C[C@H](C(C)C)C(=O)C1
REMARK SMILES IDX 8 1 9 2 6 3 7 4 5 5 4 6 3 7 2 8 1 9 10 11 11 12 15 13 16 14
REMARK SMILES IDX 17 15 12 17 13 18 14 19
REMARK H PARENT
REMARK Flexibility Score: 70.00
ROOT
ATOM      1  C   UNL     1     257.050 261.294 249.582  1.00  0.00     0.136 C 
ATOM      2  O   UNL     1     256.065 261.470 250.287  1.00  0.00    -0.299 OA
ENDROOT
BRANCH   1   3
ATOM      3  C   UNL     1     258.350 261.998 249.910  1.00  0.00     0.053 C 
ATOM      4  C   UNL     1     258.260 262.601 251.315  1.00  0.00     0.016 C 
BRANCH   3   5
ATOM      5  C   UNL     1     258.686 263.098 248.877  1.00  0.00     0.015 C 
BRANCH   5   6
ATOM      6  C   UNL     1     259.880 262.742 247.978  1.00  0.00     0.028 C 
BRANCH   6   7
ATOM      7  C   UNL     1     259.601 263.085 246.535  1.00  0.00    -0.028 C 
ATOM      8  C   UNL     1     258.922 262.314 245.655  1.00  0.00    -0.070 CG0
ATOM      9  C   UNL     1     258.752 262.829 244.248  1.00  0.00     0.039 C 
ATOM     10  G   UNL     1     258.360 260.949 246.003  1.00  0.00     0.000 G0
ENDBRANCH   6   7
ENDBRANCH   5   6
ENDBRANCH   3   5
ENDBRANCH   1   3
BRANCH   1  11
ATOM     11  C   UNL     1     256.954 260.340 248.419  1.00  0.00     0.087 C 
BRANCH  11  12
ATOM     12  C   UNL     1     256.045 260.894 247.292  1.00  0.00     0.066 C 
BRANCH  12  13
ATOM     13  C   UNL     1     256.840 260.957 245.996  1.00  0.00     0.140 C 
ATOM     14  O   UNL     1     256.249 261.106 244.936  1.00  0.00    -0.299 OA
BRANCH  13  15
ATOM     15  C   UNL     1     258.348 260.935 245.995  1.00  0.00     0.106 CG0
ATOM     16  G   UNL     1     258.913 262.305 245.673  1.00  0.00     0.000 G0
ENDBRANCH  13  15
ENDBRANCH  12  13
BRANCH  12  17
ATOM     17  C   UNL     1     254.752 260.036 247.096  1.00  0.00    -0.006 C 
ATOM     18  C   UNL     1     254.693 258.841 248.067  1.00  0.00     0.008 C 
ATOM     19  C   UNL     1     253.478 260.884 247.288  1.00  0.00     0.008 C 
ENDBRANCH  12  17
ENDBRANCH  11  12
ENDBRANCH   1  11
TORSDOF 1
ENDMDL
MODEL 8
REMARK VINA RESULT:    -3.775      2.016      4.384
REMARK INTER + INTRA:          -5.924
REMARK INTER:                  -5.587
REMARK INTRA:                  -0.337
REMARK UNBOUND:                -0.163
REMARK SMILES CC1=CCC[C@@H](C)C(=O)C[C@H](C(C)C)C(=O)C1
REMARK SMILES IDX 8 1 9 2 6 3 7 4 5 5 4 6 3 7 2 8 1 9 10 11 11 12 15 13 16 14
REMARK SMILES IDX 17 15 12 17 13 18 14 19
REMARK H PARENT
REMARK Flexibility Score: 70.00
ROOT
ATOM      1  C   UNL     1     250.276 256.960 246.534  1.00  0.00     0.136 C 
ATOM      2  O   UNL     1     250.232 258.150 246.814  1.00  0.00    -0.299 OA
ENDROOT
BRANCH   1   3
ATOM      3  C   UNL     1     249.002 256.143 246.501  1.00  0.00     0.053 C 
ATOM      4  C   UNL     1     248.003 256.799 245.543  1.00  0.00     0.016 C 
BRANCH   3   5
ATOM      5  C   UNL     1     248.376 255.995 247.907  1.00  0.00     0.015 C 
BRANCH   5   6
ATOM      6  C   UNL     1     249.057 254.918 248.765  1.00  0.00     0.028 C 
BRANCH   6   7
ATOM      7  C   UNL     1     249.378 253.689 247.950  1.00  0.00    -0.028 C 
ATOM      8  C   UNL     1     250.599 253.118 247.826  1.00  0.00    -0.070 CG0
ATOM      9  C   UNL     1     250.721 251.893 246.957  1.00  0.00     0.039 C 
ATOM     10  G   UNL     1     251.848 253.670 248.485  1.00  0.00     0.000 G0
ENDBRANCH   6   7
ENDBRANCH   5   6
ENDBRANCH   3   5
ENDBRANCH   1   3
BRANCH   1  11
ATOM     11  C   UNL     1     251.606 256.340 246.186  1.00  0.00     0.087 C 
BRANCH  11  12
ATOM     12  C   UNL     1     252.444 256.025 247.451  1.00  0.00     0.066 C 
BRANCH  12  13
ATOM     13  C   UNL     1     252.664 254.522 247.542  1.00  0.00     0.140 C 
ATOM     14  O   UNL     1     253.559 254.006 246.887  1.00  0.00    -0.299 OA
BRANCH  13  15
ATOM     15  C   UNL     1     251.866 253.665 248.491  1.00  0.00     0.106 CG0
ATOM     16  G   UNL     1     250.612 253.133 247.822  1.00  0.00     0.000 G0
ENDBRANCH  13  15
ENDBRANCH  12  13
BRANCH  12  17
ATOM     17  C   UNL     1     253.816 256.777 247.459  1.00  0.00    -0.006 C 
ATOM     18  C   UNL     1     253.798 258.029 246.561  1.00  0.00     0.008 C 
ATOM     19  C   UNL     1     254.217 257.205 248.885  1.00  0.00     0.008 C 
ENDBRANCH  12  17
ENDBRANCH  11  12
ENDBRANCH   1  11
TORSDOF 1
ENDMDL
MODEL 9
REMARK VINA RESULT:    -3.752      2.548      5.009
REMARK INTER + INTRA:          -5.890
REMARK INTER:                  -5.769
REMARK INTRA:                  -0.120
REMARK UNBOUND:                -0.163
REMARK SMILES CC1=CCC[C@@H](C)C(=O)C[C@H](C(C)C)C(=O)C1
REMARK SMILES IDX 8 1 9 2 6 3 7 4 5 5 4 6 3 7 2 8 1 9 10 11 11 12 15 13 16 14
REMARK SMILES IDX 17 15 12 17 13 18 14 19
REMARK H PARENT
REMARK Flexibility Score: 70.00
ROOT
ATOM      1  C   UNL     1     253.953 257.694 247.629  1.00  0.00     0.136 C 
ATOM      2  O   UNL     1     254.252 258.168 248.717  1.00  0.00    -0.299 OA
ENDROOT
BRANCH   1   3
ATOM      3  C   UNL     1     253.118 258.501 246.657  1.00  0.00     0.053 C 
ATOM      4  C   UNL     1     253.965 259.645 246.089  1.00  0.00     0.016 C 
BRANCH   3   5
ATOM      5  C   UNL     1     251.840 259.061 247.322  1.00  0.00     0.015 C 
BRANCH   5   6
ATOM      6  C   UNL     1     250.872 257.967 247.795  1.00  0.00     0.028 C 
BRANCH   6   7
ATOM      7  C   UNL     1     250.559 256.993 246.685  1.00  0.00    -0.028 C 
ATOM      8  C   UNL     1     250.751 255.655 246.728  1.00  0.00    -0.070 CG0
ATOM      9  C   UNL     1     250.381 254.848 245.510  1.00  0.00     0.039 C 
ATOM     10  G   UNL     1     251.353 254.937 247.920  1.00  0.00     0.000 G0
ENDBRANCH   6   7
ENDBRANCH   5   6
ENDBRANCH   3   5
ENDBRANCH   1   3
BRANCH   1  11
ATOM     11  C   UNL     1     254.462 256.323 247.264  1.00  0.00     0.087 C 
BRANCH  11  12
ATOM     12  C   UNL     1     253.964 255.240 248.257  1.00  0.00     0.066 C 
BRANCH  12  13
ATOM     13  C   UNL     1     252.783 254.506 247.642  1.00  0.00     0.140 C 
ATOM     14  O   UNL     1     252.983 253.502 246.972  1.00  0.00    -0.299 OA
BRANCH  13  15
ATOM     15  C   UNL     1     251.362 254.930 247.915  1.00  0.00     0.106 CG0
ATOM     16  G   UNL     1     250.765 255.640 246.715  1.00  0.00     0.000 G0
ENDBRANCH  13  15
ENDBRANCH  12  13
BRANCH  12  17
ATOM     17  C   UNL     1     255.092 254.229 248.647  1.00  0.00    -0.006 C 
ATOM     18  C   UNL     1     256.440 254.575 247.985  1.00  0.00     0.008 C 
ATOM     19  C   UNL     1     255.298 254.174 250.174  1.00  0.00     0.008 C 
ENDBRANCH  12  17
ENDBRANCH  11  12
ENDBRANCH   1  11
TORSDOF 1
ENDMDL
