MODEL 1
REMARK VINA RESULT:    -5.485      0.000      0.000
REMARK INTER + INTRA:          -6.701
REMARK INTER:                  -6.607
REMARK INTRA:                  -0.095
REMARK UNBOUND:                -0.095
REMARK SMILES OCCc1ccc(O)c(O)c1
REMARK SMILES IDX 3 1 4 2 5 3 6 4 7 5 11 6 9 7 8 8 10 10 2 12 1 13
REMARK H PARENT 8 9 10 11 1 14
REMARK Flexibility Score: inf
ROOT
ATOM      1  C   UNL     1      73.455  42.210  -3.468  1.00  0.00     0.064 C 
ENDROOT
BRANCH   1   2
ATOM      2  C   UNL     1      72.962  41.227  -4.497  1.00  0.00    -0.042 A 
ATOM      3  C   UNL     1      71.731  40.578  -4.323  1.00  0.00     0.008 A 
ATOM      4  C   UNL     1      71.289  39.642  -5.263  1.00  0.00     0.050 A 
ATOM      5  C   UNL     1      72.077  39.338  -6.381  1.00  0.00     0.157 A 
ATOM      6  C   UNL     1      73.757  40.910  -5.611  1.00  0.00     0.054 A 
ATOM      7  C   UNL     1      73.314  39.972  -6.554  1.00  0.00     0.157 A 
BRANCH   5   8
ATOM      8  O   UNL     1      71.640  38.406  -7.321  1.00  0.00    -0.504 OA
ATOM      9  H   UNL     1      70.759  37.917  -7.212  1.00  0.00     0.293 HD
ENDBRANCH   5   8
BRANCH   7  10
ATOM     10  O   UNL     1      74.099  39.663  -7.664  1.00  0.00    -0.504 OA
ATOM     11  H   UNL     1      74.638  38.805  -7.710  1.00  0.00     0.293 HD
ENDBRANCH   7  10
ENDBRANCH   1   2
BRANCH   1  12
ATOM     12  C   UNL     1      74.343  43.273  -4.117  1.00  0.00     0.161 C 
BRANCH  12  13
ATOM     13  O   UNL     1      73.573  44.377  -4.506  1.00  0.00    -0.396 OA
ATOM     14  H   UNL     1      74.012  45.180  -4.122  1.00  0.00     0.210 HD
ENDBRANCH  12  13
ENDBRANCH   1  12
TORSDOF 5
ENDMDL
MODEL 2
REMARK VINA RESULT:    -5.338      2.052      4.638
REMARK INTER + INTRA:          -6.525
REMARK INTER:                  -6.432
REMARK INTRA:                  -0.093
REMARK UNBOUND:                -0.095
REMARK SMILES OCCc1ccc(O)c(O)c1
REMARK SMILES IDX 3 1 4 2 5 3 6 4 7 5 11 6 9 7 8 8 10 10 2 12 1 13
REMARK H PARENT 8 9 10 11 1 14
REMARK Flexibility Score: inf
ROOT
ATOM      1  C   UNL     1      72.047  38.651  -7.945  1.00  0.00     0.064 C 
ENDROOT
BRANCH   1   2
ATOM      2  C   UNL     1      72.386  39.497  -6.746  1.00  0.00    -0.042 A 
ATOM      3  C   UNL     1      73.632  40.135  -6.661  1.00  0.00     0.008 A 
ATOM      4  C   UNL     1      73.959  40.895  -5.533  1.00  0.00     0.050 A 
ATOM      5  C   UNL     1      73.048  41.016  -4.476  1.00  0.00     0.157 A 
ATOM      6  C   UNL     1      71.480  39.608  -5.679  1.00  0.00     0.054 A 
ATOM      7  C   UNL     1      71.807  40.370  -4.548  1.00  0.00     0.157 A 
BRANCH   5   8
ATOM      8  O   UNL     1      73.369  41.773  -3.350  1.00  0.00    -0.504 OA
ATOM      9  H   UNL     1      73.410  42.784  -3.386  1.00  0.00     0.293 HD
ENDBRANCH   5   8
BRANCH   7  10
ATOM     10  O   UNL     1      70.904  40.487  -3.492  1.00  0.00    -0.504 OA
ATOM     11  H   UNL     1      70.335  41.317  -3.370  1.00  0.00     0.293 HD
ENDBRANCH   7  10
ENDBRANCH   1   2
BRANCH   1  12
ATOM     12  C   UNL     1      71.698  39.531  -9.147  1.00  0.00     0.161 C 
BRANCH  12  13
ATOM     13  O   UNL     1      70.379  39.992  -9.044  1.00  0.00    -0.396 OA
ATOM     14  H   UNL     1      70.220  40.577  -9.829  1.00  0.00     0.210 HD
ENDBRANCH  12  13
ENDBRANCH   1  12
TORSDOF 5
ENDMDL
MODEL 3
REMARK VINA RESULT:    -5.286      1.633      2.750
REMARK INTER + INTRA:          -6.462
REMARK INTER:                  -6.372
REMARK INTRA:                  -0.090
REMARK UNBOUND:                -0.095
REMARK SMILES OCCc1ccc(O)c(O)c1
REMARK SMILES IDX 3 1 4 2 5 3 6 4 7 5 11 6 9 7 8 8 10 10 2 12 1 13
REMARK H PARENT 8 9 10 11 1 14
REMARK Flexibility Score: inf
ROOT
ATOM      1  C   UNL     1      73.237  43.351  -2.185  1.00  0.00     0.064 C 
ENDROOT
BRANCH   1   2
ATOM      2  C   UNL     1      73.362  42.494  -3.417  1.00  0.00    -0.042 A 
ATOM      3  C   UNL     1      74.345  42.773  -4.377  1.00  0.00     0.008 A 
ATOM      4  C   UNL     1      74.441  41.997  -5.536  1.00  0.00     0.050 A 
ATOM      5  C   UNL     1      73.547  40.938  -5.751  1.00  0.00     0.157 A 
ATOM      6  C   UNL     1      72.459  41.442  -3.641  1.00  0.00     0.054 A 
ATOM      7  C   UNL     1      72.554  40.662  -4.803  1.00  0.00     0.157 A 
BRANCH   5   8
ATOM      8  O   UNL     1      73.639  40.160  -6.903  1.00  0.00    -0.504 OA
ATOM      9  H   UNL     1      73.885  40.566  -7.798  1.00  0.00     0.293 HD
ENDBRANCH   5   8
BRANCH   7  10
ATOM     10  O   UNL     1      71.662  39.612  -5.022  1.00  0.00    -0.504 OA
ATOM     11  H   UNL     1      71.493  38.904  -4.317  1.00  0.00     0.293 HD
ENDBRANCH   7  10
ENDBRANCH   1   2
BRANCH   1  12
ATOM     12  C   UNL     1      73.419  44.830  -2.535  1.00  0.00     0.161 C 
BRANCH  12  13
ATOM     13  O   UNL     1      74.501  45.366  -1.824  1.00  0.00    -0.396 OA
ATOM     14  H   UNL     1      75.302  44.844  -2.087  1.00  0.00     0.210 HD
ENDBRANCH  12  13
ENDBRANCH   1  12
TORSDOF 5
ENDMDL
MODEL 4
REMARK VINA RESULT:    -5.255      3.229      4.900
REMARK INTER + INTRA:          -6.425
REMARK INTER:                  -6.369
REMARK INTRA:                  -0.057
REMARK UNBOUND:                -0.095
REMARK SMILES OCCc1ccc(O)c(O)c1
REMARK SMILES IDX 3 1 4 2 5 3 6 4 7 5 11 6 9 7 8 8 10 10 2 12 1 13
REMARK H PARENT 8 9 10 11 1 14
REMARK Flexibility Score: inf
ROOT
ATOM      1  C   UNL     1      72.176  44.746  -0.667  1.00  0.00     0.064 C 
ENDROOT
BRANCH   1   2
ATOM      2  C   UNL     1      72.905  44.264  -1.894  1.00  0.00    -0.042 A 
ATOM      3  C   UNL     1      73.602  45.172  -2.704  1.00  0.00     0.008 A 
ATOM      4  C   UNL     1      74.252  44.730  -3.861  1.00  0.00     0.050 A 
ATOM      5  C   UNL     1      74.203  43.378  -4.224  1.00  0.00     0.157 A 
ATOM      6  C   UNL     1      72.845  42.912  -2.268  1.00  0.00     0.054 A 
ATOM      7  C   UNL     1      73.497  42.467  -3.427  1.00  0.00     0.157 A 
BRANCH   5   8
ATOM      8  O   UNL     1      74.851  42.932  -5.375  1.00  0.00    -0.504 OA
ATOM      9  H   UNL     1      75.845  42.738  -5.382  1.00  0.00     0.293 HD
ENDBRANCH   5   8
BRANCH   7  10
ATOM     10  O   UNL     1      73.444  41.123  -3.794  1.00  0.00    -0.504 OA
ATOM     11  H   UNL     1      73.960  40.414  -3.285  1.00  0.00     0.293 HD
ENDBRANCH   7  10
ENDBRANCH   1   2
BRANCH   1  12
ATOM     12  C   UNL     1      71.046  45.703  -1.051  1.00  0.00     0.161 C 
BRANCH  12  13
ATOM     13  O   UNL     1      69.910  45.451  -0.269  1.00  0.00    -0.396 OA
ATOM     14  H   UNL     1      69.434  46.316  -0.171  1.00  0.00     0.210 HD
ENDBRANCH  12  13
ENDBRANCH   1  12
TORSDOF 5
ENDMDL
MODEL 5
REMARK VINA RESULT:    -5.244      1.807      4.197
REMARK INTER + INTRA:          -6.412
REMARK INTER:                  -6.322
REMARK INTRA:                  -0.090
REMARK UNBOUND:                -0.095
REMARK SMILES OCCc1ccc(O)c(O)c1
REMARK SMILES IDX 3 1 4 2 5 3 6 4 7 5 11 6 9 7 8 8 10 10 2 12 1 13
REMARK H PARENT 8 9 10 11 1 14
REMARK Flexibility Score: inf
ROOT
ATOM      1  C   UNL     1      72.220  38.639  -7.844  1.00  0.00     0.064 C 
ENDROOT
BRANCH   1   2
ATOM      2  C   UNL     1      72.417  39.484  -6.613  1.00  0.00    -0.042 A 
ATOM      3  C   UNL     1      71.404  39.572  -5.646  1.00  0.00     0.008 A 
ATOM      4  C   UNL     1      71.574  40.381  -4.519  1.00  0.00     0.050 A 
ATOM      5  C   UNL     1      72.754  41.119  -4.352  1.00  0.00     0.157 A 
ATOM      6  C   UNL     1      73.592  40.235  -6.450  1.00  0.00     0.054 A 
ATOM      7  C   UNL     1      73.764  41.047  -5.320  1.00  0.00     0.157 A 
BRANCH   5   8
ATOM      8  O   UNL     1      72.929  41.926  -3.229  1.00  0.00    -0.504 OA
ATOM      9  H   UNL     1      73.852  42.154  -2.879  1.00  0.00     0.293 HD
ENDBRANCH   5   8
BRANCH   7  10
ATOM     10  O   UNL     1      74.934  41.787  -5.155  1.00  0.00    -0.504 OA
ATOM     11  H   UNL     1      74.910  42.782  -4.965  1.00  0.00     0.293 HD
ENDBRANCH   7  10
ENDBRANCH   1   2
BRANCH   1  12
ATOM     12  C   UNL     1      71.900  39.516  -9.056  1.00  0.00     0.161 C 
BRANCH  12  13
ATOM     13  O   UNL     1      70.548  39.888  -9.042  1.00  0.00    -0.396 OA
ATOM     14  H   UNL     1      70.154  39.496  -8.221  1.00  0.00     0.210 HD
ENDBRANCH  12  13
ENDBRANCH   1  12
TORSDOF 5
ENDMDL
MODEL 6
REMARK VINA RESULT:    -5.126      1.227      2.252
REMARK INTER + INTRA:          -6.270
REMARK INTER:                  -6.179
REMARK INTRA:                  -0.090
REMARK UNBOUND:                -0.095
REMARK SMILES OCCc1ccc(O)c(O)c1
REMARK SMILES IDX 3 1 4 2 5 3 6 4 7 5 11 6 9 7 8 8 10 10 2 12 1 13
REMARK H PARENT 8 9 10 11 1 14
REMARK Flexibility Score: inf
ROOT
ATOM      1  C   UNL     1      74.814  42.223  -5.272  1.00  0.00     0.064 C 
ENDROOT
BRANCH   1   2
ATOM      2  C   UNL     1      74.030  41.121  -5.936  1.00  0.00    -0.042 A 
ATOM      3  C   UNL     1      74.392  40.665  -7.212  1.00  0.00     0.008 A 
ATOM      4  C   UNL     1      73.645  39.665  -7.842  1.00  0.00     0.050 A 
ATOM      5  C   UNL     1      72.522  39.118  -7.206  1.00  0.00     0.157 A 
ATOM      6  C   UNL     1      72.896  40.582  -5.308  1.00  0.00     0.054 A 
ATOM      7  C   UNL     1      72.146  39.578  -5.938  1.00  0.00     0.157 A 
BRANCH   5   8
ATOM      8  O   UNL     1      71.775  38.120  -7.829  1.00  0.00    -0.504 OA
ATOM      9  H   UNL     1      71.909  37.141  -7.607  1.00  0.00     0.293 HD
ENDBRANCH   5   8
BRANCH   7  10
ATOM     10  O   UNL     1      71.024  39.037  -5.311  1.00  0.00    -0.504 OA
ATOM     11  H   UNL     1      71.098  38.242  -4.685  1.00  0.00     0.293 HD
ENDBRANCH   7  10
ENDBRANCH   1   2
BRANCH   1  12
ATOM     12  C   UNL     1      73.994  42.873  -4.156  1.00  0.00     0.161 C 
BRANCH  12  13
ATOM     13  O   UNL     1      73.630  44.177  -4.518  1.00  0.00    -0.396 OA
ATOM     14  H   UNL     1      73.312  44.623  -3.691  1.00  0.00     0.210 HD
ENDBRANCH  12  13
ENDBRANCH   1  12
TORSDOF 5
ENDMDL
MODEL 7
REMARK VINA RESULT:    -5.107      1.622      2.115
REMARK INTER + INTRA:          -6.247
REMARK INTER:                  -6.165
REMARK INTRA:                  -0.081
REMARK UNBOUND:                -0.095
REMARK SMILES OCCc1ccc(O)c(O)c1
REMARK SMILES IDX 3 1 4 2 5 3 6 4 7 5 11 6 9 7 8 8 10 10 2 12 1 13
REMARK H PARENT 8 9 10 11 1 14
REMARK Flexibility Score: inf
ROOT
ATOM      1  C   UNL     1      73.205  43.408  -2.442  1.00  0.00     0.064 C 
ENDROOT
BRANCH   1   2
ATOM      2  C   UNL     1      73.238  42.510  -3.651  1.00  0.00    -0.042 A 
ATOM      3  C   UNL     1      72.386  41.398  -3.729  1.00  0.00     0.008 A 
ATOM      4  C   UNL     1      72.438  40.547  -4.836  1.00  0.00     0.050 A 
ATOM      5  C   UNL     1      73.350  40.792  -5.872  1.00  0.00     0.157 A 
ATOM      6  C   UNL     1      74.160  42.746  -4.683  1.00  0.00     0.054 A 
ATOM      7  C   UNL     1      74.213  41.892  -5.795  1.00  0.00     0.157 A 
BRANCH   5   8
ATOM      8  O   UNL     1      73.405  39.947  -6.979  1.00  0.00    -0.504 OA
ATOM      9  H   UNL     1      73.921  40.198  -7.813  1.00  0.00     0.293 HD
ENDBRANCH   5   8
BRANCH   7  10
ATOM     10  O   UNL     1      75.123  42.130  -6.824  1.00  0.00    -0.504 OA
ATOM     11  H   UNL     1      75.260  41.464  -7.576  1.00  0.00     0.293 HD
ENDBRANCH   7  10
ENDBRANCH   1   2
BRANCH   1  12
ATOM     12  C   UNL     1      73.581  44.841  -2.823  1.00  0.00     0.161 C 
BRANCH  12  13
ATOM     13  O   UNL     1      74.427  45.395  -1.852  1.00  0.00    -0.396 OA
ATOM     14  H   UNL     1      74.828  46.209  -2.255  1.00  0.00     0.210 HD
ENDBRANCH  12  13
ENDBRANCH   1  12
TORSDOF 5
ENDMDL
MODEL 8
REMARK VINA RESULT:    -5.106      2.110      5.770
REMARK INTER + INTRA:          -6.245
REMARK INTER:                  -6.158
REMARK INTRA:                  -0.088
REMARK UNBOUND:                -0.095
REMARK SMILES OCCc1ccc(O)c(O)c1
REMARK SMILES IDX 3 1 4 2 5 3 6 4 7 5 11 6 9 7 8 8 10 10 2 12 1 13
REMARK H PARENT 8 9 10 11 1 14
REMARK Flexibility Score: inf
ROOT
ATOM      1  C   UNL     1      72.687  41.224  -3.995  1.00  0.00     0.064 C 
ENDROOT
BRANCH   1   2
ATOM      2  C   UNL     1      73.148  42.586  -3.546  1.00  0.00    -0.042 A 
ATOM      3  C   UNL     1      73.935  43.381  -4.392  1.00  0.00     0.008 A 
ATOM      4  C   UNL     1      74.391  44.631  -3.963  1.00  0.00     0.050 A 
ATOM      5  C   UNL     1      74.072  45.095  -2.679  1.00  0.00     0.157 A 
ATOM      6  C   UNL     1      72.843  43.047  -2.255  1.00  0.00     0.054 A 
ATOM      7  C   UNL     1      73.299  44.301  -1.823  1.00  0.00     0.157 A 
BRANCH   5   8
ATOM      8  O   UNL     1      74.523  46.341  -2.247  1.00  0.00    -0.504 OA
ATOM      9  H   UNL     1      74.284  47.192  -2.743  1.00  0.00     0.293 HD
ENDBRANCH   5   8
BRANCH   7  10
ATOM     10  O   UNL     1      72.989  44.762  -0.544  1.00  0.00    -0.504 OA
ATOM     11  H   UNL     1      73.424  44.366   0.281  1.00  0.00     0.293 HD
ENDBRANCH   7  10
ENDBRANCH   1   2
BRANCH   1  12
ATOM     12  C   UNL     1      73.446  40.782  -5.247  1.00  0.00     0.161 C 
BRANCH  12  13
ATOM     13  O   UNL     1      72.556  40.257  -6.194  1.00  0.00    -0.396 OA
ATOM     14  H   UNL     1      71.693  40.729  -6.065  1.00  0.00     0.210 HD
ENDBRANCH  12  13
ENDBRANCH   1  12
TORSDOF 5
ENDMDL
MODEL 9
REMARK VINA RESULT:    -4.719      2.402      5.135
REMARK INTER + INTRA:          -5.780
REMARK INTER:                  -5.697
REMARK INTRA:                  -0.082
REMARK UNBOUND:                -0.095
REMARK SMILES OCCc1ccc(O)c(O)c1
REMARK SMILES IDX 3 1 4 2 5 3 6 4 7 5 11 6 9 7 8 8 10 10 2 12 1 13
REMARK H PARENT 8 9 10 11 1 14
REMARK Flexibility Score: inf
ROOT
ATOM      1  C   UNL     1      74.225  41.417  -5.270  1.00  0.00     0.064 C 
ENDROOT
BRANCH   1   2
ATOM      2  C   UNL     1      73.888  42.426  -4.204  1.00  0.00    -0.042 A 
ATOM      3  C   UNL     1      72.970  42.107  -3.192  1.00  0.00     0.008 A 
ATOM      4  C   UNL     1      72.634  43.055  -2.221  1.00  0.00     0.050 A 
ATOM      5  C   UNL     1      73.203  44.335  -2.257  1.00  0.00     0.157 A 
ATOM      6  C   UNL     1      74.446  43.714  -4.246  1.00  0.00     0.054 A 
ATOM      7  C   UNL     1      74.110  44.665  -3.273  1.00  0.00     0.157 A 
BRANCH   5   8
ATOM      8  O   UNL     1      72.872  45.282  -1.290  1.00  0.00    -0.504 OA
ATOM      9  H   UNL     1      72.532  46.202  -1.545  1.00  0.00     0.293 HD
ENDBRANCH   5   8
BRANCH   7  10
ATOM     10  O   UNL     1      74.670  45.942  -3.310  1.00  0.00    -0.504 OA
ATOM     11  H   UNL     1      75.057  46.376  -2.479  1.00  0.00     0.293 HD
ENDBRANCH   7  10
ENDBRANCH   1   2
BRANCH   1  12
ATOM     12  C   UNL     1      74.989  42.078  -6.418  1.00  0.00     0.161 C 
BRANCH  12  13
ATOM     13  O   UNL     1      74.400  41.749  -7.646  1.00  0.00    -0.396 OA
ATOM     14  H   UNL     1      74.440  42.566  -8.209  1.00  0.00     0.210 HD
ENDBRANCH  12  13
ENDBRANCH   1  12
TORSDOF 5
ENDMDL
