MODEL 1
REMARK VINA RESULT:    -4.381      0.000      0.000
REMARK INTER + INTRA:          -5.115
REMARK INTER:                  -5.021
REMARK INTRA:                  -0.093
REMARK UNBOUND:                -0.093
REMARK SMILES COc1ccc(C(C)=O)cc1O
REMARK SMILES IDX 6 1 10 2 11 3 3 4 4 5 5 6 7 7 8 8 9 9 12 10 2 12 1 13
REMARK H PARENT 12 11
REMARK Flexibility Score: inf
ROOT
ATOM      1  C   UNL     1      85.312  31.667  65.193  1.00  0.00     0.021 A 
ATOM      2  C   UNL     1      85.954  31.468  66.430  1.00  0.00     0.062 A 
ATOM      3  C   UNL     1      87.081  32.218  66.785  1.00  0.00     0.158 A 
ATOM      4  C   UNL     1      87.591  33.186  65.903  1.00  0.00     0.160 A 
ATOM      5  C   UNL     1      86.953  33.389  64.666  1.00  0.00     0.051 A 
ATOM      6  C   UNL     1      85.829  32.639  64.316  1.00  0.00     0.016 A 
ENDROOT
BRANCH   1   7
ATOM      7  C   UNL     1      84.115  30.859  64.836  1.00  0.00     0.159 C 
ATOM      8  C   UNL     1      84.216  29.405  64.481  1.00  0.00     0.093 C 
ATOM      9  O   UNL     1      82.975  31.399  64.829  1.00  0.00    -0.295 OA
ENDBRANCH   1   7
BRANCH   3  10
ATOM     10  O   UNL     1      87.682  31.982  68.022  1.00  0.00    -0.504 OA
ATOM     11  H   UNL     1      88.158  31.114  68.234  1.00  0.00     0.293 HD
ENDBRANCH   3  10
BRANCH   4  12
ATOM     12  O   UNL     1      88.723  33.923  66.287  1.00  0.00    -0.493 OA
ATOM     13  C   UNL     1      89.123  35.155  65.693  1.00  0.00     0.278 C 
ENDBRANCH   4  12
TORSDOF 3
ENDMDL
MODEL 2
REMARK VINA RESULT:    -4.359     16.202     16.903
REMARK INTER + INTRA:          -5.090
REMARK INTER:                  -4.982
REMARK INTRA:                  -0.108
REMARK UNBOUND:                -0.093
REMARK SMILES COc1ccc(C(C)=O)cc1O
REMARK SMILES IDX 6 1 10 2 11 3 3 4 4 5 5 6 7 7 8 8 9 9 12 10 2 12 1 13
REMARK H PARENT 12 11
REMARK Flexibility Score: inf
ROOT
ATOM      1  C   UNL     1      75.530  34.813  52.424  1.00  0.00     0.021 A 
ATOM      2  C   UNL     1      76.326  33.652  52.410  1.00  0.00     0.062 A 
ATOM      3  C   UNL     1      77.679  33.711  52.058  1.00  0.00     0.158 A 
ATOM      4  C   UNL     1      78.265  34.941  51.711  1.00  0.00     0.160 A 
ATOM      5  C   UNL     1      77.474  36.104  51.725  1.00  0.00     0.051 A 
ATOM      6  C   UNL     1      76.124  36.040  52.077  1.00  0.00     0.016 A 
ENDROOT
BRANCH   1   7
ATOM      7  C   UNL     1      74.093  34.726  52.802  1.00  0.00     0.159 C 
ATOM      8  C   UNL     1      73.623  33.872  53.941  1.00  0.00     0.093 C 
ATOM      9  O   UNL     1      73.236  35.386  52.155  1.00  0.00    -0.295 OA
ENDBRANCH   1   7
BRANCH   3  10
ATOM     10  O   UNL     1      78.426  32.533  52.057  1.00  0.00    -0.504 OA
ATOM     11  H   UNL     1      78.169  31.731  52.621  1.00  0.00     0.293 HD
ENDBRANCH   3  10
BRANCH   4  12
ATOM     12  O   UNL     1      79.625  34.970  51.362  1.00  0.00    -0.493 OA
ATOM     13  C   UNL     1      80.123  35.365  50.087  1.00  0.00     0.278 C 
ENDBRANCH   4  12
TORSDOF 3
ENDMDL
MODEL 3
REMARK VINA RESULT:    -4.338      1.285      5.046
REMARK INTER + INTRA:          -5.066
REMARK INTER:                  -4.973
REMARK INTRA:                  -0.093
REMARK UNBOUND:                -0.093
REMARK SMILES COc1ccc(C(C)=O)cc1O
REMARK SMILES IDX 6 1 10 2 11 3 3 4 4 5 5 6 7 7 8 8 9 9 12 10 2 12 1 13
REMARK H PARENT 12 11
REMARK Flexibility Score: inf
ROOT
ATOM      1  C   UNL     1      87.200  32.514  65.520  1.00  0.00     0.021 A 
ATOM      2  C   UNL     1      85.907  32.892  65.114  1.00  0.00     0.062 A 
ATOM      3  C   UNL     1      84.949  31.930  64.775  1.00  0.00     0.158 A 
ATOM      4  C   UNL     1      85.269  30.563  64.836  1.00  0.00     0.160 A 
ATOM      5  C   UNL     1      86.560  30.180  65.242  1.00  0.00     0.051 A 
ATOM      6  C   UNL     1      87.513  31.143  65.580  1.00  0.00     0.016 A 
ENDROOT
BRANCH   1   7
ATOM      7  C   UNL     1      88.204  33.553  65.877  1.00  0.00     0.159 C 
ATOM      8  C   UNL     1      88.349  34.819  65.086  1.00  0.00     0.093 C 
ATOM      9  O   UNL     1      88.958  33.379  66.872  1.00  0.00    -0.295 OA
ENDBRANCH   1   7
BRANCH   3  10
ATOM     10  O   UNL     1      83.681  32.356  64.376  1.00  0.00    -0.504 OA
ATOM     11  H   UNL     1      82.845  32.125  64.899  1.00  0.00     0.293 HD
ENDBRANCH   3  10
BRANCH   4  12
ATOM     12  O   UNL     1      84.287  29.621  64.489  1.00  0.00    -0.493 OA
ATOM     13  C   UNL     1      84.461  28.209  64.566  1.00  0.00     0.278 C 
ENDBRANCH   4  12
TORSDOF 3
ENDMDL
MODEL 4
REMARK VINA RESULT:    -4.264     15.969     17.117
REMARK INTER + INTRA:          -4.981
REMARK INTER:                  -4.886
REMARK INTRA:                  -0.095
REMARK UNBOUND:                -0.093
REMARK SMILES COc1ccc(C(C)=O)cc1O
REMARK SMILES IDX 6 1 10 2 11 3 3 4 4 5 5 6 7 7 8 8 9 9 12 10 2 12 1 13
REMARK H PARENT 12 11
REMARK Flexibility Score: inf
ROOT
ATOM      1  C   UNL     1      78.643  35.121  51.478  1.00  0.00     0.021 A 
ATOM      2  C   UNL     1      78.295  33.806  51.840  1.00  0.00     0.062 A 
ATOM      3  C   UNL     1      77.002  33.498  52.276  1.00  0.00     0.158 A 
ATOM      4  C   UNL     1      76.026  34.506  52.359  1.00  0.00     0.160 A 
ATOM      5  C   UNL     1      76.368  35.821  51.997  1.00  0.00     0.051 A 
ATOM      6  C   UNL     1      77.660  36.125  51.563  1.00  0.00     0.016 A 
ENDROOT
BRANCH   1   7
ATOM      7  C   UNL     1      80.025  35.426  51.017  1.00  0.00     0.159 C 
ATOM      8  C   UNL     1      80.461  35.180  49.604  1.00  0.00     0.093 C 
ATOM      9  O   UNL     1      80.862  35.908  51.827  1.00  0.00    -0.295 OA
ENDBRANCH   1   7
BRANCH   3  10
ATOM     10  O   UNL     1      76.707  32.180  52.625  1.00  0.00    -0.504 OA
ATOM     11  H   UNL     1      76.463  31.913  53.571  1.00  0.00     0.293 HD
ENDBRANCH   3  10
BRANCH   4  12
ATOM     12  O   UNL     1      74.736  34.167  52.799  1.00  0.00    -0.493 OA
ATOM     13  C   UNL     1      73.564  34.927  52.524  1.00  0.00     0.278 C 
ENDBRANCH   4  12
TORSDOF 3
ENDMDL
MODEL 5
REMARK VINA RESULT:    -4.243      1.262      4.704
REMARK INTER + INTRA:          -4.956
REMARK INTER:                  -4.821
REMARK INTRA:                  -0.136
REMARK UNBOUND:                -0.093
REMARK SMILES COc1ccc(C(C)=O)cc1O
REMARK SMILES IDX 6 1 10 2 11 3 3 4 4 5 5 6 7 7 8 8 9 9 12 10 2 12 1 13
REMARK H PARENT 12 11
REMARK Flexibility Score: inf
ROOT
ATOM      1  C   UNL     1      87.133  33.101  65.867  1.00  0.00     0.021 A 
ATOM      2  C   UNL     1      86.351  32.642  66.944  1.00  0.00     0.062 A 
ATOM      3  C   UNL     1      85.094  32.068  66.725  1.00  0.00     0.158 A 
ATOM      4  C   UNL     1      84.593  31.941  65.419  1.00  0.00     0.160 A 
ATOM      5  C   UNL     1      85.371  32.397  64.340  1.00  0.00     0.051 A 
ATOM      6  C   UNL     1      86.625  32.970  64.562  1.00  0.00     0.016 A 
ENDROOT
BRANCH   1   7
ATOM      7  C   UNL     1      88.468  33.709  66.122  1.00  0.00     0.159 C 
ATOM      8  C   UNL     1      89.125  34.623  65.132  1.00  0.00     0.093 C 
ATOM      9  O   UNL     1      89.074  33.458  67.199  1.00  0.00    -0.295 OA
ENDBRANCH   1   7
BRANCH   3  10
ATOM     10  O   UNL     1      84.356  31.629  67.825  1.00  0.00    -0.504 OA
ATOM     11  H   UNL     1      83.728  30.836  67.773  1.00  0.00     0.293 HD
ENDBRANCH   3  10
BRANCH   4  12
ATOM     12  O   UNL     1      83.328  31.360  65.231  1.00  0.00    -0.493 OA
ATOM     13  C   UNL     1      83.112  30.039  64.742  1.00  0.00     0.278 C 
ENDBRANCH   4  12
TORSDOF 3
ENDMDL
MODEL 6
REMARK VINA RESULT:    -3.889      3.592      5.053
REMARK INTER + INTRA:          -4.551
REMARK INTER:                  -4.430
REMARK INTRA:                  -0.121
REMARK UNBOUND:                -0.093
REMARK SMILES COc1ccc(C(C)=O)cc1O
REMARK SMILES IDX 6 1 10 2 11 3 3 4 4 5 5 6 7 7 8 8 9 9 12 10 2 12 1 13
REMARK H PARENT 12 11
REMARK Flexibility Score: inf
ROOT
ATOM      1  C   UNL     1      87.140  30.732  65.497  1.00  0.00     0.021 A 
ATOM      2  C   UNL     1      86.234  29.711  65.154  1.00  0.00     0.062 A 
ATOM      3  C   UNL     1      86.689  28.447  64.761  1.00  0.00     0.158 A 
ATOM      4  C   UNL     1      88.068  28.180  64.704  1.00  0.00     0.160 A 
ATOM      5  C   UNL     1      88.977  29.197  65.046  1.00  0.00     0.051 A 
ATOM      6  C   UNL     1      88.519  30.457  65.437  1.00  0.00     0.016 A 
ENDROOT
BRANCH   1   7
ATOM      7  C   UNL     1      86.634  32.069  65.912  1.00  0.00     0.159 C 
ATOM      8  C   UNL     1      86.808  33.285  65.051  1.00  0.00     0.093 C 
ATOM      9  O   UNL     1      86.039  32.197  67.016  1.00  0.00    -0.295 OA
ENDBRANCH   1   7
BRANCH   3  10
ATOM     10  O   UNL     1      85.752  27.469  64.430  1.00  0.00    -0.504 OA
ATOM     11  H   UNL     1      84.763  27.584  64.615  1.00  0.00     0.293 HD
ENDBRANCH   3  10
BRANCH   4  12
ATOM     12  O   UNL     1      88.495  26.902  64.306  1.00  0.00    -0.493 OA
ATOM     13  C   UNL     1      88.947  26.574  62.996  1.00  0.00     0.278 C 
ENDBRANCH   4  12
TORSDOF 3
ENDMDL
MODEL 7
REMARK VINA RESULT:    -3.851      1.881      4.885
REMARK INTER + INTRA:          -4.507
REMARK INTER:                  -4.410
REMARK INTRA:                  -0.097
REMARK UNBOUND:                -0.093
REMARK SMILES COc1ccc(C(C)=O)cc1O
REMARK SMILES IDX 6 1 10 2 11 3 3 4 4 5 5 6 7 7 8 8 9 9 12 10 2 12 1 13
REMARK H PARENT 12 11
REMARK Flexibility Score: inf
ROOT
ATOM      1  C   UNL     1      87.595  32.559  65.863  1.00  0.00     0.021 A 
ATOM      2  C   UNL     1      88.039  31.284  65.464  1.00  0.00     0.062 A 
ATOM      3  C   UNL     1      87.129  30.287  65.097  1.00  0.00     0.158 A 
ATOM      4  C   UNL     1      85.748  30.547  65.124  1.00  0.00     0.160 A 
ATOM      5  C   UNL     1      85.299  31.820  65.522  1.00  0.00     0.051 A 
ATOM      6  C   UNL     1      86.211  32.812  65.887  1.00  0.00     0.016 A 
ENDROOT
BRANCH   1   7
ATOM      7  C   UNL     1      88.581  33.605  66.248  1.00  0.00     0.159 C 
ATOM      8  C   UNL     1      89.037  34.658  65.283  1.00  0.00     0.093 C 
ATOM      9  O   UNL     1      89.054  33.618  67.417  1.00  0.00    -0.295 OA
ENDBRANCH   1   7
BRANCH   3  10
ATOM     10  O   UNL     1      87.618  29.039  64.710  1.00  0.00    -0.504 OA
ATOM     11  H   UNL     1      87.550  28.223  65.306  1.00  0.00     0.293 HD
ENDBRANCH   3  10
BRANCH   4  12
ATOM     12  O   UNL     1      84.858  29.527  64.751  1.00  0.00    -0.493 OA
ATOM     13  C   UNL     1      83.500  29.739  64.375  1.00  0.00     0.278 C 
ENDBRANCH   4  12
TORSDOF 3
ENDMDL
