MODEL 1
REMARK VINA RESULT:    16.564      0.000      0.000
REMARK INTER + INTRA:          37.183
REMARK INTER:                  27.215
REMARK INTRA:                   9.967
REMARK UNBOUND:                 9.967
REMARK SMILES C[C@@H]1O[C@H](OC[C@H]2O[C@@H](Oc3c(-c4ccc(O)c(O)c4)oc4cc(O)cc(O)c4c3=O)[C@H](O)[C@H](O)[C@H]2O)[C@H](O)[C@H](O)[C@H]1O
REMARK SMILES IDX 7 1 36 2 34 3 32 4 9 5 8 6 6 7 5 8 4 9 1 10 2 11 42 12 3 13
REMARK SMILES IDX 40 14 38 15 43 16 41 18 39 20 37 22 35 24 10 26 11 27 12 28
REMARK SMILES IDX 30 29 21 30 29 31 31 32 22 33 27 34 23 35 26 36 24 37 13 38
REMARK SMILES IDX 20 39 14 40 18 41 15 42 16 43 19 44 17 46 28 48 25 50 33 52
REMARK H PARENT 43 17 41 19 39 21 37 23 35 25 19 45 17 47 28 49 25 51 33 53
REMARK Flexibility Score: inf
ROOT
ATOM      1  C   UNL     1      40.835  20.212   5.655  1.00  0.00     0.180 C 
ATOM      2  C   UNL     1      41.728  20.566   4.431  1.00  0.00     0.177 C 
ATOM      3  C   UNL     1      42.984  21.346   4.825  1.00  0.00     0.180 C 
ATOM      4  C   UNL     1      42.606  22.500   5.759  1.00  0.00     0.214 C 
ATOM      5  C   UNL     1      41.853  21.945   6.975  1.00  0.00     0.339 C 
ATOM      6  O   UNL     1      40.664  21.263   6.601  1.00  0.00    -0.332 OA
ENDROOT
BRANCH   1   7
ATOM      7  C   UNL     1      41.111  18.860   6.340  1.00  0.00     0.198 C 
BRANCH   7   8
ATOM      8  O   UNL     1      41.708  17.934   5.455  1.00  0.00    -0.347 OA
BRANCH   8   9
ATOM      9  C   UNL     1      41.036  16.683   5.516  1.00  0.00     0.281 C 
ATOM     10  C   UNL     1      39.828  18.375   7.828  1.00  0.00     0.041 C 
ATOM     11  C   UNL     1      39.579  16.915   7.419  1.00  0.00     0.150 C 
ATOM     12  C   UNL     1      38.285  16.743   6.563  1.00  0.00     0.174 C 
ATOM     13  O   UNL     1      40.738  16.302   6.860  1.00  0.00    -0.344 OA
ATOM     14  C   UNL     1      38.577  16.036   5.239  1.00  0.00     0.179 C 
ATOM     15  C   UNL     1      39.805  16.659   4.561  1.00  0.00     0.202 C 
BRANCH  12  16
ATOM     16  O   UNL     1      37.326  15.996   7.272  1.00  0.00    -0.388 OA
ATOM     17  H   UNL     1      36.848  16.636   7.859  1.00  0.00     0.211 HD
ENDBRANCH  12  16
BRANCH  14  18
ATOM     18  O   UNL     1      37.453  16.117   4.399  1.00  0.00    -0.387 OA
ATOM     19  H   UNL     1      37.346  17.074   4.148  1.00  0.00     0.211 HD
ENDBRANCH  14  18
BRANCH  15  20
ATOM     20  O   UNL     1      39.513  17.930   4.024  1.00  0.00    -0.385 OA
ATOM     21  H   UNL     1      39.888  18.618   4.629  1.00  0.00     0.211 HD
ENDBRANCH  15  20
ENDBRANCH   8   9
ENDBRANCH   7   8
ENDBRANCH   1   7
BRANCH   2  22
ATOM     22  O   UNL     1      42.103  19.398   3.739  1.00  0.00    -0.387 OA
ATOM     23  H   UNL     1      42.464  18.753   4.402  1.00  0.00     0.211 HD
ENDBRANCH   2  22
BRANCH   3  24
ATOM     24  O   UNL     1      43.592  21.854   3.667  1.00  0.00    -0.387 OA
ATOM     25  H   UNL     1      44.569  21.807   3.810  1.00  0.00     0.211 HD
ENDBRANCH   3  24
BRANCH   5  26
ATOM     26  O   UNL     1      42.728  21.134   7.762  1.00  0.00    -0.454 OA
BRANCH  26  27
ATOM     27  C   UNL     1      44.117  21.293   7.925  1.00  0.00     0.214 A 
ATOM     28  C   UNL     1      44.649  22.596   7.981  1.00  0.00     0.180 A 
ATOM     29  C   UNL     1      45.017  20.207   7.946  1.00  0.00     0.239 A 
ATOM     30  O   UNL     1      45.967  22.784   7.939  1.00  0.00    -0.452 OA
ATOM     31  C   UNL     1      46.404  20.448   7.862  1.00  0.00     0.111 A 
ATOM     32  O   UNL     1      44.585  19.025   8.032  1.00  0.00    -0.285 OA
ATOM     33  C   UNL     1      46.840  21.790   7.868  1.00  0.00     0.146 A 
ATOM     34  C   UNL     1      47.365  19.414   7.757  1.00  0.00     0.134 A 
ATOM     35  C   UNL     1      48.205  22.089   7.805  1.00  0.00     0.094 A 
ATOM     36  C   UNL     1      48.730  19.736   7.683  1.00  0.00     0.093 A 
ATOM     37  C   UNL     1      49.149  21.065   7.717  1.00  0.00     0.123 A 
BRANCH  28  38
ATOM     38  C   UNL     1      43.783  23.793   8.111  1.00  0.00     0.025 A 
ATOM     39  C   UNL     1      42.386  23.647   8.104  1.00  0.00     0.062 A 
ATOM     40  C   UNL     1      44.332  25.089   8.114  1.00  0.00     0.016 A 
ATOM     41  C   UNL     1      41.552  24.777   8.099  1.00  0.00     0.158 A 
ATOM     42  C   UNL     1      43.498  26.213   8.122  1.00  0.00     0.051 A 
ATOM     43  C   UNL     1      42.107  26.063   8.103  1.00  0.00     0.157 A 
BRANCH  41  44
ATOM     44  O   UNL     1      40.167  24.633   8.073  1.00  0.00    -0.504 OA
ATOM     45  H   UNL     1      39.586  25.228   7.492  1.00  0.00     0.293 HD
ENDBRANCH  41  44
BRANCH  43  46
ATOM     46  O   UNL     1      41.275  27.182   8.076  1.00  0.00    -0.504 OA
ATOM     47  H   UNL     1      41.632  28.106   7.873  1.00  0.00     0.293 HD
ENDBRANCH  43  46
ENDBRANCH  28  38
BRANCH  34  48
ATOM     48  O   UNL     1      46.977  18.077   7.708  1.00  0.00    -0.507 OA
ATOM     49  H   UNL     1      47.067  17.525   6.862  1.00  0.00     0.293 HD
ENDBRANCH  34  48
BRANCH  37  50
ATOM     50  O   UNL     1      50.513  21.355   7.679  1.00  0.00    -0.508 OA
ATOM     51  H   UNL     1      51.017  21.626   8.517  1.00  0.00     0.293 HD
ENDBRANCH  37  50
ENDBRANCH  26  27
ENDBRANCH   5  26
BRANCH   4  52
ATOM     52  O   UNL     1      41.796  23.429   5.080  1.00  0.00    -0.384 OA
ATOM     53  H   UNL     1      41.440  24.059   5.762  1.00  0.00     0.211 HD
ENDBRANCH   4  52
TORSDOF 16
ENDMDL
MODEL 2
REMARK VINA RESULT:    17.278      1.481      5.446
REMARK INTER + INTRA:          38.357
REMARK INTER:                  27.262
REMARK INTRA:                  11.095
REMARK UNBOUND:                 9.967
REMARK SMILES C[C@@H]1O[C@H](OC[C@H]2O[C@@H](Oc3c(-c4ccc(O)c(O)c4)oc4cc(O)cc(O)c4c3=O)[C@H](O)[C@H](O)[C@H]2O)[C@H](O)[C@H](O)[C@H]1O
REMARK SMILES IDX 7 1 36 2 34 3 32 4 9 5 8 6 6 7 5 8 4 9 1 10 2 11 42 12 3 13
REMARK SMILES IDX 40 14 38 15 43 16 41 18 39 20 37 22 35 24 10 26 11 27 12 28
REMARK SMILES IDX 30 29 21 30 29 31 31 32 22 33 27 34 23 35 26 36 24 37 13 38
REMARK SMILES IDX 20 39 14 40 18 41 15 42 16 43 19 44 17 46 28 48 25 50 33 52
REMARK H PARENT 43 17 41 19 39 21 37 23 35 25 19 45 17 47 28 49 25 51 33 53
REMARK Flexibility Score: inf
ROOT
ATOM      1  C   UNL     1      42.002  18.467   5.381  1.00  0.00     0.180 C 
ATOM      2  C   UNL     1      41.828  17.151   6.193  1.00  0.00     0.177 C 
ATOM      3  C   UNL     1      42.550  17.191   7.542  1.00  0.00     0.180 C 
ATOM      4  C   UNL     1      43.983  17.697   7.348  1.00  0.00     0.214 C 
ATOM      5  C   UNL     1      43.950  19.066   6.657  1.00  0.00     0.339 C 
ATOM      6  O   UNL     1      43.319  19.009   5.386  1.00  0.00    -0.332 OA
ENDROOT
BRANCH   1   7
ATOM      7  C   UNL     1      40.932  19.554   5.596  1.00  0.00     0.198 C 
BRANCH   7   8
ATOM      8  O   UNL     1      39.682  19.178   5.053  1.00  0.00    -0.347 OA
BRANCH   8   9
ATOM      9  C   UNL     1      39.488  17.775   5.179  1.00  0.00     0.281 C 
ATOM     10  C   UNL     1      37.420  19.063   7.111  1.00  0.00     0.041 C 
ATOM     11  C   UNL     1      37.764  17.589   6.850  1.00  0.00     0.150 C 
ATOM     12  C   UNL     1      36.763  16.903   5.868  1.00  0.00     0.174 C 
ATOM     13  O   UNL     1      39.137  17.402   6.512  1.00  0.00    -0.344 OA
ATOM     14  C   UNL     1      37.486  16.263   4.682  1.00  0.00     0.179 C 
ATOM     15  C   UNL     1      38.510  17.243   4.090  1.00  0.00     0.202 C 
BRANCH  12  16
ATOM     16  O   UNL     1      36.027  15.908   6.538  1.00  0.00    -0.388 OA
ATOM     17  H   UNL     1      35.764  16.292   7.413  1.00  0.00     0.211 HD
ENDBRANCH  12  16
BRANCH  14  18
ATOM     18  O   UNL     1      36.551  15.875   3.708  1.00  0.00    -0.387 OA
ATOM     19  H   UNL     1      35.921  16.637   3.590  1.00  0.00     0.211 HD
ENDBRANCH  14  18
BRANCH  15  20
ATOM     20  O   UNL     1      37.879  18.283   3.375  1.00  0.00    -0.385 OA
ATOM     21  H   UNL     1      38.402  19.113   3.505  1.00  0.00     0.211 HD
ENDBRANCH  15  20
ENDBRANCH   8   9
ENDBRANCH   7   8
ENDBRANCH   1   7
BRANCH   2  22
ATOM     22  O   UNL     1      40.462  16.877   6.402  1.00  0.00    -0.387 OA
ATOM     23  H   UNL     1      40.131  17.496   7.104  1.00  0.00     0.211 HD
ENDBRANCH   2  22
BRANCH   3  24
ATOM     24  O   UNL     1      42.574  15.900   8.088  1.00  0.00    -0.387 OA
ATOM     25  H   UNL     1      42.465  15.998   9.066  1.00  0.00     0.211 HD
ENDBRANCH   3  24
BRANCH   5  26
ATOM     26  O   UNL     1      43.354  20.036   7.523  1.00  0.00    -0.454 OA
BRANCH  26  27
ATOM     27  C   UNL     1      43.495  21.434   7.457  1.00  0.00     0.214 A 
ATOM     28  C   UNL     1      44.788  21.990   7.512  1.00  0.00     0.180 A 
ATOM     29  C   UNL     1      42.393  22.316   7.429  1.00  0.00     0.239 A 
ATOM     30  O   UNL     1      44.947  23.305   7.648  1.00  0.00    -0.452 OA
ATOM     31  C   UNL     1      42.602  23.698   7.615  1.00  0.00     0.111 A 
ATOM     32  O   UNL     1      41.228  21.872   7.247  1.00  0.00    -0.285 OA
ATOM     33  C   UNL     1      43.933  24.156   7.715  1.00  0.00     0.146 A 
ATOM     34  C   UNL     1      41.545  24.635   7.719  1.00  0.00     0.134 A 
ATOM     35  C   UNL     1      44.201  25.519   7.882  1.00  0.00     0.094 A 
ATOM     36  C   UNL     1      41.834  25.997   7.898  1.00  0.00     0.093 A 
ATOM     37  C   UNL     1      43.154  26.438   7.968  1.00  0.00     0.123 A 
BRANCH  28  38
ATOM     38  C   UNL     1      46.007  21.154   7.398  1.00  0.00     0.025 A 
ATOM     39  C   UNL     1      47.273  21.745   7.543  1.00  0.00     0.062 A 
ATOM     40  C   UNL     1      45.927  19.801   7.019  1.00  0.00     0.016 A 
ATOM     41  C   UNL     1      48.439  20.996   7.313  1.00  0.00     0.158 A 
ATOM     42  C   UNL     1      47.091  19.054   6.803  1.00  0.00     0.051 A 
ATOM     43  C   UNL     1      48.349  19.650   6.938  1.00  0.00     0.157 A 
BRANCH  41  44
ATOM     44  O   UNL     1      49.695  21.587   7.438  1.00  0.00    -0.504 OA
ATOM     45  H   UNL     1      50.044  22.234   6.740  1.00  0.00     0.293 HD
ENDBRANCH  41  44
BRANCH  43  46
ATOM     46  O   UNL     1      49.510  18.917   6.689  1.00  0.00    -0.504 OA
ATOM     47  H   UNL     1      50.414  19.221   7.028  1.00  0.00     0.293 HD
ENDBRANCH  43  46
ENDBRANCH  28  38
BRANCH  34  48
ATOM     48  O   UNL     1      40.215  24.222   7.665  1.00  0.00    -0.507 OA
ATOM     49  H   UNL     1      39.924  23.430   7.103  1.00  0.00     0.293 HD
ENDBRANCH  34  48
BRANCH  37  50
ATOM     50  O   UNL     1      43.415  27.802   8.109  1.00  0.00    -0.508 OA
ATOM     51  H   UNL     1      42.901  28.369   8.775  1.00  0.00     0.293 HD
ENDBRANCH  37  50
ENDBRANCH  26  27
ENDBRANCH   5  26
BRANCH   4  52
ATOM     52  O   UNL     1      44.718  16.787   6.566  1.00  0.00    -0.384 OA
ATOM     53  H   UNL     1      44.140  15.991   6.424  1.00  0.00     0.211 HD
ENDBRANCH   4  52
TORSDOF 16
ENDMDL
