MODEL 1
REMARK VINA RESULT:    -3.538      0.000      0.000
REMARK INTER + INTRA:          -5.752
REMARK INTER:                  -5.400
REMARK INTRA:                  -0.353
REMARK UNBOUND:                -0.353
REMARK SMILES CC1=CCC[C@@H](C)C(=O)C[C@H](C(C)C)C(=O)C1
REMARK SMILES IDX 8 1 9 2 6 3 7 4 5 5 4 6 3 7 2 8 1 9 10 11 11 12 15 13 16 14
REMARK SMILES IDX 17 15 12 17 13 18 14 19
REMARK H PARENT
REMARK Flexibility Score: 70.00
ROOT
ATOM      1  C   UNL     1      15.787  30.463  30.205  1.00  0.00     0.136 C 
ATOM      2  O   UNL     1      14.887  30.207  29.415  1.00  0.00    -0.299 OA
ENDROOT
BRANCH   1   3
ATOM      3  C   UNL     1      15.890  31.860  30.792  1.00  0.00     0.053 C 
ATOM      4  C   UNL     1      14.727  32.121  31.761  1.00  0.00     0.016 C 
BRANCH   3   5
ATOM      5  C   UNL     1      15.924  32.922  29.668  1.00  0.00     0.015 C 
BRANCH   5   6
ATOM      6  C   UNL     1      17.306  32.979  28.986  1.00  0.00     0.028 C 
BRANCH   6   7
ATOM      7  C   UNL     1      18.447  33.151  29.958  1.00  0.00    -0.028 C 
ATOM      8  C   UNL     1      19.446  32.258  30.164  1.00  0.00    -0.070 CG0
ATOM      9  C   UNL     1      20.421  32.544  31.280  1.00  0.00     0.039 C 
ATOM     10  G   UNL     1      19.657  31.012  29.310  1.00  0.00     0.000 G0
ENDBRANCH   6   7
ENDBRANCH   5   6
ENDBRANCH   3   5
ENDBRANCH   1   3
BRANCH   1  11
ATOM     11  C   UNL     1      16.764  29.371  30.585  1.00  0.00     0.087 C 
BRANCH  11  12
ATOM     12  C   UNL     1      17.848  29.153  29.498  1.00  0.00     0.066 C 
BRANCH  12  13
ATOM     13  C   UNL     1      19.185  29.738  29.931  1.00  0.00     0.140 C 
ATOM     14  O   UNL     1      19.883  29.150  30.749  1.00  0.00    -0.299 OA
BRANCH  13  15
ATOM     15  C   UNL     1      19.678  31.026  29.310  1.00  0.00     0.106 CG0
ATOM     16  G   UNL     1      19.419  32.265  30.161  1.00  0.00     0.000 G0
ENDBRANCH  13  15
ENDBRANCH  12  13
BRANCH  12  17
ATOM     17  C   UNL     1      17.986  27.662  29.039  1.00  0.00    -0.006 C 
ATOM     18  C   UNL     1      18.675  27.556  27.666  1.00  0.00     0.008 C 
ATOM     19  C   UNL     1      16.651  26.892  29.010  1.00  0.00     0.008 C 
ENDBRANCH  12  17
ENDBRANCH  11  12
ENDBRANCH   1  11
TORSDOF 1
ENDMDL
MODEL 2
REMARK VINA RESULT:    -3.408      2.824      5.949
REMARK INTER + INTRA:          -5.553
REMARK INTER:                  -5.546
REMARK INTRA:                  -0.008
REMARK UNBOUND:                -0.353
REMARK SMILES CC1=CCC[C@@H](C)C(=O)C[C@H](C(C)C)C(=O)C1
REMARK SMILES IDX 8 1 9 2 6 3 7 4 5 5 4 6 3 7 2 8 1 9 10 11 11 12 15 13 16 14
REMARK SMILES IDX 17 15 12 17 13 18 14 19
REMARK H PARENT
REMARK Flexibility Score: 70.00
ROOT
ATOM      1  C   UNL     1      21.030  25.956  28.680  1.00  0.00     0.136 C 
ATOM      2  O   UNL     1      22.178  25.778  28.290  1.00  0.00    -0.299 OA
ENDROOT
BRANCH   1   3
ATOM      3  C   UNL     1      19.907  25.116  28.099  1.00  0.00     0.053 C 
ATOM      4  C   UNL     1      20.444  24.194  26.994  1.00  0.00     0.016 C 
BRANCH   3   5
ATOM      5  C   UNL     1      18.771  26.018  27.564  1.00  0.00     0.015 C 
BRANCH   5   6
ATOM      6  C   UNL     1      17.536  25.981  28.487  1.00  0.00     0.028 C 
BRANCH   6   7
ATOM      7  C   UNL     1      16.794  27.293  28.549  1.00  0.00    -0.028 C 
ATOM      8  C   UNL     1      17.091  28.327  29.375  1.00  0.00    -0.070 CG0
ATOM      9  C   UNL     1      16.147  29.504  29.390  1.00  0.00     0.039 C 
ATOM     10  G   UNL     1      18.339  28.379  30.250  1.00  0.00     0.000 G0
ENDBRANCH   6   7
ENDBRANCH   5   6
ENDBRANCH   3   5
ENDBRANCH   1   3
BRANCH   1  11
ATOM     11  C   UNL     1      20.768  27.001  29.743  1.00  0.00     0.087 C 
BRANCH  11  12
ATOM     12  C   UNL     1      20.710  28.434  29.151  1.00  0.00     0.066 C 
BRANCH  12  13
ATOM     13  C   UNL     1      19.482  29.183  29.651  1.00  0.00     0.140 C 
ATOM     14  O   UNL     1      19.406  30.400  29.526  1.00  0.00    -0.299 OA
BRANCH  13  15
ATOM     15  C   UNL     1      18.330  28.417  30.259  1.00  0.00     0.106 CG0
ATOM     16  G   UNL     1      17.099  28.329  29.363  1.00  0.00     0.000 G0
ENDBRANCH  13  15
ENDBRANCH  12  13
BRANCH  12  17
ATOM     17  C   UNL     1      22.024  29.257  29.368  1.00  0.00    -0.006 C 
ATOM     18  C   UNL     1      23.102  28.881  28.335  1.00  0.00     0.008 C 
ATOM     19  C   UNL     1      22.605  29.141  30.791  1.00  0.00     0.008 C 
ENDBRANCH  12  17
ENDBRANCH  11  12
ENDBRANCH   1  11
TORSDOF 1
ENDMDL
MODEL 3
REMARK VINA RESULT:    -3.296      4.019      6.475
REMARK INTER + INTRA:          -5.382
REMARK INTER:                  -5.145
REMARK INTRA:                  -0.238
REMARK UNBOUND:                -0.353
REMARK SMILES CC1=CCC[C@@H](C)C(=O)C[C@H](C(C)C)C(=O)C1
REMARK SMILES IDX 8 1 9 2 6 3 7 4 5 5 4 6 3 7 2 8 1 9 10 11 11 12 15 13 16 14
REMARK SMILES IDX 17 15 12 17 13 18 14 19
REMARK H PARENT
REMARK Flexibility Score: 70.00
ROOT
ATOM      1  C   UNL     1      24.623  28.693  28.983  1.00  0.00     0.136 C 
ATOM      2  O   UNL     1      25.291  27.666  28.980  1.00  0.00    -0.299 OA
ENDROOT
BRANCH   1   3
ATOM      3  C   UNL     1      25.153  29.925  29.695  1.00  0.00     0.053 C 
ATOM      4  C   UNL     1      26.422  30.440  29.000  1.00  0.00     0.016 C 
BRANCH   3   5
ATOM      5  C   UNL     1      25.424  29.620  31.187  1.00  0.00     0.015 C 
BRANCH   5   6
ATOM      6  C   UNL     1      24.263  30.100  32.082  1.00  0.00     0.028 C 
BRANCH   6   7
ATOM      7  C   UNL     1      23.640  31.392  31.612  1.00  0.00    -0.028 C 
ATOM      8  C   UNL     1      22.424  31.509  31.022  1.00  0.00    -0.070 CG0
ATOM      9  C   UNL     1      22.032  32.868  30.494  1.00  0.00     0.039 C 
ATOM     10  G   UNL     1      21.428  30.361  30.900  1.00  0.00     0.000 G0
ENDBRANCH   6   7
ENDBRANCH   5   6
ENDBRANCH   3   5
ENDBRANCH   1   3
BRANCH   1  11
ATOM     11  C   UNL     1      23.291  28.706  28.264  1.00  0.00     0.087 C 
BRANCH  11  12
ATOM     12  C   UNL     1      22.104  28.445  29.227  1.00  0.00     0.066 C 
BRANCH  12  13
ATOM     13  C   UNL     1      21.340  29.730  29.517  1.00  0.00     0.140 C 
ATOM     14  O   UNL     1      20.631  30.236  28.655  1.00  0.00    -0.299 OA
BRANCH  13  15
ATOM     15  C   UNL     1      21.417  30.356  30.891  1.00  0.00     0.106 CG0
ATOM     16  G   UNL     1      22.421  31.500  30.997  1.00  0.00     0.000 G0
ENDBRANCH  13  15
ENDBRANCH  12  13
BRANCH  12  17
ATOM     17  C   UNL     1      21.152  27.295  28.754  1.00  0.00    -0.006 C 
ATOM     18  C   UNL     1      19.963  27.115  29.715  1.00  0.00     0.008 C 
ATOM     19  C   UNL     1      21.863  25.943  28.547  1.00  0.00     0.008 C 
ENDBRANCH  12  17
ENDBRANCH  11  12
ENDBRANCH   1  11
TORSDOF 1
ENDMDL
MODEL 4
REMARK VINA RESULT:    -3.270      2.615      4.955
REMARK INTER + INTRA:          -5.343
REMARK INTER:                  -5.191
REMARK INTRA:                  -0.151
REMARK UNBOUND:                -0.353
REMARK SMILES CC1=CCC[C@@H](C)C(=O)C[C@H](C(C)C)C(=O)C1
REMARK SMILES IDX 8 1 9 2 6 3 7 4 5 5 4 6 3 7 2 8 1 9 10 11 11 12 15 13 16 14
REMARK SMILES IDX 17 15 12 17 13 18 14 19
REMARK H PARENT
REMARK Flexibility Score: 70.00
ROOT
ATOM      1  C   UNL     1      18.051  26.218  28.058  1.00  0.00     0.136 C 
ATOM      2  O   UNL     1      17.240  25.357  28.378  1.00  0.00    -0.299 OA
ENDROOT
BRANCH   1   3
ATOM      3  C   UNL     1      19.472  25.812  27.711  1.00  0.00     0.053 C 
ATOM      4  C   UNL     1      19.494  24.396  27.114  1.00  0.00     0.016 C 
BRANCH   3   5
ATOM      5  C   UNL     1      20.386  25.903  28.956  1.00  0.00     0.015 C 
BRANCH   5   6
ATOM      6  C   UNL     1      21.540  26.901  28.737  1.00  0.00     0.028 C 
BRANCH   6   7
ATOM      7  C   UNL     1      21.636  27.952  29.816  1.00  0.00    -0.028 C 
ATOM      8  C   UNL     1      21.024  29.161  29.793  1.00  0.00    -0.070 CG0
ATOM      9  C   UNL     1      21.353  30.133  30.900  1.00  0.00     0.039 C 
ATOM     10  G   UNL     1      20.001  29.572  28.738  1.00  0.00     0.000 G0
ENDBRANCH   6   7
ENDBRANCH   5   6
ENDBRANCH   3   5
ENDBRANCH   1   3
BRANCH   1  11
ATOM     11  C   UNL     1      17.606  27.664  28.006  1.00  0.00     0.087 C 
BRANCH  11  12
ATOM     12  C   UNL     1      17.766  28.374  29.375  1.00  0.00     0.066 C 
BRANCH  12  13
ATOM     13  C   UNL     1      18.579  29.654  29.236  1.00  0.00     0.140 C 
ATOM     14  O   UNL     1      18.096  30.733  29.561  1.00  0.00    -0.299 OA
BRANCH  13  15
ATOM     15  C   UNL     1      20.007  29.587  28.744  1.00  0.00     0.106 CG0
ATOM     16  G   UNL     1      21.014  29.165  29.809  1.00  0.00     0.000 G0
ENDBRANCH  13  15
ENDBRANCH  12  13
BRANCH  12  17
ATOM     17  C   UNL     1      16.410  28.623  30.117  1.00  0.00    -0.006 C 
ATOM     18  C   UNL     1      16.550  28.413  31.635  1.00  0.00     0.008 C 
ATOM     19  C   UNL     1      15.241  27.774  29.580  1.00  0.00     0.008 C 
ENDBRANCH  12  17
ENDBRANCH  11  12
ENDBRANCH   1  11
TORSDOF 1
ENDMDL
MODEL 5
REMARK VINA RESULT:    -3.264      1.761      4.195
REMARK INTER + INTRA:          -5.334
REMARK INTER:                  -5.024
REMARK INTRA:                  -0.310
REMARK UNBOUND:                -0.353
REMARK SMILES CC1=CCC[C@@H](C)C(=O)C[C@H](C(C)C)C(=O)C1
REMARK SMILES IDX 8 1 9 2 6 3 7 4 5 5 4 6 3 7 2 8 1 9 10 11 11 12 15 13 16 14
REMARK SMILES IDX 17 15 12 17 13 18 14 19
REMARK H PARENT
REMARK Flexibility Score: 70.00
ROOT
ATOM      1  C   UNL     1      16.264  32.614  29.659  1.00  0.00     0.136 C 
ATOM      2  O   UNL     1      16.159  33.834  29.664  1.00  0.00    -0.299 OA
ENDROOT
BRANCH   1   3
ATOM      3  C   UNL     1      15.136  31.765  30.217  1.00  0.00     0.053 C 
ATOM      4  C   UNL     1      15.284  31.611  31.738  1.00  0.00     0.016 C 
BRANCH   3   5
ATOM      5  C   UNL     1      15.095  30.384  29.522  1.00  0.00     0.015 C 
BRANCH   5   6
ATOM      6  C   UNL     1      15.483  29.251  30.492  1.00  0.00     0.028 C 
BRANCH   6   7
ATOM      7  C   UNL     1      16.150  28.081  29.811  1.00  0.00    -0.028 C 
ATOM      8  C   UNL     1      17.488  27.884  29.718  1.00  0.00    -0.070 CG0
ATOM      9  C   UNL     1      17.967  26.726  28.876  1.00  0.00     0.039 C 
ATOM     10  G   UNL     1      18.522  28.738  30.444  1.00  0.00     0.000 G0
ENDBRANCH   6   7
ENDBRANCH   5   6
ENDBRANCH   3   5
ENDBRANCH   1   3
BRANCH   1  11
ATOM     11  C   UNL     1      17.514  31.986  29.080  1.00  0.00     0.087 C 
BRANCH  11  12
ATOM     12  C   UNL     1      18.403  31.339  30.175  1.00  0.00     0.066 C 
BRANCH  12  13
ATOM     13  C   UNL     1      18.945  29.992  29.716  1.00  0.00     0.140 C 
ATOM     14  O   UNL     1      19.740  29.929  28.786  1.00  0.00    -0.299 OA
BRANCH  13  15
ATOM     15  C   UNL     1      18.538  28.731  30.444  1.00  0.00     0.106 CG0
ATOM     16  G   UNL     1      17.493  27.898  29.709  1.00  0.00     0.000 G0
ENDBRANCH  13  15
ENDBRANCH  12  13
BRANCH  12  17
ATOM     17  C   UNL     1      19.543  32.278  30.695  1.00  0.00    -0.006 C 
ATOM     18  C   UNL     1      19.139  32.984  32.003  1.00  0.00     0.008 C 
ATOM     19  C   UNL     1      20.009  33.324  29.663  1.00  0.00     0.008 C 
ENDBRANCH  12  17
ENDBRANCH  11  12
ENDBRANCH   1  11
TORSDOF 1
ENDMDL
MODEL 6
REMARK VINA RESULT:    -3.241      2.336      5.730
REMARK INTER + INTRA:          -5.299
REMARK INTER:                  -4.985
REMARK INTRA:                  -0.314
REMARK UNBOUND:                -0.353
REMARK SMILES CC1=CCC[C@@H](C)C(=O)C[C@H](C(C)C)C(=O)C1
REMARK SMILES IDX 8 1 9 2 6 3 7 4 5 5 4 6 3 7 2 8 1 9 10 11 11 12 15 13 16 14
REMARK SMILES IDX 17 15 12 17 13 18 14 19
REMARK H PARENT
REMARK Flexibility Score: 70.00
ROOT
ATOM      1  C   UNL     1      19.963  27.971  29.405  1.00  0.00     0.136 C 
ATOM      2  O   UNL     1      20.797  28.484  28.668  1.00  0.00    -0.299 OA
ENDROOT
BRANCH   1   3
ATOM      3  C   UNL     1      19.555  26.526  29.179  1.00  0.00     0.053 C 
ATOM      4  C   UNL     1      20.774  25.600  29.308  1.00  0.00     0.016 C 
BRANCH   3   5
ATOM      5  C   UNL     1      18.877  26.360  27.799  1.00  0.00     0.015 C 
BRANCH   5   6
ATOM      6  C   UNL     1      17.517  27.086  27.747  1.00  0.00     0.028 C 
BRANCH   6   7
ATOM      7  C   UNL     1      16.479  26.481  28.659  1.00  0.00    -0.028 C 
ATOM      8  C   UNL     1      15.765  27.154  29.595  1.00  0.00    -0.070 CG0
ATOM      9  C   UNL     1      14.873  26.348  30.507  1.00  0.00     0.039 C 
ATOM     10  G   UNL     1      15.786  28.672  29.745  1.00  0.00     0.000 G0
ENDBRANCH   6   7
ENDBRANCH   5   6
ENDBRANCH   3   5
ENDBRANCH   1   3
BRANCH   1  11
ATOM     11  C   UNL     1      19.373  28.793  30.531  1.00  0.00     0.087 C 
BRANCH  11  12
ATOM     12  C   UNL     1      18.182  29.666  30.055  1.00  0.00     0.066 C 
BRANCH  12  13
ATOM     13  C   UNL     1      16.873  29.187  30.667  1.00  0.00     0.140 C 
ATOM     14  O   UNL     1      16.693  29.256  31.878  1.00  0.00    -0.299 OA
BRANCH  13  15
ATOM     15  C   UNL     1      15.769  28.672  29.772  1.00  0.00     0.106 CG0
ATOM     16  G   UNL     1      15.767  27.157  29.596  1.00  0.00     0.000 G0
ENDBRANCH  13  15
ENDBRANCH  12  13
BRANCH  12  17
ATOM     17  C   UNL     1      18.402  31.201  30.275  1.00  0.00    -0.006 C 
ATOM     18  C   UNL     1      17.337  32.034  29.539  1.00  0.00     0.008 C 
ATOM     19  C   UNL     1      19.809  31.692  29.881  1.00  0.00     0.008 C 
ENDBRANCH  12  17
ENDBRANCH  11  12
ENDBRANCH   1  11
TORSDOF 1
ENDMDL
MODEL 7
REMARK VINA RESULT:    -3.234      2.897      4.739
REMARK INTER + INTRA:          -5.288
REMARK INTER:                  -5.100
REMARK INTRA:                  -0.189
REMARK UNBOUND:                -0.353
REMARK SMILES CC1=CCC[C@@H](C)C(=O)C[C@H](C(C)C)C(=O)C1
REMARK SMILES IDX 8 1 9 2 6 3 7 4 5 5 4 6 3 7 2 8 1 9 10 11 11 12 15 13 16 14
REMARK SMILES IDX 17 15 12 17 13 18 14 19
REMARK H PARENT
REMARK Flexibility Score: 70.00
ROOT
ATOM      1  C   UNL     1      19.851  26.393  28.664  1.00  0.00     0.136 C 
ATOM      2  O   UNL     1      20.193  25.749  27.680  1.00  0.00    -0.299 OA
ENDROOT
BRANCH   1   3
ATOM      3  C   UNL     1      18.414  26.869  28.781  1.00  0.00     0.053 C 
ATOM      4  C   UNL     1      17.443  25.693  28.598  1.00  0.00     0.016 C 
BRANCH   3   5
ATOM      5  C   UNL     1      18.125  27.990  27.755  1.00  0.00     0.015 C 
BRANCH   5   6
ATOM      6  C   UNL     1      18.465  29.381  28.328  1.00  0.00     0.028 C 
BRANCH   6   7
ATOM      7  C   UNL     1      17.990  29.577  29.747  1.00  0.00    -0.028 C 
ATOM      8  C   UNL     1      18.785  29.838  30.814  1.00  0.00    -0.070 CG0
ATOM      9  C   UNL     1      18.139  29.863  32.178  1.00  0.00     0.039 C 
ATOM     10  G   UNL     1      20.275  30.143  30.704  1.00  0.00     0.000 G0
ENDBRANCH   6   7
ENDBRANCH   5   6
ENDBRANCH   3   5
ENDBRANCH   1   3
BRANCH   1  11
ATOM     11  C   UNL     1      20.871  26.683  29.744  1.00  0.00     0.087 C 
BRANCH  11  12
ATOM     12  C   UNL     1      21.485  28.100  29.602  1.00  0.00     0.066 C 
BRANCH  12  13
ATOM     13  C   UNL     1      21.185  28.953  30.828  1.00  0.00     0.140 C 
ATOM     14  O   UNL     1      21.706  28.691  31.906  1.00  0.00    -0.299 OA
BRANCH  13  15
ATOM     15  C   UNL     1      20.282  30.158  30.702  1.00  0.00     0.106 CG0
ATOM     16  G   UNL     1      18.795  29.835  30.817  1.00  0.00     0.000 G0
ENDBRANCH  13  15
ENDBRANCH  12  13
BRANCH  12  17
ATOM     17  C   UNL     1      23.012  28.092  29.257  1.00  0.00    -0.006 C 
ATOM     18  C   UNL     1      23.636  29.490  29.423  1.00  0.00     0.008 C 
ATOM     19  C   UNL     1      23.332  27.544  27.852  1.00  0.00     0.008 C 
ENDBRANCH  12  17
ENDBRANCH  11  12
ENDBRANCH   1  11
TORSDOF 1
ENDMDL
MODEL 8
REMARK VINA RESULT:    -3.227      2.271      5.377
REMARK INTER + INTRA:          -5.277
REMARK INTER:                  -4.952
REMARK INTRA:                  -0.326
REMARK UNBOUND:                -0.353
REMARK SMILES CC1=CCC[C@@H](C)C(=O)C[C@H](C(C)C)C(=O)C1
REMARK SMILES IDX 8 1 9 2 6 3 7 4 5 5 4 6 3 7 2 8 1 9 10 11 11 12 15 13 16 14
REMARK SMILES IDX 17 15 12 17 13 18 14 19
REMARK H PARENT
REMARK Flexibility Score: 70.00
ROOT
ATOM      1  C   UNL     1      18.970  30.224  29.871  1.00  0.00     0.136 C 
ATOM      2  O   UNL     1      19.476  30.989  29.059  1.00  0.00    -0.299 OA
ENDROOT
BRANCH   1   3
ATOM      3  C   UNL     1      19.407  28.770  29.898  1.00  0.00     0.053 C 
ATOM      4  C   UNL     1      20.882  28.662  30.315  1.00  0.00     0.016 C 
BRANCH   3   5
ATOM      5  C   UNL     1      19.169  28.103  28.524  1.00  0.00     0.015 C 
BRANCH   5   6
ATOM      6  C   UNL     1      17.665  27.953  28.221  1.00  0.00     0.028 C 
BRANCH   6   7
ATOM      7  C   UNL     1      16.902  27.240  29.310  1.00  0.00    -0.028 C 
ATOM      8  C   UNL     1      15.834  27.741  29.980  1.00  0.00    -0.070 CG0
ATOM      9  C   UNL     1      15.292  26.934  31.134  1.00  0.00     0.039 C 
ATOM     10  G   UNL     1      15.136  29.045  29.606  1.00  0.00     0.000 G0
ENDBRANCH   6   7
ENDBRANCH   5   6
ENDBRANCH   3   5
ENDBRANCH   1   3
BRANCH   1  11
ATOM     11  C   UNL     1      17.931  30.756  30.834  1.00  0.00     0.087 C 
BRANCH  11  12
ATOM     12  C   UNL     1      16.616  31.154  30.114  1.00  0.00     0.066 C 
BRANCH  12  13
ATOM     13  C   UNL     1      15.477  30.219  30.497  1.00  0.00     0.140 C 
ATOM     14  O   UNL     1      14.809  30.435  31.501  1.00  0.00    -0.299 OA
BRANCH  13  15
ATOM     15  C   UNL     1      15.136  29.046  29.606  1.00  0.00     0.106 CG0
ATOM     16  G   UNL     1      15.838  27.748  29.990  1.00  0.00     0.000 G0
ENDBRANCH  13  15
ENDBRANCH  12  13
BRANCH  12  17
ATOM     17  C   UNL     1      16.225  32.658  30.306  1.00  0.00    -0.006 C 
ATOM     18  C   UNL     1      16.752  33.530  29.152  1.00  0.00     0.008 C 
ATOM     19  C   UNL     1      16.676  33.253  31.654  1.00  0.00     0.008 C 
ENDBRANCH  12  17
ENDBRANCH  11  12
ENDBRANCH   1  11
TORSDOF 1
ENDMDL
MODEL 9
REMARK VINA RESULT:    -3.082      1.902      4.339
REMARK INTER + INTRA:          -5.056
REMARK INTER:                  -4.983
REMARK INTRA:                  -0.073
REMARK UNBOUND:                -0.353
REMARK SMILES CC1=CCC[C@@H](C)C(=O)C[C@H](C(C)C)C(=O)C1
REMARK SMILES IDX 8 1 9 2 6 3 7 4 5 5 4 6 3 7 2 8 1 9 10 11 11 12 15 13 16 14
REMARK SMILES IDX 17 15 12 17 13 18 14 19
REMARK H PARENT
REMARK Flexibility Score: 70.00
ROOT
ATOM      1  C   UNL     1      18.064  29.207  29.200  1.00  0.00     0.136 C 
ATOM      2  O   UNL     1      17.186  28.657  29.853  1.00  0.00    -0.299 OA
ENDROOT
BRANCH   1   3
ATOM      3  C   UNL     1      19.127  28.363  28.519  1.00  0.00     0.053 C 
ATOM      4  C   UNL     1      18.495  27.116  27.884  1.00  0.00     0.016 C 
BRANCH   3   5
ATOM      5  C   UNL     1      20.238  27.971  29.522  1.00  0.00     0.015 C 
BRANCH   5   6
ATOM      6  C   UNL     1      21.436  28.938  29.443  1.00  0.00     0.028 C 
BRANCH   6   7
ATOM      7  C   UNL     1      21.744  29.619  30.754  1.00  0.00    -0.028 C 
ATOM      8  C   UNL     1      21.390  30.886  31.084  1.00  0.00    -0.070 CG0
ATOM      9  C   UNL     1      21.910  31.440  32.388  1.00  0.00     0.039 C 
ATOM     10  G   UNL     1      20.472  31.757  30.233  1.00  0.00     0.000 G0
ENDBRANCH   6   7
ENDBRANCH   5   6
ENDBRANCH   3   5
ENDBRANCH   1   3
BRANCH   1  11
ATOM     11  C   UNL     1      18.055  30.716  29.079  1.00  0.00     0.087 C 
BRANCH  11  12
ATOM     12  C   UNL     1      17.862  31.410  30.453  1.00  0.00     0.066 C 
BRANCH  12  13
ATOM     13  C   UNL     1      19.143  32.098  30.905  1.00  0.00     0.140 C 
ATOM     14  O   UNL     1      19.123  32.896  31.835  1.00  0.00    -0.299 OA
BRANCH  13  15
ATOM     15  C   UNL     1      20.454  31.756  30.236  1.00  0.00     0.106 CG0
ATOM     16  G   UNL     1      21.376  30.884  31.082  1.00  0.00     0.000 G0
ENDBRANCH  13  15
ENDBRANCH  12  13
BRANCH  12  17
ATOM     17  C   UNL     1      16.633  32.379  30.500  1.00  0.00    -0.006 C 
ATOM     18  C   UNL     1      15.391  31.688  31.092  1.00  0.00     0.008 C 
ATOM     19  C   UNL     1      16.278  33.003  29.135  1.00  0.00     0.008 C 
ENDBRANCH  12  17
ENDBRANCH  11  12
ENDBRANCH   1  11
TORSDOF 1
ENDMDL
