MODEL 1
REMARK VINA RESULT:    -5.810      0.000      0.000
REMARK INTER + INTRA:          -8.162
REMARK INTER:                  -7.168
REMARK INTRA:                  -0.994
REMARK UNBOUND:                -0.994
REMARK SMILES CC(C)=CCC[C@@H](C)c1ccc(C)cc1
REMARK SMILES IDX 6 1 7 2 8 3 9 4 13 5 12 6 11 7 14 8 10 9 15 10 5 11 4 12
REMARK SMILES IDX 2 13 1 14 3 15
REMARK H PARENT
REMARK Flexibility Score: inf
ROOT
ATOM      1  C   UNL     1      29.075  21.851   3.184  1.00  0.00     0.012 C 
ENDROOT
BRANCH   1   2
ATOM      2  C   UNL     1      29.944  22.328   4.376  1.00  0.00     0.016 C 
ATOM      3  C   UNL     1      31.369  21.749   4.358  1.00  0.00     0.013 C 
BRANCH   2   4
ATOM      4  C   UNL     1      29.896  23.837   4.572  1.00  0.00    -0.045 A 
ATOM      5  C   UNL     1      29.922  28.125   5.113  1.00  0.00     0.044 C 
ATOM      6  C   UNL     1      29.936  26.634   4.949  1.00  0.00    -0.051 A 
ATOM      7  C   UNL     1      30.761  26.038   3.984  1.00  0.00     0.004 A 
ATOM      8  C   UNL     1      29.082  25.830   5.713  1.00  0.00     0.004 A 
ATOM      9  C   UNL     1      30.749  24.652   3.807  1.00  0.00     0.004 A 
ATOM     10  C   UNL     1      29.069  24.444   5.537  1.00  0.00     0.004 A 
ENDBRANCH   2   4
ENDBRANCH   1   2
BRANCH   1  11
ATOM     11  C   UNL     1      27.655  21.351   3.520  1.00  0.00     0.028 C 
BRANCH  11  12
ATOM     12  C   UNL     1      27.610  20.436   4.719  1.00  0.00    -0.028 C 
ATOM     13  C   UNL     1      27.033  20.742   5.902  1.00  0.00    -0.080 C 
ATOM     14  C   UNL     1      26.311  22.049   6.133  1.00  0.00     0.039 C 
ATOM     15  C   UNL     1      27.086  19.720   7.009  1.00  0.00     0.039 C 
ENDBRANCH  11  12
ENDBRANCH   1  11
TORSDOF 4
ENDMDL
MODEL 2
REMARK VINA RESULT:    -5.766      0.103      1.254
REMARK INTER + INTRA:          -8.109
REMARK INTER:                  -7.108
REMARK INTRA:                  -1.001
REMARK UNBOUND:                -0.994
REMARK SMILES CC(C)=CCC[C@@H](C)c1ccc(C)cc1
REMARK SMILES IDX 6 1 7 2 8 3 9 4 13 5 12 6 11 7 14 8 10 9 15 10 5 11 4 12
REMARK SMILES IDX 2 13 1 14 3 15
REMARK H PARENT
REMARK Flexibility Score: inf
ROOT
ATOM      1  C   UNL     1      29.013  21.908   3.167  1.00  0.00     0.012 C 
ENDROOT
BRANCH   1   2
ATOM      2  C   UNL     1      29.896  22.329   4.371  1.00  0.00     0.016 C 
ATOM      3  C   UNL     1      31.287  21.672   4.361  1.00  0.00     0.013 C 
BRANCH   2   4
ATOM      4  C   UNL     1      29.929  23.836   4.577  1.00  0.00    -0.045 A 
ATOM      5  C   UNL     1      29.862  28.115   5.182  1.00  0.00     0.044 C 
ATOM      6  C   UNL     1      29.861  26.633   4.949  1.00  0.00    -0.051 A 
ATOM      7  C   UNL     1      29.065  25.794   5.741  1.00  0.00     0.004 A 
ATOM      8  C   UNL     1      30.702  26.070   3.981  1.00  0.00     0.004 A 
ATOM      9  C   UNL     1      29.090  24.411   5.548  1.00  0.00     0.004 A 
ATOM     10  C   UNL     1      30.728  24.686   3.787  1.00  0.00     0.004 A 
ENDBRANCH   2   4
ENDBRANCH   1   2
BRANCH   1  11
ATOM     11  C   UNL     1      27.613  21.351   3.497  1.00  0.00     0.028 C 
BRANCH  11  12
ATOM     12  C   UNL     1      27.583  20.506   4.746  1.00  0.00    -0.028 C 
ATOM     13  C   UNL     1      26.942  20.837   5.888  1.00  0.00    -0.080 C 
ATOM     14  C   UNL     1      26.125  22.102   6.016  1.00  0.00     0.039 C 
ATOM     15  C   UNL     1      27.022  19.886   7.055  1.00  0.00     0.039 C 
ENDBRANCH  11  12
ENDBRANCH   1  11
TORSDOF 4
ENDMDL
MODEL 3
REMARK VINA RESULT:    -5.721      1.298      5.418
REMARK INTER + INTRA:          -8.053
REMARK INTER:                  -7.235
REMARK INTRA:                  -0.818
REMARK UNBOUND:                -0.994
REMARK SMILES CC(C)=CCC[C@@H](C)c1ccc(C)cc1
REMARK SMILES IDX 6 1 7 2 8 3 9 4 13 5 12 6 11 7 14 8 10 9 15 10 5 11 4 12
REMARK SMILES IDX 2 13 1 14 3 15
REMARK H PARENT
REMARK Flexibility Score: inf
ROOT
ATOM      1  C   UNL     1      29.968  22.753   3.359  1.00  0.00     0.012 C 
ENDROOT
BRANCH   1   2
ATOM      2  C   UNL     1      29.407  21.351   3.712  1.00  0.00     0.016 C 
ATOM      3  C   UNL     1      30.297  20.573   4.698  1.00  0.00     0.013 C 
BRANCH   2   4
ATOM      4  C   UNL     1      27.938  21.387   4.107  1.00  0.00    -0.045 A 
ATOM      5  C   UNL     1      23.806  21.430   5.374  1.00  0.00     0.044 C 
ATOM      6  C   UNL     1      25.242  21.383   4.944  1.00  0.00    -0.051 A 
ATOM      7  C   UNL     1      26.257  21.782   5.826  1.00  0.00     0.004 A 
ATOM      8  C   UNL     1      25.578  21.001   3.639  1.00  0.00     0.004 A 
ATOM      9  C   UNL     1      27.592  21.772   5.414  1.00  0.00     0.004 A 
ATOM     10  C   UNL     1      26.913  20.990   3.226  1.00  0.00     0.004 A 
ENDBRANCH   2   4
ENDBRANCH   1   2
BRANCH   1  11
ATOM     11  C   UNL     1      30.843  23.437   4.430  1.00  0.00     0.028 C 
BRANCH  11  12
ATOM     12  C   UNL     1      30.835  24.942   4.338  1.00  0.00    -0.028 C 
ATOM     13  C   UNL     1      29.953  25.750   4.967  1.00  0.00    -0.080 C 
ATOM     14  C   UNL     1      28.884  25.213   5.890  1.00  0.00     0.039 C 
ATOM     15  C   UNL     1      30.072  27.238   4.759  1.00  0.00     0.039 C 
ENDBRANCH  11  12
ENDBRANCH   1  11
TORSDOF 4
ENDMDL
MODEL 4
REMARK VINA RESULT:    -5.495      1.467      5.346
REMARK INTER + INTRA:          -7.774
REMARK INTER:                  -7.009
REMARK INTRA:                  -0.764
REMARK UNBOUND:                -0.994
REMARK SMILES CC(C)=CCC[C@@H](C)c1ccc(C)cc1
REMARK SMILES IDX 6 1 7 2 8 3 9 4 13 5 12 6 11 7 14 8 10 9 15 10 5 11 4 12
REMARK SMILES IDX 2 13 1 14 3 15
REMARK H PARENT
REMARK Flexibility Score: inf
ROOT
ATOM      1  C   UNL     1      30.380  21.293   4.401  1.00  0.00     0.012 C 
ENDROOT
BRANCH   1   2
ATOM      2  C   UNL     1      29.429  20.108   4.089  1.00  0.00     0.016 C 
ATOM      3  C   UNL     1      29.929  18.765   4.650  1.00  0.00     0.013 C 
BRANCH   2   4
ATOM      4  C   UNL     1      27.977  20.413   4.428  1.00  0.00    -0.045 A 
ATOM      5  C   UNL     1      23.851  21.387   5.269  1.00  0.00     0.044 C 
ATOM      6  C   UNL     1      25.290  21.081   4.977  1.00  0.00    -0.051 A 
ATOM      7  C   UNL     1      25.726  20.931   3.653  1.00  0.00     0.004 A 
ATOM      8  C   UNL     1      26.197  20.882   6.026  1.00  0.00     0.004 A 
ATOM      9  C   UNL     1      27.059  20.612   3.382  1.00  0.00     0.004 A 
ATOM     10  C   UNL     1      27.531  20.563   5.756  1.00  0.00     0.004 A 
ENDBRANCH   2   4
ENDBRANCH   1   2
BRANCH   1  11
ATOM     11  C   UNL     1      30.054  22.638   3.720  1.00  0.00     0.028 C 
BRANCH  11  12
ATOM     12  C   UNL     1      29.392  23.632   4.641  1.00  0.00    -0.028 C 
ATOM     13  C   UNL     1      29.820  24.897   4.849  1.00  0.00    -0.080 C 
ATOM     14  C   UNL     1      31.011  25.475   4.120  1.00  0.00     0.039 C 
ATOM     15  C   UNL     1      29.052  25.761   5.815  1.00  0.00     0.039 C 
ENDBRANCH  11  12
ENDBRANCH   1  11
TORSDOF 4
ENDMDL
MODEL 5
REMARK VINA RESULT:    -5.479      1.471      5.437
REMARK INTER + INTRA:          -7.753
REMARK INTER:                  -7.022
REMARK INTRA:                  -0.731
REMARK UNBOUND:                -0.994
REMARK SMILES CC(C)=CCC[C@@H](C)c1ccc(C)cc1
REMARK SMILES IDX 6 1 7 2 8 3 9 4 13 5 12 6 11 7 14 8 10 9 15 10 5 11 4 12
REMARK SMILES IDX 2 13 1 14 3 15
REMARK H PARENT
REMARK Flexibility Score: inf
ROOT
ATOM      1  C   UNL     1      30.454  21.302   4.470  1.00  0.00     0.012 C 
ENDROOT
BRANCH   1   2
ATOM      2  C   UNL     1      29.506  20.108   4.185  1.00  0.00     0.016 C 
ATOM      3  C   UNL     1      29.942  18.809   4.885  1.00  0.00     0.013 C 
BRANCH   2   4
ATOM      4  C   UNL     1      28.040  20.458   4.396  1.00  0.00    -0.045 A 
ATOM      5  C   UNL     1      23.871  21.341   5.117  1.00  0.00     0.044 C 
ATOM      6  C   UNL     1      25.311  21.002   4.866  1.00  0.00    -0.051 A 
ATOM      7  C   UNL     1      26.192  20.824   5.942  1.00  0.00     0.004 A 
ATOM      8  C   UNL     1      25.800  20.922   3.556  1.00  0.00     0.004 A 
ATOM      9  C   UNL     1      27.541  20.543   5.708  1.00  0.00     0.004 A 
ATOM     10  C   UNL     1      27.149  20.640   3.321  1.00  0.00     0.004 A 
ENDBRANCH   2   4
ENDBRANCH   1   2
BRANCH   1  11
ATOM     11  C   UNL     1      30.109  22.638   3.779  1.00  0.00     0.028 C 
BRANCH  11  12
ATOM     12  C   UNL     1      29.440  23.631   4.696  1.00  0.00    -0.028 C 
ATOM     13  C   UNL     1      29.838  24.911   4.871  1.00  0.00    -0.080 C 
ATOM     14  C   UNL     1      30.997  25.507   4.105  1.00  0.00     0.039 C 
ATOM     15  C   UNL     1      29.068  25.774   5.838  1.00  0.00     0.039 C 
ENDBRANCH  11  12
ENDBRANCH   1  11
TORSDOF 4
ENDMDL
MODEL 6
REMARK VINA RESULT:    -5.291      1.664      2.855
REMARK INTER + INTRA:          -7.522
REMARK INTER:                  -6.454
REMARK INTRA:                  -1.068
REMARK UNBOUND:                -0.994
REMARK SMILES CC(C)=CCC[C@@H](C)c1ccc(C)cc1
REMARK SMILES IDX 6 1 7 2 8 3 9 4 13 5 12 6 11 7 14 8 10 9 15 10 5 11 4 12
REMARK SMILES IDX 2 13 1 14 3 15
REMARK H PARENT
REMARK Flexibility Score: inf
ROOT
ATOM      1  C   UNL     1      28.330  19.159   3.737  1.00  0.00     0.012 C 
ENDROOT
BRANCH   1   2
ATOM      2  C   UNL     1      29.490  19.578   4.677  1.00  0.00     0.016 C 
ATOM      3  C   UNL     1      30.675  18.596   4.652  1.00  0.00     0.013 C 
BRANCH   2   4
ATOM      4  C   UNL     1      29.895  21.034   4.499  1.00  0.00    -0.045 A 
ATOM      5  C   UNL     1      31.158  25.149   4.109  1.00  0.00     0.044 C 
ATOM      6  C   UNL     1      30.717  23.725   4.277  1.00  0.00    -0.051 A 
ATOM      7  C   UNL     1      31.667  22.705   4.426  1.00  0.00     0.004 A 
ATOM      8  C   UNL     1      29.357  23.395   4.225  1.00  0.00     0.004 A 
ATOM      9  C   UNL     1      31.258  21.374   4.548  1.00  0.00     0.004 A 
ATOM     10  C   UNL     1      28.947  22.065   4.347  1.00  0.00     0.004 A 
ENDBRANCH   2   4
ENDBRANCH   1   2
BRANCH   1  11
ATOM     11  C   UNL     1      27.020  18.708   4.414  1.00  0.00     0.028 C 
BRANCH  11  12
ATOM     12  C   UNL     1      25.972  19.791   4.474  1.00  0.00    -0.028 C 
ATOM     13  C   UNL     1      25.752  20.596   5.536  1.00  0.00    -0.080 C 
ATOM     14  C   UNL     1      26.593  20.524   6.790  1.00  0.00     0.039 C 
ATOM     15  C   UNL     1      24.652  21.622   5.441  1.00  0.00     0.039 C 
ENDBRANCH  11  12
ENDBRANCH   1  11
TORSDOF 4
ENDMDL
MODEL 7
REMARK VINA RESULT:    -5.241      3.618      5.214
REMARK INTER + INTRA:          -7.460
REMARK INTER:                  -6.697
REMARK INTRA:                  -0.764
REMARK UNBOUND:                -0.994
REMARK SMILES CC(C)=CCC[C@@H](C)c1ccc(C)cc1
REMARK SMILES IDX 6 1 7 2 8 3 9 4 13 5 12 6 11 7 14 8 10 9 15 10 5 11 4 12
REMARK SMILES IDX 2 13 1 14 3 15
REMARK H PARENT
REMARK Flexibility Score: inf
ROOT
ATOM      1  C   UNL     1      27.467  19.721   3.331  1.00  0.00     0.012 C 
ENDROOT
BRANCH   1   2
ATOM      2  C   UNL     1      28.065  19.493   4.743  1.00  0.00     0.016 C 
ATOM      3  C   UNL     1      27.380  18.352   5.515  1.00  0.00     0.013 C 
BRANCH   2   4
ATOM      4  C   UNL     1      29.585  19.402   4.732  1.00  0.00    -0.045 A 
ATOM      5  C   UNL     1      33.901  19.249   4.574  1.00  0.00     0.044 C 
ATOM      6  C   UNL     1      32.402  19.296   4.596  1.00  0.00    -0.051 A 
ATOM      7  C   UNL     1      31.732  20.519   4.451  1.00  0.00     0.004 A 
ATOM      8  C   UNL     1      31.661  18.130   4.823  1.00  0.00     0.004 A 
ATOM      9  C   UNL     1      30.337  20.569   4.507  1.00  0.00     0.004 A 
ATOM     10  C   UNL     1      30.265  18.178   4.878  1.00  0.00     0.004 A 
ENDBRANCH   2   4
ENDBRANCH   1   2
BRANCH   1  11
ATOM     11  C   UNL     1      26.651  21.013   3.126  1.00  0.00     0.028 C 
BRANCH  11  12
ATOM     12  C   UNL     1      25.326  21.007   3.848  1.00  0.00    -0.028 C 
ATOM     13  C   UNL     1      25.116  21.517   5.081  1.00  0.00    -0.080 C 
ATOM     14  C   UNL     1      26.208  22.209   5.864  1.00  0.00     0.039 C 
ATOM     15  C   UNL     1      23.732  21.417   5.670  1.00  0.00     0.039 C 
ENDBRANCH  11  12
ENDBRANCH   1  11
TORSDOF 4
ENDMDL
MODEL 8
REMARK VINA RESULT:    -4.930      4.312      6.167
REMARK INTER + INTRA:          -7.077
REMARK INTER:                  -6.685
REMARK INTRA:                  -0.392
REMARK UNBOUND:                -0.994
REMARK SMILES CC(C)=CCC[C@@H](C)c1ccc(C)cc1
REMARK SMILES IDX 6 1 7 2 8 3 9 4 13 5 12 6 11 7 14 8 10 9 15 10 5 11 4 12
REMARK SMILES IDX 2 13 1 14 3 15
REMARK H PARENT
REMARK Flexibility Score: inf
ROOT
ATOM      1  C   UNL     1      30.160  19.205   5.284  1.00  0.00     0.012 C 
ENDROOT
BRANCH   1   2
ATOM      2  C   UNL     1      29.306  19.741   4.106  1.00  0.00     0.016 C 
ATOM      3  C   UNL     1      29.325  18.819   2.875  1.00  0.00     0.013 C 
BRANCH   2   4
ATOM      4  C   UNL     1      27.909  20.163   4.537  1.00  0.00    -0.045 A 
ATOM      5  C   UNL     1      23.942  21.476   5.643  1.00  0.00     0.044 C 
ATOM      6  C   UNL     1      25.329  21.052   5.261  1.00  0.00    -0.051 A 
ATOM      7  C   UNL     1      25.689  20.948   3.909  1.00  0.00     0.004 A 
ATOM      8  C   UNL     1      26.257  20.697   6.248  1.00  0.00     0.004 A 
ATOM      9  C   UNL     1      26.970  20.519   3.552  1.00  0.00     0.004 A 
ATOM     10  C   UNL     1      27.539  20.269   5.892  1.00  0.00     0.004 A 
ENDBRANCH   2   4
ENDBRANCH   1   2
BRANCH   1  11
ATOM     11  C   UNL     1      31.569  18.684   4.936  1.00  0.00     0.028 C 
BRANCH  11  12
ATOM     12  C   UNL     1      31.619  17.193   4.712  1.00  0.00    -0.028 C 
ATOM     13  C   UNL     1      32.530  16.557   3.943  1.00  0.00    -0.080 C 
ATOM     14  C   UNL     1      33.653  17.293   3.248  1.00  0.00     0.039 C 
ATOM     15  C   UNL     1      32.433  15.059   3.810  1.00  0.00     0.039 C 
ENDBRANCH  11  12
ENDBRANCH   1  11
TORSDOF 4
ENDMDL
MODEL 9
REMARK VINA RESULT:    -4.799      3.824      6.645
REMARK INTER + INTRA:          -6.915
REMARK INTER:                  -6.370
REMARK INTRA:                  -0.545
REMARK UNBOUND:                -0.994
REMARK SMILES CC(C)=CCC[C@@H](C)c1ccc(C)cc1
REMARK SMILES IDX 6 1 7 2 8 3 9 4 13 5 12 6 11 7 14 8 10 9 15 10 5 11 4 12
REMARK SMILES IDX 2 13 1 14 3 15
REMARK H PARENT
REMARK Flexibility Score: inf
ROOT
ATOM      1  C   UNL     1      30.910  17.968   4.697  1.00  0.00     0.012 C 
ENDROOT
BRANCH   1   2
ATOM      2  C   UNL     1      30.573  19.415   5.141  1.00  0.00     0.016 C 
ATOM      3  C   UNL     1      31.493  20.474   4.508  1.00  0.00     0.013 C 
BRANCH   2   4
ATOM      4  C   UNL     1      29.090  19.737   5.020  1.00  0.00    -0.045 A 
ATOM      5  C   UNL     1      24.859  20.509   4.599  1.00  0.00     0.044 C 
ATOM      6  C   UNL     1      26.329  20.234   4.713  1.00  0.00    -0.051 A 
ATOM      7  C   UNL     1      26.783  18.955   5.063  1.00  0.00     0.004 A 
ATOM      8  C   UNL     1      27.257  21.267   4.531  1.00  0.00     0.004 A 
ATOM      9  C   UNL     1      28.151  18.707   5.203  1.00  0.00     0.004 A 
ATOM     10  C   UNL     1      28.626  21.020   4.670  1.00  0.00     0.004 A 
ENDBRANCH   2   4
ENDBRANCH   1   2
BRANCH   1  11
ATOM     11  C   UNL     1      31.667  17.814   3.362  1.00  0.00     0.028 C 
BRANCH  11  12
ATOM     12  C   UNL     1      33.083  17.323   3.528  1.00  0.00    -0.028 C 
ATOM     13  C   UNL     1      33.462  16.027   3.478  1.00  0.00    -0.080 C 
ATOM     14  C   UNL     1      32.484  14.911   3.193  1.00  0.00     0.039 C 
ATOM     15  C   UNL     1      34.920  15.700   3.680  1.00  0.00     0.039 C 
ENDBRANCH  11  12
ENDBRANCH   1  11
TORSDOF 4
ENDMDL
