MODEL 1
REMARK VINA RESULT:     6.282      0.000      0.000
REMARK INTER + INTRA:          16.477
REMARK INTER:                  16.566
REMARK INTRA:                  -0.088
REMARK UNBOUND:                -0.088
REMARK SMILES CCCCCCCCCCCCCCCCCCCCCCCCCCCCCC(=O)[O-]
REMARK SMILES IDX 16 1 17 2 18 3 19 4 20 5 21 6 22 7 23 8 24 9 25 10 26 11
REMARK SMILES IDX 27 12 28 13 29 14 30 15 31 16 32 17 15 18 14 19 13 20 12 21
REMARK SMILES IDX 11 22 10 23 9 24 8 25 7 26 6 27 5 28 4 29 3 30 2 31 1 32
REMARK H PARENT
REMARK Flexibility Score: inf
ROOT
ATOM      1  C   UNL     1       5.888 -35.566  23.005  1.00  0.00     0.000 C 
ENDROOT
BRANCH   1   2
ATOM      2  C   UNL     1       5.413 -36.731  22.112  1.00  0.00     0.000 C 
BRANCH   2   3
ATOM      3  C   UNL     1       6.125 -38.076  22.348  1.00  0.00     0.000 C 
BRANCH   3   4
ATOM      4  C   UNL     1       6.081 -38.999  21.119  1.00  0.00     0.000 C 
BRANCH   4   5
ATOM      5  C   UNL     1       6.068 -40.492  21.495  1.00  0.00     0.000 C 
BRANCH   5   6
ATOM      6  C   UNL     1       6.013 -40.790  23.007  1.00  0.00     0.000 C 
BRANCH   6   7
ATOM      7  C   UNL     1       5.107 -39.856  23.830  1.00  0.00     0.000 C 
BRANCH   7   8
ATOM      8  C   UNL     1       5.547 -39.741  25.299  1.00  0.00     0.000 C 
BRANCH   8   9
ATOM      9  C   UNL     1       4.795 -38.637  26.061  1.00  0.00     0.000 C 
BRANCH   9  10
ATOM     10  C   UNL     1       4.890 -37.233  25.431  1.00  0.00     0.000 C 
BRANCH  10  11
ATOM     11  C   UNL     1       4.087 -36.136  26.156  1.00  0.00     0.000 C 
BRANCH  11  12
ATOM     12  C   UNL     1       2.796 -36.652  26.825  1.00  0.00     0.000 C 
BRANCH  12  13
ATOM     13  C   UNL     1       1.847 -35.511  27.220  1.00  0.00     0.006 C 
BRANCH  13  14
ATOM     14  C   UNL     1       1.577 -35.517  28.726  1.00  0.00     0.053 C 
BRANCH  14  15
ATOM     15  C   UNL     1       1.325 -34.127  29.221  1.00  0.00     0.041 C 
ATOM     16  O   UNL     1       2.212 -33.517  29.872  1.00  0.00    -0.550 OA
ATOM     17  O   UNL     1       0.128 -33.488  28.922  1.00  0.00    -0.550 OA
ENDBRANCH  14  15
ENDBRANCH  13  14
ENDBRANCH  12  13
ENDBRANCH  11  12
ENDBRANCH  10  11
ENDBRANCH   9  10
ENDBRANCH   8   9
ENDBRANCH   7   8
ENDBRANCH   6   7
ENDBRANCH   5   6
ENDBRANCH   4   5
ENDBRANCH   3   4
ENDBRANCH   2   3
ENDBRANCH   1   2
BRANCH   1  18
ATOM     18  C   UNL     1       5.284 -34.190  22.670  1.00  0.00     0.000 C 
BRANCH  18  19
ATOM     19  C   UNL     1       4.734 -34.113  21.234  1.00  0.00     0.000 C 
BRANCH  19  20
ATOM     20  C   UNL     1       5.690 -34.739  20.205  1.00  0.00     0.000 C 
BRANCH  20  21
ATOM     21  C   UNL     1       4.984 -35.104  18.887  1.00  0.00     0.000 C 
BRANCH  21  22
ATOM     22  C   UNL     1       4.356 -36.507  18.925  1.00  0.00     0.000 C 
BRANCH  22  23
ATOM     23  C   UNL     1       2.975 -36.523  19.599  1.00  0.00     0.000 C 
BRANCH  23  24
ATOM     24  C   UNL     1       2.153 -37.732  19.136  1.00  0.00    -0.000 C 
BRANCH  24  25
ATOM     25  C   UNL     1       0.974 -37.289  18.257  1.00  0.00    -0.000 C 
BRANCH  25  26
ATOM     26  C   UNL     1       1.284 -36.020  17.446  1.00  0.00    -0.000 C 
BRANCH  26  27
ATOM     27  C   UNL     1       1.839 -36.336  16.047  1.00  0.00    -0.000 C 
BRANCH  27  28
ATOM     28  C   UNL     1       2.732 -35.212  15.499  1.00  0.00    -0.000 C 
BRANCH  28  29
ATOM     29  C   UNL     1       4.159 -35.690  15.178  1.00  0.00    -0.000 C 
BRANCH  29  30
ATOM     30  C   UNL     1       4.207 -36.661  13.985  1.00  0.00    -0.000 C 
BRANCH  30  31
ATOM     31  C   UNL     1       4.171 -38.152  14.364  1.00  0.00    -0.003 C 
ATOM     32  C   UNL     1       5.397 -38.923  13.875  1.00  0.00     0.004 C 
ENDBRANCH  30  31
ENDBRANCH  29  30
ENDBRANCH  28  29
ENDBRANCH  27  28
ENDBRANCH  26  27
ENDBRANCH  25  26
ENDBRANCH  24  25
ENDBRANCH  23  24
ENDBRANCH  22  23
ENDBRANCH  21  22
ENDBRANCH  20  21
ENDBRANCH  19  20
ENDBRANCH  18  19
ENDBRANCH   1  18
TORSDOF 28
ENDMDL
MODEL 2
REMARK VINA RESULT:     6.664      2.681      9.356
REMARK INTER + INTRA:          17.483
REMARK INTER:                  18.222
REMARK INTRA:                  -0.739
REMARK UNBOUND:                -0.088
REMARK SMILES CCCCCCCCCCCCCCCCCCCCCCCCCCCCCC(=O)[O-]
REMARK SMILES IDX 16 1 17 2 18 3 19 4 20 5 21 6 22 7 23 8 24 9 25 10 26 11
REMARK SMILES IDX 27 12 28 13 29 14 30 15 31 16 32 17 15 18 14 19 13 20 12 21
REMARK SMILES IDX 11 22 10 23 9 24 8 25 7 26 6 27 5 28 4 29 3 30 2 31 1 32
REMARK H PARENT
REMARK Flexibility Score: inf
ROOT
ATOM      1  C   UNL     1       5.814 -36.476  21.990  1.00  0.00     0.000 C 
ENDROOT
BRANCH   1   2
ATOM      2  C   UNL     1       5.726 -34.948  22.186  1.00  0.00     0.000 C 
BRANCH   2   3
ATOM      3  C   UNL     1       4.386 -34.307  21.778  1.00  0.00     0.000 C 
BRANCH   3   4
ATOM      4  C   UNL     1       4.458 -33.584  20.423  1.00  0.00     0.000 C 
BRANCH   4   5
ATOM      5  C   UNL     1       5.858 -33.648  19.788  1.00  0.00     0.000 C 
BRANCH   5   6
ATOM      6  C   UNL     1       5.881 -33.899  18.267  1.00  0.00     0.000 C 
BRANCH   6   7
ATOM      7  C   UNL     1       4.582 -34.478  17.675  1.00  0.00     0.000 C 
BRANCH   7   8
ATOM      8  C   UNL     1       4.630 -36.006  17.514  1.00  0.00     0.000 C 
BRANCH   8   9
ATOM      9  C   UNL     1       3.832 -36.501  16.295  1.00  0.00     0.000 C 
BRANCH   9  10
ATOM     10  C   UNL     1       3.073 -35.401  15.527  1.00  0.00     0.000 C 
BRANCH  10  11
ATOM     11  C   UNL     1       1.550 -35.376  15.757  1.00  0.00     0.000 C 
BRANCH  11  12
ATOM     12  C   UNL     1       1.136 -35.709  17.205  1.00  0.00     0.000 C 
BRANCH  12  13
ATOM     13  C   UNL     1       0.361 -37.032  17.301  1.00  0.00     0.006 C 
BRANCH  13  14
ATOM     14  C   UNL     1       0.859 -37.877  18.475  1.00  0.00     0.053 C 
BRANCH  14  15
ATOM     15  C   UNL     1       1.317 -37.000  19.598  1.00  0.00     0.041 C 
ATOM     16  O   UNL     1       2.511 -36.606  19.647  1.00  0.00    -0.550 OA
ATOM     17  O   UNL     1       0.412 -36.579  20.565  1.00  0.00    -0.550 OA
ENDBRANCH  14  15
ENDBRANCH  13  14
ENDBRANCH  12  13
ENDBRANCH  11  12
ENDBRANCH  10  11
ENDBRANCH   9  10
ENDBRANCH   8   9
ENDBRANCH   7   8
ENDBRANCH   6   7
ENDBRANCH   5   6
ENDBRANCH   4   5
ENDBRANCH   3   4
ENDBRANCH   2   3
ENDBRANCH   1   2
BRANCH   1  18
ATOM     18  C   UNL     1       5.747 -36.958  20.530  1.00  0.00     0.000 C 
BRANCH  18  19
ATOM     19  C   UNL     1       5.796 -38.491  20.403  1.00  0.00     0.000 C 
BRANCH  19  20
ATOM     20  C   UNL     1       5.249 -39.201  21.652  1.00  0.00     0.000 C 
BRANCH  20  21
ATOM     21  C   UNL     1       6.125 -40.388  22.090  1.00  0.00     0.000 C 
BRANCH  21  22
ATOM     22  C   UNL     1       5.583 -41.087  23.347  1.00  0.00     0.000 C 
BRANCH  22  23
ATOM     23  C   UNL     1       5.459 -40.137  24.549  1.00  0.00     0.000 C 
BRANCH  23  24
ATOM     24  C   UNL     1       4.986 -38.748  24.103  1.00  0.00    -0.000 C 
BRANCH  24  25
ATOM     25  C   UNL     1       5.468 -37.665  25.080  1.00  0.00    -0.000 C 
BRANCH  25  26
ATOM     26  C   UNL     1       4.725 -37.706  26.425  1.00  0.00    -0.000 C 
BRANCH  26  27
ATOM     27  C   UNL     1       3.722 -36.550  26.580  1.00  0.00    -0.000 C 
BRANCH  27  28
ATOM     28  C   UNL     1       2.308 -37.040  26.929  1.00  0.00    -0.000 C 
BRANCH  28  29
ATOM     29  C   UNL     1       1.372 -35.895  27.357  1.00  0.00    -0.000 C 
BRANCH  29  30
ATOM     30  C   UNL     1       1.995 -34.989  28.434  1.00  0.00    -0.000 C 
BRANCH  30  31
ATOM     31  C   UNL     1       0.988 -34.108  29.195  1.00  0.00    -0.003 C 
ATOM     32  C   UNL     1       1.655 -33.171  30.201  1.00  0.00     0.004 C 
ENDBRANCH  30  31
ENDBRANCH  29  30
ENDBRANCH  28  29
ENDBRANCH  27  28
ENDBRANCH  26  27
ENDBRANCH  25  26
ENDBRANCH  24  25
ENDBRANCH  23  24
ENDBRANCH  22  23
ENDBRANCH  21  22
ENDBRANCH  20  21
ENDBRANCH  19  20
ENDBRANCH  18  19
ENDBRANCH   1  18
TORSDOF 28
ENDMDL
MODEL 3
REMARK VINA RESULT:     8.027      1.336      3.129
REMARK INTER + INTRA:          21.077
REMARK INTER:                  20.155
REMARK INTRA:                   0.921
REMARK UNBOUND:                -0.088
REMARK SMILES CCCCCCCCCCCCCCCCCCCCCCCCCCCCCC(=O)[O-]
REMARK SMILES IDX 16 1 17 2 18 3 19 4 20 5 21 6 22 7 23 8 24 9 25 10 26 11
REMARK SMILES IDX 27 12 28 13 29 14 30 15 31 16 32 17 15 18 14 19 13 20 12 21
REMARK SMILES IDX 11 22 10 23 9 24 8 25 7 26 6 27 5 28 4 29 3 30 2 31 1 32
REMARK H PARENT
REMARK Flexibility Score: inf
ROOT
ATOM      1  C   UNL     1       3.232 -35.978  20.842  1.00  0.00     0.000 C 
ENDROOT
BRANCH   1   2
ATOM      2  C   UNL     1       3.844 -36.643  19.591  1.00  0.00     0.000 C 
BRANCH   2   3
ATOM      3  C   UNL     1       4.935 -37.695  19.869  1.00  0.00     0.000 C 
BRANCH   3   4
ATOM      4  C   UNL     1       4.679 -38.494  21.157  1.00  0.00     0.000 C 
BRANCH   4   5
ATOM      5  C   UNL     1       5.960 -38.727  21.978  1.00  0.00     0.000 C 
BRANCH   5   6
ATOM      6  C   UNL     1       5.865 -38.350  23.470  1.00  0.00     0.000 C 
BRANCH   6   7
ATOM      7  C   UNL     1       6.052 -36.854  23.785  1.00  0.00     0.000 C 
BRANCH   7   8
ATOM      8  C   UNL     1       5.809 -36.522  25.266  1.00  0.00     0.000 C 
BRANCH   8   9
ATOM      9  C   UNL     1       5.551 -37.774  26.123  1.00  0.00     0.000 C 
BRANCH   9  10
ATOM     10  C   UNL     1       4.331 -37.678  27.060  1.00  0.00     0.000 C 
BRANCH  10  11
ATOM     11  C   UNL     1       3.340 -36.546  26.728  1.00  0.00     0.000 C 
BRANCH  11  12
ATOM     12  C   UNL     1       1.861 -36.936  26.933  1.00  0.00     0.000 C 
BRANCH  12  13
ATOM     13  C   UNL     1       1.114 -35.937  27.830  1.00  0.00     0.006 C 
BRANCH  13  14
ATOM     14  C   UNL     1       2.025 -34.778  28.239  1.00  0.00     0.053 C 
BRANCH  14  15
ATOM     15  C   UNL     1       1.334 -33.889  29.226  1.00  0.00     0.041 C 
ATOM     16  O   UNL     1       1.996 -33.060  29.903  1.00  0.00    -0.550 OA
ATOM     17  O   UNL     1      -0.048 -33.942  29.362  1.00  0.00    -0.550 OA
ENDBRANCH  14  15
ENDBRANCH  13  14
ENDBRANCH  12  13
ENDBRANCH  11  12
ENDBRANCH  10  11
ENDBRANCH   9  10
ENDBRANCH   8   9
ENDBRANCH   7   8
ENDBRANCH   6   7
ENDBRANCH   5   6
ENDBRANCH   4   5
ENDBRANCH   3   4
ENDBRANCH   2   3
ENDBRANCH   1   2
BRANCH   1  18
ATOM     18  C   UNL     1       3.598 -34.496  21.044  1.00  0.00     0.000 C 
BRANCH  18  19
ATOM     19  C   UNL     1       4.693 -34.290  22.106  1.00  0.00     0.000 C 
BRANCH  19  20
ATOM     20  C   UNL     1       6.097 -34.613  21.571  1.00  0.00     0.000 C 
BRANCH  20  21
ATOM     21  C   UNL     1       6.124 -34.781  20.042  1.00  0.00     0.000 C 
BRANCH  21  22
ATOM     22  C   UNL     1       6.125 -33.433  19.301  1.00  0.00     0.000 C 
BRANCH  22  23
ATOM     23  C   UNL     1       5.708 -33.564  17.828  1.00  0.00     0.000 C 
BRANCH  23  24
ATOM     24  C   UNL     1       4.718 -34.720  17.638  1.00  0.00    -0.000 C 
BRANCH  24  25
ATOM     25  C   UNL     1       3.808 -34.469  16.426  1.00  0.00    -0.000 C 
BRANCH  25  26
ATOM     26  C   UNL     1       4.177 -35.344  15.217  1.00  0.00    -0.000 C 
BRANCH  26  27
ATOM     27  C   UNL     1       3.280 -36.588  15.094  1.00  0.00    -0.000 C 
BRANCH  27  28
ATOM     28  C   UNL     1       1.896 -36.381  15.728  1.00  0.00    -0.000 C 
BRANCH  28  29
ATOM     29  C   UNL     1       1.968 -36.142  17.247  1.00  0.00    -0.000 C 
BRANCH  29  30
ATOM     30  C   UNL     1       1.402 -37.319  18.062  1.00  0.00    -0.000 C 
BRANCH  30  31
ATOM     31  C   UNL     1       0.024 -37.060  18.696  1.00  0.00    -0.003 C 
ATOM     32  C   UNL     1       0.113 -36.587  20.147  1.00  0.00     0.004 C 
ENDBRANCH  30  31
ENDBRANCH  29  30
ENDBRANCH  28  29
ENDBRANCH  27  28
ENDBRANCH  26  27
ENDBRANCH  25  26
ENDBRANCH  24  25
ENDBRANCH  23  24
ENDBRANCH  22  23
ENDBRANCH  21  22
ENDBRANCH  20  21
ENDBRANCH  19  20
ENDBRANCH  18  19
ENDBRANCH   1  18
TORSDOF 28
ENDMDL
MODEL 4
REMARK VINA RESULT:     8.190      3.958     10.105
REMARK INTER + INTRA:          21.507
REMARK INTER:                  23.219
REMARK INTRA:                  -1.711
REMARK UNBOUND:                -0.088
REMARK SMILES CCCCCCCCCCCCCCCCCCCCCCCCCCCCCC(=O)[O-]
REMARK SMILES IDX 16 1 17 2 18 3 19 4 20 5 21 6 22 7 23 8 24 9 25 10 26 11
REMARK SMILES IDX 27 12 28 13 29 14 30 15 31 16 32 17 15 18 14 19 13 20 12 21
REMARK SMILES IDX 11 22 10 23 9 24 8 25 7 26 6 27 5 28 4 29 3 30 2 31 1 32
REMARK H PARENT
REMARK Flexibility Score: inf
ROOT
ATOM      1  C   UNL     1       3.388 -33.193  22.095  1.00  0.00     0.000 C 
ENDROOT
BRANCH   1   2
ATOM      2  C   UNL     1       3.718 -34.143  20.924  1.00  0.00     0.000 C 
BRANCH   2   3
ATOM      3  C   UNL     1       4.820 -33.652  19.966  1.00  0.00     0.000 C 
BRANCH   3   4
ATOM      4  C   UNL     1       5.891 -34.720  19.691  1.00  0.00     0.000 C 
BRANCH   4   5
ATOM      5  C   UNL     1       5.743 -35.958  20.592  1.00  0.00     0.000 C 
BRANCH   5   6
ATOM      6  C   UNL     1       5.268 -37.240  19.879  1.00  0.00     0.000 C 
BRANCH   6   7
ATOM      7  C   UNL     1       3.790 -37.611  20.106  1.00  0.00     0.000 C 
BRANCH   7   8
ATOM      8  C   UNL     1       2.900 -37.277  18.898  1.00  0.00     0.000 C 
BRANCH   8   9
ATOM      9  C   UNL     1       1.436 -37.013  19.292  1.00  0.00     0.000 C 
BRANCH   9  10
ATOM     10  C   UNL     1       0.530 -36.536  18.140  1.00  0.00     0.000 C 
BRANCH  10  11
ATOM     11  C   UNL     1       1.132 -36.690  16.730  1.00  0.00     0.000 C 
BRANCH  11  12
ATOM     12  C   UNL     1       1.588 -35.357  16.101  1.00  0.00     0.000 C 
BRANCH  12  13
ATOM     13  C   UNL     1       2.014 -35.520  14.634  1.00  0.00     0.006 C 
BRANCH  13  14
ATOM     14  C   UNL     1       3.535 -35.630  14.513  1.00  0.00     0.053 C 
BRANCH  14  15
ATOM     15  C   UNL     1       3.996 -36.999  14.905  1.00  0.00     0.041 C 
ATOM     16  O   UNL     1       4.232 -37.864  14.022  1.00  0.00    -0.550 OA
ATOM     17  O   UNL     1       4.211 -37.305  16.244  1.00  0.00    -0.550 OA
ENDBRANCH  14  15
ENDBRANCH  13  14
ENDBRANCH  12  13
ENDBRANCH  11  12
ENDBRANCH  10  11
ENDBRANCH   9  10
ENDBRANCH   8   9
ENDBRANCH   7   8
ENDBRANCH   6   7
ENDBRANCH   5   6
ENDBRANCH   4   5
ENDBRANCH   3   4
ENDBRANCH   2   3
ENDBRANCH   1   2
BRANCH   1  18
ATOM     18  C   UNL     1       4.607 -32.609  22.832  1.00  0.00     0.000 C 
BRANCH  18  19
ATOM     19  C   UNL     1       5.045 -33.464  24.034  1.00  0.00     0.000 C 
BRANCH  19  20
ATOM     20  C   UNL     1       6.086 -34.527  23.651  1.00  0.00     0.000 C 
BRANCH  20  21
ATOM     21  C   UNL     1       5.839 -35.877  24.347  1.00  0.00     0.000 C 
BRANCH  21  22
ATOM     22  C   UNL     1       5.959 -35.781  25.877  1.00  0.00     0.000 C 
BRANCH  22  23
ATOM     23  C   UNL     1       6.124 -37.153  26.548  1.00  0.00     0.000 C 
BRANCH  23  24
ATOM     24  C   UNL     1       4.816 -37.952  26.495  1.00  0.00    -0.000 C 
BRANCH  24  25
ATOM     25  C   UNL     1       3.622 -37.030  26.207  1.00  0.00    -0.000 C 
BRANCH  25  26
ATOM     26  C   UNL     1       2.502 -37.168  27.251  1.00  0.00    -0.000 C 
BRANCH  26  27
ATOM     27  C   UNL     1       1.176 -36.548  26.777  1.00  0.00    -0.000 C 
BRANCH  27  28
ATOM     28  C   UNL     1       0.981 -35.113  27.289  1.00  0.00    -0.000 C 
BRANCH  28  29
ATOM     29  C   UNL     1       2.081 -34.679  28.274  1.00  0.00    -0.000 C 
BRANCH  29  30
ATOM     30  C   UNL     1       1.572 -33.686  29.335  1.00  0.00    -0.000 C 
BRANCH  30  31
ATOM     31  C   UNL     1       0.046 -33.484  29.349  1.00  0.00    -0.003 C 
ATOM     32  C   UNL     1      -0.367 -32.088  29.814  1.00  0.00     0.004 C 
ENDBRANCH  30  31
ENDBRANCH  29  30
ENDBRANCH  28  29
ENDBRANCH  27  28
ENDBRANCH  26  27
ENDBRANCH  25  26
ENDBRANCH  24  25
ENDBRANCH  23  24
ENDBRANCH  22  23
ENDBRANCH  21  22
ENDBRANCH  20  21
ENDBRANCH  19  20
ENDBRANCH  18  19
ENDBRANCH   1  18
TORSDOF 28
ENDMDL
MODEL 5
REMARK VINA RESULT:     8.672      2.915      8.718
REMARK INTER + INTRA:          22.777
REMARK INTER:                  22.098
REMARK INTRA:                   0.679
REMARK UNBOUND:                -0.088
REMARK SMILES CCCCCCCCCCCCCCCCCCCCCCCCCCCCCC(=O)[O-]
REMARK SMILES IDX 16 1 17 2 18 3 19 4 20 5 21 6 22 7 23 8 24 9 25 10 26 11
REMARK SMILES IDX 27 12 28 13 29 14 30 15 31 16 32 17 15 18 14 19 13 20 12 21
REMARK SMILES IDX 11 22 10 23 9 24 8 25 7 26 6 27 5 28 4 29 3 30 2 31 1 32
REMARK H PARENT
REMARK Flexibility Score: inf
ROOT
ATOM      1  C   UNL     1       2.550 -34.235  21.809  1.00  0.00     0.000 C 
ENDROOT
BRANCH   1   2
ATOM      2  C   UNL     1       3.880 -33.477  21.994  1.00  0.00     0.000 C 
BRANCH   2   3
ATOM      3  C   UNL     1       4.892 -34.140  22.948  1.00  0.00     0.000 C 
BRANCH   3   4
ATOM      4  C   UNL     1       6.104 -34.735  22.213  1.00  0.00     0.000 C 
BRANCH   4   5
ATOM      5  C   UNL     1       5.868 -34.888  20.700  1.00  0.00     0.000 C 
BRANCH   5   6
ATOM      6  C   UNL     1       6.066 -33.604  19.869  1.00  0.00     0.000 C 
BRANCH   6   7
ATOM      7  C   UNL     1       5.271 -33.543  18.552  1.00  0.00     0.000 C 
BRANCH   7   8
ATOM      8  C   UNL     1       5.562 -34.734  17.624  1.00  0.00     0.000 C 
BRANCH   8   9
ATOM      9  C   UNL     1       4.321 -35.605  17.366  1.00  0.00     0.000 C 
BRANCH   9  10
ATOM     10  C   UNL     1       4.158 -36.087  15.911  1.00  0.00     0.000 C 
BRANCH  10  11
ATOM     11  C   UNL     1       3.147 -35.286  15.068  1.00  0.00     0.000 C 
BRANCH  11  12
ATOM     12  C   UNL     1       1.676 -35.531  15.464  1.00  0.00     0.000 C 
BRANCH  12  13
ATOM     13  C   UNL     1       1.496 -35.666  16.984  1.00  0.00     0.006 C 
BRANCH  13  14
ATOM     14  C   UNL     1       0.432 -36.712  17.321  1.00  0.00     0.053 C 
BRANCH  14  15
ATOM     15  C   UNL     1       0.567 -37.160  18.742  1.00  0.00     0.041 C 
ATOM     16  O   UNL     1      -0.058 -36.562  19.656  1.00  0.00    -0.550 OA
ATOM     17  O   UNL     1       1.345 -38.269  19.051  1.00  0.00    -0.550 OA
ENDBRANCH  14  15
ENDBRANCH  13  14
ENDBRANCH  12  13
ENDBRANCH  11  12
ENDBRANCH  10  11
ENDBRANCH   9  10
ENDBRANCH   8   9
ENDBRANCH   7   8
ENDBRANCH   6   7
ENDBRANCH   5   6
ENDBRANCH   4   5
ENDBRANCH   3   4
ENDBRANCH   2   3
ENDBRANCH   1   2
BRANCH   1  18
ATOM     18  C   UNL     1       2.536 -35.274  20.672  1.00  0.00     0.000 C 
BRANCH  18  19
ATOM     19  C   UNL     1       3.329 -36.547  21.017  1.00  0.00     0.000 C 
BRANCH  19  20
ATOM     20  C   UNL     1       4.125 -37.086  19.817  1.00  0.00     0.000 C 
BRANCH  20  21
ATOM     21  C   UNL     1       5.606 -37.333  20.152  1.00  0.00     0.000 C 
BRANCH  21  22
ATOM     22  C   UNL     1       5.997 -38.816  20.036  1.00  0.00     0.000 C 
BRANCH  22  23
ATOM     23  C   UNL     1       5.995 -39.539  21.392  1.00  0.00     0.000 C 
BRANCH  23  24
ATOM     24  C   UNL     1       5.862 -38.538  22.547  1.00  0.00    -0.000 C 
BRANCH  24  25
ATOM     25  C   UNL     1       4.739 -38.957  23.509  1.00  0.00    -0.000 C 
BRANCH  25  26
ATOM     26  C   UNL     1       5.274 -39.593  24.803  1.00  0.00    -0.000 C 
BRANCH  26  27
ATOM     27  C   UNL     1       5.427 -38.570  25.941  1.00  0.00    -0.000 C 
BRANCH  27  28
ATOM     28  C   UNL     1       5.709 -37.150  25.424  1.00  0.00    -0.000 C 
BRANCH  28  29
ATOM     29  C   UNL     1       4.655 -36.130  25.887  1.00  0.00    -0.000 C 
BRANCH  29  30
ATOM     30  C   UNL     1       3.228 -36.707  25.891  1.00  0.00    -0.000 C 
BRANCH  30  31
ATOM     31  C   UNL     1       2.620 -36.915  27.289  1.00  0.00    -0.003 C 
ATOM     32  C   UNL     1       1.770 -35.733  27.754  1.00  0.00     0.004 C 
ENDBRANCH  30  31
ENDBRANCH  29  30
ENDBRANCH  28  29
ENDBRANCH  27  28
ENDBRANCH  26  27
ENDBRANCH  25  26
ENDBRANCH  24  25
ENDBRANCH  23  24
ENDBRANCH  22  23
ENDBRANCH  21  22
ENDBRANCH  20  21
ENDBRANCH  19  20
ENDBRANCH  18  19
ENDBRANCH   1  18
TORSDOF 28
ENDMDL
