MODEL 1
REMARK VINA RESULT:    -4.444      0.000      0.000
REMARK INTER + INTRA:          -4.574
REMARK INTER:                  -4.574
REMARK INTRA:                   0.000
REMARK UNBOUND:                 0.000
REMARK SMILES Oc1ccc2[nH]ccc2c1
REMARK SMILES IDX 3 1 4 2 5 3 9 4 8 5 7 6 6 7 10 8 2 9 1 11
REMARK H PARENT 6 10 1 12
REMARK Flexibility Score: inf
ROOT
ATOM      1  C   UNL     1      22.659  38.617  12.538  1.00  0.00     0.048 A 
ATOM      2  C   UNL     1      22.866  37.916  13.740  1.00  0.00     0.030 A 
ATOM      3  C   UNL     1      24.069  38.119  14.413  1.00  0.00     0.046 A 
ATOM      4  C   UNL     1      25.029  38.968  13.931  1.00  0.00     0.003 A 
ATOM      5  C   UNL     1      26.084  38.943  14.817  1.00  0.00     0.028 A 
ATOM      6  C   UNL     1      25.697  38.057  15.817  1.00  0.00     0.083 A 
ATOM      7  N   UNL     1      24.466  37.555  15.565  1.00  0.00    -0.361 N 
ATOM      8  C   UNL     1      24.857  39.677  12.743  1.00  0.00     0.056 A 
ATOM      9  C   UNL     1      23.649  39.495  12.037  1.00  0.00     0.116 A 
ATOM     10  H   UNL     1      23.936  36.872  16.150  1.00  0.00     0.166 HD
ENDROOT
BRANCH   9  11
ATOM     11  O   UNL     1      23.420  40.176  10.844  1.00  0.00    -0.508 OA
ATOM     12  H   UNL     1      23.741  39.810   9.956  1.00  0.00     0.293 HD
ENDBRANCH   9  11
TORSDOF 1
ENDMDL
MODEL 2
REMARK VINA RESULT:    -3.946      7.528      9.067
REMARK INTER + INTRA:          -4.061
REMARK INTER:                  -4.061
REMARK INTRA:                   0.000
REMARK UNBOUND:                 0.000
REMARK SMILES Oc1ccc2[nH]ccc2c1
REMARK SMILES IDX 3 1 4 2 5 3 9 4 8 5 7 6 6 7 10 8 2 9 1 11
REMARK H PARENT 6 10 1 12
REMARK Flexibility Score: inf
ROOT
ATOM      1  C   UNL     1      34.238  39.034  15.504  1.00  0.00     0.048 A 
ATOM      2  C   UNL     1      32.946  39.136  16.052  1.00  0.00     0.030 A 
ATOM      3  C   UNL     1      31.921  38.418  15.439  1.00  0.00     0.046 A 
ATOM      4  C   UNL     1      32.149  37.635  14.338  1.00  0.00     0.003 A 
ATOM      5  C   UNL     1      30.946  37.069  13.979  1.00  0.00     0.028 A 
ATOM      6  C   UNL     1      30.027  37.550  14.907  1.00  0.00     0.083 A 
ATOM      7  N   UNL     1      30.627  38.374  15.796  1.00  0.00    -0.361 N 
ATOM      8  C   UNL     1      33.416  37.512  13.771  1.00  0.00     0.056 A 
ATOM      9  C   UNL     1      34.477  38.226  14.368  1.00  0.00     0.116 A 
ATOM     10  H   UNL     1      30.174  38.872  16.595  1.00  0.00     0.166 HD
ENDROOT
BRANCH   9  11
ATOM     11  O   UNL     1      35.765  38.142  13.846  1.00  0.00    -0.508 OA
ATOM     12  H   UNL     1      36.201  37.248  13.655  1.00  0.00     0.293 HD
ENDBRANCH   9  11
TORSDOF 1
ENDMDL
MODEL 3
REMARK VINA RESULT:    -3.822      2.205      3.526
REMARK INTER + INTRA:          -3.934
REMARK INTER:                  -3.934
REMARK INTRA:                   0.000
REMARK UNBOUND:                 0.000
REMARK SMILES Oc1ccc2[nH]ccc2c1
REMARK SMILES IDX 3 1 4 2 5 3 9 4 8 5 7 6 6 7 10 8 2 9 1 11
REMARK H PARENT 6 10 1 12
REMARK Flexibility Score: inf
ROOT
ATOM      1  C   UNL     1      24.883  39.615  12.540  1.00  0.00     0.048 A 
ATOM      2  C   UNL     1      23.574  39.509  12.037  1.00  0.00     0.030 A 
ATOM      3  C   UNL     1      22.667  38.721  12.743  1.00  0.00     0.046 A 
ATOM      4  C   UNL     1      23.025  38.065  13.891  1.00  0.00     0.003 A 
ATOM      5  C   UNL     1      21.916  37.383  14.339  1.00  0.00     0.028 A 
ATOM      6  C   UNL     1      20.916  37.668  13.414  1.00  0.00     0.083 A 
ATOM      7  N   UNL     1      21.380  38.486  12.441  1.00  0.00    -0.361 N 
ATOM      8  C   UNL     1      24.313  38.149  14.416  1.00  0.00     0.056 A 
ATOM      9  C   UNL     1      25.256  38.939  13.725  1.00  0.00     0.116 A 
ATOM     10  H   UNL     1      20.844  38.857  11.625  1.00  0.00     0.166 HD
ENDROOT
BRANCH   9  11
ATOM     11  O   UNL     1      26.559  39.061  14.202  1.00  0.00    -0.508 OA
ATOM     12  H   UNL     1      27.065  39.936  14.137  1.00  0.00     0.293 HD
ENDBRANCH   9  11
TORSDOF 1
ENDMDL
MODEL 4
REMARK VINA RESULT:    -3.812      1.467      2.173
REMARK INTER + INTRA:          -3.923
REMARK INTER:                  -3.923
REMARK INTRA:                   0.000
REMARK UNBOUND:                 0.000
REMARK SMILES Oc1ccc2[nH]ccc2c1
REMARK SMILES IDX 3 1 4 2 5 3 9 4 8 5 7 6 6 7 10 8 2 9 1 11
REMARK H PARENT 6 10 1 12
REMARK Flexibility Score: inf
ROOT
ATOM      1  C   UNL     1      23.166  39.488  11.968  1.00  0.00     0.048 A 
ATOM      2  C   UNL     1      24.499  39.720  12.354  1.00  0.00     0.030 A 
ATOM      3  C   UNL     1      24.986  39.026  13.461  1.00  0.00     0.046 A 
ATOM      4  C   UNL     1      24.204  38.145  14.159  1.00  0.00     0.003 A 
ATOM      5  C   UNL     1      24.972  37.634  15.182  1.00  0.00     0.028 A 
ATOM      6  C   UNL     1      26.213  38.249  15.046  1.00  0.00     0.083 A 
ATOM      7  N   UNL     1      26.216  39.099  13.994  1.00  0.00    -0.361 N 
ATOM      8  C   UNL     1      22.881  37.892  13.803  1.00  0.00     0.056 A 
ATOM      9  C   UNL     1      22.356  38.578  12.687  1.00  0.00     0.116 A 
ATOM     10  H   UNL     1      27.014  39.688  13.666  1.00  0.00     0.166 HD
ENDROOT
BRANCH   9  11
ATOM     11  O   UNL     1      21.041  38.366  12.283  1.00  0.00    -0.508 OA
ATOM     12  H   UNL     1      20.572  37.484  12.451  1.00  0.00     0.293 HD
ENDBRANCH   9  11
TORSDOF 1
ENDMDL
MODEL 5
REMARK VINA RESULT:    -3.803      1.766      2.365
REMARK INTER + INTRA:          -3.914
REMARK INTER:                  -3.914
REMARK INTRA:                   0.000
REMARK UNBOUND:                 0.000
REMARK SMILES Oc1ccc2[nH]ccc2c1
REMARK SMILES IDX 3 1 4 2 5 3 9 4 8 5 7 6 6 7 10 8 2 9 1 11
REMARK H PARENT 6 10 1 12
REMARK Flexibility Score: inf
ROOT
ATOM      1  C   UNL     1      21.704  37.282  14.127  1.00  0.00     0.048 A 
ATOM      2  C   UNL     1      22.993  37.256  14.689  1.00  0.00     0.030 A 
ATOM      3  C   UNL     1      23.980  38.037  14.091  1.00  0.00     0.046 A 
ATOM      4  C   UNL     1      23.718  38.809  12.991  1.00  0.00     0.003 A 
ATOM      5  C   UNL     1      24.889  39.449  12.648  1.00  0.00     0.028 A 
ATOM      6  C   UNL     1      25.824  39.020  13.585  1.00  0.00     0.083 A 
ATOM      7  N   UNL     1      25.264  38.157  14.463  1.00  0.00    -0.361 N 
ATOM      8  C   UNL     1      22.453  38.858  12.409  1.00  0.00     0.056 A 
ATOM      9  C   UNL     1      21.430  38.079  12.990  1.00  0.00     0.116 A 
ATOM     10  H   UNL     1      25.737  37.684  15.266  1.00  0.00     0.166 HD
ENDROOT
BRANCH   9  11
ATOM     11  O   UNL     1      20.145  38.087  12.453  1.00  0.00    -0.508 OA
ATOM     12  H   UNL     1      19.575  38.924  12.460  1.00  0.00     0.293 HD
ENDBRANCH   9  11
TORSDOF 1
ENDMDL
MODEL 6
REMARK VINA RESULT:    -3.729      2.184      3.438
REMARK INTER + INTRA:          -3.838
REMARK INTER:                  -3.838
REMARK INTRA:                   0.000
REMARK UNBOUND:                 0.000
REMARK SMILES Oc1ccc2[nH]ccc2c1
REMARK SMILES IDX 3 1 4 2 5 3 9 4 8 5 7 6 6 7 10 8 2 9 1 11
REMARK H PARENT 6 10 1 12
REMARK Flexibility Score: inf
ROOT
ATOM      1  C   UNL     1      25.612  37.671  15.111  1.00  0.00     0.048 A 
ATOM      2  C   UNL     1      24.239  37.449  14.901  1.00  0.00     0.030 A 
ATOM      3  C   UNL     1      23.637  38.083  13.815  1.00  0.00     0.046 A 
ATOM      4  C   UNL     1      24.345  38.898  12.973  1.00  0.00     0.003 A 
ATOM      5  C   UNL     1      23.470  39.362  12.017  1.00  0.00     0.028 A 
ATOM      6  C   UNL     1      22.244  38.789  12.337  1.00  0.00     0.083 A 
ATOM      7  N   UNL     1      22.350  38.008  13.437  1.00  0.00    -0.361 N 
ATOM      8  C   UNL     1      25.706  39.139  13.153  1.00  0.00     0.056 A 
ATOM      9  C   UNL     1      26.347  38.513  14.243  1.00  0.00     0.116 A 
ATOM     10  H   UNL     1      21.587  37.461  13.894  1.00  0.00     0.166 HD
ENDROOT
BRANCH   9  11
ATOM     11  O   UNL     1      27.705  38.715  14.474  1.00  0.00    -0.508 OA
ATOM     12  H   UNL     1      28.070  38.838  15.411  1.00  0.00     0.293 HD
ENDBRANCH   9  11
TORSDOF 1
ENDMDL
MODEL 7
REMARK VINA RESULT:    -3.723      1.088      1.280
REMARK INTER + INTRA:          -3.832
REMARK INTER:                  -3.832
REMARK INTRA:                   0.000
REMARK UNBOUND:                 0.000
REMARK SMILES Oc1ccc2[nH]ccc2c1
REMARK SMILES IDX 3 1 4 2 5 3 9 4 8 5 7 6 6 7 10 8 2 9 1 11
REMARK H PARENT 6 10 1 12
REMARK Flexibility Score: inf
ROOT
ATOM      1  C   UNL     1      23.039  39.238  11.936  1.00  0.00     0.048 A 
ATOM      2  C   UNL     1      22.442  38.428  12.919  1.00  0.00     0.030 A 
ATOM      3  C   UNL     1      23.158  38.193  14.091  1.00  0.00     0.046 A 
ATOM      4  C   UNL     1      24.403  38.727  14.294  1.00  0.00     0.003 A 
ATOM      5  C   UNL     1      24.833  38.309  15.534  1.00  0.00     0.028 A 
ATOM      6  C   UNL     1      23.798  37.524  16.032  1.00  0.00     0.083 A 
ATOM      7  N   UNL     1      22.777  37.456  15.147  1.00  0.00    -0.361 N 
ATOM      8  C   UNL     1      25.023  39.533  13.341  1.00  0.00     0.056 A 
ATOM      9  C   UNL     1      24.325  39.791  12.142  1.00  0.00     0.116 A 
ATOM     10  H   UNL     1      21.879  36.936  15.265  1.00  0.00     0.166 HD
ENDROOT
BRANCH   9  11
ATOM     11  O   UNL     1      24.893  40.590  11.154  1.00  0.00    -0.508 OA
ATOM     12  H   UNL     1      24.651  40.474  10.177  1.00  0.00     0.293 HD
ENDBRANCH   9  11
TORSDOF 1
ENDMDL
MODEL 8
REMARK VINA RESULT:    -3.637      2.100      2.679
REMARK INTER + INTRA:          -3.743
REMARK INTER:                  -3.743
REMARK INTRA:                   0.000
REMARK UNBOUND:                 0.000
REMARK SMILES Oc1ccc2[nH]ccc2c1
REMARK SMILES IDX 3 1 4 2 5 3 9 4 8 5 7 6 6 7 10 8 2 9 1 11
REMARK H PARENT 6 10 1 12
REMARK Flexibility Score: inf
ROOT
ATOM      1  C   UNL     1      24.044  39.018  14.788  1.00  0.00     0.048 A 
ATOM      2  C   UNL     1      25.361  39.093  15.275  1.00  0.00     0.030 A 
ATOM      3  C   UNL     1      26.381  38.579  14.475  1.00  0.00     0.046 A 
ATOM      4  C   UNL     1      26.123  38.017  13.253  1.00  0.00     0.003 A 
ATOM      5  C   UNL     1      27.328  37.611  12.724  1.00  0.00     0.028 A 
ATOM      6  C   UNL     1      28.279  37.958  13.678  1.00  0.00     0.083 A 
ATOM      7  N   UNL     1      27.695  38.549  14.746  1.00  0.00    -0.361 N 
ATOM      8  C   UNL     1      24.830  37.927  12.741  1.00  0.00     0.056 A 
ATOM      9  C   UNL     1      23.774  38.437  13.526  1.00  0.00     0.116 A 
ATOM     10  H   UNL     1      28.173  38.908  15.603  1.00  0.00     0.166 HD
ENDROOT
BRANCH   9  11
ATOM     11  O   UNL     1      22.461  38.376  13.068  1.00  0.00    -0.508 OA
ATOM     12  H   UNL     1      22.135  37.605  12.497  1.00  0.00     0.293 HD
ENDBRANCH   9  11
TORSDOF 1
ENDMDL
