MODEL 1
REMARK VINA RESULT:    -0.389      0.000      0.000
REMARK INTER + INTRA:          -1.356
REMARK INTER:                  -0.685
REMARK INTRA:                  -0.671
REMARK UNBOUND:                -0.671
REMARK SMILES CCCCCCCCCCCCCC(=O)OC
REMARK SMILES IDX 8 1 7 2 6 3 5 4 4 5 3 6 2 7 1 8 9 9 10 10 11 11 12 12 13 13
REMARK SMILES IDX 14 14 15 15 16 16 17 17
REMARK H PARENT
REMARK Flexibility Score: inf
ROOT
ATOM      1  C   UNL     1     176.835 179.330 173.089  1.00  0.00     0.000 C 
ENDROOT
BRANCH   1   2
ATOM      2  C   UNL     1     176.094 180.199 172.057  1.00  0.00     0.000 C 
BRANCH   2   3
ATOM      3  C   UNL     1     176.812 181.524 171.762  1.00  0.00    -0.000 C 
BRANCH   3   4
ATOM      4  C   UNL     1     178.113 181.635 172.571  1.00  0.00    -0.000 C 
BRANCH   4   5
ATOM      5  C   UNL     1     178.297 183.014 173.228  1.00  0.00    -0.000 C 
BRANCH   5   6
ATOM      6  C   UNL     1     179.445 183.099 174.251  1.00  0.00    -0.000 C 
BRANCH   6   7
ATOM      7  C   UNL     1     179.120 184.013 175.441  1.00  0.00    -0.003 C 
ATOM      8  C   UNL     1     180.347 184.223 176.324  1.00  0.00     0.004 C 
ENDBRANCH   6   7
ENDBRANCH   5   6
ENDBRANCH   4   5
ENDBRANCH   3   4
ENDBRANCH   2   3
ENDBRANCH   1   2
BRANCH   1   9
ATOM      9  C   UNL     1     177.817 178.307 172.491  1.00  0.00     0.000 C 
BRANCH   9  10
ATOM     10  C   UNL     1     177.852 178.336 170.956  1.00  0.00     0.000 C 
BRANCH  10  11
ATOM     11  C   UNL     1     179.172 178.935 170.448  1.00  0.00     0.001 C 
BRANCH  11  12
ATOM     12  C   UNL     1     180.168 179.222 171.582  1.00  0.00     0.012 C 
BRANCH  12  13
ATOM     13  C   UNL     1     181.356 178.252 171.583  1.00  0.00     0.123 C 
BRANCH  13  14
ATOM     14  C   UNL     1     181.488 177.591 172.919  1.00  0.00     0.305 C 
ATOM     15  O   UNL     1     181.887 178.259 173.912  1.00  0.00    -0.252 OA
BRANCH  14  16
ATOM     16  O   UNL     1     181.123 176.249 173.061  1.00  0.00    -0.469 OA
ATOM     17  C   UNL     1     180.019 175.679 172.369  1.00  0.00     0.282 C 
ENDBRANCH  14  16
ENDBRANCH  13  14
ENDBRANCH  12  13
ENDBRANCH  11  12
ENDBRANCH  10  11
ENDBRANCH   9  10
ENDBRANCH   1   9
TORSDOF 13
ENDMDL
MODEL 2
REMARK VINA RESULT:    -0.377      1.209      1.857
REMARK INTER + INTRA:          -1.334
REMARK INTER:                  -0.480
REMARK INTRA:                  -0.854
REMARK UNBOUND:                -0.671
REMARK SMILES CCCCCCCCCCCCCC(=O)OC
REMARK SMILES IDX 8 1 7 2 6 3 5 4 4 5 3 6 2 7 1 8 9 9 10 10 11 11 12 12 13 13
REMARK SMILES IDX 14 14 15 15 16 16 17 17
REMARK H PARENT
REMARK Flexibility Score: inf
ROOT
ATOM      1  C   UNL     1     177.662 178.569 171.985  1.00  0.00     0.000 C 
ENDROOT
BRANCH   1   2
ATOM      2  C   UNL     1     176.373 179.410 171.926  1.00  0.00     0.000 C 
BRANCH   2   3
ATOM      3  C   UNL     1     176.427 180.652 172.825  1.00  0.00    -0.000 C 
BRANCH   3   4
ATOM      4  C   UNL     1     177.328 181.736 172.214  1.00  0.00    -0.000 C 
BRANCH   4   5
ATOM      5  C   UNL     1     178.608 181.985 173.031  1.00  0.00    -0.000 C 
BRANCH   5   6
ATOM      6  C   UNL     1     178.590 183.259 173.895  1.00  0.00    -0.000 C 
BRANCH   6   7
ATOM      7  C   UNL     1     179.826 183.388 174.797  1.00  0.00    -0.003 C 
ATOM      8  C   UNL     1     179.548 184.306 175.983  1.00  0.00     0.004 C 
ENDBRANCH   6   7
ENDBRANCH   5   6
ENDBRANCH   4   5
ENDBRANCH   3   4
ENDBRANCH   2   3
ENDBRANCH   1   2
BRANCH   1   9
ATOM      9  C   UNL     1     178.598 178.728 170.773  1.00  0.00     0.000 C 
BRANCH   9  10
ATOM     10  C   UNL     1     180.011 179.184 171.162  1.00  0.00     0.000 C 
BRANCH  10  11
ATOM     11  C   UNL     1     180.203 179.135 172.685  1.00  0.00     0.001 C 
BRANCH  11  12
ATOM     12  C   UNL     1     181.248 178.095 173.117  1.00  0.00     0.012 C 
BRANCH  12  13
ATOM     13  C   UNL     1     181.775 177.264 171.940  1.00  0.00     0.123 C 
BRANCH  13  14
ATOM     14  C   UNL     1     180.943 176.034 171.758  1.00  0.00     0.305 C 
ATOM     15  O   UNL     1     181.309 175.146 170.940  1.00  0.00    -0.252 OA
BRANCH  14  16
ATOM     16  O   UNL     1     179.791 175.862 172.531  1.00  0.00    -0.469 OA
ATOM     17  C   UNL     1     179.507 174.651 173.222  1.00  0.00     0.282 C 
ENDBRANCH  14  16
ENDBRANCH  13  14
ENDBRANCH  12  13
ENDBRANCH  11  12
ENDBRANCH  10  11
ENDBRANCH   9  10
ENDBRANCH   1   9
TORSDOF 13
ENDMDL
MODEL 3
REMARK VINA RESULT:    -0.232      0.631      1.276
REMARK INTER + INTRA:          -1.079
REMARK INTER:                  -0.565
REMARK INTRA:                  -0.514
REMARK UNBOUND:                -0.671
REMARK SMILES CCCCCCCCCCCCCC(=O)OC
REMARK SMILES IDX 8 1 7 2 6 3 5 4 4 5 3 6 2 7 1 8 9 9 10 10 11 11 12 12 13 13
REMARK SMILES IDX 14 14 15 15 16 16 17 17
REMARK H PARENT
REMARK Flexibility Score: inf
ROOT
ATOM      1  C   UNL     1     176.784 179.240 173.077  1.00  0.00     0.000 C 
ENDROOT
BRANCH   1   2
ATOM      2  C   UNL     1     176.035 180.141 172.079  1.00  0.00     0.000 C 
BRANCH   2   3
ATOM      3  C   UNL     1     176.763 181.464 171.803  1.00  0.00    -0.000 C 
BRANCH   3   4
ATOM      4  C   UNL     1     178.060 181.559 172.619  1.00  0.00    -0.000 C 
BRANCH   4   5
ATOM      5  C   UNL     1     178.340 182.979 173.142  1.00  0.00    -0.000 C 
BRANCH   5   6
ATOM      6  C   UNL     1     179.443 183.071 174.213  1.00  0.00    -0.000 C 
BRANCH   6   7
ATOM      7  C   UNL     1     179.099 184.051 175.344  1.00  0.00    -0.003 C 
ATOM      8  C   UNL     1     180.260 184.190 176.323  1.00  0.00     0.004 C 
ENDBRANCH   6   7
ENDBRANCH   5   6
ENDBRANCH   4   5
ENDBRANCH   3   4
ENDBRANCH   2   3
ENDBRANCH   1   2
BRANCH   1   9
ATOM      9  C   UNL     1     177.955 178.440 172.477  1.00  0.00     0.000 C 
BRANCH   9  10
ATOM     10  C   UNL     1     177.970 178.459 170.942  1.00  0.00     0.000 C 
BRANCH  10  11
ATOM     11  C   UNL     1     179.357 178.852 170.411  1.00  0.00     0.001 C 
BRANCH  11  12
ATOM     12  C   UNL     1     180.389 179.043 171.534  1.00  0.00     0.012 C 
BRANCH  12  13
ATOM     13  C   UNL     1     181.465 177.951 171.537  1.00  0.00     0.123 C 
BRANCH  13  14
ATOM     14  C   UNL     1     181.225 176.988 172.657  1.00  0.00     0.305 C 
ATOM     15  O   UNL     1     180.374 176.066 172.519  1.00  0.00    -0.252 OA
BRANCH  14  16
ATOM     16  O   UNL     1     181.981 177.092 173.828  1.00  0.00    -0.469 OA
ATOM     17  C   UNL     1     182.008 178.275 174.618  1.00  0.00     0.282 C 
ENDBRANCH  14  16
ENDBRANCH  13  14
ENDBRANCH  12  13
ENDBRANCH  11  12
ENDBRANCH  10  11
ENDBRANCH   9  10
ENDBRANCH   1   9
TORSDOF 13
ENDMDL
MODEL 4
REMARK VINA RESULT:     0.185      2.429      5.361
REMARK INTER + INTRA:          -0.345
REMARK INTER:                   0.593
REMARK INTRA:                  -0.939
REMARK UNBOUND:                -0.671
REMARK SMILES CCCCCCCCCCCCCC(=O)OC
REMARK SMILES IDX 8 1 7 2 6 3 5 4 4 5 3 6 2 7 1 8 9 9 10 10 11 11 12 12 13 13
REMARK SMILES IDX 14 14 15 15 16 16 17 17
REMARK H PARENT
REMARK Flexibility Score: inf
ROOT
ATOM      1  C   UNL     1     178.024 178.513 170.841  1.00  0.00     0.000 C 
ENDROOT
BRANCH   1   2
ATOM      2  C   UNL     1     179.397 179.028 170.372  1.00  0.00     0.000 C 
BRANCH   2   3
ATOM      3  C   UNL     1     180.432 179.090 171.505  1.00  0.00    -0.000 C 
BRANCH   3   4
ATOM      4  C   UNL     1     181.321 177.838 171.506  1.00  0.00    -0.000 C 
BRANCH   4   5
ATOM      5  C   UNL     1     181.540 177.257 172.914  1.00  0.00    -0.000 C 
BRANCH   5   6
ATOM      6  C   UNL     1     181.542 178.295 174.052  1.00  0.00    -0.000 C 
BRANCH   6   7
ATOM      7  C   UNL     1     182.559 177.971 175.156  1.00  0.00    -0.003 C 
ATOM      8  C   UNL     1     182.541 179.035 176.249  1.00  0.00     0.004 C 
ENDBRANCH   6   7
ENDBRANCH   5   6
ENDBRANCH   4   5
ENDBRANCH   3   4
ENDBRANCH   2   3
ENDBRANCH   1   2
BRANCH   1   9
ATOM      9  C   UNL     1     177.920 178.219 172.349  1.00  0.00     0.000 C 
BRANCH   9  10
ATOM     10  C   UNL     1     176.948 179.158 173.077  1.00  0.00     0.000 C 
BRANCH  10  11
ATOM     11  C   UNL     1     176.295 180.142 172.095  1.00  0.00     0.001 C 
BRANCH  11  12
ATOM     12  C   UNL     1     177.001 181.507 172.066  1.00  0.00     0.012 C 
BRANCH  12  13
ATOM     13  C   UNL     1     178.290 181.522 172.898  1.00  0.00     0.123 C 
BRANCH  13  14
ATOM     14  C   UNL     1     178.686 182.930 173.217  1.00  0.00     0.305 C 
ATOM     15  O   UNL     1     178.227 183.881 172.527  1.00  0.00    -0.252 OA
BRANCH  14  16
ATOM     16  O   UNL     1     179.526 183.178 174.306  1.00  0.00    -0.469 OA
ATOM     17  C   UNL     1     179.121 183.960 175.422  1.00  0.00     0.282 C 
ENDBRANCH  14  16
ENDBRANCH  13  14
ENDBRANCH  12  13
ENDBRANCH  11  12
ENDBRANCH  10  11
ENDBRANCH   9  10
ENDBRANCH   1   9
TORSDOF 13
ENDMDL
MODEL 5
REMARK VINA RESULT:     0.470      2.914      5.294
REMARK INTER + INTRA:           0.155
REMARK INTER:                   0.891
REMARK INTRA:                  -0.735
REMARK UNBOUND:                -0.671
REMARK SMILES CCCCCCCCCCCCCC(=O)OC
REMARK SMILES IDX 8 1 7 2 6 3 5 4 4 5 3 6 2 7 1 8 9 9 10 10 11 11 12 12 13 13
REMARK SMILES IDX 14 14 15 15 16 16 17 17
REMARK H PARENT
REMARK Flexibility Score: inf
ROOT
ATOM      1  C   UNL     1     180.484 179.015 171.591  1.00  0.00     0.000 C 
ENDROOT
BRANCH   1   2
ATOM      2  C   UNL     1     181.397 177.779 171.672  1.00  0.00     0.000 C 
BRANCH   2   3
ATOM      3  C   UNL     1     181.567 177.251 173.104  1.00  0.00    -0.000 C 
BRANCH   3   4
ATOM      4  C   UNL     1     181.610 178.407 174.114  1.00  0.00    -0.000 C 
BRANCH   4   5
ATOM      5  C   UNL     1     182.621 178.176 175.251  1.00  0.00    -0.000 C 
BRANCH   5   6
ATOM      6  C   UNL     1     182.360 178.995 176.529  1.00  0.00    -0.000 C 
BRANCH   6   7
ATOM      7  C   UNL     1     183.233 180.255 176.621  1.00  0.00    -0.003 C 
ATOM      8  C   UNL     1     182.793 181.144 177.779  1.00  0.00     0.004 C 
ENDBRANCH   6   7
ENDBRANCH   5   6
ENDBRANCH   4   5
ENDBRANCH   3   4
ENDBRANCH   2   3
ENDBRANCH   1   2
BRANCH   1   9
ATOM      9  C   UNL     1     179.465 178.995 170.437  1.00  0.00     0.000 C 
BRANCH   9  10
ATOM     10  C   UNL     1     178.066 178.544 170.880  1.00  0.00     0.000 C 
BRANCH  10  11
ATOM     11  C   UNL     1     178.001 178.374 172.404  1.00  0.00     0.001 C 
BRANCH  11  12
ATOM     12  C   UNL     1     176.967 179.302 173.061  1.00  0.00     0.012 C 
BRANCH  12  13
ATOM     13  C   UNL     1     176.321 180.267 172.060  1.00  0.00     0.123 C 
BRANCH  13  14
ATOM     14  C   UNL     1     177.155 181.501 171.913  1.00  0.00     0.305 C 
ATOM     15  O   UNL     1     176.781 182.420 171.135  1.00  0.00    -0.252 OA
BRANCH  14  16
ATOM     16  O   UNL     1     178.317 181.640 172.677  1.00  0.00    -0.469 OA
ATOM     17  C   UNL     1     178.570 182.783 173.484  1.00  0.00     0.282 C 
ENDBRANCH  14  16
ENDBRANCH  13  14
ENDBRANCH  12  13
ENDBRANCH  11  12
ENDBRANCH  10  11
ENDBRANCH   9  10
ENDBRANCH   1   9
TORSDOF 13
ENDMDL
MODEL 6
REMARK VINA RESULT:     0.470      2.799      6.550
REMARK INTER + INTRA:           0.156
REMARK INTER:                   1.109
REMARK INTRA:                  -0.954
REMARK UNBOUND:                -0.671
REMARK SMILES CCCCCCCCCCCCCC(=O)OC
REMARK SMILES IDX 8 1 7 2 6 3 5 4 4 5 3 6 2 7 1 8 9 9 10 10 11 11 12 12 13 13
REMARK SMILES IDX 14 14 15 15 16 16 17 17
REMARK H PARENT
REMARK Flexibility Score: inf
ROOT
ATOM      1  C   UNL     1     181.195 178.267 173.125  1.00  0.00     0.000 C 
ENDROOT
BRANCH   1   2
ATOM      2  C   UNL     1     181.803 177.429 171.986  1.00  0.00     0.000 C 
BRANCH   2   3
ATOM      3  C   UNL     1     181.189 176.026 171.880  1.00  0.00    -0.000 C 
BRANCH   3   4
ATOM      4  C   UNL     1     179.866 175.944 172.657  1.00  0.00    -0.000 C 
BRANCH   4   5
ATOM      5  C   UNL     1     179.537 174.520 173.136  1.00  0.00    -0.000 C 
BRANCH   5   6
ATOM      6  C   UNL     1     178.394 174.428 174.164  1.00  0.00    -0.000 C 
BRANCH   6   7
ATOM      7  C   UNL     1     178.812 173.718 175.461  1.00  0.00    -0.003 C 
ATOM      8  C   UNL     1     177.687 173.751 176.491  1.00  0.00     0.004 C 
ENDBRANCH   6   7
ENDBRANCH   5   6
ENDBRANCH   4   5
ENDBRANCH   3   4
ENDBRANCH   2   3
ENDBRANCH   1   2
BRANCH   1   9
ATOM      9  C   UNL     1     179.972 179.115 172.727  1.00  0.00     0.000 C 
BRANCH   9  10
ATOM     10  C   UNL     1     179.904 179.396 171.219  1.00  0.00     0.000 C 
BRANCH  10  11
ATOM     11  C   UNL     1     178.635 178.787 170.604  1.00  0.00     0.001 C 
BRANCH  11  12
ATOM     12  C   UNL     1     177.529 178.547 171.644  1.00  0.00     0.012 C 
BRANCH  12  13
ATOM     13  C   UNL     1     176.388 179.566 171.537  1.00  0.00     0.123 C 
BRANCH  13  14
ATOM     14  C   UNL     1     176.623 180.710 172.473  1.00  0.00     0.305 C 
ATOM     15  O   UNL     1     176.030 180.741 173.586  1.00  0.00    -0.252 OA
BRANCH  14  16
ATOM     16  O   UNL     1     177.534 181.711 172.121  1.00  0.00    -0.469 OA
ATOM     17  C   UNL     1     178.328 182.394 173.082  1.00  0.00     0.282 C 
ENDBRANCH  14  16
ENDBRANCH  13  14
ENDBRANCH  12  13
ENDBRANCH  11  12
ENDBRANCH  10  11
ENDBRANCH   9  10
ENDBRANCH   1   9
TORSDOF 13
ENDMDL
MODEL 7
REMARK VINA RESULT:     0.544      1.225      2.100
REMARK INTER + INTRA:           0.285
REMARK INTER:                   1.057
REMARK INTRA:                  -0.772
REMARK UNBOUND:                -0.671
REMARK SMILES CCCCCCCCCCCCCC(=O)OC
REMARK SMILES IDX 8 1 7 2 6 3 5 4 4 5 3 6 2 7 1 8 9 9 10 10 11 11 12 12 13 13
REMARK SMILES IDX 14 14 15 15 16 16 17 17
REMARK H PARENT
REMARK Flexibility Score: inf
ROOT
ATOM      1  C   UNL     1     176.923 179.058 171.172  1.00  0.00     0.000 C 
ENDROOT
BRANCH   1   2
ATOM      2  C   UNL     1     176.692 179.163 172.691  1.00  0.00     0.000 C 
BRANCH   2   3
ATOM      3  C   UNL     1     176.421 180.600 173.157  1.00  0.00    -0.000 C 
BRANCH   3   4
ATOM      4  C   UNL     1     177.141 181.616 172.258  1.00  0.00    -0.000 C 
BRANCH   4   5
ATOM      5  C   UNL     1     178.496 182.070 172.827  1.00  0.00    -0.000 C 
BRANCH   5   6
ATOM      6  C   UNL     1     178.410 183.112 173.958  1.00  0.00    -0.000 C 
BRANCH   6   7
ATOM      7  C   UNL     1     179.767 183.389 174.621  1.00  0.00    -0.003 C 
ATOM      8  C   UNL     1     179.599 184.216 175.892  1.00  0.00     0.004 C 
ENDBRANCH   6   7
ENDBRANCH   5   6
ENDBRANCH   4   5
ENDBRANCH   3   4
ENDBRANCH   2   3
ENDBRANCH   1   2
BRANCH   1   9
ATOM      9  C   UNL     1     178.342 178.623 170.760  1.00  0.00     0.000 C 
BRANCH   9  10
ATOM     10  C   UNL     1     179.416 179.040 171.775  1.00  0.00     0.000 C 
BRANCH  10  11
ATOM     11  C   UNL     1     180.825 178.801 171.213  1.00  0.00     0.001 C 
BRANCH  11  12
ATOM     12  C   UNL     1     181.388 177.422 171.593  1.00  0.00     0.012 C 
BRANCH  12  13
ATOM     13  C   UNL     1     180.877 176.930 172.953  1.00  0.00     0.123 C 
BRANCH  13  14
ATOM     14  C   UNL     1     181.891 177.204 174.019  1.00  0.00     0.305 C 
ATOM     15  O   UNL     1     182.645 176.276 174.420  1.00  0.00    -0.252 OA
BRANCH  14  16
ATOM     16  O   UNL     1     182.021 178.500 174.527  1.00  0.00    -0.469 OA
ATOM     17  C   UNL     1     182.491 178.762 175.844  1.00  0.00     0.282 C 
ENDBRANCH  14  16
ENDBRANCH  13  14
ENDBRANCH  12  13
ENDBRANCH  11  12
ENDBRANCH  10  11
ENDBRANCH   9  10
ENDBRANCH   1   9
TORSDOF 13
ENDMDL
MODEL 8
REMARK VINA RESULT:     0.758     13.318     15.505
REMARK INTER + INTRA:           0.663
REMARK INTER:                   0.955
REMARK INTRA:                  -0.292
REMARK UNBOUND:                -0.671
REMARK SMILES CCCCCCCCCCCCCC(=O)OC
REMARK SMILES IDX 8 1 7 2 6 3 5 4 4 5 3 6 2 7 1 8 9 9 10 10 11 11 12 12 13 13
REMARK SMILES IDX 14 14 15 15 16 16 17 17
REMARK H PARENT
REMARK Flexibility Score: inf
ROOT
ATOM      1  C   UNL     1     171.525 170.745 181.508  1.00  0.00     0.000 C 
ENDROOT
BRANCH   1   2
ATOM      2  C   UNL     1     170.760 171.119 180.226  1.00  0.00     0.000 C 
BRANCH   2   3
ATOM      3  C   UNL     1     171.530 170.770 178.945  1.00  0.00    -0.000 C 
BRANCH   3   4
ATOM      4  C   UNL     1     170.784 171.273 177.700  1.00  0.00    -0.000 C 
BRANCH   4   5
ATOM      5  C   UNL     1     170.382 170.139 176.741  1.00  0.00    -0.000 C 
BRANCH   5   6
ATOM      6  C   UNL     1     169.125 170.418 175.896  1.00  0.00    -0.000 C 
BRANCH   6   7
ATOM      7  C   UNL     1     169.448 170.733 174.428  1.00  0.00    -0.003 C 
ATOM      8  C   UNL     1     170.893 171.197 174.271  1.00  0.00     0.004 C 
ENDBRANCH   6   7
ENDBRANCH   5   6
ENDBRANCH   4   5
ENDBRANCH   3   4
ENDBRANCH   2   3
ENDBRANCH   1   2
BRANCH   1   9
ATOM      9  C   UNL     1     171.609 169.235 181.797  1.00  0.00     0.000 C 
BRANCH   9  10
ATOM     10  C   UNL     1     172.725 168.875 182.789  1.00  0.00     0.000 C 
BRANCH  10  11
ATOM     11  C   UNL     1     172.198 168.877 184.231  1.00  0.00     0.001 C 
BRANCH  11  12
ATOM     12  C   UNL     1     171.466 170.179 184.594  1.00  0.00     0.012 C 
BRANCH  12  13
ATOM     13  C   UNL     1     172.302 171.093 185.499  1.00  0.00     0.123 C 
BRANCH  13  14
ATOM     14  C   UNL     1     172.968 172.160 184.688  1.00  0.00     0.305 C 
ATOM     15  O   UNL     1     173.944 171.864 183.946  1.00  0.00    -0.252 OA
BRANCH  14  16
ATOM     16  O   UNL     1     172.471 173.466 184.729  1.00  0.00    -0.469 OA
ATOM     17  C   UNL     1     172.214 174.223 183.553  1.00  0.00     0.282 C 
ENDBRANCH  14  16
ENDBRANCH  13  14
ENDBRANCH  12  13
ENDBRANCH  11  12
ENDBRANCH  10  11
ENDBRANCH   9  10
ENDBRANCH   1   9
TORSDOF 13
ENDMDL
MODEL 9
REMARK VINA RESULT:     0.812     13.777     15.853
REMARK INTER + INTRA:           0.757
REMARK INTER:                   1.388
REMARK INTRA:                  -0.631
REMARK UNBOUND:                -0.671
REMARK SMILES CCCCCCCCCCCCCC(=O)OC
REMARK SMILES IDX 8 1 7 2 6 3 5 4 4 5 3 6 2 7 1 8 9 9 10 10 11 11 12 12 13 13
REMARK SMILES IDX 14 14 15 15 16 16 17 17
REMARK H PARENT
REMARK Flexibility Score: inf
ROOT
ATOM      1  C   UNL     1     171.917 169.873 180.354  1.00  0.00     0.000 C 
ENDROOT
BRANCH   1   2
ATOM      2  C   UNL     1     171.008 171.082 180.640  1.00  0.00     0.000 C 
BRANCH   2   3
ATOM      3  C   UNL     1     170.862 172.021 179.434  1.00  0.00    -0.000 C 
BRANCH   3   4
ATOM      4  C   UNL     1     171.157 171.280 178.121  1.00  0.00    -0.000 C 
BRANCH   4   5
ATOM      5  C   UNL     1     169.903 170.644 177.494  1.00  0.00    -0.000 C 
BRANCH   5   6
ATOM      6  C   UNL     1     170.140 169.930 176.151  1.00  0.00    -0.000 C 
BRANCH   6   7
ATOM      7  C   UNL     1     169.896 170.840 174.938  1.00  0.00    -0.003 C 
ATOM      8  C   UNL     1     171.210 171.203 174.251  1.00  0.00     0.004 C 
ENDBRANCH   6   7
ENDBRANCH   5   6
ENDBRANCH   4   5
ENDBRANCH   3   4
ENDBRANCH   2   3
ENDBRANCH   1   2
BRANCH   1   9
ATOM      9  C   UNL     1     172.056 168.876 181.519  1.00  0.00     0.000 C 
BRANCH   9  10
ATOM     10  C   UNL     1     173.449 168.897 182.164  1.00  0.00     0.000 C 
BRANCH  10  11
ATOM     11  C   UNL     1     173.351 169.163 183.674  1.00  0.00     0.001 C 
BRANCH  11  12
ATOM     12  C   UNL     1     171.906 169.099 184.194  1.00  0.00     0.012 C 
BRANCH  12  13
ATOM     13  C   UNL     1     171.294 170.489 184.407  1.00  0.00     0.123 C 
BRANCH  13  14
ATOM     14  C   UNL     1     172.117 171.277 185.378  1.00  0.00     0.305 C 
ATOM     15  O   UNL     1     173.001 172.069 184.952  1.00  0.00    -0.252 OA
BRANCH  14  16
ATOM     16  O   UNL     1     171.865 171.158 186.748  1.00  0.00    -0.469 OA
ATOM     17  C   UNL     1     172.775 170.528 187.642  1.00  0.00     0.282 C 
ENDBRANCH  14  16
ENDBRANCH  13  14
ENDBRANCH  12  13
ENDBRANCH  11  12
ENDBRANCH  10  11
ENDBRANCH   9  10
ENDBRANCH   1   9
TORSDOF 13
ENDMDL
