MODEL 1
REMARK VINA RESULT:    -6.239      0.000      0.000
REMARK INTER + INTRA:          -7.242
REMARK INTER:                  -7.333
REMARK INTRA:                   0.091
REMARK UNBOUND:                 0.091
REMARK SMILES O=c1c(O)c(-c2ccc(O)c(O)c2)oc2cc(O)ccc12
REMARK SMILES IDX 5 1 3 2 2 3 1 4 21 5 15 6 14 7 16 8 17 9 19 10 20 11 6 12
REMARK SMILES IDX 7 13 8 14 9 15 13 16 11 17 10 18 12 20 4 22 18 24
REMARK H PARENT 10 19 12 21 4 23 18 25
REMARK Flexibility Score: inf
ROOT
ATOM      1  C   UNL     1      27.028  58.329 143.124  1.00  0.00     0.180 A 
ATOM      2  C   UNL     1      26.437  57.203 142.514  1.00  0.00     0.208 A 
ATOM      3  C   UNL     1      27.107  56.579 141.451  1.00  0.00     0.235 A 
ATOM      4  O   UNL     1      26.605  55.563 140.897  1.00  0.00    -0.285 OA
ATOM      5  C   UNL     1      28.334  57.099 141.008  1.00  0.00     0.069 A 
ATOM      6  C   UNL     1      28.848  58.243 141.654  1.00  0.00     0.142 A 
ATOM      7  O   UNL     1      28.186  58.800 142.663  1.00  0.00    -0.452 OA
ATOM      8  C   UNL     1      30.062  58.798 141.236  1.00  0.00     0.094 A 
ATOM      9  C   UNL     1      30.773  58.222 140.178  1.00  0.00     0.119 A 
ATOM     10  C   UNL     1      30.268  57.084 139.535  1.00  0.00     0.047 A 
ATOM     11  C   UNL     1      29.054  56.523 139.945  1.00  0.00     0.020 A 
ENDROOT
BRANCH   1  12
ATOM     12  C   UNL     1      26.393  59.032 144.261  1.00  0.00     0.025 A 
ATOM     13  C   UNL     1      26.446  60.433 144.325  1.00  0.00     0.016 A 
ATOM     14  C   UNL     1      25.872  61.116 145.399  1.00  0.00     0.051 A 
ATOM     15  C   UNL     1      25.250  60.407 146.435  1.00  0.00     0.157 A 
ATOM     16  C   UNL     1      25.785  58.323 145.314  1.00  0.00     0.062 A 
ATOM     17  C   UNL     1      25.211  59.008 146.394  1.00  0.00     0.158 A 
BRANCH  15  18
ATOM     18  O   UNL     1      24.674  61.084 147.508  1.00  0.00    -0.504 OA
ATOM     19  H   UNL     1      23.691  60.981 147.734  1.00  0.00     0.293 HD
ENDBRANCH  15  18
BRANCH  17  20
ATOM     20  O   UNL     1      24.603  58.304 147.432  1.00  0.00    -0.504 OA
ATOM     21  H   UNL     1      24.910  57.374 147.694  1.00  0.00     0.293 HD
ENDBRANCH  17  20
ENDBRANCH   1  12
BRANCH   2  22
ATOM     22  O   UNL     1      25.193  56.738 142.946  1.00  0.00    -0.502 OA
ATOM     23  H   UNL     1      24.538  57.328 143.446  1.00  0.00     0.293 HD
ENDBRANCH   2  22
BRANCH   9  24
ATOM     24  O   UNL     1      31.981  58.787 139.774  1.00  0.00    -0.508 OA
ATOM     25  H   UNL     1      32.337  58.659 138.834  1.00  0.00     0.293 HD
ENDBRANCH   9  24
TORSDOF 5
ENDMDL
MODEL 2
REMARK VINA RESULT:    -5.967      1.507      3.291
REMARK INTER + INTRA:          -6.922
REMARK INTER:                  -6.864
REMARK INTRA:                  -0.058
REMARK UNBOUND:                 0.091
REMARK SMILES O=c1c(O)c(-c2ccc(O)c(O)c2)oc2cc(O)ccc12
REMARK SMILES IDX 5 1 3 2 2 3 1 4 21 5 15 6 14 7 16 8 17 9 19 10 20 11 6 12
REMARK SMILES IDX 7 13 8 14 9 15 13 16 11 17 10 18 12 20 4 22 18 24
REMARK H PARENT 10 19 12 21 4 23 18 25
REMARK Flexibility Score: inf
ROOT
ATOM      1  C   UNL     1      26.824  58.007 142.927  1.00  0.00     0.180 A 
ATOM      2  C   UNL     1      28.155  58.064 142.464  1.00  0.00     0.208 A 
ATOM      3  C   UNL     1      28.518  57.289 141.351  1.00  0.00     0.235 A 
ATOM      4  O   UNL     1      29.700  57.333 140.911  1.00  0.00    -0.285 OA
ATOM      5  C   UNL     1      27.560  56.464 140.742  1.00  0.00     0.069 A 
ATOM      6  C   UNL     1      26.256  56.443 141.280  1.00  0.00     0.142 A 
ATOM      7  O   UNL     1      25.949  57.199 142.329  1.00  0.00    -0.452 OA
ATOM      8  C   UNL     1      25.275  55.627 140.707  1.00  0.00     0.094 A 
ATOM      9  C   UNL     1      25.580  54.829 139.600  1.00  0.00     0.119 A 
ATOM     10  C   UNL     1      26.873  54.848 139.060  1.00  0.00     0.047 A 
ATOM     11  C   UNL     1      27.861  55.660 139.627  1.00  0.00     0.020 A 
ENDROOT
BRANCH   1  12
ATOM     12  C   UNL     1      26.357  58.806 144.082  1.00  0.00     0.025 A 
ATOM     13  C   UNL     1      26.518  60.200 144.068  1.00  0.00     0.016 A 
ATOM     14  C   UNL     1      26.103  60.972 145.156  1.00  0.00     0.051 A 
ATOM     15  C   UNL     1      25.536  60.359 146.281  1.00  0.00     0.157 A 
ATOM     16  C   UNL     1      25.806  58.193 145.222  1.00  0.00     0.062 A 
ATOM     17  C   UNL     1      25.392  58.967 146.316  1.00  0.00     0.158 A 
BRANCH  15  18
ATOM     18  O   UNL     1      25.120  61.125 147.368  1.00  0.00    -0.504 OA
ATOM     19  H   UNL     1      25.784  61.518 148.025  1.00  0.00     0.293 HD
ENDBRANCH  15  18
BRANCH  17  20
ATOM     20  O   UNL     1      24.841  58.359 147.442  1.00  0.00    -0.504 OA
ATOM     21  H   UNL     1      23.894  58.560 147.743  1.00  0.00     0.293 HD
ENDBRANCH  17  20
ENDBRANCH   1  12
BRANCH   2  22
ATOM     22  O   UNL     1      29.097  58.858 143.121  1.00  0.00    -0.502 OA
ATOM     23  H   UNL     1      30.044  58.971 142.776  1.00  0.00     0.293 HD
ENDBRANCH   2  22
BRANCH   9  24
ATOM     24  O   UNL     1      24.592  54.021 139.041  1.00  0.00    -0.508 OA
ATOM     25  H   UNL     1      23.752  54.416 138.635  1.00  0.00     0.293 HD
ENDBRANCH   9  24
TORSDOF 5
ENDMDL
MODEL 3
REMARK VINA RESULT:    -5.465      2.569      3.063
REMARK INTER + INTRA:          -6.332
REMARK INTER:                  -6.862
REMARK INTRA:                   0.530
REMARK UNBOUND:                 0.091
REMARK SMILES O=c1c(O)c(-c2ccc(O)c(O)c2)oc2cc(O)ccc12
REMARK SMILES IDX 5 1 3 2 2 3 1 4 21 5 15 6 14 7 16 8 17 9 19 10 20 11 6 12
REMARK SMILES IDX 7 13 8 14 9 15 13 16 11 17 10 18 12 20 4 22 18 24
REMARK H PARENT 10 19 12 21 4 23 18 25
REMARK Flexibility Score: inf
ROOT
ATOM      1  C   UNL     1      26.569  57.968 141.319  1.00  0.00     0.180 A 
ATOM      2  C   UNL     1      26.226  56.717 140.766  1.00  0.00     0.208 A 
ATOM      3  C   UNL     1      26.435  56.503 139.395  1.00  0.00     0.235 A 
ATOM      4  O   UNL     1      26.148  55.388 138.880  1.00  0.00    -0.285 OA
ATOM      5  C   UNL     1      26.959  57.540 138.606  1.00  0.00     0.069 A 
ATOM      6  C   UNL     1      27.253  58.771 139.229  1.00  0.00     0.142 A 
ATOM      7  O   UNL     1      27.049  58.931 140.533  1.00  0.00    -0.452 OA
ATOM      8  C   UNL     1      27.766  59.832 138.476  1.00  0.00     0.094 A 
ATOM      9  C   UNL     1      27.991  59.678 137.104  1.00  0.00     0.119 A 
ATOM     10  C   UNL     1      27.702  58.457 136.481  1.00  0.00     0.047 A 
ATOM     11  C   UNL     1      27.187  57.391 137.226  1.00  0.00     0.020 A 
ENDROOT
BRANCH   1  12
ATOM     12  C   UNL     1      26.396  58.267 142.759  1.00  0.00     0.025 A 
ATOM     13  C   UNL     1      25.997  57.244 143.634  1.00  0.00     0.016 A 
ATOM     14  C   UNL     1      25.808  57.508 144.992  1.00  0.00     0.051 A 
ATOM     15  C   UNL     1      25.999  58.802 145.493  1.00  0.00     0.157 A 
ATOM     16  C   UNL     1      26.567  59.569 143.262  1.00  0.00     0.062 A 
ATOM     17  C   UNL     1      26.375  59.835 144.625  1.00  0.00     0.158 A 
BRANCH  15  18
ATOM     18  O   UNL     1      25.813  59.070 146.848  1.00  0.00    -0.504 OA
ATOM     19  H   UNL     1      24.920  58.915 147.301  1.00  0.00     0.293 HD
ENDBRANCH  15  18
BRANCH  17  20
ATOM     20  O   UNL     1      26.551  61.125 145.124  1.00  0.00    -0.504 OA
ATOM     21  H   UNL     1      25.781  61.648 145.526  1.00  0.00     0.293 HD
ENDBRANCH  17  20
ENDBRANCH   1  12
BRANCH   2  22
ATOM     22  O   UNL     1      25.663  55.721 141.568  1.00  0.00    -0.502 OA
ATOM     23  H   UNL     1      25.053  55.004 141.191  1.00  0.00     0.293 HD
ENDBRANCH   2  22
BRANCH   9  24
ATOM     24  O   UNL     1      28.502  60.746 136.368  1.00  0.00    -0.508 OA
ATOM     25  H   UNL     1      28.265  61.705 136.592  1.00  0.00     0.293 HD
ENDBRANCH   9  24
TORSDOF 5
ENDMDL
MODEL 4
REMARK VINA RESULT:    -4.941      1.825      3.164
REMARK INTER + INTRA:          -5.717
REMARK INTER:                  -6.071
REMARK INTRA:                   0.354
REMARK UNBOUND:                 0.091
REMARK SMILES O=c1c(O)c(-c2ccc(O)c(O)c2)oc2cc(O)ccc12
REMARK SMILES IDX 5 1 3 2 2 3 1 4 21 5 15 6 14 7 16 8 17 9 19 10 20 11 6 12
REMARK SMILES IDX 7 13 8 14 9 15 13 16 11 17 10 18 12 20 4 22 18 24
REMARK H PARENT 10 19 12 21 4 23 18 25
REMARK Flexibility Score: inf
ROOT
ATOM      1  C   UNL     1      26.499  58.772 143.665  1.00  0.00     0.180 A 
ATOM      2  C   UNL     1      27.069  59.864 142.978  1.00  0.00     0.208 A 
ATOM      3  C   UNL     1      27.595  59.655 141.693  1.00  0.00     0.235 A 
ATOM      4  O   UNL     1      28.100  60.619 141.054  1.00  0.00    -0.285 OA
ATOM      5  C   UNL     1      27.560  58.368 141.134  1.00  0.00     0.069 A 
ATOM      6  C   UNL     1      26.994  57.323 141.895  1.00  0.00     0.142 A 
ATOM      7  O   UNL     1      26.499  57.564 143.104  1.00  0.00    -0.452 OA
ATOM      8  C   UNL     1      26.950  56.024 141.376  1.00  0.00     0.094 A 
ATOM      9  C   UNL     1      27.463  55.756 140.103  1.00  0.00     0.119 A 
ATOM     10  C   UNL     1      28.023  56.790 139.343  1.00  0.00     0.047 A 
ATOM     11  C   UNL     1      28.074  58.092 139.853  1.00  0.00     0.020 A 
ENDROOT
BRANCH   1  12
ATOM     12  C   UNL     1      25.908  58.914 145.014  1.00  0.00     0.025 A 
ATOM     13  C   UNL     1      24.905  58.022 145.427  1.00  0.00     0.016 A 
ATOM     14  C   UNL     1      24.319  58.150 146.689  1.00  0.00     0.051 A 
ATOM     15  C   UNL     1      24.715  59.181 147.550  1.00  0.00     0.157 A 
ATOM     16  C   UNL     1      26.288  59.960 145.874  1.00  0.00     0.062 A 
ATOM     17  C   UNL     1      25.698  60.090 147.140  1.00  0.00     0.158 A 
BRANCH  15  18
ATOM     18  O   UNL     1      24.135  59.311 148.810  1.00  0.00    -0.504 OA
ATOM     19  H   UNL     1      24.625  59.030 149.651  1.00  0.00     0.293 HD
ENDBRANCH  15  18
BRANCH  17  20
ATOM     20  O   UNL     1      26.081  61.124 147.994  1.00  0.00    -0.504 OA
ATOM     21  H   UNL     1      26.422  60.939 148.930  1.00  0.00     0.293 HD
ENDBRANCH  17  20
ENDBRANCH   1  12
BRANCH   2  22
ATOM     22  O   UNL     1      27.133  61.123 143.580  1.00  0.00    -0.502 OA
ATOM     23  H   UNL     1      26.413  61.824 143.445  1.00  0.00     0.293 HD
ENDBRANCH   2  22
BRANCH   9  24
ATOM     24  O   UNL     1      27.410  54.456 139.602  1.00  0.00    -0.508 OA
ATOM     25  H   UNL     1      28.073  53.748 139.896  1.00  0.00     0.293 HD
ENDBRANCH   9  24
TORSDOF 5
ENDMDL
MODEL 5
REMARK VINA RESULT:    -4.899      2.431      6.574
REMARK INTER + INTRA:          -5.667
REMARK INTER:                  -6.122
REMARK INTRA:                   0.455
REMARK UNBOUND:                 0.091
REMARK SMILES O=c1c(O)c(-c2ccc(O)c(O)c2)oc2cc(O)ccc12
REMARK SMILES IDX 5 1 3 2 2 3 1 4 21 5 15 6 14 7 16 8 17 9 19 10 20 11 6 12
REMARK SMILES IDX 7 13 8 14 9 15 13 16 11 17 10 18 12 20 4 22 18 24
REMARK H PARENT 10 19 12 21 4 23 18 25
REMARK Flexibility Score: inf
ROOT
ATOM      1  C   UNL     1      26.997  58.750 141.527  1.00  0.00     0.180 A 
ATOM      2  C   UNL     1      26.712  57.396 141.801  1.00  0.00     0.208 A 
ATOM      3  C   UNL     1      26.262  57.046 143.084  1.00  0.00     0.235 A 
ATOM      4  O   UNL     1      25.989  55.843 143.349  1.00  0.00    -0.285 OA
ATOM      5  C   UNL     1      26.127  58.042 144.064  1.00  0.00     0.069 A 
ATOM      6  C   UNL     1      26.456  59.369 143.719  1.00  0.00     0.142 A 
ATOM      7  O   UNL     1      26.871  59.662 142.491  1.00  0.00    -0.452 OA
ATOM      8  C   UNL     1      26.345  60.389 144.671  1.00  0.00     0.094 A 
ATOM      9  C   UNL     1      25.906  60.098 145.966  1.00  0.00     0.119 A 
ATOM     10  C   UNL     1      25.576  58.781 146.313  1.00  0.00     0.047 A 
ATOM     11  C   UNL     1      25.686  57.755 145.369  1.00  0.00     0.020 A 
ENDROOT
BRANCH   1  12
ATOM     12  C   UNL     1      27.459  59.203 140.196  1.00  0.00     0.025 A 
ATOM     13  C   UNL     1      27.832  60.544 140.013  1.00  0.00     0.016 A 
ATOM     14  C   UNL     1      28.251  60.998 138.760  1.00  0.00     0.051 A 
ATOM     15  C   UNL     1      28.288  60.122 137.668  1.00  0.00     0.157 A 
ATOM     16  C   UNL     1      27.478  58.331 139.092  1.00  0.00     0.062 A 
ATOM     17  C   UNL     1      27.897  58.787 137.833  1.00  0.00     0.158 A 
BRANCH  15  18
ATOM     18  O   UNL     1      28.707  60.569 136.417  1.00  0.00    -0.504 OA
ATOM     19  H   UNL     1      29.371  60.043 135.860  1.00  0.00     0.293 HD
ENDBRANCH  15  18
BRANCH  17  20
ATOM     20  O   UNL     1      27.921  57.921 136.742  1.00  0.00    -0.504 OA
ATOM     21  H   UNL     1      28.692  57.920 136.082  1.00  0.00     0.293 HD
ENDBRANCH  17  20
ENDBRANCH   1  12
BRANCH   2  22
ATOM     22  O   UNL     1      26.902  56.422 140.819  1.00  0.00    -0.502 OA
ATOM     23  H   UNL     1      27.415  56.607 139.964  1.00  0.00     0.293 HD
ENDBRANCH   2  22
BRANCH   9  24
ATOM     24  O   UNL     1      25.801  61.125 146.903  1.00  0.00    -0.508 OA
ATOM     25  H   UNL     1      24.917  61.585 147.086  1.00  0.00     0.293 HD
ENDBRANCH   9  24
TORSDOF 5
ENDMDL
MODEL 6
REMARK VINA RESULT:    -4.796      1.980      6.898
REMARK INTER + INTRA:          -5.546
REMARK INTER:                  -5.506
REMARK INTRA:                  -0.040
REMARK UNBOUND:                 0.091
REMARK SMILES O=c1c(O)c(-c2ccc(O)c(O)c2)oc2cc(O)ccc12
REMARK SMILES IDX 5 1 3 2 2 3 1 4 21 5 15 6 14 7 16 8 17 9 19 10 20 11 6 12
REMARK SMILES IDX 7 13 8 14 9 15 13 16 11 17 10 18 12 20 4 22 18 24
REMARK H PARENT 10 19 12 21 4 23 18 25
REMARK Flexibility Score: inf
ROOT
ATOM      1  C   UNL     1      26.536  57.760 142.250  1.00  0.00     0.180 A 
ATOM      2  C   UNL     1      27.119  59.021 142.007  1.00  0.00     0.208 A 
ATOM      3  C   UNL     1      27.074  59.993 143.019  1.00  0.00     0.235 A 
ATOM      4  O   UNL     1      27.599  61.125 142.830  1.00  0.00    -0.285 OA
ATOM      5  C   UNL     1      26.436  59.696 144.234  1.00  0.00     0.069 A 
ATOM      6  C   UNL     1      25.855  58.420 144.390  1.00  0.00     0.142 A 
ATOM      7  O   UNL     1      25.927  57.524 143.411  1.00  0.00    -0.452 OA
ATOM      8  C   UNL     1      25.202  58.089 145.582  1.00  0.00     0.094 A 
ATOM      9  C   UNL     1      25.121  59.019 146.623  1.00  0.00     0.119 A 
ATOM     10  C   UNL     1      25.698  60.287 146.474  1.00  0.00     0.047 A 
ATOM     11  C   UNL     1      26.352  60.628 145.285  1.00  0.00     0.020 A 
ENDROOT
BRANCH   1  12
ATOM     12  C   UNL     1      26.558  56.676 141.242  1.00  0.00     0.025 A 
ATOM     13  C   UNL     1      27.783  56.266 140.694  1.00  0.00     0.016 A 
ATOM     14  C   UNL     1      27.825  55.259 139.726  1.00  0.00     0.051 A 
ATOM     15  C   UNL     1      26.640  54.659 139.280  1.00  0.00     0.157 A 
ATOM     16  C   UNL     1      25.368  56.086 140.776  1.00  0.00     0.062 A 
ATOM     17  C   UNL     1      25.409  55.077 139.803  1.00  0.00     0.158 A 
BRANCH  15  18
ATOM     18  O   UNL     1      26.676  53.654 138.317  1.00  0.00    -0.504 OA
ATOM     19  H   UNL     1      26.078  52.838 138.379  1.00  0.00     0.293 HD
ENDBRANCH  15  18
BRANCH  17  20
ATOM     20  O   UNL     1      24.231  54.488 139.347  1.00  0.00    -0.504 OA
ATOM     21  H   UNL     1      23.640  53.940 139.962  1.00  0.00     0.293 HD
ENDBRANCH  17  20
ENDBRANCH   1  12
BRANCH   2  22
ATOM     22  O   UNL     1      27.705  59.303 140.771  1.00  0.00    -0.502 OA
ATOM     23  H   UNL     1      27.707  60.236 140.373  1.00  0.00     0.293 HD
ENDBRANCH   2  22
BRANCH   9  24
ATOM     24  O   UNL     1      24.466  58.673 147.804  1.00  0.00    -0.508 OA
ATOM     25  H   UNL     1      23.989  59.367 148.367  1.00  0.00     0.293 HD
ENDBRANCH   9  24
TORSDOF 5
ENDMDL
MODEL 7
REMARK VINA RESULT:    -4.686      2.027      3.261
REMARK INTER + INTRA:          -5.417
REMARK INTER:                  -5.157
REMARK INTRA:                  -0.260
REMARK UNBOUND:                 0.091
REMARK SMILES O=c1c(O)c(-c2ccc(O)c(O)c2)oc2cc(O)ccc12
REMARK SMILES IDX 5 1 3 2 2 3 1 4 21 5 15 6 14 7 16 8 17 9 19 10 20 11 6 12
REMARK SMILES IDX 7 13 8 14 9 15 13 16 11 17 10 18 12 20 4 22 18 24
REMARK H PARENT 10 19 12 21 4 23 18 25
REMARK Flexibility Score: inf
ROOT
ATOM      1  C   UNL     1      27.169  58.061 142.368  1.00  0.00     0.180 A 
ATOM      2  C   UNL     1      28.556  57.839 142.242  1.00  0.00     0.208 A 
ATOM      3  C   UNL     1      29.087  57.578 140.969  1.00  0.00     0.235 A 
ATOM      4  O   UNL     1      30.326  57.387 140.830  1.00  0.00    -0.285 OA
ATOM      5  C   UNL     1      28.227  57.524 139.860  1.00  0.00     0.069 A 
ATOM      6  C   UNL     1      26.848  57.733 140.072  1.00  0.00     0.142 A 
ATOM      7  O   UNL     1      26.386  57.986 141.292  1.00  0.00    -0.452 OA
ATOM      8  C   UNL     1      25.958  57.678 138.995  1.00  0.00     0.094 A 
ATOM      9  C   UNL     1      26.429  57.417 137.704  1.00  0.00     0.119 A 
ATOM     10  C   UNL     1      27.797  57.211 137.488  1.00  0.00     0.047 A 
ATOM     11  C   UNL     1      28.695  57.263 138.560  1.00  0.00     0.020 A 
ENDROOT
BRANCH   1  12
ATOM     12  C   UNL     1      26.535  58.360 143.672  1.00  0.00     0.025 A 
ATOM     13  C   UNL     1      25.714  57.396 144.278  1.00  0.00     0.016 A 
ATOM     14  C   UNL     1      25.090  57.665 145.499  1.00  0.00     0.051 A 
ATOM     15  C   UNL     1      25.263  58.907 146.122  1.00  0.00     0.157 A 
ATOM     16  C   UNL     1      26.690  59.614 144.291  1.00  0.00     0.062 A 
ATOM     17  C   UNL     1      26.061  59.884 145.515  1.00  0.00     0.158 A 
BRANCH  15  18
ATOM     18  O   UNL     1      24.644  59.179 147.340  1.00  0.00    -0.504 OA
ATOM     19  H   UNL     1      23.661  58.980 147.491  1.00  0.00     0.293 HD
ENDBRANCH  15  18
BRANCH  17  20
ATOM     20  O   UNL     1      26.221  61.124 146.131  1.00  0.00    -0.504 OA
ATOM     21  H   UNL     1      26.132  61.233 147.135  1.00  0.00     0.293 HD
ENDBRANCH  17  20
ENDBRANCH   1  12
BRANCH   2  22
ATOM     22  O   UNL     1      29.379  57.851 143.371  1.00  0.00    -0.502 OA
ATOM     23  H   UNL     1      29.009  57.957 144.309  1.00  0.00     0.293 HD
ENDBRANCH   2  22
BRANCH   9  24
ATOM     24  O   UNL     1      25.528  57.365 136.642  1.00  0.00    -0.508 OA
ATOM     25  H   UNL     1      24.804  58.065 136.527  1.00  0.00     0.293 HD
ENDBRANCH   9  24
TORSDOF 5
ENDMDL
MODEL 8
REMARK VINA RESULT:    -3.293      4.122      6.359
REMARK INTER + INTRA:          -3.780
REMARK INTER:                  -3.597
REMARK INTRA:                  -0.182
REMARK UNBOUND:                 0.091
REMARK SMILES O=c1c(O)c(-c2ccc(O)c(O)c2)oc2cc(O)ccc12
REMARK SMILES IDX 5 1 3 2 2 3 1 4 21 5 15 6 14 7 16 8 17 9 19 10 20 11 6 12
REMARK SMILES IDX 7 13 8 14 9 15 13 16 11 17 10 18 12 20 4 22 18 24
REMARK H PARENT 10 19 12 21 4 23 18 25
REMARK Flexibility Score: inf
ROOT
ATOM      1  C   UNL     1      28.230  57.728 139.694  1.00  0.00     0.180 A 
ATOM      2  C   UNL     1      27.803  58.217 138.442  1.00  0.00     0.208 A 
ATOM      3  C   UNL     1      26.576  57.772 137.924  1.00  0.00     0.235 A 
ATOM      4  O   UNL     1      26.167  58.204 136.812  1.00  0.00    -0.285 OA
ATOM      5  C   UNL     1      25.817  56.841 138.652  1.00  0.00     0.069 A 
ATOM      6  C   UNL     1      26.325  56.381 139.885  1.00  0.00     0.142 A 
ATOM      7  O   UNL     1      27.487  56.834 140.344  1.00  0.00    -0.452 OA
ATOM      8  C   UNL     1      25.603  55.446 140.634  1.00  0.00     0.094 A 
ATOM      9  C   UNL     1      24.376  54.964 140.167  1.00  0.00     0.119 A 
ATOM     10  C   UNL     1      23.867  55.419 138.944  1.00  0.00     0.047 A 
ATOM     11  C   UNL     1      24.582  56.353 138.187  1.00  0.00     0.020 A 
ENDROOT
BRANCH   1  12
ATOM     12  C   UNL     1      29.502  58.161 140.315  1.00  0.00     0.025 A 
ATOM     13  C   UNL     1      30.721  57.770 139.739  1.00  0.00     0.016 A 
ATOM     14  C   UNL     1      31.933  58.151 140.321  1.00  0.00     0.051 A 
ATOM     15  C   UNL     1      31.944  58.913 141.496  1.00  0.00     0.157 A 
ATOM     16  C   UNL     1      29.517  58.909 141.507  1.00  0.00     0.062 A 
ATOM     17  C   UNL     1      30.733  59.288 142.092  1.00  0.00     0.158 A 
BRANCH  15  18
ATOM     18  O   UNL     1      33.150  59.296 142.078  1.00  0.00    -0.504 OA
ATOM     19  H   UNL     1      33.565  60.202 141.892  1.00  0.00     0.293 HD
ENDBRANCH  15  18
BRANCH  17  20
ATOM     20  O   UNL     1      30.747  60.035 143.269  1.00  0.00    -0.504 OA
ATOM     21  H   UNL     1      30.576  59.606 144.171  1.00  0.00     0.293 HD
ENDBRANCH  17  20
ENDBRANCH   1  12
BRANCH   2  22
ATOM     22  O   UNL     1      28.603  59.106 137.720  1.00  0.00    -0.502 OA
ATOM     23  H   UNL     1      28.537  59.196 136.712  1.00  0.00     0.293 HD
ENDBRANCH   2  22
BRANCH   9  24
ATOM     24  O   UNL     1      23.670  54.032 140.926  1.00  0.00    -0.508 OA
ATOM     25  H   UNL     1      23.648  54.081 141.938  1.00  0.00     0.293 HD
ENDBRANCH   9  24
TORSDOF 5
ENDMDL
