MODEL 1
REMARK VINA RESULT:    -4.018      0.000      0.000
REMARK INTER + INTRA:         -15.341
REMARK INTER:                 -10.126
REMARK INTRA:                  -5.215
REMARK UNBOUND:                -5.215
REMARK SMILES CCCCCCCCCCCCCCCCCCCCCCCCCCCC(=O)[O-]
REMARK SMILES IDX 15 1 16 2 17 3 18 4 19 5 20 6 21 7 22 8 23 9 24 10 25 11
REMARK SMILES IDX 26 12 27 13 28 14 29 15 30 16 14 17 13 18 12 19 11 20 10 21
REMARK SMILES IDX 9 22 8 23 7 24 6 25 5 26 4 27 3 28 2 29 1 30
REMARK H PARENT
REMARK Flexibility Score: inf
ROOT
ATOM      1  C   UNL     1     193.501 191.355 197.281  1.00  0.00     0.000 C 
ENDROOT
BRANCH   1   2
ATOM      2  C   UNL     1     194.581 190.338 196.863  1.00  0.00     0.000 C 
BRANCH   2   3
ATOM      3  C   UNL     1     195.826 190.944 196.191  1.00  0.00     0.000 C 
BRANCH   3   4
ATOM      4  C   UNL     1     197.055 190.022 196.275  1.00  0.00     0.000 C 
BRANCH   4   5
ATOM      5  C   UNL     1     196.706 188.596 196.741  1.00  0.00     0.000 C 
BRANCH   5   6
ATOM      6  C   UNL     1     197.831 187.860 197.498  1.00  0.00     0.000 C 
BRANCH   6   7
ATOM      7  C   UNL     1     197.931 188.186 199.001  1.00  0.00     0.000 C 
BRANCH   7   8
ATOM      8  C   UNL     1     196.587 188.484 199.695  1.00  0.00     0.000 C 
BRANCH   8   9
ATOM      9  C   UNL     1     196.382 189.951 200.116  1.00  0.00     0.000 C 
BRANCH   9  10
ATOM     10  C   UNL     1     195.049 190.178 200.851  1.00  0.00     0.000 C 
BRANCH  10  11
ATOM     11  C   UNL     1     193.941 189.211 200.401  1.00  0.00     0.000 C 
BRANCH  11  12
ATOM     12  C   UNL     1     192.501 189.657 200.723  1.00  0.00     0.006 C 
BRANCH  12  13
ATOM     13  C   UNL     1     192.286 191.182 200.664  1.00  0.00     0.053 C 
BRANCH  13  14
ATOM     14  C   UNL     1     190.964 191.552 200.059  1.00  0.00     0.041 C 
ATOM     15  O   UNL     1     190.501 190.887 199.094  1.00  0.00    -0.550 OA
ATOM     16  O   UNL     1     190.230 192.609 200.578  1.00  0.00    -0.550 OA
ENDBRANCH  13  14
ENDBRANCH  12  13
ENDBRANCH  11  12
ENDBRANCH  10  11
ENDBRANCH   9  10
ENDBRANCH   8   9
ENDBRANCH   7   8
ENDBRANCH   6   7
ENDBRANCH   5   6
ENDBRANCH   4   5
ENDBRANCH   3   4
ENDBRANCH   2   3
ENDBRANCH   1   2
BRANCH   1  17
ATOM     17  C   UNL     1     193.869 192.832 197.038  1.00  0.00     0.000 C 
BRANCH  17  18
ATOM     18  C   UNL     1     194.079 193.672 198.315  1.00  0.00     0.000 C 
BRANCH  18  19
ATOM     19  C   UNL     1     195.371 193.371 199.095  1.00  0.00     0.000 C 
BRANCH  19  20
ATOM     20  C   UNL     1     196.637 193.870 198.374  1.00  0.00     0.000 C 
BRANCH  20  21
ATOM     21  C   UNL     1     197.846 194.003 199.316  1.00  0.00     0.000 C 
BRANCH  21  22
ATOM     22  C   UNL     1     197.645 193.427 200.732  1.00  0.00    -0.000 C 
BRANCH  22  23
ATOM     23  C   UNL     1     197.455 194.476 201.842  1.00  0.00    -0.000 C 
BRANCH  23  24
ATOM     24  C   UNL     1     197.733 195.909 201.362  1.00  0.00    -0.000 C 
BRANCH  24  25
ATOM     25  C   UNL     1     196.480 196.782 201.489  1.00  0.00    -0.000 C 
BRANCH  25  26
ATOM     26  C   UNL     1     195.315 195.986 202.098  1.00  0.00    -0.000 C 
BRANCH  26  27
ATOM     27  C   UNL     1     193.994 196.196 201.340  1.00  0.00    -0.000 C 
BRANCH  27  28
ATOM     28  C   UNL     1     194.198 196.892 199.983  1.00  0.00    -0.000 C 
BRANCH  28  29
ATOM     29  C   UNL     1     192.871 197.191 199.268  1.00  0.00    -0.003 C 
ATOM     30  C   UNL     1     191.682 197.250 200.228  1.00  0.00     0.004 C 
ENDBRANCH  28  29
ENDBRANCH  27  28
ENDBRANCH  26  27
ENDBRANCH  25  26
ENDBRANCH  24  25
ENDBRANCH  23  24
ENDBRANCH  22  23
ENDBRANCH  21  22
ENDBRANCH  20  21
ENDBRANCH  19  20
ENDBRANCH  18  19
ENDBRANCH  17  18
ENDBRANCH   1  17
TORSDOF 26
ENDMDL
MODEL 2
REMARK VINA RESULT:    -3.988      2.303      4.772
REMARK INTER + INTRA:         -15.263
REMARK INTER:                 -10.374
REMARK INTRA:                  -4.890
REMARK UNBOUND:                -5.215
REMARK SMILES CCCCCCCCCCCCCCCCCCCCCCCCCCCC(=O)[O-]
REMARK SMILES IDX 15 1 16 2 17 3 18 4 19 5 20 6 21 7 22 8 23 9 24 10 25 11
REMARK SMILES IDX 26 12 27 13 28 14 29 15 30 16 14 17 13 18 12 19 11 20 10 21
REMARK SMILES IDX 9 22 8 23 7 24 6 25 5 26 4 27 3 28 2 29 1 30
REMARK H PARENT
REMARK Flexibility Score: inf
ROOT
ATOM      1  C   UNL     1     196.143 192.211 199.133  1.00  0.00     0.000 C 
ENDROOT
BRANCH   1   2
ATOM      2  C   UNL     1     197.207 191.197 198.669  1.00  0.00     0.000 C 
BRANCH   2   3
ATOM      3  C   UNL     1     196.667 190.010 197.852  1.00  0.00     0.000 C 
BRANCH   3   4
ATOM      4  C   UNL     1     196.253 188.821 198.736  1.00  0.00     0.000 C 
BRANCH   4   5
ATOM      5  C   UNL     1     196.485 189.077 200.237  1.00  0.00     0.000 C 
BRANCH   5   6
ATOM      6  C   UNL     1     195.207 189.304 201.069  1.00  0.00     0.000 C 
BRANCH   6   7
ATOM      7  C   UNL     1     193.884 189.157 200.292  1.00  0.00     0.000 C 
BRANCH   7   8
ATOM      8  C   UNL     1     193.181 190.485 199.947  1.00  0.00     0.000 C 
BRANCH   8   9
ATOM      9  C   UNL     1     192.402 190.484 198.619  1.00  0.00     0.000 C 
BRANCH   9  10
ATOM     10  C   UNL     1     193.320 190.616 197.391  1.00  0.00     0.000 C 
BRANCH  10  11
ATOM     11  C   UNL     1     193.302 192.024 196.773  1.00  0.00     0.000 C 
BRANCH  11  12
ATOM     12  C   UNL     1     194.294 192.254 195.616  1.00  0.00     0.006 C 
BRANCH  12  13
ATOM     13  C   UNL     1     193.624 192.505 194.252  1.00  0.00     0.053 C 
BRANCH  13  14
ATOM     14  C   UNL     1     193.341 193.959 194.012  1.00  0.00     0.041 C 
ATOM     15  O   UNL     1     193.972 194.589 193.122  1.00  0.00    -0.550 OA
ATOM     16  O   UNL     1     192.360 194.610 194.747  1.00  0.00    -0.550 OA
ENDBRANCH  13  14
ENDBRANCH  12  13
ENDBRANCH  11  12
ENDBRANCH  10  11
ENDBRANCH   9  10
ENDBRANCH   8   9
ENDBRANCH   7   8
ENDBRANCH   6   7
ENDBRANCH   5   6
ENDBRANCH   4   5
ENDBRANCH   3   4
ENDBRANCH   2   3
ENDBRANCH   1   2
BRANCH   1  17
ATOM     17  C   UNL     1     196.202 193.583 198.434  1.00  0.00     0.000 C 
BRANCH  17  18
ATOM     18  C   UNL     1     195.191 194.626 198.954  1.00  0.00     0.000 C 
BRANCH  18  19
ATOM     19  C   UNL     1     194.234 194.125 200.050  1.00  0.00     0.000 C 
BRANCH  19  20
ATOM     20  C   UNL     1     192.752 194.242 199.652  1.00  0.00     0.000 C 
BRANCH  20  21
ATOM     21  C   UNL     1     192.046 195.431 200.328  1.00  0.00     0.000 C 
BRANCH  21  22
ATOM     22  C   UNL     1     191.895 196.692 199.454  1.00  0.00    -0.000 C 
BRANCH  22  23
ATOM     23  C   UNL     1     192.481 197.980 200.059  1.00  0.00    -0.000 C 
BRANCH  23  24
ATOM     24  C   UNL     1     194.005 197.916 200.234  1.00  0.00    -0.000 C 
BRANCH  24  25
ATOM     25  C   UNL     1     194.389 197.958 201.718  1.00  0.00    -0.000 C 
BRANCH  25  26
ATOM     26  C   UNL     1     195.537 196.982 202.017  1.00  0.00    -0.000 C 
BRANCH  26  27
ATOM     27  C   UNL     1     196.874 197.436 201.407  1.00  0.00    -0.000 C 
BRANCH  27  28
ATOM     28  C   UNL     1     197.804 196.254 201.082  1.00  0.00    -0.000 C 
BRANCH  28  29
ATOM     29  C   UNL     1     197.398 194.966 201.816  1.00  0.00    -0.003 C 
ATOM     30  C   UNL     1     198.279 193.772 201.447  1.00  0.00     0.004 C 
ENDBRANCH  28  29
ENDBRANCH  27  28
ENDBRANCH  26  27
ENDBRANCH  25  26
ENDBRANCH  24  25
ENDBRANCH  23  24
ENDBRANCH  22  23
ENDBRANCH  21  22
ENDBRANCH  20  21
ENDBRANCH  19  20
ENDBRANCH  18  19
ENDBRANCH  17  18
ENDBRANCH   1  17
TORSDOF 26
ENDMDL
MODEL 3
REMARK VINA RESULT:    -3.960     10.257     14.135
REMARK INTER + INTRA:         -15.193
REMARK INTER:                 -11.010
REMARK INTRA:                  -4.183
REMARK UNBOUND:                -5.215
REMARK SMILES CCCCCCCCCCCCCCCCCCCCCCCCCCCC(=O)[O-]
REMARK SMILES IDX 15 1 16 2 17 3 18 4 19 5 20 6 21 7 22 8 23 9 24 10 25 11
REMARK SMILES IDX 26 12 27 13 28 14 29 15 30 16 14 17 13 18 12 19 11 20 10 21
REMARK SMILES IDX 9 22 8 23 7 24 6 25 5 26 4 27 3 28 2 29 1 30
REMARK H PARENT
REMARK Flexibility Score: inf
ROOT
ATOM      1  C   UNL     1     184.698 181.720 202.110  1.00  0.00     0.000 C 
ENDROOT
BRANCH   1   2
ATOM      2  C   UNL     1     183.336 181.304 201.519  1.00  0.00     0.000 C 
BRANCH   2   3
ATOM      3  C   UNL     1     182.128 182.106 202.034  1.00  0.00     0.000 C 
BRANCH   3   4
ATOM      4  C   UNL     1     182.098 183.547 201.496  1.00  0.00     0.000 C 
BRANCH   4   5
ATOM      5  C   UNL     1     181.594 183.637 200.044  1.00  0.00     0.000 C 
BRANCH   5   6
ATOM      6  C   UNL     1     180.676 184.839 199.741  1.00  0.00     0.000 C 
BRANCH   6   7
ATOM      7  C   UNL     1     181.034 185.632 198.468  1.00  0.00     0.000 C 
BRANCH   7   8
ATOM      8  C   UNL     1     182.544 185.788 198.201  1.00  0.00     0.000 C 
BRANCH   8   9
ATOM      9  C   UNL     1     182.906 186.721 197.030  1.00  0.00     0.000 C 
BRANCH   9  10
ATOM     10  C   UNL     1     183.941 186.102 196.075  1.00  0.00     0.000 C 
BRANCH  10  11
ATOM     11  C   UNL     1     184.680 187.150 195.226  1.00  0.00     0.000 C 
BRANCH  11  12
ATOM     12  C   UNL     1     184.919 186.762 193.753  1.00  0.00     0.006 C 
BRANCH  12  13
ATOM     13  C   UNL     1     184.894 185.244 193.491  1.00  0.00     0.053 C 
BRANCH  13  14
ATOM     14  C   UNL     1     186.247 184.613 193.642  1.00  0.00     0.041 C 
ATOM     15  O   UNL     1     186.995 184.469 192.638  1.00  0.00    -0.550 OA
ATOM     16  O   UNL     1     186.695 184.213 194.894  1.00  0.00    -0.550 OA
ENDBRANCH  13  14
ENDBRANCH  12  13
ENDBRANCH  11  12
ENDBRANCH  10  11
ENDBRANCH   9  10
ENDBRANCH   8   9
ENDBRANCH   7   8
ENDBRANCH   6   7
ENDBRANCH   5   6
ENDBRANCH   4   5
ENDBRANCH   3   4
ENDBRANCH   2   3
ENDBRANCH   1   2
BRANCH   1  17
ATOM     17  C   UNL     1     185.912 180.956 201.547  1.00  0.00     0.000 C 
BRANCH  17  18
ATOM     18  C   UNL     1     185.587 179.949 200.424  1.00  0.00     0.000 C 
BRANCH  18  19
ATOM     19  C   UNL     1     186.334 180.179 199.098  1.00  0.00     0.000 C 
BRANCH  19  20
ATOM     20  C   UNL     1     187.008 181.561 199.021  1.00  0.00     0.000 C 
BRANCH  20  21
ATOM     21  C   UNL     1     186.240 182.549 198.124  1.00  0.00     0.000 C 
BRANCH  21  22
ATOM     22  C   UNL     1     185.217 183.443 198.854  1.00  0.00    -0.000 C 
BRANCH  22  23
ATOM     23  C   UNL     1     185.787 184.754 199.425  1.00  0.00    -0.000 C 
BRANCH  23  24
ATOM     24  C   UNL     1     186.471 185.622 198.358  1.00  0.00    -0.000 C 
BRANCH  24  25
ATOM     25  C   UNL     1     187.144 186.843 198.994  1.00  0.00    -0.000 C 
BRANCH  25  26
ATOM     26  C   UNL     1     186.444 187.236 200.305  1.00  0.00    -0.000 C 
BRANCH  26  27
ATOM     27  C   UNL     1     185.393 188.340 200.107  1.00  0.00    -0.000 C 
BRANCH  27  28
ATOM     28  C   UNL     1     185.873 189.446 199.151  1.00  0.00    -0.000 C 
BRANCH  28  29
ATOM     29  C   UNL     1     184.946 189.621 197.938  1.00  0.00    -0.003 C 
ATOM     30  C   UNL     1     183.575 190.182 198.318  1.00  0.00     0.004 C 
ENDBRANCH  28  29
ENDBRANCH  27  28
ENDBRANCH  26  27
ENDBRANCH  25  26
ENDBRANCH  24  25
ENDBRANCH  23  24
ENDBRANCH  22  23
ENDBRANCH  21  22
ENDBRANCH  20  21
ENDBRANCH  19  20
ENDBRANCH  18  19
ENDBRANCH  17  18
ENDBRANCH   1  17
TORSDOF 26
ENDMDL
MODEL 4
REMARK VINA RESULT:    -3.958      1.526      3.941
REMARK INTER + INTRA:         -15.189
REMARK INTER:                  -9.314
REMARK INTRA:                  -5.875
REMARK UNBOUND:                -5.215
REMARK SMILES CCCCCCCCCCCCCCCCCCCCCCCCCCCC(=O)[O-]
REMARK SMILES IDX 15 1 16 2 17 3 18 4 19 5 20 6 21 7 22 8 23 9 24 10 25 11
REMARK SMILES IDX 26 12 27 13 28 14 29 15 30 16 14 17 13 18 12 19 11 20 10 21
REMARK SMILES IDX 9 22 8 23 7 24 6 25 5 26 4 27 3 28 2 29 1 30
REMARK H PARENT
REMARK Flexibility Score: inf
ROOT
ATOM      1  C   UNL     1     196.954 193.831 198.202  1.00  0.00     0.000 C 
ENDROOT
BRANCH   1   2
ATOM      2  C   UNL     1     198.100 193.090 197.485  1.00  0.00     0.000 C 
BRANCH   2   3
ATOM      3  C   UNL     1     197.855 191.591 197.237  1.00  0.00     0.000 C 
BRANCH   3   4
ATOM      4  C   UNL     1     198.641 190.692 198.206  1.00  0.00     0.000 C 
BRANCH   4   5
ATOM      5  C   UNL     1     197.730 189.862 199.131  1.00  0.00     0.000 C 
BRANCH   5   6
ATOM      6  C   UNL     1     196.307 189.609 198.594  1.00  0.00     0.000 C 
BRANCH   6   7
ATOM      7  C   UNL     1     195.280 189.151 199.649  1.00  0.00     0.000 C 
BRANCH   7   8
ATOM      8  C   UNL     1     195.693 189.404 201.113  1.00  0.00     0.000 C 
BRANCH   8   9
ATOM      9  C   UNL     1     194.620 190.082 201.984  1.00  0.00     0.000 C 
BRANCH   9  10
ATOM     10  C   UNL     1     193.228 189.452 201.811  1.00  0.00     0.000 C 
BRANCH  10  11
ATOM     11  C   UNL     1     192.182 190.441 201.267  1.00  0.00     0.000 C 
BRANCH  11  12
ATOM     12  C   UNL     1     191.258 189.889 200.164  1.00  0.00     0.006 C 
BRANCH  12  13
ATOM     13  C   UNL     1     190.341 190.948 199.522  1.00  0.00     0.053 C 
BRANCH  13  14
ATOM     14  C   UNL     1     189.298 191.454 200.475  1.00  0.00     0.041 C 
ATOM     15  O   UNL     1     188.332 190.717 200.808  1.00  0.00    -0.550 OA
ATOM     16  O   UNL     1     189.407 192.727 201.018  1.00  0.00    -0.550 OA
ENDBRANCH  13  14
ENDBRANCH  12  13
ENDBRANCH  11  12
ENDBRANCH  10  11
ENDBRANCH   9  10
ENDBRANCH   8   9
ENDBRANCH   7   8
ENDBRANCH   6   7
ENDBRANCH   5   6
ENDBRANCH   4   5
ENDBRANCH   3   4
ENDBRANCH   2   3
ENDBRANCH   1   2
BRANCH   1  17
ATOM     17  C   UNL     1     197.176 194.073 199.707  1.00  0.00     0.000 C 
BRANCH  17  18
ATOM     18  C   UNL     1     196.487 193.057 200.641  1.00  0.00     0.000 C 
BRANCH  18  19
ATOM     19  C   UNL     1     195.772 193.664 201.861  1.00  0.00     0.000 C 
BRANCH  19  20
ATOM     20  C   UNL     1     196.161 195.132 202.115  1.00  0.00     0.000 C 
BRANCH  20  21
ATOM     21  C   UNL     1     194.956 196.087 202.050  1.00  0.00     0.000 C 
BRANCH  21  22
ATOM     22  C   UNL     1     194.766 196.817 200.705  1.00  0.00    -0.000 C 
BRANCH  22  23
ATOM     23  C   UNL     1     193.925 196.057 199.664  1.00  0.00    -0.000 C 
BRANCH  23  24
ATOM     24  C   UNL     1     192.650 195.442 200.261  1.00  0.00    -0.000 C 
BRANCH  24  25
ATOM     25  C   UNL     1     192.496 193.978 199.833  1.00  0.00    -0.000 C 
BRANCH  25  26
ATOM     26  C   UNL     1     193.344 193.678 198.587  1.00  0.00    -0.000 C 
BRANCH  26  27
ATOM     27  C   UNL     1     193.704 192.188 198.461  1.00  0.00    -0.000 C 
BRANCH  27  28
ATOM     28  C   UNL     1     193.446 191.637 197.048  1.00  0.00    -0.000 C 
BRANCH  28  29
ATOM     29  C   UNL     1     194.413 192.219 196.004  1.00  0.00    -0.003 C 
ATOM     30  C   UNL     1     193.884 192.096 194.575  1.00  0.00     0.004 C 
ENDBRANCH  28  29
ENDBRANCH  27  28
ENDBRANCH  26  27
ENDBRANCH  25  26
ENDBRANCH  24  25
ENDBRANCH  23  24
ENDBRANCH  22  23
ENDBRANCH  21  22
ENDBRANCH  20  21
ENDBRANCH  19  20
ENDBRANCH  18  19
ENDBRANCH  17  18
ENDBRANCH   1  17
TORSDOF 26
ENDMDL
MODEL 5
REMARK VINA RESULT:    -3.890      2.012      5.772
REMARK INTER + INTRA:         -15.017
REMARK INTER:                  -9.649
REMARK INTRA:                  -5.369
REMARK UNBOUND:                -5.215
REMARK SMILES CCCCCCCCCCCCCCCCCCCCCCCCCCCC(=O)[O-]
REMARK SMILES IDX 15 1 16 2 17 3 18 4 19 5 20 6 21 7 22 8 23 9 24 10 25 11
REMARK SMILES IDX 26 12 27 13 28 14 29 15 30 16 14 17 13 18 12 19 11 20 10 21
REMARK SMILES IDX 9 22 8 23 7 24 6 25 5 26 4 27 3 28 2 29 1 30
REMARK H PARENT
REMARK Flexibility Score: inf
ROOT
ATOM      1  C   UNL     1     196.317 190.175 199.882  1.00  0.00     0.000 C 
ENDROOT
BRANCH   1   2
ATOM      2  C   UNL     1     196.711 188.719 200.199  1.00  0.00     0.000 C 
BRANCH   2   3
ATOM      3  C   UNL     1     196.907 187.811 198.972  1.00  0.00     0.000 C 
BRANCH   3   4
ATOM      4  C   UNL     1     196.163 188.326 197.728  1.00  0.00     0.000 C 
BRANCH   4   5
ATOM      5  C   UNL     1     196.903 188.013 196.413  1.00  0.00     0.000 C 
BRANCH   5   6
ATOM      6  C   UNL     1     197.886 189.102 195.938  1.00  0.00     0.000 C 
BRANCH   6   7
ATOM      7  C   UNL     1     197.603 190.520 196.474  1.00  0.00     0.000 C 
BRANCH   7   8
ATOM      8  C   UNL     1     196.318 191.177 195.932  1.00  0.00     0.000 C 
BRANCH   8   9
ATOM      9  C   UNL     1     196.193 192.687 196.205  1.00  0.00     0.000 C 
BRANCH   9  10
ATOM     10  C   UNL     1     195.611 192.993 197.596  1.00  0.00     0.000 C 
BRANCH  10  11
ATOM     11  C   UNL     1     196.587 193.766 198.500  1.00  0.00     0.000 C 
BRANCH  11  12
ATOM     12  C   UNL     1     195.944 194.828 199.414  1.00  0.00     0.006 C 
BRANCH  12  13
ATOM     13  C   UNL     1     194.573 194.420 199.986  1.00  0.00     0.053 C 
BRANCH  13  14
ATOM     14  C   UNL     1     193.577 195.542 199.944  1.00  0.00     0.041 C 
ATOM     15  O   UNL     1     192.428 195.388 200.438  1.00  0.00    -0.550 OA
ATOM     16  O   UNL     1     193.927 196.765 199.389  1.00  0.00    -0.550 OA
ENDBRANCH  13  14
ENDBRANCH  12  13
ENDBRANCH  11  12
ENDBRANCH  10  11
ENDBRANCH   9  10
ENDBRANCH   8   9
ENDBRANCH   7   8
ENDBRANCH   6   7
ENDBRANCH   5   6
ENDBRANCH   4   5
ENDBRANCH   3   4
ENDBRANCH   2   3
ENDBRANCH   1   2
BRANCH   1  17
ATOM     17  C   UNL     1     195.389 190.839 200.918  1.00  0.00     0.000 C 
BRANCH  17  18
ATOM     18  C   UNL     1     194.629 189.860 201.836  1.00  0.00     0.000 C 
BRANCH  18  19
ATOM     19  C   UNL     1     193.094 189.949 201.765  1.00  0.00     0.000 C 
BRANCH  19  20
ATOM     20  C   UNL     1     192.448 188.693 201.152  1.00  0.00     0.000 C 
BRANCH  20  21
ATOM     21  C   UNL     1     192.991 188.368 199.749  1.00  0.00     0.000 C 
BRANCH  21  22
ATOM     22  C   UNL     1     192.289 189.097 198.586  1.00  0.00    -0.000 C 
BRANCH  22  23
ATOM     23  C   UNL     1     193.056 190.303 198.015  1.00  0.00    -0.000 C 
BRANCH  23  24
ATOM     24  C   UNL     1     192.511 191.648 198.517  1.00  0.00    -0.000 C 
BRANCH  24  25
ATOM     25  C   UNL     1     191.068 191.504 199.014  1.00  0.00    -0.000 C 
BRANCH  25  26
ATOM     26  C   UNL     1     190.808 192.423 200.218  1.00  0.00    -0.000 C 
BRANCH  26  27
ATOM     27  C   UNL     1     189.423 192.196 200.848  1.00  0.00    -0.000 C 
BRANCH  27  28
ATOM     28  C   UNL     1     189.360 190.905 201.682  1.00  0.00    -0.000 C 
BRANCH  28  29
ATOM     29  C   UNL     1     188.275 189.936 201.187  1.00  0.00    -0.003 C 
ATOM     30  C   UNL     1     188.831 188.841 200.275  1.00  0.00     0.004 C 
ENDBRANCH  28  29
ENDBRANCH  27  28
ENDBRANCH  26  27
ENDBRANCH  25  26
ENDBRANCH  24  25
ENDBRANCH  23  24
ENDBRANCH  22  23
ENDBRANCH  21  22
ENDBRANCH  20  21
ENDBRANCH  19  20
ENDBRANCH  18  19
ENDBRANCH  17  18
ENDBRANCH   1  17
TORSDOF 26
ENDMDL
MODEL 6
REMARK VINA RESULT:    -3.890      2.478      6.540
REMARK INTER + INTRA:         -15.016
REMARK INTER:                 -10.276
REMARK INTRA:                  -4.740
REMARK UNBOUND:                -5.215
REMARK SMILES CCCCCCCCCCCCCCCCCCCCCCCCCCCC(=O)[O-]
REMARK SMILES IDX 15 1 16 2 17 3 18 4 19 5 20 6 21 7 22 8 23 9 24 10 25 11
REMARK SMILES IDX 26 12 27 13 28 14 29 15 30 16 14 17 13 18 12 19 11 20 10 21
REMARK SMILES IDX 9 22 8 23 7 24 6 25 5 26 4 27 3 28 2 29 1 30
REMARK H PARENT
REMARK Flexibility Score: inf
ROOT
ATOM      1  C   UNL     1     195.394 191.714 195.588  1.00  0.00     0.000 C 
ENDROOT
BRANCH   1   2
ATOM      2  C   UNL     1     195.752 190.435 196.370  1.00  0.00     0.000 C 
BRANCH   2   3
ATOM      3  C   UNL     1     196.673 190.647 197.584  1.00  0.00     0.000 C 
BRANCH   3   4
ATOM      4  C   UNL     1     196.437 189.612 198.698  1.00  0.00     0.000 C 
BRANCH   4   5
ATOM      5  C   UNL     1     196.167 190.257 200.071  1.00  0.00     0.000 C 
BRANCH   5   6
ATOM      6  C   UNL     1     195.233 191.483 200.048  1.00  0.00     0.000 C 
BRANCH   6   7
ATOM      7  C   UNL     1     195.838 192.778 200.627  1.00  0.00     0.000 C 
BRANCH   7   8
ATOM      8  C   UNL     1     196.253 193.829 199.578  1.00  0.00     0.000 C 
BRANCH   8   9
ATOM      9  C   UNL     1     196.155 195.292 200.047  1.00  0.00     0.000 C 
BRANCH   9  10
ATOM     10  C   UNL     1     195.545 195.426 201.453  1.00  0.00     0.000 C 
BRANCH  10  11
ATOM     11  C   UNL     1     194.204 196.179 201.459  1.00  0.00     0.000 C 
BRANCH  11  12
ATOM     12  C   UNL     1     193.166 195.693 200.428  1.00  0.00     0.006 C 
BRANCH  12  13
ATOM     13  C   UNL     1     191.983 196.658 200.223  1.00  0.00     0.053 C 
BRANCH  13  14
ATOM     14  C   UNL     1     192.085 197.424 198.937  1.00  0.00     0.041 C 
ATOM     15  O   UNL     1     192.035 196.820 197.833  1.00  0.00    -0.550 OA
ATOM     16  O   UNL     1     192.204 198.808 198.956  1.00  0.00    -0.550 OA
ENDBRANCH  13  14
ENDBRANCH  12  13
ENDBRANCH  11  12
ENDBRANCH  10  11
ENDBRANCH   9  10
ENDBRANCH   8   9
ENDBRANCH   7   8
ENDBRANCH   6   7
ENDBRANCH   5   6
ENDBRANCH   4   5
ENDBRANCH   3   4
ENDBRANCH   2   3
ENDBRANCH   1   2
BRANCH   1  17
ATOM     17  C   UNL     1     193.966 192.243 195.824  1.00  0.00     0.000 C 
BRANCH  17  18
ATOM     18  C   UNL     1     193.790 193.104 197.092  1.00  0.00     0.000 C 
BRANCH  18  19
ATOM     19  C   UNL     1     192.345 193.230 197.607  1.00  0.00     0.000 C 
BRANCH  19  20
ATOM     20  C   UNL     1     192.164 192.669 199.028  1.00  0.00     0.000 C 
BRANCH  20  21
ATOM     21  C   UNL     1     191.188 191.479 199.080  1.00  0.00     0.000 C 
BRANCH  21  22
ATOM     22  C   UNL     1     191.419 190.391 198.012  1.00  0.00    -0.000 C 
BRANCH  22  23
ATOM     23  C   UNL     1     192.733 189.604 198.156  1.00  0.00    -0.000 C 
BRANCH  23  24
ATOM     24  C   UNL     1     192.574 188.324 198.990  1.00  0.00    -0.000 C 
BRANCH  24  25
ATOM     25  C   UNL     1     192.809 188.607 200.478  1.00  0.00    -0.000 C 
BRANCH  25  26
ATOM     26  C   UNL     1     191.864 187.767 201.352  1.00  0.00    -0.000 C 
BRANCH  26  27
ATOM     27  C   UNL     1     191.127 186.680 200.553  1.00  0.00    -0.000 C 
BRANCH  27  28
ATOM     28  C   UNL     1     189.640 186.576 200.933  1.00  0.00    -0.000 C 
BRANCH  28  29
ATOM     29  C   UNL     1     188.911 187.925 200.833  1.00  0.00    -0.003 C 
ATOM     30  C   UNL     1     188.697 188.376 199.388  1.00  0.00     0.004 C 
ENDBRANCH  28  29
ENDBRANCH  27  28
ENDBRANCH  26  27
ENDBRANCH  25  26
ENDBRANCH  24  25
ENDBRANCH  23  24
ENDBRANCH  22  23
ENDBRANCH  21  22
ENDBRANCH  20  21
ENDBRANCH  19  20
ENDBRANCH  18  19
ENDBRANCH  17  18
ENDBRANCH   1  17
TORSDOF 26
ENDMDL
MODEL 7
REMARK VINA RESULT:    -3.864      1.996      6.409
REMARK INTER + INTRA:         -14.951
REMARK INTER:                 -10.148
REMARK INTRA:                  -4.803
REMARK UNBOUND:                -5.215
REMARK SMILES CCCCCCCCCCCCCCCCCCCCCCCCCCCC(=O)[O-]
REMARK SMILES IDX 15 1 16 2 17 3 18 4 19 5 20 6 21 7 22 8 23 9 24 10 25 11
REMARK SMILES IDX 26 12 27 13 28 14 29 15 30 16 14 17 13 18 12 19 11 20 10 21
REMARK SMILES IDX 9 22 8 23 7 24 6 25 5 26 4 27 3 28 2 29 1 30
REMARK H PARENT
REMARK Flexibility Score: inf
ROOT
ATOM      1  C   UNL     1     192.012 192.549 198.979  1.00  0.00     0.000 C 
ENDROOT
BRANCH   1   2
ATOM      2  C   UNL     1     193.518 192.821 199.167  1.00  0.00     0.000 C 
BRANCH   2   3
ATOM      3  C   UNL     1     194.033 192.679 200.609  1.00  0.00     0.000 C 
BRANCH   3   4
ATOM      4  C   UNL     1     195.271 191.771 200.712  1.00  0.00     0.000 C 
BRANCH   4   5
ATOM      5  C   UNL     1     196.595 192.558 200.709  1.00  0.00     0.000 C 
BRANCH   5   6
ATOM      6  C   UNL     1     197.156 192.894 199.312  1.00  0.00     0.000 C 
BRANCH   6   7
ATOM      7  C   UNL     1     197.295 194.399 199.006  1.00  0.00     0.000 C 
BRANCH   7   8
ATOM      8  C   UNL     1     198.550 195.071 199.598  1.00  0.00     0.000 C 
BRANCH   8   9
ATOM      9  C   UNL     1     198.394 195.585 201.040  1.00  0.00     0.000 C 
BRANCH   9  10
ATOM     10  C   UNL     1     197.184 196.520 201.211  1.00  0.00     0.000 C 
BRANCH  10  11
ATOM     11  C   UNL     1     196.085 195.925 202.108  1.00  0.00     0.000 C 
BRANCH  11  12
ATOM     12  C   UNL     1     194.638 196.252 201.688  1.00  0.00     0.006 C 
BRANCH  12  13
ATOM     13  C   UNL     1     194.425 196.323 200.164  1.00  0.00     0.053 C 
BRANCH  13  14
ATOM     14  C   UNL     1     192.975 196.426 199.792  1.00  0.00     0.041 C 
ATOM     15  O   UNL     1     192.630 197.038 198.747  1.00  0.00    -0.550 OA
ATOM     16  O   UNL     1     192.007 195.819 200.581  1.00  0.00    -0.550 OA
ENDBRANCH  13  14
ENDBRANCH  12  13
ENDBRANCH  11  12
ENDBRANCH  10  11
ENDBRANCH   9  10
ENDBRANCH   8   9
ENDBRANCH   7   8
ENDBRANCH   6   7
ENDBRANCH   5   6
ENDBRANCH   4   5
ENDBRANCH   3   4
ENDBRANCH   2   3
ENDBRANCH   1   2
BRANCH   1  17
ATOM     17  C   UNL     1     191.201 192.448 200.285  1.00  0.00     0.000 C 
BRANCH  17  18
ATOM     18  C   UNL     1     190.617 191.052 200.585  1.00  0.00     0.000 C 
BRANCH  18  19
ATOM     19  C   UNL     1     191.063 190.425 201.918  1.00  0.00     0.000 C 
BRANCH  19  20
ATOM     20  C   UNL     1     191.700 189.035 201.743  1.00  0.00     0.000 C 
BRANCH  20  21
ATOM     21  C   UNL     1     192.853 189.032 200.724  1.00  0.00     0.000 C 
BRANCH  21  22
ATOM     22  C   UNL     1     192.537 188.361 199.372  1.00  0.00    -0.000 C 
BRANCH  22  23
ATOM     23  C   UNL     1     193.107 189.082 198.137  1.00  0.00    -0.000 C 
BRANCH  23  24
ATOM     24  C   UNL     1     194.614 189.355 198.249  1.00  0.00    -0.000 C 
BRANCH  24  25
ATOM     25  C   UNL     1     195.181 189.851 196.914  1.00  0.00    -0.000 C 
BRANCH  25  26
ATOM     26  C   UNL     1     194.422 191.093 196.422  1.00  0.00    -0.000 C 
BRANCH  26  27
ATOM     27  C   UNL     1     195.363 192.235 196.004  1.00  0.00    -0.000 C 
BRANCH  27  28
ATOM     28  C   UNL     1     195.636 192.249 194.490  1.00  0.00    -0.000 C 
BRANCH  28  29
ATOM     29  C   UNL     1     194.675 193.176 193.727  1.00  0.00    -0.003 C 
ATOM     30  C   UNL     1     193.378 192.477 193.319  1.00  0.00     0.004 C 
ENDBRANCH  28  29
ENDBRANCH  27  28
ENDBRANCH  26  27
ENDBRANCH  25  26
ENDBRANCH  24  25
ENDBRANCH  23  24
ENDBRANCH  22  23
ENDBRANCH  21  22
ENDBRANCH  20  21
ENDBRANCH  19  20
ENDBRANCH  18  19
ENDBRANCH  17  18
ENDBRANCH   1  17
TORSDOF 26
ENDMDL
MODEL 8
REMARK VINA RESULT:    -3.862      3.080      7.085
REMARK INTER + INTRA:         -14.946
REMARK INTER:                  -9.779
REMARK INTRA:                  -5.167
REMARK UNBOUND:                -5.215
REMARK SMILES CCCCCCCCCCCCCCCCCCCCCCCCCCCC(=O)[O-]
REMARK SMILES IDX 15 1 16 2 17 3 18 4 19 5 20 6 21 7 22 8 23 9 24 10 25 11
REMARK SMILES IDX 26 12 27 13 28 14 29 15 30 16 14 17 13 18 12 19 11 20 10 21
REMARK SMILES IDX 9 22 8 23 7 24 6 25 5 26 4 27 3 28 2 29 1 30
REMARK H PARENT
REMARK Flexibility Score: inf
ROOT
ATOM      1  C   UNL     1     194.054 189.235 199.686  1.00  0.00     0.000 C 
ENDROOT
BRANCH   1   2
ATOM      2  C   UNL     1     194.095 189.373 201.221  1.00  0.00     0.000 C 
BRANCH   2   3
ATOM      3  C   UNL     1     194.300 190.805 201.744  1.00  0.00     0.000 C 
BRANCH   3   4
ATOM      4  C   UNL     1     195.372 191.577 200.957  1.00  0.00     0.000 C 
BRANCH   4   5
ATOM      5  C   UNL     1     194.937 193.010 200.595  1.00  0.00     0.000 C 
BRANCH   5   6
ATOM      6  C   UNL     1     194.925 193.331 199.086  1.00  0.00     0.000 C 
BRANCH   6   7
ATOM      7  C   UNL     1     196.301 193.664 198.476  1.00  0.00     0.000 C 
BRANCH   7   8
ATOM      8  C   UNL     1     196.664 192.863 197.209  1.00  0.00     0.000 C 
BRANCH   8   9
ATOM      9  C   UNL     1     196.449 191.342 197.316  1.00  0.00     0.000 C 
BRANCH   9  10
ATOM     10  C   UNL     1     195.374 190.824 196.345  1.00  0.00     0.000 C 
BRANCH  10  11
ATOM     11  C   UNL     1     195.247 191.679 195.073  1.00  0.00     0.000 C 
BRANCH  11  12
ATOM     12  C   UNL     1     193.822 192.162 194.738  1.00  0.00     0.006 C 
BRANCH  12  13
ATOM     13  C   UNL     1     193.728 192.995 193.446  1.00  0.00     0.053 C 
BRANCH  13  14
ATOM     14  C   UNL     1     192.729 194.110 193.555  1.00  0.00     0.041 C 
ATOM     15  O   UNL     1     192.400 194.558 194.685  1.00  0.00    -0.550 OA
ATOM     16  O   UNL     1     192.187 194.677 192.409  1.00  0.00    -0.550 OA
ENDBRANCH  13  14
ENDBRANCH  12  13
ENDBRANCH  11  12
ENDBRANCH  10  11
ENDBRANCH   9  10
ENDBRANCH   8   9
ENDBRANCH   7   8
ENDBRANCH   6   7
ENDBRANCH   5   6
ENDBRANCH   4   5
ENDBRANCH   3   4
ENDBRANCH   2   3
ENDBRANCH   1   2
BRANCH   1  17
ATOM     17  C   UNL     1     192.772 188.591 199.125  1.00  0.00     0.000 C 
BRANCH  17  18
ATOM     18  C   UNL     1     191.788 189.571 198.453  1.00  0.00     0.000 C 
BRANCH  18  19
ATOM     19  C   UNL     1     192.389 190.927 198.043  1.00  0.00     0.000 C 
BRANCH  19  20
ATOM     20  C   UNL     1     191.604 192.126 198.607  1.00  0.00     0.000 C 
BRANCH  20  21
ATOM     21  C   UNL     1     191.318 191.994 200.113  1.00  0.00     0.000 C 
BRANCH  21  22
ATOM     22  C   UNL     1     189.827 192.028 200.506  1.00  0.00    -0.000 C 
BRANCH  22  23
ATOM     23  C   UNL     1     189.440 191.107 201.677  1.00  0.00    -0.000 C 
BRANCH  23  24
ATOM     24  C   UNL     1     190.503 190.038 201.972  1.00  0.00    -0.000 C 
BRANCH  24  25
ATOM     25  C   UNL     1     189.979 188.637 201.635  1.00  0.00    -0.000 C 
BRANCH  25  26
ATOM     26  C   UNL     1     188.592 188.712 200.979  1.00  0.00    -0.000 C 
BRANCH  26  27
ATOM     27  C   UNL     1     188.600 188.224 199.520  1.00  0.00    -0.000 C 
BRANCH  27  28
ATOM     28  C   UNL     1     188.008 189.260 198.549  1.00  0.00    -0.000 C 
BRANCH  28  29
ATOM     29  C   UNL     1     186.894 190.102 199.193  1.00  0.00    -0.003 C 
ATOM     30  C   UNL     1     185.535 189.893 198.526  1.00  0.00     0.004 C 
ENDBRANCH  28  29
ENDBRANCH  27  28
ENDBRANCH  26  27
ENDBRANCH  25  26
ENDBRANCH  24  25
ENDBRANCH  23  24
ENDBRANCH  22  23
ENDBRANCH  21  22
ENDBRANCH  20  21
ENDBRANCH  19  20
ENDBRANCH  18  19
ENDBRANCH  17  18
ENDBRANCH   1  17
TORSDOF 26
ENDMDL
MODEL 9
REMARK VINA RESULT:    -3.803      1.949      5.629
REMARK INTER + INTRA:         -14.798
REMARK INTER:                  -9.459
REMARK INTRA:                  -5.339
REMARK UNBOUND:                -5.215
REMARK SMILES CCCCCCCCCCCCCCCCCCCCCCCCCCCC(=O)[O-]
REMARK SMILES IDX 15 1 16 2 17 3 18 4 19 5 20 6 21 7 22 8 23 9 24 10 25 11
REMARK SMILES IDX 26 12 27 13 28 14 29 15 30 16 14 17 13 18 12 19 11 20 10 21
REMARK SMILES IDX 9 22 8 23 7 24 6 25 5 26 4 27 3 28 2 29 1 30
REMARK H PARENT
REMARK Flexibility Score: inf
ROOT
ATOM      1  C   UNL     1     194.607 190.254 196.944  1.00  0.00     0.000 C 
ENDROOT
BRANCH   1   2
ATOM      2  C   UNL     1     195.913 189.490 197.243  1.00  0.00     0.000 C 
BRANCH   2   3
ATOM      3  C   UNL     1     195.917 188.690 198.556  1.00  0.00     0.000 C 
BRANCH   3   4
ATOM      4  C   UNL     1     196.899 189.258 199.596  1.00  0.00     0.000 C 
BRANCH   4   5
ATOM      5  C   UNL     1     197.649 190.507 199.095  1.00  0.00     0.000 C 
BRANCH   5   6
ATOM      6  C   UNL     1     197.222 191.836 199.752  1.00  0.00     0.000 C 
BRANCH   6   7
ATOM      7  C   UNL     1     198.055 193.066 199.341  1.00  0.00     0.000 C 
BRANCH   7   8
ATOM      8  C   UNL     1     197.784 194.341 200.164  1.00  0.00     0.000 C 
BRANCH   8   9
ATOM      9  C   UNL     1     197.027 194.115 201.486  1.00  0.00     0.000 C 
BRANCH   9  10
ATOM     10  C   UNL     1     195.821 195.056 201.649  1.00  0.00     0.000 C 
BRANCH  10  11
ATOM     11  C   UNL     1     195.243 195.535 200.306  1.00  0.00     0.000 C 
BRANCH  11  12
ATOM     12  C   UNL     1     194.100 196.564 200.405  1.00  0.00     0.006 C 
BRANCH  12  13
ATOM     13  C   UNL     1     192.718 195.944 200.689  1.00  0.00     0.053 C 
BRANCH  13  14
ATOM     14  C   UNL     1     191.595 196.906 200.433  1.00  0.00     0.041 C 
ATOM     15  O   UNL     1     190.473 196.731 200.979  1.00  0.00    -0.550 OA
ATOM     16  O   UNL     1     191.796 198.013 199.619  1.00  0.00    -0.550 OA
ENDBRANCH  13  14
ENDBRANCH  12  13
ENDBRANCH  11  12
ENDBRANCH  10  11
ENDBRANCH   9  10
ENDBRANCH   8   9
ENDBRANCH   7   8
ENDBRANCH   6   7
ENDBRANCH   5   6
ENDBRANCH   4   5
ENDBRANCH   3   4
ENDBRANCH   2   3
ENDBRANCH   1   2
BRANCH   1  17
ATOM     17  C   UNL     1     194.689 191.249 195.771  1.00  0.00     0.000 C 
BRANCH  17  18
ATOM     18  C   UNL     1     194.710 192.737 196.176  1.00  0.00     0.000 C 
BRANCH  18  19
ATOM     19  C   UNL     1     194.422 193.018 197.662  1.00  0.00     0.000 C 
BRANCH  19  20
ATOM     20  C   UNL     1     192.918 193.132 197.970  1.00  0.00     0.000 C 
BRANCH  20  21
ATOM     21  C   UNL     1     192.543 192.534 199.338  1.00  0.00     0.000 C 
BRANCH  21  22
ATOM     22  C   UNL     1     193.728 192.271 200.289  1.00  0.00    -0.000 C 
BRANCH  22  23
ATOM     23  C   UNL     1     193.745 190.876 200.940  1.00  0.00    -0.000 C 
BRANCH  23  24
ATOM     24  C   UNL     1     192.418 190.524 201.629  1.00  0.00    -0.000 C 
BRANCH  24  25
ATOM     25  C   UNL     1     192.184 189.008 201.624  1.00  0.00    -0.000 C 
BRANCH  25  26
ATOM     26  C   UNL     1     192.809 188.360 200.379  1.00  0.00    -0.000 C 
BRANCH  26  27
ATOM     27  C   UNL     1     191.768 188.032 199.296  1.00  0.00    -0.000 C 
BRANCH  27  28
ATOM     28  C   UNL     1     191.526 189.209 198.336  1.00  0.00    -0.000 C 
BRANCH  28  29
ATOM     29  C   UNL     1     190.034 189.539 198.173  1.00  0.00    -0.003 C 
ATOM     30  C   UNL     1     189.464 190.308 199.365  1.00  0.00     0.004 C 
ENDBRANCH  28  29
ENDBRANCH  27  28
ENDBRANCH  26  27
ENDBRANCH  25  26
ENDBRANCH  24  25
ENDBRANCH  23  24
ENDBRANCH  22  23
ENDBRANCH  21  22
ENDBRANCH  20  21
ENDBRANCH  19  20
ENDBRANCH  18  19
ENDBRANCH  17  18
ENDBRANCH   1  17
TORSDOF 26
ENDMDL
