MODEL 1
REMARK VINA RESULT:    -2.969      0.000      0.000
REMARK INTER + INTRA:          -3.385
REMARK INTER:                  -3.316
REMARK INTRA:                  -0.069
REMARK UNBOUND:                -0.069
REMARK SMILES CCCC(=O)[O-]
REMARK SMILES IDX 3 1 4 2 5 3 6 4 2 5 1 6
REMARK H PARENT
REMARK Flexibility Score: inf
ROOT
ATOM      1  C   UNL     1      -0.131   7.427  -9.046  1.00  0.00     0.052 C 
ENDROOT
BRANCH   1   2
ATOM      2  C   UNL     1       0.985   6.579  -8.516  1.00  0.00     0.041 C 
ATOM      3  O   UNL     1       0.791   5.816  -7.533  1.00  0.00    -0.550 OA
ATOM      4  O   UNL     1       2.230   6.606  -9.131  1.00  0.00    -0.550 OA
ENDBRANCH   1   2
BRANCH   1   5
ATOM      5  C   UNL     1      -0.674   8.383  -7.977  1.00  0.00     0.003 C 
ATOM      6  C   UNL     1       0.396   9.344  -7.458  1.00  0.00     0.004 C 
ENDBRANCH   1   5
TORSDOF 2
ENDMDL
MODEL 2
REMARK VINA RESULT:    -2.745     15.317     15.903
REMARK INTER + INTRA:          -3.134
REMARK INTER:                  -3.118
REMARK INTRA:                  -0.016
REMARK UNBOUND:                -0.069
REMARK SMILES CCCC(=O)[O-]
REMARK SMILES IDX 3 1 4 2 5 3 6 4 2 5 1 6
REMARK H PARENT
REMARK Flexibility Score: inf
ROOT
ATOM      1  C   UNL     1      -4.937  -6.647  -7.539  1.00  0.00     0.052 C 
ENDROOT
BRANCH   1   2
ATOM      2  C   UNL     1      -3.933  -7.693  -7.914  1.00  0.00     0.041 C 
ATOM      3  O   UNL     1      -3.506  -7.769  -9.097  1.00  0.00    -0.550 OA
ATOM      4  O   UNL     1      -3.443  -8.564  -6.949  1.00  0.00    -0.550 OA
ENDBRANCH   1   2
BRANCH   1   5
ATOM      5  C   UNL     1      -5.720  -7.037  -6.280  1.00  0.00     0.003 C 
ATOM      6  C   UNL     1      -7.232  -7.028  -6.509  1.00  0.00     0.004 C 
ENDBRANCH   1   5
TORSDOF 2
ENDMDL
MODEL 3
REMARK VINA RESULT:    -2.633      1.807      2.316
REMARK INTER + INTRA:          -3.009
REMARK INTER:                  -2.970
REMARK INTRA:                  -0.039
REMARK UNBOUND:                -0.069
REMARK SMILES CCCC(=O)[O-]
REMARK SMILES IDX 3 1 4 2 5 3 6 4 2 5 1 6
REMARK H PARENT
REMARK Flexibility Score: inf
ROOT
ATOM      1  C   UNL     1       0.433   7.290  -9.519  1.00  0.00     0.052 C 
ENDROOT
BRANCH   1   2
ATOM      2  C   UNL     1       0.323   7.042  -8.045  1.00  0.00     0.041 C 
ATOM      3  O   UNL     1      -0.275   7.868  -7.306  1.00  0.00    -0.550 OA
ATOM      4  O   UNL     1       0.851   5.882  -7.494  1.00  0.00    -0.550 OA
ENDBRANCH   1   2
BRANCH   1   5
ATOM      5  C   UNL     1       1.874   7.610  -9.934  1.00  0.00     0.003 C 
ATOM      6  C   UNL     1       2.156   9.113  -9.944  1.00  0.00     0.004 C 
ENDBRANCH   1   5
TORSDOF 2
ENDMDL
MODEL 4
REMARK VINA RESULT:    -2.602     15.669     16.201
REMARK INTER + INTRA:          -2.975
REMARK INTER:                  -2.954
REMARK INTRA:                  -0.021
REMARK UNBOUND:                -0.069
REMARK SMILES CCCC(=O)[O-]
REMARK SMILES IDX 3 1 4 2 5 3 6 4 2 5 1 6
REMARK H PARENT
REMARK Flexibility Score: inf
ROOT
ATOM      1  C   UNL     1      -5.242  -6.437  -7.121  1.00  0.00     0.052 C 
ENDROOT
BRANCH   1   2
ATOM      2  C   UNL     1      -5.892  -7.396  -6.171  1.00  0.00     0.041 C 
ATOM      3  O   UNL     1      -5.331  -8.487  -5.888  1.00  0.00    -0.550 OA
ATOM      4  O   UNL     1      -7.102  -7.068  -5.573  1.00  0.00    -0.550 OA
ENDBRANCH   1   2
BRANCH   1   5
ATOM      5  C   UNL     1      -4.127  -7.109  -7.932  1.00  0.00     0.003 C 
ATOM      6  C   UNL     1      -4.652  -7.769  -9.207  1.00  0.00     0.004 C 
ENDBRANCH   1   5
TORSDOF 2
ENDMDL
MODEL 5
REMARK VINA RESULT:    -2.507      2.239      3.015
REMARK INTER + INTRA:          -2.869
REMARK INTER:                  -2.813
REMARK INTRA:                  -0.056
REMARK UNBOUND:                -0.069
REMARK SMILES CCCC(=O)[O-]
REMARK SMILES IDX 3 1 4 2 5 3 6 4 2 5 1 6
REMARK H PARENT
REMARK Flexibility Score: inf
ROOT
ATOM      1  C   UNL     1       0.476   6.844  -7.799  1.00  0.00     0.052 C 
ENDROOT
BRANCH   1   2
ATOM      2  C   UNL     1      -0.098   8.226  -7.881  1.00  0.00     0.041 C 
ATOM      3  O   UNL     1      -1.143   8.441  -8.550  1.00  0.00    -0.550 OA
ATOM      4  O   UNL     1       0.505   9.271  -7.191  1.00  0.00    -0.550 OA
ENDBRANCH   1   2
BRANCH   1   5
ATOM      5  C   UNL     1       0.851   6.302  -9.183  1.00  0.00     0.003 C 
ATOM      6  C   UNL     1       2.188   6.852  -9.680  1.00  0.00     0.004 C 
ENDBRANCH   1   5
TORSDOF 2
ENDMDL
MODEL 6
REMARK VINA RESULT:    -2.502     14.625     15.376
REMARK INTER + INTRA:          -2.863
REMARK INTER:                  -2.825
REMARK INTRA:                  -0.038
REMARK UNBOUND:                -0.069
REMARK SMILES CCCC(=O)[O-]
REMARK SMILES IDX 3 1 4 2 5 3 6 4 2 5 1 6
REMARK H PARENT
REMARK Flexibility Score: inf
ROOT
ATOM      1  C   UNL     1      -1.074  -2.117   4.155  1.00  0.00     0.052 C 
ENDROOT
BRANCH   1   2
ATOM      2  C   UNL     1      -1.238  -0.835   4.913  1.00  0.00     0.041 C 
ATOM      3  O   UNL     1      -1.456  -0.854   6.153  1.00  0.00    -0.550 OA
ATOM      4  O   UNL     1      -1.116   0.382   4.254  1.00  0.00    -0.550 OA
ENDBRANCH   1   2
BRANCH   1   5
ATOM      5  C   UNL     1      -0.700  -1.865   2.689  1.00  0.00     0.003 C 
ATOM      6  C   UNL     1       0.800  -2.025   2.437  1.00  0.00     0.004 C 
ENDBRANCH   1   5
TORSDOF 2
ENDMDL
MODEL 7
REMARK VINA RESULT:    -2.456     12.851     13.414
REMARK INTER + INTRA:          -2.812
REMARK INTER:                  -2.797
REMARK INTRA:                  -0.015
REMARK UNBOUND:                -0.069
REMARK SMILES CCCC(=O)[O-]
REMARK SMILES IDX 3 1 4 2 5 3 6 4 2 5 1 6
REMARK H PARENT
REMARK Flexibility Score: inf
ROOT
ATOM      1  C   UNL     1       9.530   6.342   2.060  1.00  0.00     0.052 C 
ENDROOT
BRANCH   1   2
ATOM      2  C   UNL     1       8.946   7.721   2.120  1.00  0.00     0.041 C 
ATOM      3  O   UNL     1       7.738   7.886   2.434  1.00  0.00    -0.550 OA
ATOM      4  O   UNL     1       9.748   8.826   1.861  1.00  0.00    -0.550 OA
ENDBRANCH   1   2
BRANCH   1   5
ATOM      5  C   UNL     1      10.057   6.010   0.658  1.00  0.00     0.003 C 
ATOM      6  C   UNL     1       9.277   4.873  -0.002  1.00  0.00     0.004 C 
ENDBRANCH   1   5
TORSDOF 2
ENDMDL
MODEL 8
REMARK VINA RESULT:    -2.450     15.816     16.719
REMARK INTER + INTRA:          -2.805
REMARK INTER:                  -2.734
REMARK INTRA:                  -0.071
REMARK UNBOUND:                -0.069
REMARK SMILES CCCC(=O)[O-]
REMARK SMILES IDX 3 1 4 2 5 3 6 4 2 5 1 6
REMARK H PARENT
REMARK Flexibility Score: inf
ROOT
ATOM      1  C   UNL     1      -4.456  -8.603  -8.218  1.00  0.00     0.052 C 
ENDROOT
BRANCH   1   2
ATOM      2  C   UNL     1      -4.161  -9.348  -6.952  1.00  0.00     0.041 C 
ATOM      3  O   UNL     1      -3.008  -9.310  -6.448  1.00  0.00    -0.550 OA
ATOM      4  O   UNL     1      -5.170 -10.057  -6.312  1.00  0.00    -0.550 OA
ENDBRANCH   1   2
BRANCH   1   5
ATOM      5  C   UNL     1      -4.225  -7.096  -8.057  1.00  0.00     0.003 C 
ATOM      6  C   UNL     1      -5.216  -6.456  -7.084  1.00  0.00     0.004 C 
ENDBRANCH   1   5
TORSDOF 2
ENDMDL
MODEL 9
REMARK VINA RESULT:    -2.405     15.705     16.299
REMARK INTER + INTRA:          -2.755
REMARK INTER:                  -2.721
REMARK INTRA:                  -0.034
REMARK UNBOUND:                -0.069
REMARK SMILES CCCC(=O)[O-]
REMARK SMILES IDX 3 1 4 2 5 3 6 4 2 5 1 6
REMARK H PARENT
REMARK Flexibility Score: inf
ROOT
ATOM      1  C   UNL     1      -6.182  -7.350  -6.550  1.00  0.00     0.052 C 
ENDROOT
BRANCH   1   2
ATOM      2  C   UNL     1      -7.577  -6.971  -6.945  1.00  0.00     0.041 C 
ATOM      3  O   UNL     1      -7.974  -7.152  -8.126  1.00  0.00    -0.550 OA
ATOM      4  O   UNL     1      -8.448  -6.448  -5.998  1.00  0.00    -0.550 OA
ENDBRANCH   1   2
BRANCH   1   5
ATOM      5  C   UNL     1      -5.140  -6.420  -7.184  1.00  0.00     0.003 C 
ATOM      6  C   UNL     1      -4.185  -7.166  -8.116  1.00  0.00     0.004 C 
ENDBRANCH   1   5
TORSDOF 2
ENDMDL
