MODEL 1
REMARK VINA RESULT:    -6.550      0.000      0.000
REMARK INTER + INTRA:          -7.999
REMARK INTER:                  -7.699
REMARK INTRA:                  -0.300
REMARK UNBOUND:                -0.300
REMARK SMILES O=c1c(O)c(-c2ccc(O)cc2)oc2cc(O)cc(O)c12
REMARK SMILES IDX 5 1 3 2 2 3 1 4 21 5 19 6 18 7 16 8 15 9 14 10 13 11 6 12
REMARK SMILES IDX 7 13 8 14 9 15 12 16 11 17 10 18 4 20 20 22 17 24
REMARK H PARENT 10 19 4 21 20 23 17 25
REMARK Flexibility Score: inf
ROOT
ATOM      1  C   UNL     1       5.626 -15.425   7.257  1.00  0.00     0.180 A 
ATOM      2  C   UNL     1       6.111 -14.644   6.193  1.00  0.00     0.208 A 
ATOM      3  C   UNL     1       7.474 -14.711   5.867  1.00  0.00     0.238 A 
ATOM      4  O   UNL     1       7.913 -13.969   4.949  1.00  0.00    -0.285 OA
ATOM      5  C   UNL     1       8.333 -15.568   6.596  1.00  0.00     0.111 A 
ATOM      6  C   UNL     1       9.724 -15.745   6.325  1.00  0.00     0.134 A 
ATOM      7  C   UNL     1      10.503 -16.519   7.194  1.00  0.00     0.093 A 
ATOM      8  C   UNL     1       9.929 -17.176   8.284  1.00  0.00     0.123 A 
ATOM      9  C   UNL     1       8.562 -17.057   8.523  1.00  0.00     0.094 A 
ATOM     10  C   UNL     1       7.765 -16.263   7.695  1.00  0.00     0.146 A 
ATOM     11  O   UNL     1       6.469 -16.169   7.964  1.00  0.00    -0.452 OA
ENDROOT
BRANCH   1  12
ATOM     12  C   UNL     1       4.197 -15.427   7.646  1.00  0.00     0.021 A 
ATOM     13  C   UNL     1       3.752 -14.555   8.653  1.00  0.00     0.016 A 
ATOM     14  C   UNL     1       2.411 -14.557   9.051  1.00  0.00     0.047 A 
ATOM     15  C   UNL     1       1.502 -15.442   8.457  1.00  0.00     0.115 A 
ATOM     16  C   UNL     1       3.282 -16.327   7.068  1.00  0.00     0.016 A 
ATOM     17  C   UNL     1       1.943 -16.327   7.468  1.00  0.00     0.047 A 
BRANCH  15  18
ATOM     18  O   UNL     1       0.165 -15.454   8.845  1.00  0.00    -0.508 OA
ATOM     19  H   UNL     1      -0.264 -16.282   9.241  1.00  0.00     0.293 HD
ENDBRANCH  15  18
ENDBRANCH   1  12
BRANCH   2  20
ATOM     20  O   UNL     1       5.251 -13.788   5.501  1.00  0.00    -0.502 OA
ATOM     21  H   UNL     1       4.653 -14.109   4.749  1.00  0.00     0.293 HD
ENDBRANCH   2  20
BRANCH   6  22
ATOM     22  O   UNL     1      10.376 -15.209   5.211  1.00  0.00    -0.507 OA
ATOM     23  H   UNL     1      10.816 -15.754   4.485  1.00  0.00     0.293 HD
ENDBRANCH   6  22
BRANCH   8  24
ATOM     24  O   UNL     1      10.710 -17.958   9.134  1.00  0.00    -0.508 OA
ATOM     25  H   UNL     1      10.326 -18.760   9.619  1.00  0.00     0.293 HD
ENDBRANCH   8  24
TORSDOF 5
ENDMDL
MODEL 2
REMARK VINA RESULT:    -6.123      2.478      2.949
REMARK INTER + INTRA:          -7.497
REMARK INTER:                  -7.304
REMARK INTRA:                  -0.192
REMARK UNBOUND:                -0.300
REMARK SMILES O=c1c(O)c(-c2ccc(O)cc2)oc2cc(O)cc(O)c12
REMARK SMILES IDX 5 1 3 2 2 3 1 4 21 5 19 6 18 7 16 8 15 9 14 10 13 11 6 12
REMARK SMILES IDX 7 13 8 14 9 15 12 16 11 17 10 18 4 20 20 22 17 24
REMARK H PARENT 10 19 4 21 20 23 17 25
REMARK Flexibility Score: inf
ROOT
ATOM      1  C   UNL     1       5.642 -15.875   8.651  1.00  0.00     0.180 A 
ATOM      2  C   UNL     1       5.112 -14.845   7.854  1.00  0.00     0.208 A 
ATOM      3  C   UNL     1       5.878 -14.347   6.788  1.00  0.00     0.238 A 
ATOM      4  O   UNL     1       5.420 -13.388   6.112  1.00  0.00    -0.285 OA
ATOM      5  C   UNL     1       7.156 -14.895   6.521  1.00  0.00     0.111 A 
ATOM      6  C   UNL     1       8.001 -14.494   5.443  1.00  0.00     0.134 A 
ATOM      7  C   UNL     1       9.298 -15.013   5.354  1.00  0.00     0.093 A 
ATOM      8  C   UNL     1       9.757 -15.967   6.264  1.00  0.00     0.123 A 
ATOM      9  C   UNL     1       8.919 -16.407   7.286  1.00  0.00     0.094 A 
ATOM     10  C   UNL     1       7.632 -15.882   7.422  1.00  0.00     0.146 A 
ATOM     11  O   UNL     1       6.870 -16.322   8.416  1.00  0.00    -0.452 OA
ENDROOT
BRANCH   1  12
ATOM     12  C   UNL     1       4.886 -16.468   9.777  1.00  0.00     0.021 A 
ATOM     13  C   UNL     1       5.360 -16.311  11.090  1.00  0.00     0.016 A 
ATOM     14  C   UNL     1       4.674 -16.883  12.165  1.00  0.00     0.047 A 
ATOM     15  C   UNL     1       3.512 -17.632  11.940  1.00  0.00     0.115 A 
ATOM     16  C   UNL     1       3.729 -17.240   9.558  1.00  0.00     0.016 A 
ATOM     17  C   UNL     1       3.044 -17.811  10.634  1.00  0.00     0.047 A 
BRANCH  15  18
ATOM     18  O   UNL     1       2.819 -18.207  13.003  1.00  0.00    -0.508 OA
ATOM     19  H   UNL     1       2.651 -17.696  13.863  1.00  0.00     0.293 HD
ENDBRANCH  15  18
ENDBRANCH   1  12
BRANCH   2  20
ATOM     20  O   UNL     1       3.858 -14.303   8.149  1.00  0.00    -0.502 OA
ATOM     21  H   UNL     1       3.473 -14.303   9.085  1.00  0.00     0.293 HD
ENDBRANCH   2  20
BRANCH   6  22
ATOM     22  O   UNL     1       7.607 -13.618   4.427  1.00  0.00    -0.507 OA
ATOM     23  H   UNL     1       6.824 -12.984   4.486  1.00  0.00     0.293 HD
ENDBRANCH   6  22
BRANCH   8  24
ATOM     24  O   UNL     1      11.045 -16.489   6.158  1.00  0.00    -0.508 OA
ATOM     25  H   UNL     1      11.374 -16.918   5.301  1.00  0.00     0.293 HD
ENDBRANCH   8  24
TORSDOF 5
ENDMDL
MODEL 3
REMARK VINA RESULT:    -6.115      1.911      3.777
REMARK INTER + INTRA:          -7.488
REMARK INTER:                  -7.202
REMARK INTRA:                  -0.286
REMARK UNBOUND:                -0.300
REMARK SMILES O=c1c(O)c(-c2ccc(O)cc2)oc2cc(O)cc(O)c12
REMARK SMILES IDX 5 1 3 2 2 3 1 4 21 5 19 6 18 7 16 8 15 9 14 10 13 11 6 12
REMARK SMILES IDX 7 13 8 14 9 15 12 16 11 17 10 18 4 20 20 22 17 24
REMARK H PARENT 10 19 4 21 20 23 17 25
REMARK Flexibility Score: inf
ROOT
ATOM      1  C   UNL     1       3.461 -15.582   8.246  1.00  0.00     0.180 A 
ATOM      2  C   UNL     1       4.339 -16.341   9.038  1.00  0.00     0.208 A 
ATOM      3  C   UNL     1       5.713 -16.306   8.754  1.00  0.00     0.238 A 
ATOM      4  O   UNL     1       6.489 -17.031   9.431  1.00  0.00    -0.285 OA
ATOM      5  C   UNL     1       6.194 -15.500   7.694  1.00  0.00     0.111 A 
ATOM      6  C   UNL     1       7.571 -15.358   7.343  1.00  0.00     0.134 A 
ATOM      7  C   UNL     1       7.919 -14.637   6.194  1.00  0.00     0.093 A 
ATOM      8  C   UNL     1       6.947 -13.999   5.421  1.00  0.00     0.123 A 
ATOM      9  C   UNL     1       5.606 -14.083   5.789  1.00  0.00     0.094 A 
ATOM     10  C   UNL     1       5.224 -14.824   6.909  1.00  0.00     0.146 A 
ATOM     11  O   UNL     1       3.934 -14.887   7.218  1.00  0.00    -0.452 OA
ENDROOT
BRANCH   1  12
ATOM     12  C   UNL     1       2.002 -15.548   8.499  1.00  0.00     0.021 A 
ATOM     13  C   UNL     1       1.483 -14.647   9.443  1.00  0.00     0.016 A 
ATOM     14  C   UNL     1       0.111 -14.614   9.713  1.00  0.00     0.047 A 
ATOM     15  C   UNL     1      -0.757 -15.493   9.053  1.00  0.00     0.115 A 
ATOM     16  C   UNL     1       1.125 -16.442   7.855  1.00  0.00     0.016 A 
ATOM     17  C   UNL     1      -0.245 -16.408   8.126  1.00  0.00     0.047 A 
BRANCH  15  18
ATOM     18  O   UNL     1      -2.125 -15.470   9.313  1.00  0.00    -0.508 OA
ATOM     19  H   UNL     1      -2.484 -15.290  10.244  1.00  0.00     0.293 HD
ENDBRANCH  15  18
ENDBRANCH   1  12
BRANCH   2  20
ATOM     20  O   UNL     1       3.842 -17.147  10.065  1.00  0.00    -0.502 OA
ATOM     21  H   UNL     1       2.904 -17.530  10.049  1.00  0.00     0.293 HD
ENDBRANCH   2  20
BRANCH   6  22
ATOM     22  O   UNL     1       8.627 -15.877   8.099  1.00  0.00    -0.507 OA
ATOM     23  H   UNL     1       9.588 -15.580   8.023  1.00  0.00     0.293 HD
ENDBRANCH   6  22
BRANCH   8  24
ATOM     24  O   UNL     1       7.305 -13.271   4.289  1.00  0.00    -0.508 OA
ATOM     25  H   UNL     1       7.826 -12.404   4.357  1.00  0.00     0.293 HD
ENDBRANCH   8  24
TORSDOF 5
ENDMDL
MODEL 4
REMARK VINA RESULT:    -6.033      1.151      1.594
REMARK INTER + INTRA:          -7.391
REMARK INTER:                  -7.373
REMARK INTRA:                  -0.019
REMARK UNBOUND:                -0.300
REMARK SMILES O=c1c(O)c(-c2ccc(O)cc2)oc2cc(O)cc(O)c12
REMARK SMILES IDX 5 1 3 2 2 3 1 4 21 5 19 6 18 7 16 8 15 9 14 10 13 11 6 12
REMARK SMILES IDX 7 13 8 14 9 15 12 16 11 17 10 18 4 20 20 22 17 24
REMARK H PARENT 10 19 4 21 20 23 17 25
REMARK Flexibility Score: inf
ROOT
ATOM      1  C   UNL     1       7.089 -15.676   7.370  1.00  0.00     0.180 A 
ATOM      2  C   UNL     1       7.656 -15.229   6.164  1.00  0.00     0.208 A 
ATOM      3  C   UNL     1       9.015 -15.481   5.918  1.00  0.00     0.238 A 
ATOM      4  O   UNL     1       9.531 -15.030   4.861  1.00  0.00    -0.285 OA
ATOM      5  C   UNL     1       9.786 -16.189   6.871  1.00  0.00     0.111 A 
ATOM      6  C   UNL     1      11.161 -16.534   6.707  1.00  0.00     0.134 A 
ATOM      7  C   UNL     1      11.857 -17.121   7.771  1.00  0.00     0.093 A 
ATOM      8  C   UNL     1      11.211 -17.436   8.968  1.00  0.00     0.123 A 
ATOM      9  C   UNL     1       9.854 -17.156   9.116  1.00  0.00     0.094 A 
ATOM     10  C   UNL     1       9.142 -16.538   8.086  1.00  0.00     0.146 A 
ATOM     11  O   UNL     1       7.853 -16.280   8.273  1.00  0.00    -0.452 OA
ENDROOT
BRANCH   1  12
ATOM     12  C   UNL     1       5.658 -15.471   7.692  1.00  0.00     0.021 A 
ATOM     13  C   UNL     1       5.298 -14.931   8.938  1.00  0.00     0.016 A 
ATOM     14  C   UNL     1       3.952 -14.750   9.270  1.00  0.00     0.047 A 
ATOM     15  C   UNL     1       2.948 -15.121   8.367  1.00  0.00     0.115 A 
ATOM     16  C   UNL     1       4.643 -15.860   6.798  1.00  0.00     0.016 A 
ATOM     17  C   UNL     1       3.298 -15.679   7.133  1.00  0.00     0.047 A 
BRANCH  15  18
ATOM     18  O   UNL     1       1.604 -14.946   8.687  1.00  0.00    -0.508 OA
ATOM     19  H   UNL     1       1.203 -14.022   8.801  1.00  0.00     0.293 HD
ENDBRANCH  15  18
ENDBRANCH   1  12
BRANCH   2  20
ATOM     20  O   UNL     1       6.884 -14.512   5.247  1.00  0.00    -0.502 OA
ATOM     21  H   UNL     1       6.622 -13.545   5.396  1.00  0.00     0.293 HD
ENDBRANCH   2  20
BRANCH   6  22
ATOM     22  O   UNL     1      11.876 -16.349   5.520  1.00  0.00    -0.507 OA
ATOM     23  H   UNL     1      11.695 -15.618   4.848  1.00  0.00     0.293 HD
ENDBRANCH   6  22
BRANCH   8  24
ATOM     24  O   UNL     1      11.908 -18.034  10.016  1.00  0.00    -0.508 OA
ATOM     25  H   UNL     1      12.694 -17.575  10.461  1.00  0.00     0.293 HD
ENDBRANCH   8  24
TORSDOF 5
ENDMDL
MODEL 5
REMARK VINA RESULT:    -6.007      2.381      6.958
REMARK INTER + INTRA:          -7.361
REMARK INTER:                  -7.165
REMARK INTRA:                  -0.196
REMARK UNBOUND:                -0.300
REMARK SMILES O=c1c(O)c(-c2ccc(O)cc2)oc2cc(O)cc(O)c12
REMARK SMILES IDX 5 1 3 2 2 3 1 4 21 5 19 6 18 7 16 8 15 9 14 10 13 11 6 12
REMARK SMILES IDX 7 13 8 14 9 15 12 16 11 17 10 18 4 20 20 22 17 24
REMARK H PARENT 10 19 4 21 20 23 17 25
REMARK Flexibility Score: inf
ROOT
ATOM      1  C   UNL     1       4.077 -15.597   7.065  1.00  0.00     0.180 A 
ATOM      2  C   UNL     1       3.208 -14.927   7.943  1.00  0.00     0.208 A 
ATOM      3  C   UNL     1       2.047 -15.581   8.381  1.00  0.00     0.238 A 
ATOM      4  O   UNL     1       1.245 -14.956   9.124  1.00  0.00    -0.285 OA
ATOM      5  C   UNL     1       1.775 -16.902   7.949  1.00  0.00     0.111 A 
ATOM      6  C   UNL     1       0.648 -17.675   8.362  1.00  0.00     0.134 A 
ATOM      7  C   UNL     1       0.412 -18.921   7.769  1.00  0.00     0.093 A 
ATOM      8  C   UNL     1       1.298 -19.451   6.828  1.00  0.00     0.123 A 
ATOM      9  C   UNL     1       2.432 -18.730   6.462  1.00  0.00     0.094 A 
ATOM     10  C   UNL     1       2.676 -17.468   7.009  1.00  0.00     0.146 A 
ATOM     11  O   UNL     1       3.763 -16.810   6.625  1.00  0.00    -0.452 OA
ENDROOT
BRANCH   1  12
ATOM     12  C   UNL     1       5.334 -14.983   6.578  1.00  0.00     0.021 A 
ATOM     13  C   UNL     1       5.278 -13.952   5.625  1.00  0.00     0.016 A 
ATOM     14  C   UNL     1       6.454 -13.374   5.136  1.00  0.00     0.047 A 
ATOM     15  C   UNL     1       7.701 -13.830   5.582  1.00  0.00     0.115 A 
ATOM     16  C   UNL     1       6.592 -15.449   7.006  1.00  0.00     0.016 A 
ATOM     17  C   UNL     1       7.765 -14.870   6.515  1.00  0.00     0.047 A 
BRANCH  15  18
ATOM     18  O   UNL     1       8.878 -13.262   5.102  1.00  0.00    -0.508 OA
ATOM     19  H   UNL     1       9.439 -13.724   4.395  1.00  0.00     0.293 HD
ENDBRANCH  15  18
ENDBRANCH   1  12
BRANCH   2  20
ATOM     20  O   UNL     1       3.483 -13.615   8.339  1.00  0.00    -0.502 OA
ATOM     21  H   UNL     1       2.756 -12.921   8.462  1.00  0.00     0.293 HD
ENDBRANCH   2  20
BRANCH   6  22
ATOM     22  O   UNL     1      -0.246 -17.279   9.361  1.00  0.00    -0.507 OA
ATOM     23  H   UNL     1      -0.536 -17.858  10.135  1.00  0.00     0.293 HD
ENDBRANCH   6  22
BRANCH   8  24
ATOM     24  O   UNL     1       1.063 -20.699   6.255  1.00  0.00    -0.508 OA
ATOM     25  H   UNL     1       0.478 -20.805   5.434  1.00  0.00     0.293 HD
ENDBRANCH   8  24
TORSDOF 5
ENDMDL
MODEL 6
REMARK VINA RESULT:    -6.002      2.050      6.340
REMARK INTER + INTRA:          -7.355
REMARK INTER:                  -7.361
REMARK INTRA:                   0.006
REMARK UNBOUND:                -0.300
REMARK SMILES O=c1c(O)c(-c2ccc(O)cc2)oc2cc(O)cc(O)c12
REMARK SMILES IDX 5 1 3 2 2 3 1 4 21 5 19 6 18 7 16 8 15 9 14 10 13 11 6 12
REMARK SMILES IDX 7 13 8 14 9 15 12 16 11 17 10 18 4 20 20 22 17 24
REMARK H PARENT 10 19 4 21 20 23 17 25
REMARK Flexibility Score: inf
ROOT
ATOM      1  C   UNL     1       8.745 -16.511   8.486  1.00  0.00     0.180 A 
ATOM      2  C   UNL     1       9.285 -16.301   7.206  1.00  0.00     0.208 A 
ATOM      3  C   UNL     1       8.558 -15.540   6.278  1.00  0.00     0.238 A 
ATOM      4  O   UNL     1       9.021 -15.400   5.115  1.00  0.00    -0.285 OA
ATOM      5  C   UNL     1       7.308 -14.985   6.645  1.00  0.00     0.111 A 
ATOM      6  C   UNL     1       6.504 -14.164   5.799  1.00  0.00     0.134 A 
ATOM      7  C   UNL     1       5.226 -13.779   6.222  1.00  0.00     0.093 A 
ATOM      8  C   UNL     1       4.750 -14.129   7.487  1.00  0.00     0.123 A 
ATOM      9  C   UNL     1       5.551 -14.881   8.343  1.00  0.00     0.094 A 
ATOM     10  C   UNL     1       6.816 -15.310   7.936  1.00  0.00     0.146 A 
ATOM     11  O   UNL     1       7.542 -16.033   8.780  1.00  0.00    -0.452 OA
ENDROOT
BRANCH   1  12
ATOM     12  C   UNL     1       9.464 -17.282   9.527  1.00  0.00     0.021 A 
ATOM     13  C   UNL     1       8.781 -18.276  10.249  1.00  0.00     0.016 A 
ATOM     14  C   UNL     1       9.434 -18.999  11.251  1.00  0.00     0.047 A 
ATOM     15  C   UNL     1      10.774 -18.728  11.556  1.00  0.00     0.115 A 
ATOM     16  C   UNL     1      10.804 -17.002   9.854  1.00  0.00     0.016 A 
ATOM     17  C   UNL     1      11.454 -17.726  10.856  1.00  0.00     0.047 A 
BRANCH  15  18
ATOM     18  O   UNL     1      11.435 -19.442  12.552  1.00  0.00    -0.508 OA
ATOM     19  H   UNL     1      11.322 -19.211  13.533  1.00  0.00     0.293 HD
ENDBRANCH  15  18
ENDBRANCH   1  12
BRANCH   2  20
ATOM     20  O   UNL     1      10.510 -16.876   6.856  1.00  0.00    -0.502 OA
ATOM     21  H   UNL     1      11.271 -16.976   7.516  1.00  0.00     0.293 HD
ENDBRANCH   2  20
BRANCH   6  22
ATOM     22  O   UNL     1       6.922 -13.681   4.555  1.00  0.00    -0.507 OA
ATOM     23  H   UNL     1       6.378 -13.730   3.707  1.00  0.00     0.293 HD
ENDBRANCH   6  22
BRANCH   8  24
ATOM     24  O   UNL     1       3.483 -13.728   7.905  1.00  0.00    -0.508 OA
ATOM     25  H   UNL     1       3.159 -12.776   7.778  1.00  0.00     0.293 HD
ENDBRANCH   8  24
TORSDOF 5
ENDMDL
MODEL 7
REMARK VINA RESULT:    -5.914      1.920      6.607
REMARK INTER + INTRA:          -7.252
REMARK INTER:                  -7.746
REMARK INTRA:                   0.495
REMARK UNBOUND:                -0.300
REMARK SMILES O=c1c(O)c(-c2ccc(O)cc2)oc2cc(O)cc(O)c12
REMARK SMILES IDX 5 1 3 2 2 3 1 4 21 5 19 6 18 7 16 8 15 9 14 10 13 11 6 12
REMARK SMILES IDX 7 13 8 14 9 15 12 16 11 17 10 18 4 20 20 22 17 24
REMARK H PARENT 10 19 4 21 20 23 17 25
REMARK Flexibility Score: inf
ROOT
ATOM      1  C   UNL     1       8.221 -15.797   7.427  1.00  0.00     0.180 A 
ATOM      2  C   UNL     1       7.544 -14.933   6.548  1.00  0.00     0.208 A 
ATOM      3  C   UNL     1       6.214 -14.584   6.828  1.00  0.00     0.238 A 
ATOM      4  O   UNL     1       5.596 -13.853   6.009  1.00  0.00    -0.285 OA
ATOM      5  C   UNL     1       5.581 -15.090   7.989  1.00  0.00     0.111 A 
ATOM      6  C   UNL     1       4.249 -14.771   8.391  1.00  0.00     0.134 A 
ATOM      7  C   UNL     1       3.681 -15.432   9.487  1.00  0.00     0.093 A 
ATOM      8  C   UNL     1       4.420 -16.352  10.235  1.00  0.00     0.123 A 
ATOM      9  C   UNL     1       5.740 -16.626   9.885  1.00  0.00     0.094 A 
ATOM     10  C   UNL     1       6.322 -16.009   8.776  1.00  0.00     0.146 A 
ATOM     11  O   UNL     1       7.579 -16.308   8.472  1.00  0.00    -0.452 OA
ENDROOT
BRANCH   1  12
ATOM     12  C   UNL     1       9.632 -16.191   7.213  1.00  0.00     0.021 A 
ATOM     13  C   UNL     1      10.322 -16.873   8.229  1.00  0.00     0.016 A 
ATOM     14  C   UNL     1      11.662 -17.234   8.057  1.00  0.00     0.047 A 
ATOM     15  C   UNL     1      12.333 -16.905   6.872  1.00  0.00     0.115 A 
ATOM     16  C   UNL     1      10.320 -15.846   6.034  1.00  0.00     0.016 A 
ATOM     17  C   UNL     1      11.659 -16.208   5.865  1.00  0.00     0.047 A 
BRANCH  15  18
ATOM     18  O   UNL     1      13.668 -17.259   6.689  1.00  0.00    -0.508 OA
ATOM     19  H   UNL     1      14.269 -16.747   6.055  1.00  0.00     0.293 HD
ENDBRANCH  15  18
ENDBRANCH   1  12
BRANCH   2  20
ATOM     20  O   UNL     1       8.180 -14.463   5.397  1.00  0.00    -0.502 OA
ATOM     21  H   UNL     1       7.849 -14.681   4.465  1.00  0.00     0.293 HD
ENDBRANCH   2  20
BRANCH   6  22
ATOM     22  O   UNL     1       3.458 -13.800   7.769  1.00  0.00    -0.507 OA
ATOM     23  H   UNL     1       3.178 -13.820   6.800  1.00  0.00     0.293 HD
ENDBRANCH   6  22
BRANCH   8  24
ATOM     24  O   UNL     1       3.852 -16.993  11.333  1.00  0.00    -0.508 OA
ATOM     25  H   UNL     1       3.797 -18.004  11.388  1.00  0.00     0.293 HD
ENDBRANCH   8  24
TORSDOF 5
ENDMDL
MODEL 8
REMARK VINA RESULT:    -5.888     11.724     13.127
REMARK INTER + INTRA:          -7.221
REMARK INTER:                  -6.932
REMARK INTRA:                  -0.288
REMARK UNBOUND:                -0.300
REMARK SMILES O=c1c(O)c(-c2ccc(O)cc2)oc2cc(O)cc(O)c12
REMARK SMILES IDX 5 1 3 2 2 3 1 4 21 5 19 6 18 7 16 8 15 9 14 10 13 11 6 12
REMARK SMILES IDX 7 13 8 14 9 15 12 16 11 17 10 18 4 20 20 22 17 24
REMARK H PARENT 10 19 4 21 20 23 17 25
REMARK Flexibility Score: inf
ROOT
ATOM      1  C   UNL     1      13.894 -22.935  14.046  1.00  0.00     0.180 A 
ATOM      2  C   UNL     1      14.043 -22.192  12.862  1.00  0.00     0.208 A 
ATOM      3  C   UNL     1      14.737 -20.973  12.908  1.00  0.00     0.238 A 
ATOM      4  O   UNL     1      14.820 -20.285  11.855  1.00  0.00    -0.285 OA
ATOM      5  C   UNL     1      15.287 -20.519  14.131  1.00  0.00     0.111 A 
ATOM      6  C   UNL     1      16.043 -19.318  14.284  1.00  0.00     0.134 A 
ATOM      7  C   UNL     1      16.426 -18.902  15.565  1.00  0.00     0.093 A 
ATOM      8  C   UNL     1      16.137 -19.677  16.690  1.00  0.00     0.123 A 
ATOM      9  C   UNL     1      15.451 -20.880  16.544  1.00  0.00     0.094 A 
ATOM     10  C   UNL     1      15.024 -21.304  15.283  1.00  0.00     0.146 A 
ATOM     11  O   UNL     1      14.364 -22.451  15.190  1.00  0.00    -0.452 OA
ENDROOT
BRANCH   1  12
ATOM     12  C   UNL     1      13.197 -24.241  14.073  1.00  0.00     0.021 A 
ATOM     13  C   UNL     1      11.808 -24.282  14.282  1.00  0.00     0.016 A 
ATOM     14  C   UNL     1      11.134 -25.505  14.334  1.00  0.00     0.047 A 
ATOM     15  C   UNL     1      11.843 -26.706  14.194  1.00  0.00     0.115 A 
ATOM     16  C   UNL     1      13.904 -25.452  13.954  1.00  0.00     0.016 A 
ATOM     17  C   UNL     1      13.229 -26.675  14.007  1.00  0.00     0.047 A 
BRANCH  15  18
ATOM     18  O   UNL     1      11.183 -27.931  14.245  1.00  0.00    -0.508 OA
ATOM     19  H   UNL     1      10.743 -28.261  15.097  1.00  0.00     0.293 HD
ENDBRANCH  15  18
ENDBRANCH   1  12
BRANCH   2  20
ATOM     20  O   UNL     1      13.474 -22.647  11.670  1.00  0.00    -0.502 OA
ATOM     21  H   UNL     1      12.477 -22.608  11.495  1.00  0.00     0.293 HD
ENDBRANCH   2  20
BRANCH   6  22
ATOM     22  O   UNL     1      16.464 -18.519  13.217  1.00  0.00    -0.507 OA
ATOM     23  H   UNL     1      15.855 -17.940  12.657  1.00  0.00     0.293 HD
ENDBRANCH   6  22
BRANCH   8  24
ATOM     24  O   UNL     1      16.536 -19.264  17.960  1.00  0.00    -0.508 OA
ATOM     25  H   UNL     1      16.992 -19.897  18.606  1.00  0.00     0.293 HD
ENDBRANCH   8  24
TORSDOF 5
ENDMDL
MODEL 9
REMARK VINA RESULT:    -5.851      5.765      8.088
REMARK INTER + INTRA:          -7.177
REMARK INTER:                  -6.881
REMARK INTRA:                  -0.297
REMARK UNBOUND:                -0.300
REMARK SMILES O=c1c(O)c(-c2ccc(O)cc2)oc2cc(O)cc(O)c12
REMARK SMILES IDX 5 1 3 2 2 3 1 4 21 5 19 6 18 7 16 8 15 9 14 10 13 11 6 12
REMARK SMILES IDX 7 13 8 14 9 15 12 16 11 17 10 18 4 20 20 22 17 24
REMARK H PARENT 10 19 4 21 20 23 17 25
REMARK Flexibility Score: inf
ROOT
ATOM      1  C   UNL     1       9.399 -14.682  12.111  1.00  0.00     0.180 A 
ATOM      2  C   UNL     1      10.657 -14.062  12.209  1.00  0.00     0.208 A 
ATOM      3  C   UNL     1      10.723 -12.717  12.605  1.00  0.00     0.238 A 
ATOM      4  O   UNL     1      11.848 -12.152  12.638  1.00  0.00    -0.285 OA
ATOM      5  C   UNL     1       9.534 -12.013  12.913  1.00  0.00     0.111 A 
ATOM      6  C   UNL     1       9.487 -10.659  13.363  1.00  0.00     0.134 A 
ATOM      7  C   UNL     1       8.248 -10.025  13.513  1.00  0.00     0.093 A 
ATOM      8  C   UNL     1       7.054 -10.714  13.292  1.00  0.00     0.123 A 
ATOM      9  C   UNL     1       7.089 -12.053  12.910  1.00  0.00     0.094 A 
ATOM     10  C   UNL     1       8.310 -12.703  12.718  1.00  0.00     0.146 A 
ATOM     11  O   UNL     1       8.298 -13.977  12.343  1.00  0.00    -0.452 OA
ENDROOT
BRANCH   1  12
ATOM     12  C   UNL     1       9.249 -16.104  11.724  1.00  0.00     0.021 A 
ATOM     13  C   UNL     1       9.044 -16.436  10.374  1.00  0.00     0.016 A 
ATOM     14  C   UNL     1       8.877 -17.770   9.990  1.00  0.00     0.047 A 
ATOM     15  C   UNL     1       8.898 -18.788  10.953  1.00  0.00     0.115 A 
ATOM     16  C   UNL     1       9.248 -17.130  12.687  1.00  0.00     0.016 A 
ATOM     17  C   UNL     1       9.081 -18.462  12.301  1.00  0.00     0.047 A 
BRANCH  15  18
ATOM     18  O   UNL     1       8.733 -20.120  10.583  1.00  0.00    -0.508 OA
ATOM     19  H   UNL     1       9.383 -20.838  10.885  1.00  0.00     0.293 HD
ENDBRANCH  15  18
ENDBRANCH   1  12
BRANCH   2  20
ATOM     20  O   UNL     1      11.816 -14.769  11.879  1.00  0.00    -0.502 OA
ATOM     21  H   UNL     1      12.743 -14.376  11.992  1.00  0.00     0.293 HD
ENDBRANCH   2  20
BRANCH   6  22
ATOM     22  O   UNL     1      10.618  -9.909  13.701  1.00  0.00    -0.507 OA
ATOM     23  H   UNL     1      11.312  -9.589  13.042  1.00  0.00     0.293 HD
ENDBRANCH   6  22
BRANCH   8  24
ATOM     24  O   UNL     1       5.825 -10.079  13.459  1.00  0.00    -0.508 OA
ATOM     25  H   UNL     1       5.497  -9.378  12.804  1.00  0.00     0.293 HD
ENDBRANCH   8  24
TORSDOF 5
ENDMDL
