MODEL 1
REMARK VINA RESULT:    -7.305      0.000      0.000
REMARK INTER + INTRA:          -8.736
REMARK INTER:                  -8.587
REMARK INTRA:                  -0.150
REMARK UNBOUND:                -0.150
REMARK SMILES O=c1c(O)c(-c2ccc(O)c(O)c2)oc2cc(O)ccc12
REMARK SMILES IDX 5 1 3 2 2 3 1 4 21 5 15 6 14 7 16 8 17 9 19 10 20 11 6 12
REMARK SMILES IDX 7 13 8 14 9 15 13 16 11 17 10 18 12 20 4 22 18 24
REMARK H PARENT 10 19 12 21 4 23 18 25
REMARK Flexibility Score: inf
ROOT
ATOM      1  C   UNL     1     -36.864  -7.722  20.720  1.00  0.00     0.180 A 
ATOM      2  C   UNL     1     -36.227  -6.788  21.563  1.00  0.00     0.208 A 
ATOM      3  C   UNL     1     -36.250  -5.431  21.207  1.00  0.00     0.235 A 
ATOM      4  O   UNL     1     -35.678  -4.577  21.939  1.00  0.00    -0.285 OA
ATOM      5  C   UNL     1     -36.918  -5.035  20.038  1.00  0.00     0.069 A 
ATOM      6  C   UNL     1     -37.551  -6.028  19.261  1.00  0.00     0.142 A 
ATOM      7  O   UNL     1     -37.499  -7.304  19.628  1.00  0.00    -0.452 OA
ATOM      8  C   UNL     1     -38.237  -5.673  18.094  1.00  0.00     0.094 A 
ATOM      9  C   UNL     1     -38.297  -4.335  17.690  1.00  0.00     0.119 A 
ATOM     10  C   UNL     1     -37.668  -3.346  18.459  1.00  0.00     0.047 A 
ATOM     11  C   UNL     1     -36.982  -3.691  19.628  1.00  0.00     0.020 A 
ENDROOT
BRANCH   1  12
ATOM     12  C   UNL     1     -36.869  -9.173  21.017  1.00  0.00     0.025 A 
ATOM     13  C   UNL     1     -38.093  -9.844  21.166  1.00  0.00     0.016 A 
ATOM     14  C   UNL     1     -38.122 -11.215  21.426  1.00  0.00     0.051 A 
ATOM     15  C   UNL     1     -36.931 -11.942  21.525  1.00  0.00     0.157 A 
ATOM     16  C   UNL     1     -35.673  -9.909  21.095  1.00  0.00     0.062 A 
ATOM     17  C   UNL     1     -35.700 -11.288  21.354  1.00  0.00     0.158 A 
BRANCH  15  18
ATOM     18  O   UNL     1     -36.991 -13.310  21.787  1.00  0.00    -0.504 OA
ATOM     19  H   UNL     1     -36.193 -13.918  21.656  1.00  0.00     0.293 HD
ENDBRANCH  15  18
BRANCH  17  20
ATOM     20  O   UNL     1     -34.509 -12.008  21.436  1.00  0.00    -0.504 OA
ATOM     21  H   UNL     1     -34.356 -12.846  20.888  1.00  0.00     0.293 HD
ENDBRANCH  17  20
ENDBRANCH   1  12
BRANCH   2  22
ATOM     22  O   UNL     1     -35.612  -7.206  22.745  1.00  0.00    -0.502 OA
ATOM     23  H   UNL     1     -35.590  -6.630  23.578  1.00  0.00     0.293 HD
ENDBRANCH   2  22
BRANCH   9  24
ATOM     24  O   UNL     1     -38.983  -3.998  16.526  1.00  0.00    -0.508 OA
ATOM     25  H   UNL     1     -38.513  -3.951  15.629  1.00  0.00     0.293 HD
ENDBRANCH   9  24
TORSDOF 5
ENDMDL
MODEL 2
REMARK VINA RESULT:    -7.095      3.263      4.282
REMARK INTER + INTRA:          -8.489
REMARK INTER:                  -8.172
REMARK INTRA:                  -0.317
REMARK UNBOUND:                -0.150
REMARK SMILES O=c1c(O)c(-c2ccc(O)c(O)c2)oc2cc(O)ccc12
REMARK SMILES IDX 5 1 3 2 2 3 1 4 21 5 15 6 14 7 16 8 17 9 19 10 20 11 6 12
REMARK SMILES IDX 7 13 8 14 9 15 13 16 11 17 10 18 12 20 4 22 18 24
REMARK H PARENT 10 19 12 21 4 23 18 25
REMARK Flexibility Score: inf
ROOT
ATOM      1  C   UNL     1     -36.434  -8.726  22.255  1.00  0.00     0.180 A 
ATOM      2  C   UNL     1     -37.229  -8.605  23.412  1.00  0.00     0.208 A 
ATOM      3  C   UNL     1     -38.599  -8.336  23.266  1.00  0.00     0.235 A 
ATOM      4  O   UNL     1     -39.330  -8.212  24.287  1.00  0.00    -0.285 OA
ATOM      5  C   UNL     1     -39.145  -8.213  21.979  1.00  0.00     0.069 A 
ATOM      6  C   UNL     1     -38.286  -8.371  20.870  1.00  0.00     0.142 A 
ATOM      7  O   UNL     1     -36.993  -8.617  21.052  1.00  0.00    -0.452 OA
ATOM      8  C   UNL     1     -38.794  -8.266  19.571  1.00  0.00     0.094 A 
ATOM      9  C   UNL     1     -40.152  -8.003  19.362  1.00  0.00     0.119 A 
ATOM     10  C   UNL     1     -41.007  -7.844  20.461  1.00  0.00     0.047 A 
ATOM     11  C   UNL     1     -40.510  -7.948  21.764  1.00  0.00     0.020 A 
ENDROOT
BRANCH   1  12
ATOM     12  C   UNL     1     -34.978  -8.991  22.326  1.00  0.00     0.025 A 
ATOM     13  C   UNL     1     -34.083  -7.913  22.406  1.00  0.00     0.016 A 
ATOM     14  C   UNL     1     -32.708  -8.139  22.494  1.00  0.00     0.051 A 
ATOM     15  C   UNL     1     -32.206  -9.444  22.520  1.00  0.00     0.157 A 
ATOM     16  C   UNL     1     -34.473 -10.303  22.374  1.00  0.00     0.062 A 
ATOM     17  C   UNL     1     -33.092 -10.533  22.465  1.00  0.00     0.158 A 
BRANCH  15  18
ATOM     18  O   UNL     1     -30.828  -9.639  22.607  1.00  0.00    -0.504 OA
ATOM     19  H   UNL     1     -30.427 -10.436  23.085  1.00  0.00     0.293 HD
ENDBRANCH  15  18
BRANCH  17  20
ATOM     20  O   UNL     1     -32.601 -11.836  22.505  1.00  0.00    -0.504 OA
ATOM     21  H   UNL     1     -32.466 -12.327  23.381  1.00  0.00     0.293 HD
ENDBRANCH  17  20
ENDBRANCH   1  12
BRANCH   2  22
ATOM     22  O   UNL     1     -36.667  -8.781  24.679  1.00  0.00    -0.502 OA
ATOM     23  H   UNL     1     -36.987  -9.497  25.319  1.00  0.00     0.293 HD
ENDBRANCH   2  22
BRANCH   9  24
ATOM     24  O   UNL     1     -40.641  -7.901  18.062  1.00  0.00    -0.508 OA
ATOM     25  H   UNL     1     -41.349  -7.221  17.815  1.00  0.00     0.293 HD
ENDBRANCH   9  24
TORSDOF 5
ENDMDL
MODEL 3
REMARK VINA RESULT:    -6.993      2.953      5.983
REMARK INTER + INTRA:          -8.369
REMARK INTER:                  -8.337
REMARK INTRA:                  -0.031
REMARK UNBOUND:                -0.150
REMARK SMILES O=c1c(O)c(-c2ccc(O)c(O)c2)oc2cc(O)ccc12
REMARK SMILES IDX 5 1 3 2 2 3 1 4 21 5 15 6 14 7 16 8 17 9 19 10 20 11 6 12
REMARK SMILES IDX 7 13 8 14 9 15 13 16 11 17 10 18 12 20 4 22 18 24
REMARK H PARENT 10 19 12 21 4 23 18 25
REMARK Flexibility Score: inf
ROOT
ATOM      1  C   UNL     1     -36.280  -8.080  21.081  1.00  0.00     0.180 A 
ATOM      2  C   UNL     1     -35.487  -7.084  20.474  1.00  0.00     0.208 A 
ATOM      3  C   UNL     1     -34.091  -7.169  20.589  1.00  0.00     0.235 A 
ATOM      4  O   UNL     1     -33.360  -6.285  20.064  1.00  0.00    -0.285 OA
ATOM      5  C   UNL     1     -33.519  -8.246  21.284  1.00  0.00     0.069 A 
ATOM      6  C   UNL     1     -34.381  -9.214  21.842  1.00  0.00     0.142 A 
ATOM      7  O   UNL     1     -35.698  -9.093  21.719  1.00  0.00    -0.452 OA
ATOM      8  C   UNL     1     -33.850 -10.309  22.534  1.00  0.00     0.094 A 
ATOM      9  C   UNL     1     -32.466 -10.449  22.677  1.00  0.00     0.119 A 
ATOM     10  C   UNL     1     -31.607  -9.489  22.125  1.00  0.00     0.047 A 
ATOM     11  C   UNL     1     -32.128  -8.392  21.431  1.00  0.00     0.020 A 
ENDROOT
BRANCH   1  12
ATOM     12  C   UNL     1     -37.760  -8.051  21.020  1.00  0.00     0.025 A 
ATOM     13  C   UNL     1     -38.499  -8.059  22.214  1.00  0.00     0.016 A 
ATOM     14  C   UNL     1     -39.895  -8.012  22.182  1.00  0.00     0.051 A 
ATOM     15  C   UNL     1     -40.572  -7.939  20.960  1.00  0.00     0.157 A 
ATOM     16  C   UNL     1     -38.442  -7.956  19.794  1.00  0.00     0.062 A 
ATOM     17  C   UNL     1     -39.843  -7.906  19.760  1.00  0.00     0.158 A 
BRANCH  15  18
ATOM     18  O   UNL     1     -41.966  -7.895  20.960  1.00  0.00    -0.504 OA
ATOM     19  H   UNL     1     -42.504  -7.886  21.817  1.00  0.00     0.293 HD
ENDBRANCH  15  18
BRANCH  17  20
ATOM     20  O   UNL     1     -40.511  -7.819  18.540  1.00  0.00    -0.504 OA
ATOM     21  H   UNL     1     -41.515  -7.692  18.491  1.00  0.00     0.293 HD
ENDBRANCH  17  20
ENDBRANCH   1  12
BRANCH   2  22
ATOM     22  O   UNL     1     -36.082  -6.050  19.748  1.00  0.00    -0.502 OA
ATOM     23  H   UNL     1     -35.652  -5.139  19.651  1.00  0.00     0.293 HD
ENDBRANCH   2  22
BRANCH   9  24
ATOM     24  O   UNL     1     -31.953 -11.544  23.369  1.00  0.00    -0.508 OA
ATOM     25  H   UNL     1     -31.977 -11.590  24.380  1.00  0.00     0.293 HD
ENDBRANCH   9  24
TORSDOF 5
ENDMDL
MODEL 4
REMARK VINA RESULT:    -6.944      3.123      6.363
REMARK INTER + INTRA:          -8.312
REMARK INTER:                  -8.035
REMARK INTRA:                  -0.277
REMARK UNBOUND:                -0.150
REMARK SMILES O=c1c(O)c(-c2ccc(O)c(O)c2)oc2cc(O)ccc12
REMARK SMILES IDX 5 1 3 2 2 3 1 4 21 5 15 6 14 7 16 8 17 9 19 10 20 11 6 12
REMARK SMILES IDX 7 13 8 14 9 15 13 16 11 17 10 18 12 20 4 22 18 24
REMARK H PARENT 10 19 12 21 4 23 18 25
REMARK Flexibility Score: inf
ROOT
ATOM      1  C   UNL     1     -36.792  -9.370  21.852  1.00  0.00     0.180 A 
ATOM      2  C   UNL     1     -36.389 -10.670  21.483  1.00  0.00     0.208 A 
ATOM      3  C   UNL     1     -35.054 -11.049  21.692  1.00  0.00     0.235 A 
ATOM      4  O   UNL     1     -34.666 -12.203  21.361  1.00  0.00    -0.285 OA
ATOM      5  C   UNL     1     -34.161 -10.138  22.279  1.00  0.00     0.069 A 
ATOM      6  C   UNL     1     -34.649  -8.864  22.641  1.00  0.00     0.142 A 
ATOM      7  O   UNL     1     -35.918  -8.541  22.418  1.00  0.00    -0.452 OA
ATOM      8  C   UNL     1     -33.793  -7.931  23.238  1.00  0.00     0.094 A 
ATOM      9  C   UNL     1     -32.453  -8.253  23.476  1.00  0.00     0.119 A 
ATOM     10  C   UNL     1     -31.965  -9.517  23.115  1.00  0.00     0.047 A 
ATOM     11  C   UNL     1     -32.813 -10.457  22.519  1.00  0.00     0.020 A 
ENDROOT
BRANCH   1  12
ATOM     12  C   UNL     1     -38.178  -8.889  21.647  1.00  0.00     0.025 A 
ATOM     13  C   UNL     1     -39.028  -8.742  22.754  1.00  0.00     0.016 A 
ATOM     14  C   UNL     1     -40.332  -8.271  22.586  1.00  0.00     0.051 A 
ATOM     15  C   UNL     1     -40.801  -7.924  21.315  1.00  0.00     0.157 A 
ATOM     16  C   UNL     1     -38.644  -8.519  20.372  1.00  0.00     0.062 A 
ATOM     17  C   UNL     1     -39.952  -8.043  20.202  1.00  0.00     0.158 A 
BRANCH  15  18
ATOM     18  O   UNL     1     -42.109  -7.457  21.178  1.00  0.00    -0.504 OA
ATOM     19  H   UNL     1     -42.911  -8.057  21.325  1.00  0.00     0.293 HD
ENDBRANCH  15  18
BRANCH  17  20
ATOM     20  O   UNL     1     -40.408  -7.686  18.935  1.00  0.00    -0.504 OA
ATOM     21  H   UNL     1     -40.780  -8.373  18.290  1.00  0.00     0.293 HD
ENDBRANCH  17  20
ENDBRANCH   1  12
BRANCH   2  22
ATOM     22  O   UNL     1     -37.311 -11.571  20.947  1.00  0.00    -0.502 OA
ATOM     23  H   UNL     1     -38.103 -11.916  21.476  1.00  0.00     0.293 HD
ENDBRANCH   2  22
BRANCH   9  24
ATOM     24  O   UNL     1     -31.614  -7.313  24.069  1.00  0.00    -0.508 OA
ATOM     25  H   UNL     1     -31.956  -6.403  24.353  1.00  0.00     0.293 HD
ENDBRANCH   9  24
TORSDOF 5
ENDMDL
MODEL 5
REMARK VINA RESULT:    -6.857      3.764      5.628
REMARK INTER + INTRA:          -8.210
REMARK INTER:                  -7.906
REMARK INTRA:                  -0.304
REMARK UNBOUND:                -0.150
REMARK SMILES O=c1c(O)c(-c2ccc(O)c(O)c2)oc2cc(O)ccc12
REMARK SMILES IDX 5 1 3 2 2 3 1 4 21 5 15 6 14 7 16 8 17 9 19 10 20 11 6 12
REMARK SMILES IDX 7 13 8 14 9 15 13 16 11 17 10 18 12 20 4 22 18 24
REMARK H PARENT 10 19 12 21 4 23 18 25
REMARK Flexibility Score: inf
ROOT
ATOM      1  C   UNL     1     -35.370  -8.998  22.289  1.00  0.00     0.180 A 
ATOM      2  C   UNL     1     -35.879  -9.298  21.009  1.00  0.00     0.208 A 
ATOM      3  C   UNL     1     -37.266  -9.241  20.802  1.00  0.00     0.235 A 
ATOM      4  O   UNL     1     -37.747  -9.515  19.668  1.00  0.00    -0.285 OA
ATOM      5  C   UNL     1     -38.108  -8.871  21.863  1.00  0.00     0.069 A 
ATOM      6  C   UNL     1     -37.518  -8.563  23.108  1.00  0.00     0.142 A 
ATOM      7  O   UNL     1     -36.201  -8.638  23.265  1.00  0.00    -0.452 OA
ATOM      8  C   UNL     1     -38.322  -8.180  24.187  1.00  0.00     0.094 A 
ATOM      9  C   UNL     1     -39.711  -8.101  24.040  1.00  0.00     0.119 A 
ATOM     10  C   UNL     1     -40.299  -8.407  22.806  1.00  0.00     0.047 A 
ATOM     11  C   UNL     1     -39.504  -8.790  21.720  1.00  0.00     0.020 A 
ENDROOT
BRANCH   1  12
ATOM     12  C   UNL     1     -33.921  -9.054  22.592  1.00  0.00     0.025 A 
ATOM     13  C   UNL     1     -33.187  -7.861  22.673  1.00  0.00     0.016 A 
ATOM     14  C   UNL     1     -31.824  -7.888  22.977  1.00  0.00     0.051 A 
ATOM     15  C   UNL     1     -31.178  -9.104  23.221  1.00  0.00     0.157 A 
ATOM     16  C   UNL     1     -33.274 -10.274  22.859  1.00  0.00     0.062 A 
ATOM     17  C   UNL     1     -31.906 -10.303  23.167  1.00  0.00     0.158 A 
BRANCH  15  18
ATOM     18  O   UNL     1     -29.815  -9.099  23.520  1.00  0.00    -0.504 OA
ATOM     19  H   UNL     1     -29.383  -8.351  24.047  1.00  0.00     0.293 HD
ENDBRANCH  15  18
BRANCH  17  20
ATOM     20  O   UNL     1     -31.272 -11.517  23.423  1.00  0.00    -0.504 OA
ATOM     21  H   UNL     1     -31.542 -12.104  24.204  1.00  0.00     0.293 HD
ENDBRANCH  17  20
ENDBRANCH   1  12
BRANCH   2  22
ATOM     22  O   UNL     1     -35.013  -9.616  19.960  1.00  0.00    -0.502 OA
ATOM     23  H   UNL     1     -34.685  -8.922  19.299  1.00  0.00     0.293 HD
ENDBRANCH   2  22
BRANCH   9  24
ATOM     24  O   UNL     1     -40.496  -7.718  25.125  1.00  0.00    -0.508 OA
ATOM     25  H   UNL     1     -41.245  -8.307  25.470  1.00  0.00     0.293 HD
ENDBRANCH   9  24
TORSDOF 5
ENDMDL
MODEL 6
REMARK VINA RESULT:    -6.785      2.510      4.021
REMARK INTER + INTRA:          -8.125
REMARK INTER:                  -8.145
REMARK INTRA:                   0.020
REMARK UNBOUND:                -0.150
REMARK SMILES O=c1c(O)c(-c2ccc(O)c(O)c2)oc2cc(O)ccc12
REMARK SMILES IDX 5 1 3 2 2 3 1 4 21 5 15 6 14 7 16 8 17 9 19 10 20 11 6 12
REMARK SMILES IDX 7 13 8 14 9 15 13 16 11 17 10 18 12 20 4 22 18 24
REMARK H PARENT 10 19 12 21 4 23 18 25
REMARK Flexibility Score: inf
ROOT
ATOM      1  C   UNL     1     -36.127  -8.895  21.406  1.00  0.00     0.180 A 
ATOM      2  C   UNL     1     -37.207  -9.784  21.582  1.00  0.00     0.208 A 
ATOM      3  C   UNL     1     -38.409  -9.533  20.901  1.00  0.00     0.235 A 
ATOM      4  O   UNL     1     -39.392 -10.309  21.050  1.00  0.00    -0.285 OA
ATOM      5  C   UNL     1     -38.501  -8.420  20.051  1.00  0.00     0.069 A 
ATOM      6  C   UNL     1     -37.367  -7.591  19.910  1.00  0.00     0.142 A 
ATOM      7  O   UNL     1     -36.251  -7.859  20.579  1.00  0.00    -0.452 OA
ATOM      8  C   UNL     1     -37.415  -6.477  19.065  1.00  0.00     0.094 A 
ATOM      9  C   UNL     1     -38.584  -6.179  18.356  1.00  0.00     0.119 A 
ATOM     10  C   UNL     1     -39.711  -6.999  18.495  1.00  0.00     0.047 A 
ATOM     11  C   UNL     1     -39.673  -8.116  19.337  1.00  0.00     0.020 A 
ENDROOT
BRANCH   1  12
ATOM     12  C   UNL     1     -34.834  -9.081  22.103  1.00  0.00     0.025 A 
ATOM     13  C   UNL     1     -34.291  -8.020  22.844  1.00  0.00     0.016 A 
ATOM     14  C   UNL     1     -33.083  -8.178  23.526  1.00  0.00     0.051 A 
ATOM     15  C   UNL     1     -32.407  -9.403  23.493  1.00  0.00     0.157 A 
ATOM     16  C   UNL     1     -34.164 -10.318  22.089  1.00  0.00     0.062 A 
ATOM     17  C   UNL     1     -32.952 -10.480  22.775  1.00  0.00     0.158 A 
BRANCH  15  18
ATOM     18  O   UNL     1     -31.202  -9.531  24.183  1.00  0.00    -0.504 OA
ATOM     19  H   UNL     1     -30.387  -9.962  23.766  1.00  0.00     0.293 HD
ENDBRANCH  15  18
BRANCH  17  20
ATOM     20  O   UNL     1     -32.292 -11.707  22.750  1.00  0.00    -0.504 OA
ATOM     21  H   UNL     1     -32.507 -12.441  23.415  1.00  0.00     0.293 HD
ENDBRANCH  17  20
ENDBRANCH   1  12
BRANCH   2  22
ATOM     22  O   UNL     1     -37.070 -10.911  22.396  1.00  0.00    -0.502 OA
ATOM     23  H   UNL     1     -37.860 -11.344  22.860  1.00  0.00     0.293 HD
ENDBRANCH   2  22
BRANCH   9  24
ATOM     24  O   UNL     1     -38.615  -5.066  17.519  1.00  0.00    -0.508 OA
ATOM     25  H   UNL     1     -39.266  -4.305  17.674  1.00  0.00     0.293 HD
ENDBRANCH   9  24
TORSDOF 5
ENDMDL
MODEL 7
REMARK VINA RESULT:    -6.645      3.967      6.081
REMARK INTER + INTRA:          -7.960
REMARK INTER:                  -7.829
REMARK INTRA:                  -0.130
REMARK UNBOUND:                -0.150
REMARK SMILES O=c1c(O)c(-c2ccc(O)c(O)c2)oc2cc(O)ccc12
REMARK SMILES IDX 5 1 3 2 2 3 1 4 21 5 15 6 14 7 16 8 17 9 19 10 20 11 6 12
REMARK SMILES IDX 7 13 8 14 9 15 13 16 11 17 10 18 12 20 4 22 18 24
REMARK H PARENT 10 19 12 21 4 23 18 25
REMARK Flexibility Score: inf
ROOT
ATOM      1  C   UNL     1     -33.239  -9.352  22.206  1.00  0.00     0.180 A 
ATOM      2  C   UNL     1     -33.449  -8.090  21.613  1.00  0.00     0.208 A 
ATOM      3  C   UNL     1     -34.691  -7.820  21.018  1.00  0.00     0.235 A 
ATOM      4  O   UNL     1     -34.899  -6.702  20.472  1.00  0.00    -0.285 OA
ATOM      5  C   UNL     1     -35.697  -8.799  21.045  1.00  0.00     0.069 A 
ATOM      6  C   UNL     1     -35.416 -10.028  21.680  1.00  0.00     0.142 A 
ATOM      7  O   UNL     1     -34.224 -10.248  22.223  1.00  0.00    -0.452 OA
ATOM      8  C   UNL     1     -36.396 -11.026  21.736  1.00  0.00     0.094 A 
ATOM      9  C   UNL     1     -37.655 -10.813  21.165  1.00  0.00     0.119 A 
ATOM     10  C   UNL     1     -37.936  -9.594  20.533  1.00  0.00     0.047 A 
ATOM     11  C   UNL     1     -36.964  -8.590  20.472  1.00  0.00     0.020 A 
ENDROOT
BRANCH   1  12
ATOM     12  C   UNL     1     -31.951  -9.720  22.837  1.00  0.00     0.025 A 
ATOM     13  C   UNL     1     -31.931 -10.125  24.181  1.00  0.00     0.016 A 
ATOM     14  C   UNL     1     -30.730 -10.496  24.791  1.00  0.00     0.051 A 
ATOM     15  C   UNL     1     -29.535 -10.484  24.065  1.00  0.00     0.157 A 
ATOM     16  C   UNL     1     -30.751  -9.730  22.103  1.00  0.00     0.062 A 
ATOM     17  C   UNL     1     -29.545 -10.104  22.712  1.00  0.00     0.158 A 
BRANCH  15  18
ATOM     18  O   UNL     1     -28.352 -10.858  24.701  1.00  0.00    -0.504 OA
ATOM     19  H   UNL     1     -28.325 -11.588  25.401  1.00  0.00     0.293 HD
ENDBRANCH  15  18
BRANCH  17  20
ATOM     20  O   UNL     1     -28.360 -10.104  21.979  1.00  0.00    -0.504 OA
ATOM     21  H   UNL     1     -28.361 -10.163  20.967  1.00  0.00     0.293 HD
ENDBRANCH  17  20
ENDBRANCH   1  12
BRANCH   2  22
ATOM     22  O   UNL     1     -32.446  -7.118  21.644  1.00  0.00    -0.502 OA
ATOM     23  H   UNL     1     -32.486  -6.280  21.077  1.00  0.00     0.293 HD
ENDBRANCH   2  22
BRANCH   9  24
ATOM     24  O   UNL     1     -38.618 -11.817  21.230  1.00  0.00    -0.508 OA
ATOM     25  H   UNL     1     -39.454 -11.786  20.659  1.00  0.00     0.293 HD
ENDBRANCH   9  24
TORSDOF 5
ENDMDL
MODEL 8
REMARK VINA RESULT:    -6.567      3.978      6.909
REMARK INTER + INTRA:          -7.868
REMARK INTER:                  -8.359
REMARK INTRA:                   0.491
REMARK UNBOUND:                -0.150
REMARK SMILES O=c1c(O)c(-c2ccc(O)c(O)c2)oc2cc(O)ccc12
REMARK SMILES IDX 5 1 3 2 2 3 1 4 21 5 15 6 14 7 16 8 17 9 19 10 20 11 6 12
REMARK SMILES IDX 7 13 8 14 9 15 13 16 11 17 10 18 12 20 4 22 18 24
REMARK H PARENT 10 19 12 21 4 23 18 25
REMARK Flexibility Score: inf
ROOT
ATOM      1  C   UNL     1     -33.734  -9.479  22.328  1.00  0.00     0.180 A 
ATOM      2  C   UNL     1     -33.361  -8.122  22.228  1.00  0.00     0.208 A 
ATOM      3  C   UNL     1     -32.051  -7.754  22.570  1.00  0.00     0.235 A 
ATOM      4  O   UNL     1     -31.697  -6.545  22.498  1.00  0.00    -0.285 OA
ATOM      5  C   UNL     1     -31.142  -8.740  22.985  1.00  0.00     0.069 A 
ATOM      6  C   UNL     1     -31.587 -10.079  23.037  1.00  0.00     0.142 A 
ATOM      7  O   UNL     1     -32.837 -10.385  22.712  1.00  0.00    -0.452 OA
ATOM      8  C   UNL     1     -30.708 -11.092  23.435  1.00  0.00     0.094 A 
ATOM      9  C   UNL     1     -29.388 -10.786  23.784  1.00  0.00     0.119 A 
ATOM     10  C   UNL     1     -28.945  -9.458  23.735  1.00  0.00     0.047 A 
ATOM     11  C   UNL     1     -29.815  -8.437  23.337  1.00  0.00     0.020 A 
ENDROOT
BRANCH   1  12
ATOM     12  C   UNL     1     -35.102  -9.944  22.003  1.00  0.00     0.025 A 
ATOM     13  C   UNL     1     -36.131  -9.003  21.842  1.00  0.00     0.016 A 
ATOM     14  C   UNL     1     -37.424  -9.417  21.515  1.00  0.00     0.051 A 
ATOM     15  C   UNL     1     -37.706 -10.775  21.328  1.00  0.00     0.157 A 
ATOM     16  C   UNL     1     -35.382 -11.306  21.793  1.00  0.00     0.062 A 
ATOM     17  C   UNL     1     -36.679 -11.724  21.462  1.00  0.00     0.158 A 
BRANCH  15  18
ATOM     18  O   UNL     1     -39.007 -11.159  21.004  1.00  0.00    -0.504 OA
ATOM     19  H   UNL     1     -39.206 -11.784  20.234  1.00  0.00     0.293 HD
ENDBRANCH  15  18
BRANCH  17  20
ATOM     20  O   UNL     1     -36.949 -13.077  21.263  1.00  0.00    -0.504 OA
ATOM     21  H   UNL     1     -36.928 -13.493  20.339  1.00  0.00     0.293 HD
ENDBRANCH  17  20
ENDBRANCH   1  12
BRANCH   2  22
ATOM     22  O   UNL     1     -34.273  -7.170  21.765  1.00  0.00    -0.502 OA
ATOM     23  H   UNL     1     -35.151  -7.427  21.330  1.00  0.00     0.293 HD
ENDBRANCH   2  22
BRANCH   9  24
ATOM     24  O   UNL     1     -28.527 -11.807  24.179  1.00  0.00    -0.508 OA
ATOM     25  H   UNL     1     -28.175 -11.866  25.127  1.00  0.00     0.293 HD
ENDBRANCH   9  24
TORSDOF 5
ENDMDL
MODEL 9
REMARK VINA RESULT:    -6.382      3.854      6.429
REMARK INTER + INTRA:          -7.651
REMARK INTER:                  -8.098
REMARK INTRA:                   0.447
REMARK UNBOUND:                -0.150
REMARK SMILES O=c1c(O)c(-c2ccc(O)c(O)c2)oc2cc(O)ccc12
REMARK SMILES IDX 5 1 3 2 2 3 1 4 21 5 15 6 14 7 16 8 17 9 19 10 20 11 6 12
REMARK SMILES IDX 7 13 8 14 9 15 13 16 11 17 10 18 12 20 4 22 18 24
REMARK H PARENT 10 19 12 21 4 23 18 25
REMARK Flexibility Score: inf
ROOT
ATOM      1  C   UNL     1     -33.696  -9.583  22.402  1.00  0.00     0.180 A 
ATOM      2  C   UNL     1     -32.728 -10.600  22.531  1.00  0.00     0.208 A 
ATOM      3  C   UNL     1     -31.427 -10.251  22.925  1.00  0.00     0.235 A 
ATOM      4  O   UNL     1     -30.541 -11.142  23.037  1.00  0.00    -0.285 OA
ATOM      5  C   UNL     1     -31.126  -8.907  23.198  1.00  0.00     0.069 A 
ATOM      6  C   UNL     1     -32.156  -7.952  23.068  1.00  0.00     0.142 A 
ATOM      7  O   UNL     1     -33.373  -8.322  22.684  1.00  0.00    -0.452 OA
ATOM      8  C   UNL     1     -31.898  -6.603  23.340  1.00  0.00     0.094 A 
ATOM      9  C   UNL     1     -30.622  -6.195  23.741  1.00  0.00     0.119 A 
ATOM     10  C   UNL     1     -29.596  -7.142  23.869  1.00  0.00     0.047 A 
ATOM     11  C   UNL     1     -29.844  -8.492  23.600  1.00  0.00     0.020 A 
ENDROOT
BRANCH   1  12
ATOM     12  C   UNL     1     -35.084  -9.868  21.974  1.00  0.00     0.025 A 
ATOM     13  C   UNL     1     -35.916  -8.809  21.579  1.00  0.00     0.016 A 
ATOM     14  C   UNL     1     -37.223  -9.056  21.152  1.00  0.00     0.051 A 
ATOM     15  C   UNL     1     -37.713 -10.365  21.097  1.00  0.00     0.157 A 
ATOM     16  C   UNL     1     -35.572 -11.185  21.898  1.00  0.00     0.062 A 
ATOM     17  C   UNL     1     -36.883 -11.436  21.467  1.00  0.00     0.158 A 
BRANCH  15  18
ATOM     18  O   UNL     1     -39.023 -10.581  20.669  1.00  0.00    -0.504 OA
ATOM     19  H   UNL     1     -39.310 -10.412  19.713  1.00  0.00     0.293 HD
ENDBRANCH  15  18
BRANCH  17  20
ATOM     20  O   UNL     1     -37.361 -12.743  21.402  1.00  0.00    -0.504 OA
ATOM     21  H   UNL     1     -37.716 -13.137  20.539  1.00  0.00     0.293 HD
ENDBRANCH  17  20
ENDBRANCH   1  12
BRANCH   2  22
ATOM     22  O   UNL     1     -33.070 -11.935  22.300  1.00  0.00    -0.502 OA
ATOM     23  H   UNL     1     -33.121 -12.328  21.368  1.00  0.00     0.293 HD
ENDBRANCH   2  22
BRANCH   9  24
ATOM     24  O   UNL     1     -30.382  -4.850  24.008  1.00  0.00    -0.508 OA
ATOM     25  H   UNL     1     -31.045  -4.131  23.744  1.00  0.00     0.293 HD
ENDBRANCH   9  24
TORSDOF 5
ENDMDL
