MODEL 1
REMARK VINA RESULT:    -5.100      0.000      0.000
REMARK INTER + INTRA:          -5.399
REMARK INTER:                  -5.399
REMARK INTRA:                   0.000
REMARK UNBOUND:                 0.000
REMARK SMILES Cc1cc(O)c(C)c(C)c1O
REMARK SMILES IDX 1 1 2 2 3 3 4 4 6 5 8 6 10 7 9 8 7 9 11 10 5 12
REMARK H PARENT 11 11 5 13
REMARK Flexibility Score: inf
ROOT
ATOM      1  C   UNL     1      32.300  33.514 -21.254  1.00  0.00     0.048 C 
ATOM      2  C   UNL     1      31.994  32.788 -19.971  1.00  0.00    -0.005 A 
ATOM      3  C   UNL     1      33.049  32.290 -19.200  1.00  0.00     0.053 A 
ATOM      4  C   UNL     1      32.811  31.603 -18.011  1.00  0.00     0.119 A 
ATOM      5  C   UNL     1      31.485  31.378 -17.572  1.00  0.00    -0.003 A 
ATOM      6  C   UNL     1      30.406  31.936 -18.313  1.00  0.00    -0.002 A 
ATOM      7  C   UNL     1      30.665  32.617 -19.525  1.00  0.00     0.121 A 
ATOM      8  C   UNL     1      28.979  31.787 -17.835  1.00  0.00     0.049 C 
ATOM      9  C   UNL     1      31.250  30.577 -16.311  1.00  0.00     0.049 C 
ENDROOT
BRANCH   7  10
ATOM     10  O   UNL     1      29.591  33.114 -20.272  1.00  0.00    -0.507 OA
ATOM     11  H   UNL     1      29.701  33.628 -21.136  1.00  0.00     0.293 HD
ENDBRANCH   7  10
BRANCH   4  12
ATOM     12  O   UNL     1      33.922  31.163 -17.286  1.00  0.00    -0.508 OA
ATOM     13  H   UNL     1      34.878  31.328 -17.570  1.00  0.00     0.293 HD
ENDBRANCH   4  12
TORSDOF 2
ENDMDL
MODEL 2
REMARK VINA RESULT:    -4.972      2.290      4.098
REMARK INTER + INTRA:          -5.262
REMARK INTER:                  -5.262
REMARK INTRA:                   0.000
REMARK UNBOUND:                 0.000
REMARK SMILES Cc1cc(O)c(C)c(C)c1O
REMARK SMILES IDX 1 1 2 2 3 3 4 4 6 5 8 6 10 7 9 8 7 9 11 10 5 12
REMARK H PARENT 11 11 5 13
REMARK Flexibility Score: inf
ROOT
ATOM      1  C   UNL     1      33.760  32.260 -15.003  1.00  0.00     0.048 C 
ATOM      2  C   UNL     1      32.479  32.134 -15.782  1.00  0.00    -0.005 A 
ATOM      3  C   UNL     1      31.294  32.635 -15.232  1.00  0.00     0.053 A 
ATOM      4  C   UNL     1      30.083  32.531 -15.914  1.00  0.00     0.119 A 
ATOM      5  C   UNL     1      30.028  31.892 -17.175  1.00  0.00    -0.003 A 
ATOM      6  C   UNL     1      31.236  31.437 -17.773  1.00  0.00    -0.002 A 
ATOM      7  C   UNL     1      32.453  31.537 -17.061  1.00  0.00     0.121 A 
ATOM      8  C   UNL     1      31.232  30.821 -19.155  1.00  0.00     0.049 C 
ATOM      9  C   UNL     1      28.693  31.737 -17.868  1.00  0.00     0.049 C 
ENDROOT
BRANCH   7  10
ATOM     10  O   UNL     1      33.626  31.036 -17.638  1.00  0.00    -0.507 OA
ATOM     11  H   UNL     1      34.508  31.530 -17.630  1.00  0.00     0.293 HD
ENDBRANCH   7  10
BRANCH   4  12
ATOM     12  O   UNL     1      28.950  33.083 -15.308  1.00  0.00    -0.508 OA
ATOM     13  H   UNL     1      28.129  32.547 -15.061  1.00  0.00     0.293 HD
ENDBRANCH   4  12
TORSDOF 2
ENDMDL
MODEL 3
REMARK VINA RESULT:    -4.923     12.828     14.041
REMARK INTER + INTRA:          -5.210
REMARK INTER:                  -5.210
REMARK INTRA:                   0.000
REMARK UNBOUND:                 0.000
REMARK SMILES Cc1cc(O)c(C)c(C)c1O
REMARK SMILES IDX 1 1 2 2 3 3 4 4 6 5 8 6 10 7 9 8 7 9 11 10 5 12
REMARK H PARENT 11 11 5 13
REMARK Flexibility Score: inf
ROOT
ATOM      1  C   UNL     1      20.654  23.352 -23.229  1.00  0.00     0.048 C 
ATOM      2  C   UNL     1      21.931  23.280 -24.022  1.00  0.00    -0.005 A 
ATOM      3  C   UNL     1      23.154  23.249 -23.345  1.00  0.00     0.053 A 
ATOM      4  C   UNL     1      24.361  23.193 -24.039  1.00  0.00     0.119 A 
ATOM      5  C   UNL     1      24.369  23.190 -25.454  1.00  0.00    -0.003 A 
ATOM      6  C   UNL     1      23.130  23.156 -26.153  1.00  0.00    -0.002 A 
ATOM      7  C   UNL     1      21.916  23.228 -25.432  1.00  0.00     0.121 A 
ATOM      8  C   UNL     1      23.095  23.071 -27.662  1.00  0.00     0.049 C 
ATOM      9  C   UNL     1      25.693  23.191 -26.186  1.00  0.00     0.049 C 
ENDROOT
BRANCH   7  10
ATOM     10  O   UNL     1      20.705  23.249 -26.135  1.00  0.00    -0.507 OA
ATOM     11  H   UNL     1      19.882  22.738 -25.846  1.00  0.00     0.293 HD
ENDBRANCH   7  10
BRANCH   4  12
ATOM     12  O   UNL     1      25.538  23.134 -23.287  1.00  0.00    -0.508 OA
ATOM     13  H   UNL     1      25.597  22.708 -22.371  1.00  0.00     0.293 HD
ENDBRANCH   4  12
TORSDOF 2
ENDMDL
MODEL 4
REMARK VINA RESULT:    -4.844     12.744     14.228
REMARK INTER + INTRA:          -5.127
REMARK INTER:                  -5.127
REMARK INTRA:                   0.000
REMARK UNBOUND:                 0.000
REMARK SMILES Cc1cc(O)c(C)c(C)c1O
REMARK SMILES IDX 1 1 2 2 3 3 4 4 6 5 8 6 10 7 9 8 7 9 11 10 5 12
REMARK H PARENT 11 11 5 13
REMARK Flexibility Score: inf
ROOT
ATOM      1  C   UNL     1      20.190  24.604 -23.598  1.00  0.00     0.048 C 
ATOM      2  C   UNL     1      21.405  24.050 -24.292  1.00  0.00    -0.005 A 
ATOM      3  C   UNL     1      21.363  23.832 -25.673  1.00  0.00     0.053 A 
ATOM      4  C   UNL     1      22.461  23.310 -26.355  1.00  0.00     0.119 A 
ATOM      5  C   UNL     1      23.639  22.969 -25.651  1.00  0.00    -0.003 A 
ATOM      6  C   UNL     1      23.718  23.246 -24.258  1.00  0.00    -0.002 A 
ATOM      7  C   UNL     1      22.589  23.762 -23.580  1.00  0.00     0.121 A 
ATOM      8  C   UNL     1      24.988  22.972 -23.484  1.00  0.00     0.049 C 
ATOM      9  C   UNL     1      24.796  22.348 -26.402  1.00  0.00     0.049 C 
ENDROOT
BRANCH   7  10
ATOM     10  O   UNL     1      22.662  23.979 -22.198  1.00  0.00    -0.507 OA
ATOM     11  H   UNL     1      21.881  24.295 -21.640  1.00  0.00     0.293 HD
ENDBRANCH   7  10
BRANCH   4  12
ATOM     12  O   UNL     1      22.346  23.150 -27.739  1.00  0.00    -0.508 OA
ATOM     13  H   UNL     1      22.876  22.472 -28.271  1.00  0.00     0.293 HD
ENDBRANCH   4  12
TORSDOF 2
ENDMDL
MODEL 5
REMARK VINA RESULT:    -4.835      6.754      8.162
REMARK INTER + INTRA:          -5.117
REMARK INTER:                  -5.117
REMARK INTRA:                   0.000
REMARK UNBOUND:                 0.000
REMARK SMILES Cc1cc(O)c(C)c(C)c1O
REMARK SMILES IDX 1 1 2 2 3 3 4 4 6 5 8 6 10 7 9 8 7 9 11 10 5 12
REMARK H PARENT 11 11 5 13
REMARK Flexibility Score: inf
ROOT
ATOM      1  C   UNL     1      33.183  38.096 -25.224  1.00  0.00     0.048 C 
ATOM      2  C   UNL     1      31.986  38.170 -24.316  1.00  0.00    -0.005 A 
ATOM      3  C   UNL     1      32.053  37.588 -23.046  1.00  0.00     0.053 A 
ATOM      4  C   UNL     1      30.965  37.624 -22.177  1.00  0.00     0.119 A 
ATOM      5  C   UNL     1      29.755  38.238 -22.578  1.00  0.00    -0.003 A 
ATOM      6  C   UNL     1      29.694  38.890 -23.841  1.00  0.00    -0.002 A 
ATOM      7  C   UNL     1      30.803  38.830 -24.715  1.00  0.00     0.121 A 
ATOM      8  C   UNL     1      28.446  39.627 -24.273  1.00  0.00     0.049 C 
ATOM      9  C   UNL     1      28.567  38.211 -21.641  1.00  0.00     0.049 C 
ENDROOT
BRANCH   7  10
ATOM     10  O   UNL     1      30.711  39.430 -25.977  1.00  0.00    -0.507 OA
ATOM     11  H   UNL     1      29.841  39.546 -26.479  1.00  0.00     0.293 HD
ENDBRANCH   7  10
BRANCH   4  12
ATOM     12  O   UNL     1      31.125  37.045 -20.916  1.00  0.00    -0.508 OA
ATOM     13  H   UNL     1      31.695  37.446 -20.183  1.00  0.00     0.293 HD
ENDBRANCH   4  12
TORSDOF 2
ENDMDL
MODEL 6
REMARK VINA RESULT:    -4.823     13.044     13.928
REMARK INTER + INTRA:          -5.105
REMARK INTER:                  -5.105
REMARK INTRA:                   0.000
REMARK UNBOUND:                 0.000
REMARK SMILES Cc1cc(O)c(C)c(C)c1O
REMARK SMILES IDX 1 1 2 2 3 3 4 4 6 5 8 6 10 7 9 8 7 9 11 10 5 12
REMARK H PARENT 11 11 5 13
REMARK Flexibility Score: inf
ROOT
ATOM      1  C   UNL     1      25.012  21.426 -27.875  1.00  0.00     0.048 C 
ATOM      2  C   UNL     1      24.431  22.204 -26.726  1.00  0.00    -0.005 A 
ATOM      3  C   UNL     1      25.102  22.216 -25.499  1.00  0.00     0.053 A 
ATOM      4  C   UNL     1      24.594  22.915 -24.406  1.00  0.00     0.119 A 
ATOM      5  C   UNL     1      23.368  23.612 -24.514  1.00  0.00    -0.003 A 
ATOM      6  C   UNL     1      22.709  23.662 -25.774  1.00  0.00    -0.002 A 
ATOM      7  C   UNL     1      23.231  22.935 -26.868  1.00  0.00     0.121 A 
ATOM      8  C   UNL     1      21.439  24.464 -25.952  1.00  0.00     0.049 C 
ATOM      9  C   UNL     1      22.806  24.313 -23.297  1.00  0.00     0.049 C 
ENDROOT
BRANCH   7  10
ATOM     10  O   UNL     1      22.543  22.948 -28.088  1.00  0.00    -0.507 OA
ATOM     11  H   UNL     1      21.723  23.513 -28.261  1.00  0.00     0.293 HD
ENDBRANCH   7  10
BRANCH   4  12
ATOM     12  O   UNL     1      25.342  22.900 -23.225  1.00  0.00    -0.508 OA
ATOM     13  H   UNL     1      25.479  23.712 -22.638  1.00  0.00     0.293 HD
ENDBRANCH   4  12
TORSDOF 2
ENDMDL
MODEL 7
REMARK VINA RESULT:    -4.811     12.775     14.004
REMARK INTER + INTRA:          -5.092
REMARK INTER:                  -5.092
REMARK INTRA:                   0.000
REMARK UNBOUND:                 0.000
REMARK SMILES Cc1cc(O)c(C)c(C)c1O
REMARK SMILES IDX 1 1 2 2 3 3 4 4 6 5 8 6 10 7 9 8 7 9 11 10 5 12
REMARK H PARENT 11 11 5 13
REMARK Flexibility Score: inf
ROOT
ATOM      1  C   UNL     1      25.107  22.489 -25.430  1.00  0.00     0.048 C 
ATOM      2  C   UNL     1      23.797  23.028 -24.922  1.00  0.00    -0.005 A 
ATOM      3  C   UNL     1      23.690  23.410 -23.581  1.00  0.00     0.053 A 
ATOM      4  C   UNL     1      22.494  23.905 -23.065  1.00  0.00     0.119 A 
ATOM      5  C   UNL     1      21.351  24.010 -23.893  1.00  0.00    -0.003 A 
ATOM      6  C   UNL     1      21.465  23.687 -25.274  1.00  0.00    -0.002 A 
ATOM      7  C   UNL     1      22.682  23.173 -25.776  1.00  0.00     0.121 A 
ATOM      8  C   UNL     1      20.290  23.863 -26.210  1.00  0.00     0.049 C 
ATOM      9  C   UNL     1      20.048  24.492 -23.296  1.00  0.00     0.049 C 
ENDROOT
BRANCH   7  10
ATOM     10  O   UNL     1      22.764  22.808 -27.126  1.00  0.00    -0.507 OA
ATOM     11  H   UNL     1      23.609  22.889 -27.676  1.00  0.00     0.293 HD
ENDBRANCH   7  10
BRANCH   4  12
ATOM     12  O   UNL     1      22.479  24.290 -21.722  1.00  0.00    -0.508 OA
ATOM     13  H   UNL     1      22.032  23.755 -20.989  1.00  0.00     0.293 HD
ENDBRANCH   4  12
TORSDOF 2
ENDMDL
MODEL 8
REMARK VINA RESULT:    -4.810     10.790     12.581
REMARK INTER + INTRA:          -5.091
REMARK INTER:                  -5.091
REMARK INTRA:                   0.000
REMARK UNBOUND:                 0.000
REMARK SMILES Cc1cc(O)c(C)c(C)c1O
REMARK SMILES IDX 1 1 2 2 3 3 4 4 6 5 8 6 10 7 9 8 7 9 11 10 5 12
REMARK H PARENT 11 11 5 13
REMARK Flexibility Score: inf
ROOT
ATOM      1  C   UNL     1      17.907  27.377 -15.074  1.00  0.00     0.048 C 
ATOM      2  C   UNL     1      19.307  27.777 -14.695  1.00  0.00    -0.005 A 
ATOM      3  C   UNL     1      19.515  28.498 -13.514  1.00  0.00     0.053 A 
ATOM      4  C   UNL     1      20.793  28.897 -13.129  1.00  0.00     0.119 A 
ATOM      5  C   UNL     1      21.909  28.597 -13.945  1.00  0.00    -0.003 A 
ATOM      6  C   UNL     1      21.719  27.810 -15.115  1.00  0.00    -0.002 A 
ATOM      7  C   UNL     1      20.413  27.426 -15.498  1.00  0.00     0.121 A 
ATOM      8  C   UNL     1      22.896  27.399 -15.971  1.00  0.00     0.049 C 
ATOM      9  C   UNL     1      23.278  29.094 -13.538  1.00  0.00     0.049 C 
ENDROOT
BRANCH   7  10
ATOM     10  O   UNL     1      20.235  26.697 -16.680  1.00  0.00    -0.507 OA
ATOM     11  H   UNL     1      20.857  25.960 -16.981  1.00  0.00     0.293 HD
ENDBRANCH   7  10
BRANCH   4  12
ATOM     12  O   UNL     1      20.918  29.588 -11.920  1.00  0.00    -0.508 OA
ATOM     13  H   UNL     1      20.274  29.485 -11.146  1.00  0.00     0.293 HD
ENDBRANCH   4  12
TORSDOF 2
ENDMDL
MODEL 9
REMARK VINA RESULT:    -4.741      6.000      8.030
REMARK INTER + INTRA:          -5.018
REMARK INTER:                  -5.018
REMARK INTRA:                   0.000
REMARK UNBOUND:                 0.000
REMARK SMILES Cc1cc(O)c(C)c(C)c1O
REMARK SMILES IDX 1 1 2 2 3 3 4 4 6 5 8 6 10 7 9 8 7 9 11 10 5 12
REMARK H PARENT 11 11 5 13
REMARK Flexibility Score: inf
ROOT
ATOM      1  C   UNL     1      33.320  36.012 -22.393  1.00  0.00     0.048 C 
ATOM      2  C   UNL     1      32.179  36.843 -22.913  1.00  0.00    -0.005 A 
ATOM      3  C   UNL     1      32.199  37.274 -24.244  1.00  0.00     0.053 A 
ATOM      4  C   UNL     1      31.168  38.054 -24.764  1.00  0.00     0.119 A 
ATOM      5  C   UNL     1      30.087  38.446 -23.941  1.00  0.00    -0.003 A 
ATOM      6  C   UNL     1      30.022  37.960 -22.605  1.00  0.00    -0.002 A 
ATOM      7  C   UNL     1      31.084  37.182 -22.090  1.00  0.00     0.121 A 
ATOM      8  C   UNL     1      28.842  38.289 -21.718  1.00  0.00     0.049 C 
ATOM      9  C   UNL     1      29.011  39.343 -24.511  1.00  0.00     0.049 C 
ENDROOT
BRANCH   7  10
ATOM     10  O   UNL     1      31.034  36.756 -20.757  1.00  0.00    -0.507 OA
ATOM     11  H   UNL     1      30.452  35.995 -20.434  1.00  0.00     0.293 HD
ENDBRANCH   7  10
BRANCH   4  12
ATOM     12  O   UNL     1      31.250  38.418 -26.112  1.00  0.00    -0.508 OA
ATOM     13  H   UNL     1      32.122  38.594 -26.593  1.00  0.00     0.293 HD
ENDBRANCH   4  12
TORSDOF 2
ENDMDL
