MODEL 1
REMARK VINA RESULT:    -5.537      0.000      0.000
REMARK INTER + INTRA:         -10.289
REMARK INTER:                  -9.584
REMARK INTRA:                  -0.705
REMARK UNBOUND:                -0.705
REMARK SMILES CCCCCCCCCCCCCCO
REMARK SMILES IDX 8 1 7 2 6 3 5 4 4 5 3 6 2 7 1 8 9 9 10 10 11 11 12 12 13 13
REMARK SMILES IDX 14 14 15 15
REMARK H PARENT 15 16
REMARK Flexibility Score: inf
ROOT
ATOM      1  C   UNL     1     -13.063  -1.153 -10.202  1.00  0.00     0.000 C 
ENDROOT
BRANCH   1   2
ATOM      2  C   UNL     1     -11.795  -0.297 -10.303  1.00  0.00    -0.000 C 
BRANCH   2   3
ATOM      3  C   UNL     1     -10.542  -1.176 -10.391  1.00  0.00    -0.000 C 
BRANCH   3   4
ATOM      4  C   UNL     1     -10.668  -2.407  -9.480  1.00  0.00    -0.000 C 
BRANCH   4   5
ATOM      5  C   UNL     1      -9.713  -3.543  -9.879  1.00  0.00    -0.000 C 
BRANCH   5   6
ATOM      6  C   UNL     1      -9.245  -4.374  -8.671  1.00  0.00    -0.000 C 
BRANCH   6   7
ATOM      7  C   UNL     1     -10.093  -4.115  -7.416  1.00  0.00    -0.003 C 
ATOM      8  C   UNL     1     -10.678  -5.395  -6.821  1.00  0.00     0.004 C 
ENDBRANCH   6   7
ENDBRANCH   5   6
ENDBRANCH   4   5
ENDBRANCH   3   4
ENDBRANCH   2   3
ENDBRANCH   1   2
BRANCH   1   9
ATOM      9  C   UNL     1     -14.298  -0.361 -10.656  1.00  0.00     0.000 C 
BRANCH   9  10
ATOM     10  C   UNL     1     -14.899   0.497  -9.530  1.00  0.00     0.000 C 
BRANCH  10  11
ATOM     11  C   UNL     1     -14.861   2.000  -9.846  1.00  0.00     0.000 C 
BRANCH  11  12
ATOM     12  C   UNL     1     -14.009   2.755  -8.818  1.00  0.00     0.002 C 
BRANCH  12  13
ATOM     13  C   UNL     1     -12.547   2.843  -9.273  1.00  0.00     0.028 C 
BRANCH  13  14
ATOM     14  C   UNL     1     -11.738   3.809  -8.402  1.00  0.00     0.156 C 
BRANCH  14  15
ATOM     15  O   UNL     1     -10.430   3.340  -8.213  1.00  0.00    -0.396 OA
ATOM     16  H   UNL     1     -10.493   2.352  -8.128  1.00  0.00     0.210 HD
ENDBRANCH  14  15
ENDBRANCH  13  14
ENDBRANCH  12  13
ENDBRANCH  11  12
ENDBRANCH  10  11
ENDBRANCH   9  10
ENDBRANCH   1   9
TORSDOF 13
ENDMDL
MODEL 2
REMARK VINA RESULT:    -5.283      1.289      2.584
REMARK INTER + INTRA:          -9.850
REMARK INTER:                  -9.225
REMARK INTRA:                  -0.624
REMARK UNBOUND:                -0.705
REMARK SMILES CCCCCCCCCCCCCCO
REMARK SMILES IDX 8 1 7 2 6 3 5 4 4 5 3 6 2 7 1 8 9 9 10 10 11 11 12 12 13 13
REMARK SMILES IDX 14 14 15 15
REMARK H PARENT 15 16
REMARK Flexibility Score: inf
ROOT
ATOM      1  C   UNL     1     -10.565  -1.837  -9.278  1.00  0.00     0.000 C 
ENDROOT
BRANCH   1   2
ATOM      2  C   UNL     1      -9.894  -2.991 -10.032  1.00  0.00    -0.000 C 
BRANCH   2   3
ATOM      3  C   UNL     1      -9.980  -4.296  -9.230  1.00  0.00    -0.000 C 
BRANCH   3   4
ATOM      4  C   UNL     1     -11.428  -4.802  -9.157  1.00  0.00    -0.000 C 
BRANCH   4   5
ATOM      5  C   UNL     1     -11.623  -5.898  -8.096  1.00  0.00    -0.000 C 
BRANCH   5   6
ATOM      6  C   UNL     1     -10.681  -5.728  -6.891  1.00  0.00    -0.000 C 
BRANCH   6   7
ATOM      7  C   UNL     1     -11.434  -5.727  -5.551  1.00  0.00    -0.003 C 
ATOM      8  C   UNL     1     -12.013  -7.096  -5.195  1.00  0.00     0.004 C 
ENDBRANCH   6   7
ENDBRANCH   5   6
ENDBRANCH   4   5
ENDBRANCH   3   4
ENDBRANCH   2   3
ENDBRANCH   1   2
BRANCH   1   9
ATOM      9  C   UNL     1     -11.017  -0.737 -10.250  1.00  0.00     0.000 C 
BRANCH   9  10
ATOM     10  C   UNL     1     -12.545  -0.683 -10.415  1.00  0.00     0.000 C 
BRANCH  10  11
ATOM     11  C   UNL     1     -13.160   0.595  -9.824  1.00  0.00     0.000 C 
BRANCH  11  12
ATOM     12  C   UNL     1     -12.067   1.550  -9.329  1.00  0.00     0.002 C 
BRANCH  12  13
ATOM     13  C   UNL     1     -12.585   2.993  -9.266  1.00  0.00     0.028 C 
BRANCH  13  14
ATOM     14  C   UNL     1     -11.734   3.861  -8.332  1.00  0.00     0.156 C 
BRANCH  14  15
ATOM     15  O   UNL     1     -10.438   3.341  -8.205  1.00  0.00    -0.396 OA
ATOM     16  H   UNL     1     -10.104   3.626  -7.315  1.00  0.00     0.210 HD
ENDBRANCH  14  15
ENDBRANCH  13  14
ENDBRANCH  12  13
ENDBRANCH  11  12
ENDBRANCH  10  11
ENDBRANCH   9  10
ENDBRANCH   1   9
TORSDOF 13
ENDMDL
MODEL 3
REMARK VINA RESULT:    -5.223      2.922      7.328
REMARK INTER + INTRA:          -9.745
REMARK INTER:                  -8.963
REMARK INTRA:                  -0.782
REMARK UNBOUND:                -0.705
REMARK SMILES CCCCCCCCCCCCCCO
REMARK SMILES IDX 8 1 7 2 6 3 5 4 4 5 3 6 2 7 1 8 9 9 10 10 11 11 12 12 13 13
REMARK SMILES IDX 14 14 15 15
REMARK H PARENT 15 16
REMARK Flexibility Score: inf
ROOT
ATOM      1  C   UNL     1     -12.258   0.079  -9.992  1.00  0.00     0.000 C 
ENDROOT
BRANCH   1   2
ATOM      2  C   UNL     1     -13.575  -0.577 -10.424  1.00  0.00    -0.000 C 
BRANCH   2   3
ATOM      3  C   UNL     1     -14.781   0.201  -9.883  1.00  0.00    -0.000 C 
BRANCH   3   4
ATOM      4  C   UNL     1     -14.532   1.715  -9.946  1.00  0.00    -0.000 C 
BRANCH   4   5
ATOM      5  C   UNL     1     -14.860   2.427  -8.623  1.00  0.00    -0.000 C 
BRANCH   5   6
ATOM      6  C   UNL     1     -14.054   3.725  -8.435  1.00  0.00    -0.000 C 
BRANCH   6   7
ATOM      7  C   UNL     1     -12.739   3.721  -9.230  1.00  0.00    -0.003 C 
ATOM      8  C   UNL     1     -11.507   3.578  -8.338  1.00  0.00     0.004 C 
ENDBRANCH   6   7
ENDBRANCH   5   6
ENDBRANCH   4   5
ENDBRANCH   3   4
ENDBRANCH   2   3
ENDBRANCH   1   2
BRANCH   1   9
ATOM      9  C   UNL     1     -11.057  -0.797 -10.379  1.00  0.00     0.000 C 
BRANCH   9  10
ATOM     10  C   UNL     1     -10.492  -1.588  -9.188  1.00  0.00     0.000 C 
BRANCH  10  11
ATOM     11  C   UNL     1     -10.039  -3.003  -9.580  1.00  0.00     0.000 C 
BRANCH  11  12
ATOM     12  C   UNL     1     -10.547  -4.040  -8.571  1.00  0.00     0.002 C 
BRANCH  12  13
ATOM     13  C   UNL     1      -9.513  -5.153  -8.357  1.00  0.00     0.028 C 
BRANCH  13  14
ATOM     14  C   UNL     1     -10.150  -6.414  -7.764  1.00  0.00     0.156 C 
BRANCH  14  15
ATOM     15  O   UNL     1     -10.082  -7.484  -8.669  1.00  0.00    -0.396 OA
ATOM     16  H   UNL     1     -10.537  -8.252  -8.234  1.00  0.00     0.210 HD
ENDBRANCH  14  15
ENDBRANCH  13  14
ENDBRANCH  12  13
ENDBRANCH  11  12
ENDBRANCH  10  11
ENDBRANCH   9  10
ENDBRANCH   1   9
TORSDOF 13
ENDMDL
MODEL 4
REMARK VINA RESULT:    -5.146      2.901      7.383
REMARK INTER + INTRA:          -9.612
REMARK INTER:                  -8.873
REMARK INTRA:                  -0.739
REMARK UNBOUND:                -0.705
REMARK SMILES CCCCCCCCCCCCCCO
REMARK SMILES IDX 8 1 7 2 6 3 5 4 4 5 3 6 2 7 1 8 9 9 10 10 11 11 12 12 13 13
REMARK SMILES IDX 14 14 15 15
REMARK H PARENT 15 16
REMARK Flexibility Score: inf
ROOT
ATOM      1  C   UNL     1     -10.724  -0.962 -10.260  1.00  0.00     0.000 C 
ENDROOT
BRANCH   1   2
ATOM      2  C   UNL     1     -11.930  -0.065  -9.956  1.00  0.00    -0.000 C 
BRANCH   2   3
ATOM      3  C   UNL     1     -13.218  -0.656 -10.540  1.00  0.00    -0.000 C 
BRANCH   3   4
ATOM      4  C   UNL     1     -14.458  -0.002  -9.912  1.00  0.00    -0.000 C 
BRANCH   4   5
ATOM      5  C   UNL     1     -14.483   1.523 -10.094  1.00  0.00    -0.000 C 
BRANCH   5   6
ATOM      6  C   UNL     1     -14.871   2.267  -8.804  1.00  0.00    -0.000 C 
BRANCH   6   7
ATOM      7  C   UNL     1     -14.126   3.603  -8.648  1.00  0.00    -0.003 C 
ATOM      8  C   UNL     1     -12.640   3.497  -8.990  1.00  0.00     0.004 C 
ENDBRANCH   6   7
ENDBRANCH   5   6
ENDBRANCH   4   5
ENDBRANCH   3   4
ENDBRANCH   2   3
ENDBRANCH   1   2
BRANCH   1   9
ATOM      9  C   UNL     1     -10.893  -2.346  -9.616  1.00  0.00     0.000 C 
BRANCH   9  10
ATOM     10  C   UNL     1      -9.741  -3.305  -9.960  1.00  0.00     0.000 C 
BRANCH  10  11
ATOM     11  C   UNL     1      -9.174  -4.017  -8.722  1.00  0.00     0.000 C 
BRANCH  11  12
ATOM     12  C   UNL     1     -10.226  -4.102  -7.609  1.00  0.00     0.002 C 
BRANCH  12  13
ATOM     13  C   UNL     1     -11.019  -5.412  -7.701  1.00  0.00     0.028 C 
BRANCH  13  14
ATOM     14  C   UNL     1     -10.155  -6.626  -7.341  1.00  0.00     0.156 C 
BRANCH  14  15
ATOM     15  O   UNL     1     -10.148  -7.564  -8.384  1.00  0.00    -0.396 OA
ATOM     16  H   UNL     1      -9.840  -8.422  -7.990  1.00  0.00     0.210 HD
ENDBRANCH  14  15
ENDBRANCH  13  14
ENDBRANCH  12  13
ENDBRANCH  11  12
ENDBRANCH  10  11
ENDBRANCH   9  10
ENDBRANCH   1   9
TORSDOF 13
ENDMDL
MODEL 5
REMARK VINA RESULT:    -4.996      1.577      2.955
REMARK INTER + INTRA:          -9.351
REMARK INTER:                  -8.684
REMARK INTRA:                  -0.668
REMARK UNBOUND:                -0.705
REMARK SMILES CCCCCCCCCCCCCCO
REMARK SMILES IDX 8 1 7 2 6 3 5 4 4 5 3 6 2 7 1 8 9 9 10 10 11 11 12 12 13 13
REMARK SMILES IDX 14 14 15 15
REMARK H PARENT 15 16
REMARK Flexibility Score: inf
ROOT
ATOM      1  C   UNL     1     -10.610  -1.776  -9.336  1.00  0.00     0.000 C 
ENDROOT
BRANCH   1   2
ATOM      2  C   UNL     1      -9.868  -2.908 -10.056  1.00  0.00    -0.000 C 
BRANCH   2   3
ATOM      3  C   UNL     1      -9.939  -4.212  -9.253  1.00  0.00    -0.000 C 
BRANCH   3   4
ATOM      4  C   UNL     1      -9.517  -3.984  -7.794  1.00  0.00    -0.000 C 
BRANCH   4   5
ATOM      5  C   UNL     1     -10.404  -4.740  -6.792  1.00  0.00    -0.000 C 
BRANCH   5   6
ATOM      6  C   UNL     1     -11.484  -5.591  -7.484  1.00  0.00    -0.000 C 
BRANCH   6   7
ATOM      7  C   UNL     1     -11.318  -7.093  -7.203  1.00  0.00    -0.003 C 
ATOM      8  C   UNL     1     -10.577  -7.827  -8.319  1.00  0.00     0.004 C 
ENDBRANCH   6   7
ENDBRANCH   5   6
ENDBRANCH   4   5
ENDBRANCH   3   4
ENDBRANCH   2   3
ENDBRANCH   1   2
BRANCH   1   9
ATOM      9  C   UNL     1     -11.041  -0.684 -10.327  1.00  0.00     0.000 C 
BRANCH   9  10
ATOM     10  C   UNL     1     -12.569  -0.548 -10.430  1.00  0.00     0.000 C 
BRANCH  10  11
ATOM     11  C   UNL     1     -13.102   0.696  -9.702  1.00  0.00     0.000 C 
BRANCH  11  12
ATOM     12  C   UNL     1     -14.612   0.853  -9.919  1.00  0.00     0.002 C 
BRANCH  12  13
ATOM     13  C   UNL     1     -15.123   2.162  -9.304  1.00  0.00     0.028 C 
BRANCH  13  14
ATOM     14  C   UNL     1     -13.970   3.084  -8.893  1.00  0.00     0.156 C 
BRANCH  14  15
ATOM     15  O   UNL     1     -14.438   4.162  -8.126  1.00  0.00    -0.396 OA
ATOM     16  H   UNL     1     -14.608   4.908  -8.758  1.00  0.00     0.210 HD
ENDBRANCH  14  15
ENDBRANCH  13  14
ENDBRANCH  12  13
ENDBRANCH  11  12
ENDBRANCH  10  11
ENDBRANCH   9  10
ENDBRANCH   1   9
TORSDOF 13
ENDMDL
MODEL 6
REMARK VINA RESULT:    -4.745      2.628      5.967
REMARK INTER + INTRA:          -8.918
REMARK INTER:                  -7.603
REMARK INTRA:                  -1.315
REMARK UNBOUND:                -0.705
REMARK SMILES CCCCCCCCCCCCCCO
REMARK SMILES IDX 8 1 7 2 6 3 5 4 4 5 3 6 2 7 1 8 9 9 10 10 11 11 12 12 13 13
REMARK SMILES IDX 14 14 15 15
REMARK H PARENT 15 16
REMARK Flexibility Score: inf
ROOT
ATOM      1  C   UNL     1      -9.880  -5.776  -7.589  1.00  0.00     0.000 C 
ENDROOT
BRANCH   1   2
ATOM      2  C   UNL     1     -10.668  -6.806  -6.771  1.00  0.00    -0.000 C 
BRANCH   2   3
ATOM      3  C   UNL     1     -11.245  -6.174  -5.498  1.00  0.00    -0.000 C 
BRANCH   3   4
ATOM      4  C   UNL     1     -12.779  -6.261  -5.488  1.00  0.00    -0.000 C 
BRANCH   4   5
ATOM      5  C   UNL     1     -13.322  -7.311  -6.471  1.00  0.00    -0.000 C 
BRANCH   5   6
ATOM      6  C   UNL     1     -14.273  -6.705  -7.517  1.00  0.00    -0.000 C 
BRANCH   6   7
ATOM      7  C   UNL     1     -13.647  -6.650  -8.920  1.00  0.00    -0.003 C 
ATOM      8  C   UNL     1     -13.173  -5.249  -9.304  1.00  0.00     0.004 C 
ENDBRANCH   6   7
ENDBRANCH   5   6
ENDBRANCH   4   5
ENDBRANCH   3   4
ENDBRANCH   2   3
ENDBRANCH   1   2
BRANCH   1   9
ATOM      9  C   UNL     1     -10.015  -4.372  -6.980  1.00  0.00     0.000 C 
BRANCH   9  10
ATOM     10  C   UNL     1      -9.139  -3.330  -7.695  1.00  0.00     0.000 C 
BRANCH  10  11
ATOM     11  C   UNL     1      -9.338  -3.334  -9.218  1.00  0.00     0.000 C 
BRANCH  11  12
ATOM     12  C   UNL     1     -10.664  -2.665  -9.599  1.00  0.00     0.002 C 
BRANCH  12  13
ATOM     13  C   UNL     1     -10.421  -1.368 -10.382  1.00  0.00     0.028 C 
BRANCH  13  14
ATOM     14  C   UNL     1     -11.359  -0.245  -9.927  1.00  0.00     0.156 C 
BRANCH  14  15
ATOM     15  O   UNL     1     -10.750   0.552  -8.947  1.00  0.00    -0.396 OA
ATOM     16  H   UNL     1     -10.599  -0.033  -8.159  1.00  0.00     0.210 HD
ENDBRANCH  14  15
ENDBRANCH  13  14
ENDBRANCH  12  13
ENDBRANCH  11  12
ENDBRANCH  10  11
ENDBRANCH   9  10
ENDBRANCH   1   9
TORSDOF 13
ENDMDL
MODEL 7
REMARK VINA RESULT:    -4.722      4.647      6.935
REMARK INTER + INTRA:          -8.877
REMARK INTER:                  -7.187
REMARK INTRA:                  -1.690
REMARK UNBOUND:                -0.705
REMARK SMILES CCCCCCCCCCCCCCO
REMARK SMILES IDX 8 1 7 2 6 3 5 4 4 5 3 6 2 7 1 8 9 9 10 10 11 11 12 12 13 13
REMARK SMILES IDX 14 14 15 15
REMARK H PARENT 15 16
REMARK Flexibility Score: inf
ROOT
ATOM      1  C   UNL     1     -11.050  -6.292  -5.329  1.00  0.00     0.000 C 
ENDROOT
BRANCH   1   2
ATOM      2  C   UNL     1     -12.576  -6.308  -5.188  1.00  0.00    -0.000 C 
BRANCH   2   3
ATOM      3  C   UNL     1     -13.222  -7.165  -6.284  1.00  0.00    -0.000 C 
BRANCH   3   4
ATOM      4  C   UNL     1     -14.517  -6.518  -6.796  1.00  0.00    -0.000 C 
BRANCH   4   5
ATOM      5  C   UNL     1     -14.544  -6.370  -8.326  1.00  0.00    -0.000 C 
BRANCH   5   6
ATOM      6  C   UNL     1     -13.338  -5.579  -8.864  1.00  0.00    -0.000 C 
BRANCH   6   7
ATOM      7  C   UNL     1     -12.581  -6.337  -9.966  1.00  0.00    -0.003 C 
ATOM      8  C   UNL     1     -12.648  -7.854  -9.794  1.00  0.00     0.004 C 
ENDBRANCH   6   7
ENDBRANCH   5   6
ENDBRANCH   4   5
ENDBRANCH   3   4
ENDBRANCH   2   3
ENDBRANCH   1   2
BRANCH   1   9
ATOM      9  C   UNL     1     -10.622  -6.776  -6.722  1.00  0.00     0.000 C 
BRANCH   9  10
ATOM     10  C   UNL     1      -9.883  -5.693  -7.526  1.00  0.00     0.000 C 
BRANCH  10  11
ATOM     11  C   UNL     1     -10.126  -4.279  -6.975  1.00  0.00     0.000 C 
BRANCH  11  12
ATOM     12  C   UNL     1      -9.419  -3.227  -7.837  1.00  0.00     0.002 C 
BRANCH  12  13
ATOM     13  C   UNL     1     -10.288  -2.824  -9.036  1.00  0.00     0.028 C 
BRANCH  13  14
ATOM     14  C   UNL     1      -9.471  -2.749 -10.330  1.00  0.00     0.156 C 
BRANCH  14  15
ATOM     15  O   UNL     1      -9.461  -3.987 -10.990  1.00  0.00    -0.396 OA
ATOM     16  H   UNL     1     -10.311  -4.441 -10.752  1.00  0.00     0.210 HD
ENDBRANCH  14  15
ENDBRANCH  13  14
ENDBRANCH  12  13
ENDBRANCH  11  12
ENDBRANCH  10  11
ENDBRANCH   9  10
ENDBRANCH   1   9
TORSDOF 13
ENDMDL
MODEL 8
REMARK VINA RESULT:    -4.691     14.238     16.229
REMARK INTER + INTRA:          -8.824
REMARK INTER:                  -7.958
REMARK INTRA:                  -0.866
REMARK UNBOUND:                -0.705
REMARK SMILES CCCCCCCCCCCCCCO
REMARK SMILES IDX 8 1 7 2 6 3 5 4 4 5 3 6 2 7 1 8 9 9 10 10 11 11 12 12 13 13
REMARK SMILES IDX 14 14 15 15
REMARK H PARENT 15 16
REMARK Flexibility Score: inf
ROOT
ATOM      1  C   UNL     1     -13.238   5.702   5.194  1.00  0.00     0.000 C 
ENDROOT
BRANCH   1   2
ATOM      2  C   UNL     1     -13.615   4.779   6.359  1.00  0.00    -0.000 C 
BRANCH   2   3
ATOM      3  C   UNL     1     -13.783   5.574   7.659  1.00  0.00    -0.000 C 
BRANCH   3   4
ATOM      4  C   UNL     1     -12.854   5.034   8.757  1.00  0.00    -0.000 C 
BRANCH   4   5
ATOM      5  C   UNL     1     -12.197   3.698   8.377  1.00  0.00    -0.000 C 
BRANCH   5   6
ATOM      6  C   UNL     1     -10.678   3.826   8.163  1.00  0.00    -0.000 C 
BRANCH   6   7
ATOM      7  C   UNL     1     -10.222   5.288   8.042  1.00  0.00    -0.003 C 
ATOM      8  C   UNL     1      -9.584   5.602   6.690  1.00  0.00     0.004 C 
ENDBRANCH   6   7
ENDBRANCH   5   6
ENDBRANCH   4   5
ENDBRANCH   3   4
ENDBRANCH   2   3
ENDBRANCH   1   2
BRANCH   1   9
ATOM      9  C   UNL     1     -13.846   5.199   3.876  1.00  0.00     0.000 C 
BRANCH   9  10
ATOM     10  C   UNL     1     -14.905   6.158   3.307  1.00  0.00     0.000 C 
BRANCH  10  11
ATOM     11  C   UNL     1     -14.380   6.983   2.122  1.00  0.00     0.000 C 
BRANCH  11  12
ATOM     12  C   UNL     1     -14.030   8.410   2.561  1.00  0.00     0.002 C 
BRANCH  12  13
ATOM     13  C   UNL     1     -13.748   9.305   1.346  1.00  0.00     0.028 C 
BRANCH  13  14
ATOM     14  C   UNL     1     -12.839  10.484   1.708  1.00  0.00     0.156 C 
BRANCH  14  15
ATOM     15  O   UNL     1     -11.667  10.469   0.937  1.00  0.00    -0.396 OA
ATOM     16  H   UNL     1     -11.810  11.109   0.191  1.00  0.00     0.210 HD
ENDBRANCH  14  15
ENDBRANCH  13  14
ENDBRANCH  12  13
ENDBRANCH  11  12
ENDBRANCH  10  11
ENDBRANCH   9  10
ENDBRANCH   1   9
TORSDOF 13
ENDMDL
MODEL 9
REMARK VINA RESULT:    -4.684     15.994     18.291
REMARK INTER + INTRA:          -8.813
REMARK INTER:                  -7.688
REMARK INTRA:                  -1.124
REMARK UNBOUND:                -0.705
REMARK SMILES CCCCCCCCCCCCCCO
REMARK SMILES IDX 8 1 7 2 6 3 5 4 4 5 3 6 2 7 1 8 9 9 10 10 11 11 12 12 13 13
REMARK SMILES IDX 14 14 15 15
REMARK H PARENT 15 16
REMARK Flexibility Score: inf
ROOT
ATOM      1  C   UNL     1      -9.493   5.547   6.549  1.00  0.00     0.000 C 
ENDROOT
BRANCH   1   2
ATOM      2  C   UNL     1     -10.180   5.295   7.896  1.00  0.00    -0.000 C 
BRANCH   2   3
ATOM      3  C   UNL     1     -10.694   3.853   7.991  1.00  0.00    -0.000 C 
BRANCH   3   4
ATOM      4  C   UNL     1     -12.083   3.806   8.644  1.00  0.00    -0.000 C 
BRANCH   4   5
ATOM      5  C   UNL     1     -12.879   5.106   8.444  1.00  0.00    -0.000 C 
BRANCH   5   6
ATOM      6  C   UNL     1     -13.883   5.012   7.281  1.00  0.00    -0.000 C 
BRANCH   6   7
ATOM      7  C   UNL     1     -13.347   5.649   5.989  1.00  0.00    -0.003 C 
ATOM      8  C   UNL     1     -12.831   4.616   4.988  1.00  0.00     0.004 C 
ENDBRANCH   6   7
ENDBRANCH   5   6
ENDBRANCH   4   5
ENDBRANCH   3   4
ENDBRANCH   2   3
ENDBRANCH   1   2
BRANCH   1   9
ATOM      9  C   UNL     1      -9.774   6.971   6.047  1.00  0.00     0.000 C 
BRANCH   9  10
ATOM     10  C   UNL     1      -8.601   7.932   6.300  1.00  0.00     0.000 C 
BRANCH  10  11
ATOM     11  C   UNL     1      -8.135   8.646   5.022  1.00  0.00     0.000 C 
BRANCH  11  12
ATOM     12  C   UNL     1      -7.403   9.951   5.359  1.00  0.00     0.002 C 
BRANCH  12  13
ATOM     13  C   UNL     1      -6.601   9.812   6.660  1.00  0.00     0.028 C 
BRANCH  13  14
ATOM     14  C   UNL     1      -5.329  10.666   6.636  1.00  0.00     0.156 C 
BRANCH  14  15
ATOM     15  O   UNL     1      -4.196   9.886   6.913  1.00  0.00    -0.396 OA
ATOM     16  H   UNL     1      -3.751  10.302   7.698  1.00  0.00     0.210 HD
ENDBRANCH  14  15
ENDBRANCH  13  14
ENDBRANCH  12  13
ENDBRANCH  11  12
ENDBRANCH  10  11
ENDBRANCH   9  10
ENDBRANCH   1   9
TORSDOF 13
ENDMDL
