MODEL 1
REMARK VINA RESULT:    -3.533      0.000      0.000
REMARK INTER + INTRA:          -4.799
REMARK INTER:                  -4.360
REMARK INTRA:                  -0.439
REMARK UNBOUND:                -0.439
REMARK SMILES CC(C)=CCC[C@@H](C)c1ccc(C)cc1
REMARK SMILES IDX 6 1 7 2 8 3 9 4 13 5 12 6 11 7 14 8 10 9 15 10 5 11 4 12
REMARK SMILES IDX 2 13 1 14 3 15
REMARK H PARENT
REMARK Flexibility Score: inf
ROOT
ATOM      1  C   UNL     1       0.507  48.103  27.484  1.00  0.00     0.012 C 
ENDROOT
BRANCH   1   2
ATOM      2  C   UNL     1       1.124  48.045  26.068  1.00  0.00     0.016 C 
ATOM      3  C   UNL     1       0.555  46.891  25.229  1.00  0.00     0.013 C 
BRANCH   2   4
ATOM      4  C   UNL     1       0.925  49.369  25.351  1.00  0.00    -0.045 A 
ATOM      5  C   UNL     1       0.305  53.141  23.339  1.00  0.00     0.044 C 
ATOM      6  C   UNL     1       0.551  51.836  24.038  1.00  0.00    -0.051 A 
ATOM      7  C   UNL     1       0.518  51.767  25.438  1.00  0.00     0.004 A 
ATOM      8  C   UNL     1       0.743  50.663  23.295  1.00  0.00     0.004 A 
ATOM      9  C   UNL     1       0.709  50.545  26.090  1.00  0.00     0.004 A 
ATOM     10  C   UNL     1       0.935  49.440  23.945  1.00  0.00     0.004 A 
ENDBRANCH   2   4
ENDBRANCH   1   2
BRANCH   1  11
ATOM     11  C   UNL     1       0.799  46.839  28.307  1.00  0.00     0.028 C 
BRANCH  11  12
ATOM     12  C   UNL     1       0.880  47.169  29.777  1.00  0.00    -0.028 C 
ATOM     13  C   UNL     1       1.010  46.249  30.760  1.00  0.00    -0.080 C 
ATOM     14  C   UNL     1       1.031  44.767  30.471  1.00  0.00     0.039 C 
ATOM     15  C   UNL     1       1.120  46.730  32.184  1.00  0.00     0.039 C 
ENDBRANCH  11  12
ENDBRANCH   1  11
TORSDOF 4
ENDMDL
MODEL 2
REMARK VINA RESULT:    -3.344      2.329      6.310
REMARK INTER + INTRA:          -4.565
REMARK INTER:                  -5.447
REMARK INTRA:                   0.882
REMARK UNBOUND:                -0.439
REMARK SMILES CC(C)=CCC[C@@H](C)c1ccc(C)cc1
REMARK SMILES IDX 6 1 7 2 8 3 9 4 13 5 12 6 11 7 14 8 10 9 15 10 5 11 4 12
REMARK SMILES IDX 2 13 1 14 3 15
REMARK H PARENT
REMARK Flexibility Score: inf
ROOT
ATOM      1  C   UNL     1       0.196  50.542  26.130  1.00  0.00     0.012 C 
ENDROOT
BRANCH   1   2
ATOM      2  C   UNL     1       1.110  49.427  26.685  1.00  0.00     0.016 C 
ATOM      3  C   UNL     1       0.732  49.021  28.118  1.00  0.00     0.013 C 
BRANCH   2   4
ATOM      4  C   UNL     1       1.083  48.217  25.768  1.00  0.00    -0.045 A 
ATOM      5  C   UNL     1       1.057  44.752  23.188  1.00  0.00     0.044 C 
ATOM      6  C   UNL     1       1.035  45.956  24.083  1.00  0.00    -0.051 A 
ATOM      7  C   UNL     1       1.018  45.801  25.476  1.00  0.00     0.004 A 
ATOM      8  C   UNL     1       1.105  47.245  23.535  1.00  0.00     0.004 A 
ATOM      9  C   UNL     1       1.036  46.921  26.312  1.00  0.00     0.004 A 
ATOM     10  C   UNL     1       1.122  48.366  24.369  1.00  0.00     0.004 A 
ENDBRANCH   2   4
ENDBRANCH   1   2
BRANCH   1  11
ATOM     11  C   UNL     1       0.457  50.834  24.644  1.00  0.00     0.028 C 
BRANCH  11  12
ATOM     12  C   UNL     1      -0.416  51.966  24.162  1.00  0.00    -0.028 C 
ATOM     13  C   UNL     1      -0.344  53.235  24.624  1.00  0.00    -0.080 C 
ATOM     14  C   UNL     1       0.603  53.631  25.731  1.00  0.00     0.039 C 
ATOM     15  C   UNL     1      -1.254  54.272  24.019  1.00  0.00     0.039 C 
ENDBRANCH  11  12
ENDBRANCH   1  11
TORSDOF 4
ENDMDL
