MODEL 1
REMARK VINA RESULT:    -4.826      0.000      0.000
REMARK INTER + INTRA:          -6.575
REMARK INTER:                  -6.518
REMARK INTRA:                  -0.057
REMARK UNBOUND:                -0.057
REMARK SMILES [NH3+]CCCC[C@@H]([NH3+])C(=O)[O-]
REMARK SMILES IDX 4 1 3 2 2 3 1 4 5 8 6 9 7 10 8 14 9 15 10 16
REMARK H PARENT 1 5 1 6 1 7 7 11 7 12 7 13
REMARK Flexibility Score: inf
ROOT
ATOM      1  C   UNL     1     -10.165  29.322  27.334  1.00  0.00     0.012 C 
ENDROOT
BRANCH   1   2
ATOM      2  C   UNL     1     -10.648  28.690  28.655  1.00  0.00     0.061 C 
BRANCH   2   3
ATOM      3  C   UNL     1     -12.165  28.433  28.730  1.00  0.00     0.258 C 
BRANCH   3   4
ATOM      4  N   UNL     1     -12.597  28.058  30.076  1.00  0.00    -0.358 N 
ATOM      5  H   UNL     1     -13.513  27.555  30.040  1.00  0.00     0.344 HD
ATOM      6  H   UNL     1     -12.677  28.906  30.681  1.00  0.00     0.344 HD
ATOM      7  H   UNL     1     -11.881  27.421  30.497  1.00  0.00     0.344 HD
ENDBRANCH   3   4
ENDBRANCH   2   3
ENDBRANCH   1   2
BRANCH   1   8
ATOM      8  C   UNL     1     -10.685  28.641  26.051  1.00  0.00     0.072 C 
BRANCH   8   9
ATOM      9  C   UNL     1     -11.802  29.415  25.312  1.00  0.00     0.227 C 
BRANCH   9  10
ATOM     10  N   UNL     1     -11.363  30.758  24.913  1.00  0.00    -0.350 N 
ATOM     11  H   UNL     1     -11.010  31.282  25.748  1.00  0.00     0.345 HD
ATOM     12  H   UNL     1     -12.151  31.295  24.482  1.00  0.00     0.345 HD
ATOM     13  H   UNL     1     -10.575  30.691  24.229  1.00  0.00     0.345 HD
ENDBRANCH   9  10
BRANCH   9  14
ATOM     14  C   UNL     1     -12.230  28.630  24.099  1.00  0.00     0.099 C 
ATOM     15  O   UNL     1     -11.597  27.597  23.758  1.00  0.00    -0.544 OA
ATOM     16  O   UNL     1     -13.305  29.061  23.330  1.00  0.00    -0.544 OA
ENDBRANCH   9  14
ENDBRANCH   8   9
ENDBRANCH   1   8
TORSDOF 7
ENDMDL
MODEL 2
REMARK VINA RESULT:    -4.772      1.498      1.632
REMARK INTER + INTRA:          -6.503
REMARK INTER:                  -6.312
REMARK INTRA:                  -0.191
REMARK UNBOUND:                -0.057
REMARK SMILES [NH3+]CCCC[C@@H]([NH3+])C(=O)[O-]
REMARK SMILES IDX 4 1 3 2 2 3 1 4 5 8 6 9 7 10 8 14 9 15 10 16
REMARK H PARENT 1 5 1 6 1 7 7 11 7 12 7 13
REMARK Flexibility Score: inf
ROOT
ATOM      1  C   UNL     1     -10.131  30.081  26.353  1.00  0.00     0.012 C 
ENDROOT
BRANCH   1   2
ATOM      2  C   UNL     1      -9.882  28.884  27.292  1.00  0.00     0.061 C 
BRANCH   2   3
ATOM      3  C   UNL     1     -10.389  29.079  28.733  1.00  0.00     0.258 C 
BRANCH   3   4
ATOM      4  N   UNL     1     -10.805  27.818  29.349  1.00  0.00    -0.358 N 
ATOM      5  H   UNL     1     -10.853  27.917  30.389  1.00  0.00     0.344 HD
ATOM      6  H   UNL     1     -10.142  27.052  29.092  1.00  0.00     0.344 HD
ATOM      7  H   UNL     1     -11.755  27.563  28.992  1.00  0.00     0.344 HD
ENDBRANCH   3   4
ENDBRANCH   2   3
ENDBRANCH   1   2
BRANCH   1   8
ATOM      8  C   UNL     1     -11.440  30.017  25.539  1.00  0.00     0.072 C 
BRANCH   8   9
ATOM      9  C   UNL     1     -12.100  28.620  25.481  1.00  0.00     0.227 C 
BRANCH   9  10
ATOM     10  N   UNL     1     -13.533  28.680  25.799  1.00  0.00    -0.350 N 
ATOM     11  H   UNL     1     -14.042  27.915  25.299  1.00  0.00     0.345 HD
ATOM     12  H   UNL     1     -13.939  29.603  25.516  1.00  0.00     0.345 HD
ATOM     13  H   UNL     1     -13.680  28.537  26.824  1.00  0.00     0.345 HD
ENDBRANCH   9  10
BRANCH   9  14
ATOM     14  C   UNL     1     -11.901  28.034  24.107  1.00  0.00     0.099 C 
ATOM     15  O   UNL     1     -11.161  27.028  23.950  1.00  0.00    -0.544 OA
ATOM     16  O   UNL     1     -12.504  28.621  23.001  1.00  0.00    -0.544 OA
ENDBRANCH   9  14
ENDBRANCH   8   9
ENDBRANCH   1   8
TORSDOF 7
ENDMDL
MODEL 3
REMARK VINA RESULT:    -4.585      2.124      2.794
REMARK INTER + INTRA:          -6.251
REMARK INTER:                  -5.801
REMARK INTRA:                  -0.449
REMARK UNBOUND:                -0.057
REMARK SMILES [NH3+]CCCC[C@@H]([NH3+])C(=O)[O-]
REMARK SMILES IDX 4 1 3 2 2 3 1 4 5 8 6 9 7 10 8 14 9 15 10 16
REMARK H PARENT 1 5 1 6 1 7 7 11 7 12 7 13
REMARK Flexibility Score: inf
ROOT
ATOM      1  C   UNL     1     -11.883  28.328  27.741  1.00  0.00     0.012 C 
ENDROOT
BRANCH   1   2
ATOM      2  C   UNL     1     -10.674  29.228  28.067  1.00  0.00     0.061 C 
BRANCH   2   3
ATOM      3  C   UNL     1      -9.562  29.225  27.001  1.00  0.00     0.258 C 
BRANCH   3   4
ATOM      4  N   UNL     1      -9.435  30.519  26.330  1.00  0.00    -0.358 N 
ATOM      5  H   UNL     1      -8.667  30.490  25.621  1.00  0.00     0.344 HD
ATOM      6  H   UNL     1      -9.251  31.274  27.028  1.00  0.00     0.344 HD
ATOM      7  H   UNL     1     -10.334  30.737  25.840  1.00  0.00     0.344 HD
ENDBRANCH   3   4
ENDBRANCH   2   3
ENDBRANCH   1   2
BRANCH   1   8
ATOM      8  C   UNL     1     -12.724  28.772  26.525  1.00  0.00     0.072 C 
BRANCH   8   9
ATOM      9  C   UNL     1     -12.433  27.999  25.218  1.00  0.00     0.227 C 
BRANCH   9  10
ATOM     10  N   UNL     1     -13.542  27.108  24.853  1.00  0.00    -0.350 N 
ATOM     11  H   UNL     1     -14.363  27.286  25.477  1.00  0.00     0.345 HD
ATOM     12  H   UNL     1     -13.258  26.104  24.941  1.00  0.00     0.345 HD
ATOM     13  H   UNL     1     -13.848  27.296  23.872  1.00  0.00     0.345 HD
ENDBRANCH   9  10
BRANCH   9  14
ATOM     14  C   UNL     1     -12.175  28.983  24.107  1.00  0.00     0.099 C 
ATOM     15  O   UNL     1     -12.423  28.670  22.913  1.00  0.00    -0.544 OA
ATOM     16  O   UNL     1     -11.630  30.231  24.389  1.00  0.00    -0.544 OA
ENDBRANCH   9  14
ENDBRANCH   8   9
ENDBRANCH   1   8
TORSDOF 7
ENDMDL
MODEL 4
REMARK VINA RESULT:    -4.582      7.533      8.610
REMARK INTER + INTRA:          -6.247
REMARK INTER:                  -6.148
REMARK INTRA:                  -0.099
REMARK UNBOUND:                -0.057
REMARK SMILES [NH3+]CCCC[C@@H]([NH3+])C(=O)[O-]
REMARK SMILES IDX 4 1 3 2 2 3 1 4 5 8 6 9 7 10 8 14 9 15 10 16
REMARK H PARENT 1 5 1 6 1 7 7 11 7 12 7 13
REMARK Flexibility Score: inf
ROOT
ATOM      1  C   UNL     1     -10.961  22.368  24.475  1.00  0.00     0.012 C 
ENDROOT
BRANCH   1   2
ATOM      2  C   UNL     1     -11.514  21.831  23.139  1.00  0.00     0.061 C 
BRANCH   2   3
ATOM      3  C   UNL     1     -11.220  20.342  22.872  1.00  0.00     0.258 C 
BRANCH   3   4
ATOM      4  N   UNL     1     -12.217  19.463  23.484  1.00  0.00    -0.358 N 
ATOM      5  H   UNL     1     -12.655  18.848  22.761  1.00  0.00     0.344 HD
ATOM      6  H   UNL     1     -12.952  20.028  23.967  1.00  0.00     0.344 HD
ATOM      7  H   UNL     1     -11.746  18.860  24.197  1.00  0.00     0.344 HD
ENDBRANCH   3   4
ENDBRANCH   2   3
ENDBRANCH   1   2
BRANCH   1   8
ATOM      8  C   UNL     1      -9.534  21.902  24.831  1.00  0.00     0.072 C 
BRANCH   8   9
ATOM      9  C   UNL     1      -8.813  22.771  25.888  1.00  0.00     0.227 C 
BRANCH   9  10
ATOM     10  N   UNL     1      -9.087  22.308  27.254  1.00  0.00    -0.350 N 
ATOM     11  H   UNL     1      -8.910  21.279  27.325  1.00  0.00     0.345 HD
ATOM     12  H   UNL     1     -10.080  22.502  27.521  1.00  0.00     0.345 HD
ATOM     13  H   UNL     1      -8.448  22.783  27.931  1.00  0.00     0.345 HD
ENDBRANCH   9  10
BRANCH   9  14
ATOM     14  C   UNL     1      -7.330  22.744  25.622  1.00  0.00     0.099 C 
ATOM     15  O   UNL     1      -6.547  23.428  26.333  1.00  0.00    -0.544 OA
ATOM     16  O   UNL     1      -6.820  21.993  24.570  1.00  0.00    -0.544 OA
ENDBRANCH   9  14
ENDBRANCH   8   9
ENDBRANCH   1   8
TORSDOF 7
ENDMDL
MODEL 5
REMARK VINA RESULT:    -4.580     16.831     17.452
REMARK INTER + INTRA:          -6.244
REMARK INTER:                  -6.026
REMARK INTRA:                  -0.217
REMARK UNBOUND:                -0.057
REMARK SMILES [NH3+]CCCC[C@@H]([NH3+])C(=O)[O-]
REMARK SMILES IDX 4 1 3 2 2 3 1 4 5 8 6 9 7 10 8 14 9 15 10 16
REMARK H PARENT 1 5 1 6 1 7 7 11 7 12 7 13
REMARK Flexibility Score: inf
ROOT
ATOM      1  C   UNL     1       2.485  28.559  34.867  1.00  0.00     0.012 C 
ENDROOT
BRANCH   1   2
ATOM      2  C   UNL     1       3.237  27.483  35.676  1.00  0.00     0.061 C 
BRANCH   2   3
ATOM      3  C   UNL     1       2.624  26.072  35.598  1.00  0.00     0.258 C 
BRANCH   3   4
ATOM      4  N   UNL     1       1.948  25.832  34.323  1.00  0.00    -0.358 N 
ATOM      5  H   UNL     1       1.045  25.328  34.476  1.00  0.00     0.344 HD
ATOM      6  H   UNL     1       2.563  25.277  33.685  1.00  0.00     0.344 HD
ATOM      7  H   UNL     1       1.747  26.751  33.866  1.00  0.00     0.344 HD
ENDBRANCH   3   4
ENDBRANCH   2   3
ENDBRANCH   1   2
BRANCH   1   8
ATOM      8  C   UNL     1       1.382  29.312  35.640  1.00  0.00     0.072 C 
BRANCH   8   9
ATOM      9  C   UNL     1       1.616  30.834  35.786  1.00  0.00     0.227 C 
BRANCH   9  10
ATOM     10  N   UNL     1       0.469  31.504  36.413  1.00  0.00    -0.350 N 
ATOM     11  H   UNL     1       0.164  32.314  35.824  1.00  0.00     0.345 HD
ATOM     12  H   UNL     1       0.718  31.852  37.368  1.00  0.00     0.345 HD
ATOM     13  H   UNL     1      -0.338  30.845  36.483  1.00  0.00     0.345 HD
ENDBRANCH   9  10
BRANCH   9  14
ATOM     14  C   UNL     1       2.860  31.068  36.603  1.00  0.00     0.099 C 
ATOM     15  O   UNL     1       3.818  31.730  36.123  1.00  0.00    -0.544 OA
ATOM     16  O   UNL     1       2.974  30.526  37.878  1.00  0.00    -0.544 OA
ENDBRANCH   9  14
ENDBRANCH   8   9
ENDBRANCH   1   8
TORSDOF 7
ENDMDL
MODEL 6
REMARK VINA RESULT:    -4.454      2.754      3.932
REMARK INTER + INTRA:          -6.073
REMARK INTER:                  -5.622
REMARK INTRA:                  -0.451
REMARK UNBOUND:                -0.057
REMARK SMILES [NH3+]CCCC[C@@H]([NH3+])C(=O)[O-]
REMARK SMILES IDX 4 1 3 2 2 3 1 4 5 8 6 9 7 10 8 14 9 15 10 16
REMARK H PARENT 1 5 1 6 1 7 7 11 7 12 7 13
REMARK Flexibility Score: inf
ROOT
ATOM      1  C   UNL     1     -12.077  29.394  24.125  1.00  0.00     0.012 C 
ENDROOT
BRANCH   1   2
ATOM      2  C   UNL     1     -13.514  28.835  24.119  1.00  0.00     0.061 C 
BRANCH   2   3
ATOM      3  C   UNL     1     -13.635  27.363  24.555  1.00  0.00     0.258 C 
BRANCH   3   4
ATOM      4  N   UNL     1     -14.071  27.231  25.945  1.00  0.00    -0.358 N 
ATOM      5  H   UNL     1     -13.270  27.394  26.597  1.00  0.00     0.344 HD
ATOM      6  H   UNL     1     -14.479  26.283  26.109  1.00  0.00     0.344 HD
ATOM      7  H   UNL     1     -14.812  27.944  26.138  1.00  0.00     0.344 HD
ENDBRANCH   3   4
ENDBRANCH   2   3
ENDBRANCH   1   2
BRANCH   1   8
ATOM      8  C   UNL     1     -11.669  30.143  25.410  1.00  0.00     0.072 C 
BRANCH   8   9
ATOM      9  C   UNL     1     -10.423  29.571  26.127  1.00  0.00     0.227 C 
BRANCH   9  10
ATOM     10  N   UNL     1      -9.392  30.597  26.331  1.00  0.00    -0.350 N 
ATOM     11  H   UNL     1      -9.611  31.158  27.187  1.00  0.00     0.345 HD
ATOM     12  H   UNL     1      -9.338  31.240  25.507  1.00  0.00     0.345 HD
ATOM     13  H   UNL     1      -8.461  30.147  26.480  1.00  0.00     0.345 HD
ENDBRANCH   9  10
BRANCH   9  14
ATOM     14  C   UNL     1     -10.839  28.986  27.451  1.00  0.00     0.099 C 
ATOM     15  O   UNL     1      -9.996  28.852  28.376  1.00  0.00    -0.544 OA
ATOM     16  O   UNL     1     -12.146  28.558  27.649  1.00  0.00    -0.544 OA
ENDBRANCH   9  14
ENDBRANCH   8   9
ENDBRANCH   1   8
TORSDOF 7
ENDMDL
MODEL 7
REMARK VINA RESULT:    -4.417     17.109     18.319
REMARK INTER + INTRA:          -6.023
REMARK INTER:                  -5.926
REMARK INTRA:                  -0.097
REMARK UNBOUND:                -0.057
REMARK SMILES [NH3+]CCCC[C@@H]([NH3+])C(=O)[O-]
REMARK SMILES IDX 4 1 3 2 2 3 1 4 5 8 6 9 7 10 8 14 9 15 10 16
REMARK H PARENT 1 5 1 6 1 7 7 11 7 12 7 13
REMARK Flexibility Score: inf
ROOT
ATOM      1  C   UNL     1       2.695  31.647  37.270  1.00  0.00     0.012 C 
ENDROOT
BRANCH   1   2
ATOM      2  C   UNL     1       3.757  31.772  38.380  1.00  0.00     0.061 C 
BRANCH   2   3
ATOM      3  C   UNL     1       5.188  32.038  37.876  1.00  0.00     0.258 C 
BRANCH   3   4
ATOM      4  N   UNL     1       5.483  33.468  37.778  1.00  0.00    -0.358 N 
ATOM      5  H   UNL     1       5.892  33.819  38.674  1.00  0.00     0.344 HD
ATOM      6  H   UNL     1       4.616  34.002  37.547  1.00  0.00     0.344 HD
ATOM      7  H   UNL     1       6.177  33.620  37.010  1.00  0.00     0.344 HD
ENDBRANCH   3   4
ENDBRANCH   2   3
ENDBRANCH   1   2
BRANCH   1   8
ATOM      8  C   UNL     1       3.055  30.683  36.120  1.00  0.00     0.072 C 
BRANCH   8   9
ATOM      9  C   UNL     1       2.074  29.502  35.933  1.00  0.00     0.227 C 
BRANCH   9  10
ATOM     10  N   UNL     1       0.950  29.859  35.059  1.00  0.00    -0.350 N 
ATOM     11  H   UNL     1       0.414  28.999  34.797  1.00  0.00     0.345 HD
ATOM     12  H   UNL     1       1.290  30.328  34.187  1.00  0.00     0.345 HD
ATOM     13  H   UNL     1       0.292  30.498  35.561  1.00  0.00     0.345 HD
ENDBRANCH   9  10
BRANCH   9  14
ATOM     14  C   UNL     1       2.821  28.325  35.360  1.00  0.00     0.099 C 
ATOM     15  O   UNL     1       4.031  28.140  35.652  1.00  0.00    -0.544 OA
ATOM     16  O   UNL     1       2.188  27.456  34.479  1.00  0.00    -0.544 OA
ENDBRANCH   9  14
ENDBRANCH   8   9
ENDBRANCH   1   8
TORSDOF 7
ENDMDL
MODEL 8
REMARK VINA RESULT:    -4.384      2.559      4.145
REMARK INTER + INTRA:          -5.979
REMARK INTER:                  -5.474
REMARK INTRA:                  -0.505
REMARK UNBOUND:                -0.057
REMARK SMILES [NH3+]CCCC[C@@H]([NH3+])C(=O)[O-]
REMARK SMILES IDX 4 1 3 2 2 3 1 4 5 8 6 9 7 10 8 14 9 15 10 16
REMARK H PARENT 1 5 1 6 1 7 7 11 7 12 7 13
REMARK Flexibility Score: inf
ROOT
ATOM      1  C   UNL     1     -12.860  28.782  26.033  1.00  0.00     0.012 C 
ENDROOT
BRANCH   1   2
ATOM      2  C   UNL     1     -13.160  27.602  25.088  1.00  0.00     0.061 C 
BRANCH   2   3
ATOM      3  C   UNL     1     -12.241  27.511  23.855  1.00  0.00     0.258 C 
BRANCH   3   4
ATOM      4  N   UNL     1     -11.159  26.544  24.042  1.00  0.00    -0.358 N 
ATOM      5  H   UNL     1     -10.348  26.779  23.425  1.00  0.00     0.344 HD
ATOM      6  H   UNL     1     -11.497  25.577  23.836  1.00  0.00     0.344 HD
ATOM      7  H   UNL     1     -10.842  26.576  25.038  1.00  0.00     0.344 HD
ENDBRANCH   3   4
ENDBRANCH   2   3
ENDBRANCH   1   2
BRANCH   1   8
ATOM      8  C   UNL     1     -12.246  28.395  27.394  1.00  0.00     0.072 C 
BRANCH   8   9
ATOM      9  C   UNL     1     -10.933  29.131  27.748  1.00  0.00     0.227 C 
BRANCH   9  10
ATOM     10  N   UNL     1     -10.301  28.573  28.951  1.00  0.00    -0.350 N 
ATOM     11  H   UNL     1      -9.504  29.180  29.250  1.00  0.00     0.345 HD
ATOM     12  H   UNL     1      -9.945  27.606  28.769  1.00  0.00     0.345 HD
ATOM     13  H   UNL     1     -10.988  28.547  29.738  1.00  0.00     0.345 HD
ENDBRANCH   9  10
BRANCH   9  14
ATOM     14  C   UNL     1      -9.986  29.044  26.580  1.00  0.00     0.099 C 
ATOM     15  O   UNL     1      -9.535  27.928  26.212  1.00  0.00    -0.544 OA
ATOM     16  O   UNL     1      -9.577  30.199  25.922  1.00  0.00    -0.544 OA
ENDBRANCH   9  14
ENDBRANCH   8   9
ENDBRANCH   1   8
TORSDOF 7
ENDMDL
MODEL 9
REMARK VINA RESULT:    -4.320      2.753      4.257
REMARK INTER + INTRA:          -5.892
REMARK INTER:                  -5.483
REMARK INTRA:                  -0.409
REMARK UNBOUND:                -0.057
REMARK SMILES [NH3+]CCCC[C@@H]([NH3+])C(=O)[O-]
REMARK SMILES IDX 4 1 3 2 2 3 1 4 5 8 6 9 7 10 8 14 9 15 10 16
REMARK H PARENT 1 5 1 6 1 7 7 11 7 12 7 13
REMARK Flexibility Score: inf
ROOT
ATOM      1  C   UNL     1     -10.615  30.146  26.389  1.00  0.00     0.012 C 
ENDROOT
BRANCH   1   2
ATOM      2  C   UNL     1     -11.479  30.555  25.179  1.00  0.00     0.061 C 
BRANCH   2   3
ATOM      3  C   UNL     1     -12.064  29.378  24.376  1.00  0.00     0.258 C 
BRANCH   3   4
ATOM      4  N   UNL     1     -13.494  29.195  24.625  1.00  0.00    -0.358 N 
ATOM      5  H   UNL     1     -14.035  29.298  23.736  1.00  0.00     0.344 HD
ATOM      6  H   UNL     1     -13.831  29.885  25.332  1.00  0.00     0.344 HD
ATOM      7  H   UNL     1     -13.653  28.233  25.004  1.00  0.00     0.344 HD
ENDBRANCH   3   4
ENDBRANCH   2   3
ENDBRANCH   1   2
BRANCH   1   8
ATOM      8  C   UNL     1     -10.581  28.633  26.691  1.00  0.00     0.072 C 
BRANCH   8   9
ATOM      9  C   UNL     1     -10.790  28.264  28.178  1.00  0.00     0.227 C 
BRANCH   9  10
ATOM     10  N   UNL     1     -10.089  29.192  29.075  1.00  0.00    -0.350 N 
ATOM     11  H   UNL     1      -9.101  28.878  29.213  1.00  0.00     0.345 HD
ATOM     12  H   UNL     1     -10.565  29.241  30.006  1.00  0.00     0.345 HD
ATOM     13  H   UNL     1     -10.059  30.147  28.651  1.00  0.00     0.345 HD
ENDBRANCH   9  10
BRANCH   9  14
ATOM     14  C   UNL     1     -12.265  28.262  28.486  1.00  0.00     0.099 C 
ATOM     15  O   UNL     1     -13.106  28.214  27.551  1.00  0.00    -0.544 OA
ATOM     16  O   UNL     1     -12.706  28.350  29.801  1.00  0.00    -0.544 OA
ENDBRANCH   9  14
ENDBRANCH   8   9
ENDBRANCH   1   8
TORSDOF 7
ENDMDL
