MODEL 1
REMARK VINA RESULT:    -7.142      0.000      0.000
REMARK INTER + INTRA:          -8.711
REMARK INTER:                  -8.395
REMARK INTRA:                  -0.316
REMARK UNBOUND:                -0.316
REMARK SMILES O=c1c(O)c(-c2ccc(O)c(O)c2)oc2cc(O)ccc12
REMARK SMILES IDX 5 1 3 2 2 3 1 4 21 5 15 6 14 7 16 8 17 9 19 10 20 11 6 12
REMARK SMILES IDX 7 13 8 14 9 15 13 16 11 17 10 18 12 20 4 22 18 24
REMARK H PARENT 10 19 12 21 4 23 18 25
REMARK Flexibility Score: inf
ROOT
ATOM      1  C   UNL     1      18.853  26.943  30.347  1.00  0.00     0.180 A 
ATOM      2  C   UNL     1      18.906  26.975  31.755  1.00  0.00     0.208 A 
ATOM      3  C   UNL     1      18.389  25.888  32.477  1.00  0.00     0.235 A 
ATOM      4  O   UNL     1      18.434  25.890  33.738  1.00  0.00    -0.285 OA
ATOM      5  C   UNL     1      17.817  24.810  31.785  1.00  0.00     0.069 A 
ATOM      6  C   UNL     1      17.782  24.862  30.375  1.00  0.00     0.142 A 
ATOM      7  O   UNL     1      18.289  25.906  29.729  1.00  0.00    -0.452 OA
ATOM      8  C   UNL     1      17.211  23.811  29.650  1.00  0.00     0.094 A 
ATOM      9  C   UNL     1      16.677  22.703  30.314  1.00  0.00     0.119 A 
ATOM     10  C   UNL     1      16.712  22.646  31.714  1.00  0.00     0.047 A 
ATOM     11  C   UNL     1      17.278  23.692  32.449  1.00  0.00     0.020 A 
ENDROOT
BRANCH   1  12
ATOM     12  C   UNL     1      19.393  28.042  29.513  1.00  0.00     0.025 A 
ATOM     13  C   UNL     1      20.758  28.113  29.193  1.00  0.00     0.016 A 
ATOM     14  C   UNL     1      21.239  29.146  28.387  1.00  0.00     0.051 A 
ATOM     15  C   UNL     1      20.371  30.116  27.874  1.00  0.00     0.157 A 
ATOM     16  C   UNL     1      18.517  29.000  28.982  1.00  0.00     0.062 A 
ATOM     17  C   UNL     1      18.990  30.041  28.172  1.00  0.00     0.158 A 
BRANCH  15  18
ATOM     18  O   UNL     1      20.917  31.125  27.077  1.00  0.00    -0.504 OA
ATOM     19  H   UNL     1      20.459  32.004  26.886  1.00  0.00     0.293 HD
ENDBRANCH  15  18
BRANCH  17  20
ATOM     20  O   UNL     1      18.062  30.966  27.689  1.00  0.00    -0.504 OA
ATOM     21  H   UNL     1      17.652  31.698  28.249  1.00  0.00     0.293 HD
ENDBRANCH  17  20
ENDBRANCH   1  12
BRANCH   2  22
ATOM     22  O   UNL     1      19.436  28.086  32.418  1.00  0.00    -0.502 OA
ATOM     23  H   UNL     1      18.947  28.972  32.465  1.00  0.00     0.293 HD
ENDBRANCH   2  22
BRANCH   9  24
ATOM     24  O   UNL     1      16.113  21.664  29.577  1.00  0.00    -0.508 OA
ATOM     25  H   UNL     1      16.647  21.160  28.878  1.00  0.00     0.293 HD
ENDBRANCH   9  24
TORSDOF 5
ENDMDL
MODEL 2
REMARK VINA RESULT:    -7.084     14.267     17.184
REMARK INTER + INTRA:          -8.642
REMARK INTER:                  -8.424
REMARK INTRA:                  -0.218
REMARK UNBOUND:                -0.316
REMARK SMILES O=c1c(O)c(-c2ccc(O)c(O)c2)oc2cc(O)ccc12
REMARK SMILES IDX 5 1 3 2 2 3 1 4 21 5 15 6 14 7 16 8 17 9 19 10 20 11 6 12
REMARK SMILES IDX 7 13 8 14 9 15 13 16 11 17 10 18 12 20 4 22 18 24
REMARK H PARENT 10 19 12 21 4 23 18 25
REMARK Flexibility Score: inf
ROOT
ATOM      1  C   UNL     1       7.136  19.531  21.854  1.00  0.00     0.180 A 
ATOM      2  C   UNL     1       7.994  19.134  20.808  1.00  0.00     0.208 A 
ATOM      3  C   UNL     1       8.723  20.116  20.120  1.00  0.00     0.235 A 
ATOM      4  O   UNL     1       9.505  19.785  19.187  1.00  0.00    -0.285 OA
ATOM      5  C   UNL     1       8.567  21.465  20.474  1.00  0.00     0.069 A 
ATOM      6  C   UNL     1       7.671  21.784  21.518  1.00  0.00     0.142 A 
ATOM      7  O   UNL     1       7.007  20.823  22.149  1.00  0.00    -0.452 OA
ATOM      8  C   UNL     1       7.481  23.119  21.893  1.00  0.00     0.094 A 
ATOM      9  C   UNL     1       8.177  24.141  21.242  1.00  0.00     0.119 A 
ATOM     10  C   UNL     1       9.068  23.829  20.206  1.00  0.00     0.047 A 
ATOM     11  C   UNL     1       9.265  22.499  19.822  1.00  0.00     0.020 A 
ENDROOT
BRANCH   1  12
ATOM     12  C   UNL     1       6.348  18.554  22.639  1.00  0.00     0.025 A 
ATOM     13  C   UNL     1       6.969  17.645  23.510  1.00  0.00     0.016 A 
ATOM     14  C   UNL     1       6.202  16.749  24.257  1.00  0.00     0.051 A 
ATOM     15  C   UNL     1       4.806  16.750  24.162  1.00  0.00     0.157 A 
ATOM     16  C   UNL     1       4.947  18.572  22.558  1.00  0.00     0.062 A 
ATOM     17  C   UNL     1       4.169  17.677  23.304  1.00  0.00     0.158 A 
BRANCH  15  18
ATOM     18  O   UNL     1       4.099  15.825  24.933  1.00  0.00    -0.504 OA
ATOM     19  H   UNL     1       4.534  15.125  25.516  1.00  0.00     0.293 HD
ENDBRANCH  15  18
BRANCH  17  20
ATOM     20  O   UNL     1       2.781  17.744  23.163  1.00  0.00    -0.504 OA
ATOM     21  H   UNL     1       2.301  17.703  22.275  1.00  0.00     0.293 HD
ENDBRANCH  17  20
ENDBRANCH   1  12
BRANCH   2  22
ATOM     22  O   UNL     1       8.091  17.788  20.445  1.00  0.00    -0.502 OA
ATOM     23  H   UNL     1       7.921  17.469  19.499  1.00  0.00     0.293 HD
ENDBRANCH   2  22
BRANCH   9  24
ATOM     24  O   UNL     1       7.977  25.465  21.629  1.00  0.00    -0.508 OA
ATOM     25  H   UNL     1       8.461  25.863  22.425  1.00  0.00     0.293 HD
ENDBRANCH   9  24
TORSDOF 5
ENDMDL
MODEL 3
REMARK VINA RESULT:    -6.989      8.191     11.596
REMARK INTER + INTRA:          -8.530
REMARK INTER:                  -8.214
REMARK INTRA:                  -0.316
REMARK UNBOUND:                -0.316
REMARK SMILES O=c1c(O)c(-c2ccc(O)c(O)c2)oc2cc(O)ccc12
REMARK SMILES IDX 5 1 3 2 2 3 1 4 21 5 15 6 14 7 16 8 17 9 19 10 20 11 6 12
REMARK SMILES IDX 7 13 8 14 9 15 13 16 11 17 10 18 12 20 4 22 18 24
REMARK H PARENT 10 19 12 21 4 23 18 25
REMARK Flexibility Score: inf
ROOT
ATOM      1  C   UNL     1      15.177  17.392  32.461  1.00  0.00     0.180 A 
ATOM      2  C   UNL     1      15.905  17.923  33.545  1.00  0.00     0.208 A 
ATOM      3  C   UNL     1      15.684  19.257  33.920  1.00  0.00     0.235 A 
ATOM      4  O   UNL     1      16.317  19.752  34.894  1.00  0.00    -0.285 OA
ATOM      5  C   UNL     1      14.764  20.034  33.199  1.00  0.00     0.069 A 
ATOM      6  C   UNL     1      14.091  19.436  32.112  1.00  0.00     0.142 A 
ATOM      7  O   UNL     1      14.322  18.167  31.795  1.00  0.00    -0.452 OA
ATOM      8  C   UNL     1      13.172  20.180  31.363  1.00  0.00     0.094 A 
ATOM      9  C   UNL     1      12.914  21.515  31.687  1.00  0.00     0.119 A 
ATOM     10  C   UNL     1      13.580  22.112  32.767  1.00  0.00     0.047 A 
ATOM     11  C   UNL     1      14.500  21.378  33.521  1.00  0.00     0.020 A 
ENDROOT
BRANCH   1  12
ATOM     12  C   UNL     1      15.338  15.989  32.015  1.00  0.00     0.025 A 
ATOM     13  C   UNL     1      14.486  14.973  32.476  1.00  0.00     0.016 A 
ATOM     14  C   UNL     1      14.645  13.662  32.024  1.00  0.00     0.051 A 
ATOM     15  C   UNL     1      15.643  13.341  31.097  1.00  0.00     0.157 A 
ATOM     16  C   UNL     1      16.326  15.675  31.070  1.00  0.00     0.062 A 
ATOM     17  C   UNL     1      16.493  14.361  30.610  1.00  0.00     0.158 A 
BRANCH  15  18
ATOM     18  O   UNL     1      15.750  12.010  30.689  1.00  0.00    -0.504 OA
ATOM     19  H   UNL     1      14.979  11.358  30.678  1.00  0.00     0.293 HD
ENDBRANCH  15  18
BRANCH  17  20
ATOM     20  O   UNL     1      17.504  14.120  29.678  1.00  0.00    -0.504 OA
ATOM     21  H   UNL     1      18.400  14.586  29.684  1.00  0.00     0.293 HD
ENDBRANCH  17  20
ENDBRANCH   1  12
BRANCH   2  22
ATOM     22  O   UNL     1      16.852  17.141  34.212  1.00  0.00    -0.502 OA
ATOM     23  H   UNL     1      17.825  17.411  34.282  1.00  0.00     0.293 HD
ENDBRANCH   2  22
BRANCH   9  24
ATOM     24  O   UNL     1      11.997  22.241  30.931  1.00  0.00    -0.508 OA
ATOM     25  H   UNL     1      10.999  22.085  31.016  1.00  0.00     0.293 HD
ENDBRANCH   9  24
TORSDOF 5
ENDMDL
MODEL 4
REMARK VINA RESULT:    -6.951      5.977     11.034
REMARK INTER + INTRA:          -8.486
REMARK INTER:                  -8.163
REMARK INTRA:                  -0.323
REMARK UNBOUND:                -0.316
REMARK SMILES O=c1c(O)c(-c2ccc(O)c(O)c2)oc2cc(O)ccc12
REMARK SMILES IDX 5 1 3 2 2 3 1 4 21 5 15 6 14 7 16 8 17 9 19 10 20 11 6 12
REMARK SMILES IDX 7 13 8 14 9 15 13 16 11 17 10 18 12 20 4 22 18 24
REMARK H PARENT 10 19 12 21 4 23 18 25
REMARK Flexibility Score: inf
ROOT
ATOM      1  C   UNL     1      14.937  18.581  30.784  1.00  0.00     0.180 A 
ATOM      2  C   UNL     1      13.980  19.154  29.921  1.00  0.00     0.208 A 
ATOM      3  C   UNL     1      14.364  20.228  29.104  1.00  0.00     0.235 A 
ATOM      4  O   UNL     1      13.528  20.751  28.316  1.00  0.00    -0.285 OA
ATOM      5  C   UNL     1      15.677  20.717  29.177  1.00  0.00     0.069 A 
ATOM      6  C   UNL     1      16.570  20.104  30.082  1.00  0.00     0.142 A 
ATOM      7  O   UNL     1      16.170  19.083  30.833  1.00  0.00    -0.452 OA
ATOM      8  C   UNL     1      17.885  20.569  30.191  1.00  0.00     0.094 A 
ATOM      9  C   UNL     1      18.323  21.638  29.405  1.00  0.00     0.119 A 
ATOM     10  C   UNL     1      17.440  22.249  28.504  1.00  0.00     0.047 A 
ATOM     11  C   UNL     1      16.124  21.793  28.388  1.00  0.00     0.020 A 
ENDROOT
BRANCH   1  12
ATOM     12  C   UNL     1      14.617  17.433  31.664  1.00  0.00     0.025 A 
ATOM     13  C   UNL     1      14.814  16.110  31.240  1.00  0.00     0.016 A 
ATOM     14  C   UNL     1      14.526  15.046  32.097  1.00  0.00     0.051 A 
ATOM     15  C   UNL     1      14.050  15.279  33.392  1.00  0.00     0.157 A 
ATOM     16  C   UNL     1      14.161  17.671  32.970  1.00  0.00     0.062 A 
ATOM     17  C   UNL     1      13.869  16.609  33.837  1.00  0.00     0.158 A 
BRANCH  15  18
ATOM     18  O   UNL     1      13.778  14.170  34.197  1.00  0.00    -0.504 OA
ATOM     19  H   UNL     1      13.367  14.228  35.117  1.00  0.00     0.293 HD
ENDBRANCH  15  18
BRANCH  17  20
ATOM     20  O   UNL     1      13.408  16.921  35.117  1.00  0.00    -0.504 OA
ATOM     21  H   UNL     1      14.004  17.003  35.928  1.00  0.00     0.293 HD
ENDBRANCH  17  20
ENDBRANCH   1  12
BRANCH   2  22
ATOM     22  O   UNL     1      12.667  18.678  29.907  1.00  0.00    -0.502 OA
ATOM     23  H   UNL     1      12.450  17.688  29.910  1.00  0.00     0.293 HD
ENDBRANCH   2  22
BRANCH   9  24
ATOM     24  O   UNL     1      19.636  22.088  29.526  1.00  0.00    -0.508 OA
ATOM     25  H   UNL     1      20.140  22.470  28.734  1.00  0.00     0.293 HD
ENDBRANCH   9  24
TORSDOF 5
ENDMDL
MODEL 5
REMARK VINA RESULT:    -6.937      8.796     12.336
REMARK INTER + INTRA:          -8.470
REMARK INTER:                  -8.171
REMARK INTRA:                  -0.299
REMARK UNBOUND:                -0.316
REMARK SMILES O=c1c(O)c(-c2ccc(O)c(O)c2)oc2cc(O)ccc12
REMARK SMILES IDX 5 1 3 2 2 3 1 4 21 5 15 6 14 7 16 8 17 9 19 10 20 11 6 12
REMARK SMILES IDX 7 13 8 14 9 15 13 16 11 17 10 18 12 20 4 22 18 24
REMARK H PARENT 10 19 12 21 4 23 18 25
REMARK Flexibility Score: inf
ROOT
ATOM      1  C   UNL     1      14.340  17.126  32.421  1.00  0.00     0.180 A 
ATOM      2  C   UNL     1      14.777  18.067  33.376  1.00  0.00     0.208 A 
ATOM      3  C   UNL     1      14.401  19.410  33.223  1.00  0.00     0.235 A 
ATOM      4  O   UNL     1      14.772  20.269  34.070  1.00  0.00    -0.285 OA
ATOM      5  C   UNL     1      13.621  19.788  32.120  1.00  0.00     0.069 A 
ATOM      6  C   UNL     1      13.242  18.790  31.195  1.00  0.00     0.142 A 
ATOM      7  O   UNL     1      13.611  17.528  31.381  1.00  0.00    -0.452 OA
ATOM      8  C   UNL     1      12.471  19.128  30.077  1.00  0.00     0.094 A 
ATOM      9  C   UNL     1      12.071  20.451  29.870  1.00  0.00     0.119 A 
ATOM     10  C   UNL     1      12.444  21.444  30.786  1.00  0.00     0.047 A 
ATOM     11  C   UNL     1      13.214  21.118  31.906  1.00  0.00     0.020 A 
ENDROOT
BRANCH   1  12
ATOM     12  C   UNL     1      14.678  15.688  32.522  1.00  0.00     0.025 A 
ATOM     13  C   UNL     1      15.915  15.194  32.077  1.00  0.00     0.016 A 
ATOM     14  C   UNL     1      16.219  13.838  32.204  1.00  0.00     0.051 A 
ATOM     15  C   UNL     1      15.306  12.952  32.786  1.00  0.00     0.157 A 
ATOM     16  C   UNL     1      13.769  14.805  33.126  1.00  0.00     0.062 A 
ATOM     17  C   UNL     1      14.065  13.442  33.257  1.00  0.00     0.158 A 
BRANCH  15  18
ATOM     18  O   UNL     1      15.670  11.607  32.879  1.00  0.00    -0.504 OA
ATOM     19  H   UNL     1      15.862  11.017  32.083  1.00  0.00     0.293 HD
ENDBRANCH  15  18
BRANCH  17  20
ATOM     20  O   UNL     1      13.108  12.621  33.857  1.00  0.00    -0.504 OA
ATOM     21  H   UNL     1      12.562  11.933  33.359  1.00  0.00     0.293 HD
ENDBRANCH  17  20
ENDBRANCH   1  12
BRANCH   2  22
ATOM     22  O   UNL     1      15.595  17.670  34.437  1.00  0.00    -0.502 OA
ATOM     23  H   UNL     1      15.677  16.702  34.723  1.00  0.00     0.293 HD
ENDBRANCH   2  22
BRANCH   9  24
ATOM     24  O   UNL     1      11.303  20.770  28.752  1.00  0.00    -0.508 OA
ATOM     25  H   UNL     1      10.416  21.252  28.838  1.00  0.00     0.293 HD
ENDBRANCH   9  24
TORSDOF 5
ENDMDL
MODEL 6
REMARK VINA RESULT:    -6.865      7.822     12.080
REMARK INTER + INTRA:          -8.385
REMARK INTER:                  -8.076
REMARK INTRA:                  -0.309
REMARK UNBOUND:                -0.316
REMARK SMILES O=c1c(O)c(-c2ccc(O)c(O)c2)oc2cc(O)ccc12
REMARK SMILES IDX 5 1 3 2 2 3 1 4 21 5 15 6 14 7 16 8 17 9 19 10 20 11 6 12
REMARK SMILES IDX 7 13 8 14 9 15 13 16 11 17 10 18 12 20 4 22 18 24
REMARK H PARENT 10 19 12 21 4 23 18 25
REMARK Flexibility Score: inf
ROOT
ATOM      1  C   UNL     1      15.357  16.980  31.246  1.00  0.00     0.180 A 
ATOM      2  C   UNL     1      16.415  17.902  31.374  1.00  0.00     0.208 A 
ATOM      3  C   UNL     1      16.214  19.226  30.955  1.00  0.00     0.235 A 
ATOM      4  O   UNL     1      17.143  20.073  31.069  1.00  0.00    -0.285 OA
ATOM      5  C   UNL     1      14.978  19.594  30.402  1.00  0.00     0.069 A 
ATOM      6  C   UNL     1      13.975  18.607  30.287  1.00  0.00     0.142 A 
ATOM      7  O   UNL     1      14.204  17.367  30.704  1.00  0.00    -0.452 OA
ATOM      8  C   UNL     1      12.733  18.933  29.732  1.00  0.00     0.094 A 
ATOM      9  C   UNL     1      12.475  20.234  29.293  1.00  0.00     0.119 A 
ATOM     10  C   UNL     1      13.467  21.218  29.407  1.00  0.00     0.047 A 
ATOM     11  C   UNL     1      14.712  20.903  29.959  1.00  0.00     0.020 A 
ENDROOT
BRANCH   1  12
ATOM     12  C   UNL     1      15.484  15.570  31.682  1.00  0.00     0.025 A 
ATOM     13  C   UNL     1      15.023  15.149  32.940  1.00  0.00     0.016 A 
ATOM     14  C   UNL     1      15.134  13.811  33.319  1.00  0.00     0.051 A 
ATOM     15  C   UNL     1      15.691  12.865  32.451  1.00  0.00     0.157 A 
ATOM     16  C   UNL     1      16.023  14.620  30.801  1.00  0.00     0.062 A 
ATOM     17  C   UNL     1      16.138  13.274  31.173  1.00  0.00     0.158 A 
BRANCH  15  18
ATOM     18  O   UNL     1      15.775  11.543  32.893  1.00  0.00    -0.504 OA
ATOM     19  H   UNL     1      15.473  10.747  32.352  1.00  0.00     0.293 HD
ENDBRANCH  15  18
BRANCH  17  20
ATOM     20  O   UNL     1      16.696  12.388  30.249  1.00  0.00    -0.504 OA
ATOM     21  H   UNL     1      17.121  11.507  30.498  1.00  0.00     0.293 HD
ENDBRANCH  17  20
ENDBRANCH   1  12
BRANCH   2  22
ATOM     22  O   UNL     1      17.652  17.494  31.882  1.00  0.00    -0.502 OA
ATOM     23  H   UNL     1      18.283  16.902  31.357  1.00  0.00     0.293 HD
ENDBRANCH   2  22
BRANCH   9  24
ATOM     24  O   UNL     1      11.232  20.542  28.744  1.00  0.00    -0.508 OA
ATOM     25  H   UNL     1      11.145  20.924  27.810  1.00  0.00     0.293 HD
ENDBRANCH   9  24
TORSDOF 5
ENDMDL
MODEL 7
REMARK VINA RESULT:    -6.855      3.741      7.045
REMARK INTER + INTRA:          -8.373
REMARK INTER:                  -8.050
REMARK INTRA:                  -0.323
REMARK UNBOUND:                -0.316
REMARK SMILES O=c1c(O)c(-c2ccc(O)c(O)c2)oc2cc(O)ccc12
REMARK SMILES IDX 5 1 3 2 2 3 1 4 21 5 15 6 14 7 16 8 17 9 19 10 20 11 6 12
REMARK SMILES IDX 7 13 8 14 9 15 13 16 11 17 10 18 12 20 4 22 18 24
REMARK H PARENT 10 19 12 21 4 23 18 25
REMARK Flexibility Score: inf
ROOT
ATOM      1  C   UNL     1      16.204  21.162  29.502  1.00  0.00     0.180 A 
ATOM      2  C   UNL     1      15.212  21.135  28.500  1.00  0.00     0.208 A 
ATOM      3  C   UNL     1      14.397  19.998  28.385  1.00  0.00     0.235 A 
ATOM      4  O   UNL     1      13.496  19.954  27.503  1.00  0.00    -0.285 OA
ATOM      5  C   UNL     1      14.599  18.914  29.252  1.00  0.00     0.069 A 
ATOM      6  C   UNL     1      15.628  19.009  30.215  1.00  0.00     0.142 A 
ATOM      7  O   UNL     1      16.372  20.106  30.296  1.00  0.00    -0.452 OA
ATOM      8  C   UNL     1      15.866  17.945  31.092  1.00  0.00     0.094 A 
ATOM      9  C   UNL     1      15.089  16.785  31.022  1.00  0.00     0.119 A 
ATOM     10  C   UNL     1      14.066  16.687  30.069  1.00  0.00     0.047 A 
ATOM     11  C   UNL     1      13.820  17.744  29.188  1.00  0.00     0.020 A 
ENDROOT
BRANCH   1  12
ATOM     12  C   UNL     1      17.092  22.331  29.699  1.00  0.00     0.025 A 
ATOM     13  C   UNL     1      16.751  23.366  30.584  1.00  0.00     0.016 A 
ATOM     14  C   UNL     1      17.616  24.446  30.770  1.00  0.00     0.051 A 
ATOM     15  C   UNL     1      18.837  24.510  30.091  1.00  0.00     0.157 A 
ATOM     16  C   UNL     1      18.326  22.381  29.034  1.00  0.00     0.062 A 
ATOM     17  C   UNL     1      19.200  23.461  29.214  1.00  0.00     0.158 A 
BRANCH  15  18
ATOM     18  O   UNL     1      19.654  25.620  30.319  1.00  0.00    -0.504 OA
ATOM     19  H   UNL     1      19.717  26.102  31.204  1.00  0.00     0.293 HD
ENDBRANCH  15  18
BRANCH  17  20
ATOM     20  O   UNL     1      20.406  23.450  28.509  1.00  0.00    -0.504 OA
ATOM     21  H   UNL     1      20.602  22.829  27.738  1.00  0.00     0.293 HD
ENDBRANCH  17  20
ENDBRANCH   1  12
BRANCH   2  22
ATOM     22  O   UNL     1      15.068  22.210  27.618  1.00  0.00    -0.502 OA
ATOM     23  H   UNL     1      14.162  22.590  27.373  1.00  0.00     0.293 HD
ENDBRANCH   2  22
BRANCH   9  24
ATOM     24  O   UNL     1      15.339  15.735  31.903  1.00  0.00    -0.508 OA
ATOM     25  H   UNL     1      16.134  15.749  32.532  1.00  0.00     0.293 HD
ENDBRANCH   9  24
TORSDOF 5
ENDMDL
MODEL 8
REMARK VINA RESULT:    -6.828     13.625     15.891
REMARK INTER + INTRA:          -8.341
REMARK INTER:                  -8.174
REMARK INTRA:                  -0.167
REMARK UNBOUND:                -0.316
REMARK SMILES O=c1c(O)c(-c2ccc(O)c(O)c2)oc2cc(O)ccc12
REMARK SMILES IDX 5 1 3 2 2 3 1 4 21 5 15 6 14 7 16 8 17 9 19 10 20 11 6 12
REMARK SMILES IDX 7 13 8 14 9 15 13 16 11 17 10 18 12 20 4 22 18 24
REMARK H PARENT 10 19 12 21 4 23 18 25
REMARK Flexibility Score: inf
ROOT
ATOM      1  C   UNL     1       7.509  20.445  21.039  1.00  0.00     0.180 A 
ATOM      2  C   UNL     1       8.241  19.496  20.296  1.00  0.00     0.208 A 
ATOM      3  C   UNL     1       7.982  18.132  20.498  1.00  0.00     0.235 A 
ATOM      4  O   UNL     1       8.617  17.264  19.838  1.00  0.00    -0.285 OA
ATOM      5  C   UNL     1       7.020  17.745  21.443  1.00  0.00     0.069 A 
ATOM      6  C   UNL     1       6.345  18.754  22.164  1.00  0.00     0.142 A 
ATOM      7  O   UNL     1       6.615  20.035  21.936  1.00  0.00    -0.452 OA
ATOM      8  C   UNL     1       5.386  18.409  23.122  1.00  0.00     0.094 A 
ATOM      9  C   UNL     1       5.088  17.066  23.370  1.00  0.00     0.119 A 
ATOM     10  C   UNL     1       5.755  16.060  22.656  1.00  0.00     0.047 A 
ATOM     11  C   UNL     1       6.715  16.394  21.697  1.00  0.00     0.020 A 
ENDROOT
BRANCH   1  12
ATOM     12  C   UNL     1       7.711  21.902  20.870  1.00  0.00     0.025 A 
ATOM     13  C   UNL     1       7.440  22.541  19.650  1.00  0.00     0.016 A 
ATOM     14  C   UNL     1       7.616  23.920  19.523  1.00  0.00     0.051 A 
ATOM     15  C   UNL     1       8.051  24.689  20.608  1.00  0.00     0.157 A 
ATOM     16  C   UNL     1       8.126  22.673  21.967  1.00  0.00     0.062 A 
ATOM     17  C   UNL     1       8.306  24.058  21.848  1.00  0.00     0.158 A 
BRANCH  15  18
ATOM     18  O   UNL     1       8.211  26.062  20.413  1.00  0.00    -0.504 OA
ATOM     19  H   UNL     1       8.479  26.708  21.141  1.00  0.00     0.293 HD
ENDBRANCH  15  18
BRANCH  17  20
ATOM     20  O   UNL     1       8.733  24.759  22.978  1.00  0.00    -0.504 OA
ATOM     21  H   UNL     1       9.035  24.319  23.835  1.00  0.00     0.293 HD
ENDBRANCH  17  20
ENDBRANCH   1  12
BRANCH   2  22
ATOM     22  O   UNL     1       9.228  19.910  19.398  1.00  0.00    -0.502 OA
ATOM     23  H   UNL     1      10.108  20.306  19.706  1.00  0.00     0.293 HD
ENDBRANCH   2  22
BRANCH   9  24
ATOM     24  O   UNL     1       4.130  16.739  24.326  1.00  0.00    -0.508 OA
ATOM     25  H   UNL     1       4.077  17.227  25.213  1.00  0.00     0.293 HD
ENDBRANCH   9  24
TORSDOF 5
ENDMDL
MODEL 9
REMARK VINA RESULT:    -6.657      7.915     10.339
REMARK INTER + INTRA:          -8.140
REMARK INTER:                  -7.819
REMARK INTRA:                  -0.321
REMARK UNBOUND:                -0.316
REMARK SMILES O=c1c(O)c(-c2ccc(O)c(O)c2)oc2cc(O)ccc12
REMARK SMILES IDX 5 1 3 2 2 3 1 4 21 5 15 6 14 7 16 8 17 9 19 10 20 11 6 12
REMARK SMILES IDX 7 13 8 14 9 15 13 16 11 17 10 18 12 20 4 22 18 24
REMARK H PARENT 10 19 12 21 4 23 18 25
REMARK Flexibility Score: inf
ROOT
ATOM      1  C   UNL     1      14.415  17.917  31.314  1.00  0.00     0.180 A 
ATOM      2  C   UNL     1      14.467  18.115  32.710  1.00  0.00     0.208 A 
ATOM      3  C   UNL     1      14.752  17.018  33.538  1.00  0.00     0.235 A 
ATOM      4  O   UNL     1      14.814  17.172  34.789  1.00  0.00    -0.285 OA
ATOM      5  C   UNL     1      14.958  15.755  32.964  1.00  0.00     0.069 A 
ATOM      6  C   UNL     1      14.867  15.634  31.560  1.00  0.00     0.142 A 
ATOM      7  O   UNL     1      14.603  16.699  30.811  1.00  0.00    -0.452 OA
ATOM      8  C   UNL     1      15.057  14.389  30.951  1.00  0.00     0.094 A 
ATOM      9  C   UNL     1      15.340  13.260  31.725  1.00  0.00     0.119 A 
ATOM     10  C   UNL     1      15.432  13.376  33.119  1.00  0.00     0.047 A 
ATOM     11  C   UNL     1      15.243  14.615  33.738  1.00  0.00     0.020 A 
ENDROOT
BRANCH   1  12
ATOM     12  C   UNL     1      14.138  19.026  30.373  1.00  0.00     0.025 A 
ATOM     13  C   UNL     1      15.179  19.771  29.794  1.00  0.00     0.016 A 
ATOM     14  C   UNL     1      14.893  20.796  28.892  1.00  0.00     0.051 A 
ATOM     15  C   UNL     1      13.572  21.090  28.537  1.00  0.00     0.157 A 
ATOM     16  C   UNL     1      12.814  19.304  30.003  1.00  0.00     0.062 A 
ATOM     17  C   UNL     1      12.518  20.331  29.097  1.00  0.00     0.158 A 
BRANCH  15  18
ATOM     18  O   UNL     1      13.355  22.131  27.632  1.00  0.00    -0.504 OA
ATOM     19  H   UNL     1      13.725  23.063  27.744  1.00  0.00     0.293 HD
ENDBRANCH  15  18
BRANCH  17  20
ATOM     20  O   UNL     1      11.176  20.560  28.785  1.00  0.00    -0.504 OA
ATOM     21  H   UNL     1      10.579  19.883  28.333  1.00  0.00     0.293 HD
ENDBRANCH  17  20
ENDBRANCH   1  12
BRANCH   2  22
ATOM     22  O   UNL     1      14.208  19.375  33.256  1.00  0.00    -0.502 OA
ATOM     23  H   UNL     1      14.931  19.936  33.688  1.00  0.00     0.293 HD
ENDBRANCH   2  22
BRANCH   9  24
ATOM     24  O   UNL     1      15.527  12.028  31.102  1.00  0.00    -0.508 OA
ATOM     25  H   UNL     1      14.873  11.679  30.411  1.00  0.00     0.293 HD
ENDBRANCH   9  24
TORSDOF 5
ENDMDL
