MODEL 1
REMARK VINA RESULT:    -3.715      0.000      0.000
REMARK INTER + INTRA:         -10.926
REMARK INTER:                  -8.059
REMARK INTRA:                  -2.866
REMARK UNBOUND:                -2.866
REMARK SMILES CCCCCCCCCCCCCCCCCCCCCC(=O)[O-]
REMARK SMILES IDX 12 1 11 2 10 3 9 4 8 5 7 6 6 7 5 8 4 9 3 10 2 11 1 12 13 13
REMARK SMILES IDX 14 14 15 15 16 16 17 17 18 18 19 19 20 20 21 21 22 22 23 23
REMARK SMILES IDX 24 24
REMARK H PARENT
REMARK Flexibility Score: inf
ROOT
ATOM      1  C   UNL     1      61.681  30.012  60.805  1.00  0.00     0.000 C 
ENDROOT
BRANCH   1   2
ATOM      2  C   UNL     1      61.074  31.207  61.556  1.00  0.00     0.000 C 
BRANCH   2   3
ATOM      3  C   UNL     1      61.460  32.530  60.884  1.00  0.00     0.000 C 
BRANCH   3   4
ATOM      4  C   UNL     1      62.226  32.281  59.576  1.00  0.00    -0.000 C 
BRANCH   4   5
ATOM      5  C   UNL     1      63.569  33.027  59.524  1.00  0.00    -0.000 C 
BRANCH   5   6
ATOM      6  C   UNL     1      64.058  33.463  60.914  1.00  0.00    -0.000 C 
BRANCH   6   7
ATOM      7  C   UNL     1      64.442  34.950  60.917  1.00  0.00    -0.000 C 
BRANCH   7   8
ATOM      8  C   UNL     1      63.397  35.836  61.619  1.00  0.00    -0.000 C 
BRANCH   8   9
ATOM      9  C   UNL     1      62.479  36.634  60.672  1.00  0.00    -0.000 C 
BRANCH   9  10
ATOM     10  C   UNL     1      61.025  36.129  60.588  1.00  0.00    -0.000 C 
BRANCH  10  11
ATOM     11  C   UNL     1      60.585  35.654  59.193  1.00  0.00    -0.003 C 
ATOM     12  C   UNL     1      61.649  35.887  58.121  1.00  0.00     0.004 C 
ENDBRANCH  10  11
ENDBRANCH   9  10
ENDBRANCH   8   9
ENDBRANCH   7   8
ENDBRANCH   6   7
ENDBRANCH   5   6
ENDBRANCH   4   5
ENDBRANCH   3   4
ENDBRANCH   2   3
ENDBRANCH   1   2
BRANCH   1  13
ATOM     13  C   UNL     1      62.687  29.223  61.659  1.00  0.00     0.000 C 
BRANCH  13  14
ATOM     14  C   UNL     1      64.081  29.875  61.679  1.00  0.00     0.000 C 
BRANCH  14  15
ATOM     15  C   UNL     1      65.056  29.217  60.688  1.00  0.00     0.000 C 
BRANCH  15  16
ATOM     16  C   UNL     1      65.987  30.232  60.009  1.00  0.00     0.000 C 
BRANCH  16  17
ATOM     17  C   UNL     1      67.322  29.581  59.626  1.00  0.00     0.000 C 
BRANCH  17  18
ATOM     18  C   UNL     1      67.923  28.818  60.815  1.00  0.00     0.000 C 
BRANCH  18  19
ATOM     19  C   UNL     1      69.447  28.627  60.699  1.00  0.00     0.000 C 
BRANCH  19  20
ATOM     20  C   UNL     1      70.292  29.760  61.307  1.00  0.00     0.006 C 
BRANCH  20  21
ATOM     21  C   UNL     1      70.873  30.707  60.250  1.00  0.00     0.053 C 
BRANCH  21  22
ATOM     22  C   UNL     1      71.774  31.716  60.890  1.00  0.00     0.041 C 
ATOM     23  O   UNL     1      72.585  31.363  61.785  1.00  0.00    -0.550 OA
ATOM     24  O   UNL     1      71.684  33.056  60.534  1.00  0.00    -0.550 OA
ENDBRANCH  21  22
ENDBRANCH  20  21
ENDBRANCH  19  20
ENDBRANCH  18  19
ENDBRANCH  17  18
ENDBRANCH  16  17
ENDBRANCH  15  16
ENDBRANCH  14  15
ENDBRANCH  13  14
ENDBRANCH   1  13
TORSDOF 20
ENDMDL
MODEL 2
REMARK VINA RESULT:    -3.569      1.572      3.892
REMARK INTER + INTRA:         -10.608
REMARK INTER:                  -7.316
REMARK INTRA:                  -3.291
REMARK UNBOUND:                -2.866
REMARK SMILES CCCCCCCCCCCCCCCCCCCCCC(=O)[O-]
REMARK SMILES IDX 12 1 11 2 10 3 9 4 8 5 7 6 6 7 5 8 4 9 3 10 2 11 1 12 13 13
REMARK SMILES IDX 14 14 15 15 16 16 17 17 18 18 19 19 20 20 21 21 22 22 23 23
REMARK SMILES IDX 24 24
REMARK H PARENT
REMARK Flexibility Score: inf
ROOT
ATOM      1  C   UNL     1      66.129  29.490  58.052  1.00  0.00     0.000 C 
ENDROOT
BRANCH   1   2
ATOM      2  C   UNL     1      66.342  30.654  59.031  1.00  0.00     0.000 C 
BRANCH   2   3
ATOM      3  C   UNL     1      65.283  30.640  60.140  1.00  0.00     0.000 C 
BRANCH   3   4
ATOM      4  C   UNL     1      64.210  29.575  59.862  1.00  0.00    -0.000 C 
BRANCH   4   5
ATOM      5  C   UNL     1      63.640  28.960  61.150  1.00  0.00    -0.000 C 
BRANCH   5   6
ATOM      6  C   UNL     1      62.673  29.904  61.880  1.00  0.00    -0.000 C 
BRANCH   6   7
ATOM      7  C   UNL     1      61.683  30.542  60.895  1.00  0.00    -0.000 C 
BRANCH   7   8
ATOM      8  C   UNL     1      61.450  32.039  61.166  1.00  0.00    -0.000 C 
BRANCH   8   9
ATOM      9  C   UNL     1      62.324  32.996  60.331  1.00  0.00    -0.000 C 
BRANCH   9  10
ATOM     10  C   UNL     1      63.525  33.607  61.079  1.00  0.00    -0.000 C 
BRANCH  10  11
ATOM     11  C   UNL     1      63.521  35.143  61.161  1.00  0.00    -0.003 C 
ATOM     12  C   UNL     1      64.676  35.698  61.994  1.00  0.00     0.004 C 
ENDBRANCH  10  11
ENDBRANCH   9  10
ENDBRANCH   8   9
ENDBRANCH   7   8
ENDBRANCH   6   7
ENDBRANCH   5   6
ENDBRANCH   4   5
ENDBRANCH   3   4
ENDBRANCH   2   3
ENDBRANCH   1   2
BRANCH   1  13
ATOM     13  C   UNL     1      67.450  28.908  57.524  1.00  0.00     0.000 C 
BRANCH  13  14
ATOM     14  C   UNL     1      67.640  27.430  57.910  1.00  0.00     0.000 C 
BRANCH  14  15
ATOM     15  C   UNL     1      66.363  26.804  58.497  1.00  0.00     0.000 C 
BRANCH  15  16
ATOM     16  C   UNL     1      66.540  26.349  59.953  1.00  0.00     0.000 C 
BRANCH  16  17
ATOM     17  C   UNL     1      67.790  26.981  60.578  1.00  0.00     0.000 C 
BRANCH  17  18
ATOM     18  C   UNL     1      67.410  28.113  61.544  1.00  0.00     0.000 C 
BRANCH  18  19
ATOM     19  C   UNL     1      68.565  29.099  61.799  1.00  0.00     0.000 C 
BRANCH  19  20
ATOM     20  C   UNL     1      69.658  29.113  60.716  1.00  0.00     0.006 C 
BRANCH  20  21
ATOM     21  C   UNL     1      70.876  29.961  61.106  1.00  0.00     0.053 C 
BRANCH  21  22
ATOM     22  C   UNL     1      70.896  31.238  60.325  1.00  0.00     0.041 C 
ATOM     23  O   UNL     1      70.248  31.332  59.250  1.00  0.00    -0.550 OA
ATOM     24  O   UNL     1      71.669  32.306  60.758  1.00  0.00    -0.550 OA
ENDBRANCH  21  22
ENDBRANCH  20  21
ENDBRANCH  19  20
ENDBRANCH  18  19
ENDBRANCH  17  18
ENDBRANCH  16  17
ENDBRANCH  15  16
ENDBRANCH  14  15
ENDBRANCH  13  14
ENDBRANCH   1  13
TORSDOF 20
ENDMDL
MODEL 3
REMARK VINA RESULT:    -3.451     11.206     13.043
REMARK INTER + INTRA:         -10.353
REMARK INTER:                  -7.212
REMARK INTRA:                  -3.141
REMARK UNBOUND:                -2.866
REMARK SMILES CCCCCCCCCCCCCCCCCCCCCC(=O)[O-]
REMARK SMILES IDX 12 1 11 2 10 3 9 4 8 5 7 6 6 7 5 8 4 9 3 10 2 11 1 12 13 13
REMARK SMILES IDX 14 14 15 15 16 16 17 17 18 18 19 19 20 20 21 21 22 22 23 23
REMARK SMILES IDX 24 24
REMARK H PARENT
REMARK Flexibility Score: inf
ROOT
ATOM      1  C   UNL     1      59.307  27.702  49.205  1.00  0.00     0.000 C 
ENDROOT
BRANCH   1   2
ATOM      2  C   UNL     1      58.494  28.930  49.642  1.00  0.00     0.000 C 
BRANCH   2   3
ATOM      3  C   UNL     1      58.975  29.452  51.001  1.00  0.00     0.000 C 
BRANCH   3   4
ATOM      4  C   UNL     1      58.031  29.004  52.128  1.00  0.00    -0.000 C 
BRANCH   4   5
ATOM      5  C   UNL     1      58.652  27.923  53.026  1.00  0.00    -0.000 C 
BRANCH   5   6
ATOM      6  C   UNL     1      57.764  26.677  53.156  1.00  0.00    -0.000 C 
BRANCH   6   7
ATOM      7  C   UNL     1      57.666  25.933  51.816  1.00  0.00    -0.000 C 
BRANCH   7   8
ATOM      8  C   UNL     1      56.214  25.742  51.343  1.00  0.00    -0.000 C 
BRANCH   8   9
ATOM      9  C   UNL     1      55.868  26.434  50.009  1.00  0.00    -0.000 C 
BRANCH   9  10
ATOM     10  C   UNL     1      54.363  26.521  49.687  1.00  0.00    -0.000 C 
BRANCH  10  11
ATOM     11  C   UNL     1      53.765  27.936  49.771  1.00  0.00    -0.003 C 
ATOM     12  C   UNL     1      54.674  28.924  50.501  1.00  0.00     0.004 C 
ENDBRANCH  10  11
ENDBRANCH   9  10
ENDBRANCH   8   9
ENDBRANCH   7   8
ENDBRANCH   6   7
ENDBRANCH   5   6
ENDBRANCH   4   5
ENDBRANCH   3   4
ENDBRANCH   2   3
ENDBRANCH   1   2
BRANCH   1  13
ATOM     13  C   UNL     1      60.816  27.875  49.436  1.00  0.00     0.000 C 
BRANCH  13  14
ATOM     14  C   UNL     1      61.479  26.601  49.989  1.00  0.00     0.000 C 
BRANCH  14  15
ATOM     15  C   UNL     1      62.974  26.514  49.642  1.00  0.00     0.000 C 
BRANCH  15  16
ATOM     16  C   UNL     1      63.430  27.631  48.691  1.00  0.00     0.000 C 
BRANCH  16  17
ATOM     17  C   UNL     1      64.645  28.374  49.259  1.00  0.00     0.000 C 
BRANCH  17  18
ATOM     18  C   UNL     1      64.320  29.854  49.504  1.00  0.00     0.000 C 
BRANCH  18  19
ATOM     19  C   UNL     1      63.618  30.101  50.852  1.00  0.00     0.000 C 
BRANCH  19  20
ATOM     20  C   UNL     1      62.365  30.991  50.779  1.00  0.00     0.006 C 
BRANCH  20  21
ATOM     21  C   UNL     1      62.226  31.718  49.435  1.00  0.00     0.053 C 
BRANCH  21  22
ATOM     22  C   UNL     1      62.558  33.170  49.590  1.00  0.00     0.041 C 
ATOM     23  O   UNL     1      61.785  34.049  49.128  1.00  0.00    -0.550 OA
ATOM     24  O   UNL     1      63.747  33.550  50.199  1.00  0.00    -0.550 OA
ENDBRANCH  21  22
ENDBRANCH  20  21
ENDBRANCH  19  20
ENDBRANCH  18  19
ENDBRANCH  17  18
ENDBRANCH  16  17
ENDBRANCH  15  16
ENDBRANCH  14  15
ENDBRANCH  13  14
ENDBRANCH   1  13
TORSDOF 20
ENDMDL
MODEL 4
REMARK VINA RESULT:    -3.406      4.796      8.119
REMARK INTER + INTRA:         -10.255
REMARK INTER:                  -6.713
REMARK INTRA:                  -3.541
REMARK UNBOUND:                -2.866
REMARK SMILES CCCCCCCCCCCCCCCCCCCCCC(=O)[O-]
REMARK SMILES IDX 12 1 11 2 10 3 9 4 8 5 7 6 6 7 5 8 4 9 3 10 2 11 1 12 13 13
REMARK SMILES IDX 14 14 15 15 16 16 17 17 18 18 19 19 20 20 21 21 22 22 23 23
REMARK SMILES IDX 24 24
REMARK H PARENT
REMARK Flexibility Score: inf
ROOT
ATOM      1  C   UNL     1      61.096  31.616  60.700  1.00  0.00     0.000 C 
ENDROOT
BRANCH   1   2
ATOM      2  C   UNL     1      61.274  30.924  62.060  1.00  0.00     0.000 C 
BRANCH   2   3
ATOM      3  C   UNL     1      62.211  29.716  61.942  1.00  0.00     0.000 C 
BRANCH   3   4
ATOM      4  C   UNL     1      63.663  30.165  61.723  1.00  0.00    -0.000 C 
BRANCH   4   5
ATOM      5  C   UNL     1      64.227  29.708  60.368  1.00  0.00    -0.000 C 
BRANCH   5   6
ATOM      6  C   UNL     1      63.423  28.553  59.751  1.00  0.00    -0.000 C 
BRANCH   6   7
ATOM      7  C   UNL     1      62.727  29.001  58.458  1.00  0.00    -0.000 C 
BRANCH   7   8
ATOM      8  C   UNL     1      61.414  28.244  58.192  1.00  0.00    -0.000 C 
BRANCH   8   9
ATOM      9  C   UNL     1      60.134  28.990  58.619  1.00  0.00    -0.000 C 
BRANCH   9  10
ATOM     10  C   UNL     1      59.051  28.112  59.276  1.00  0.00    -0.000 C 
BRANCH  10  11
ATOM     11  C   UNL     1      59.107  28.056  60.812  1.00  0.00    -0.003 C 
ATOM     12  C   UNL     1      59.952  26.895  61.335  1.00  0.00     0.004 C 
ENDBRANCH  10  11
ENDBRANCH   9  10
ENDBRANCH   8   9
ENDBRANCH   7   8
ENDBRANCH   6   7
ENDBRANCH   5   6
ENDBRANCH   4   5
ENDBRANCH   3   4
ENDBRANCH   2   3
ENDBRANCH   1   2
BRANCH   1  13
ATOM     13  C   UNL     1      61.702  33.028  60.668  1.00  0.00     0.000 C 
BRANCH  13  14
ATOM     14  C   UNL     1      62.798  33.175  59.598  1.00  0.00     0.000 C 
BRANCH  14  15
ATOM     15  C   UNL     1      64.192  33.403  60.207  1.00  0.00     0.000 C 
BRANCH  15  16
ATOM     16  C   UNL     1      64.172  34.397  61.378  1.00  0.00     0.000 C 
BRANCH  16  17
ATOM     17  C   UNL     1      64.410  35.830  60.885  1.00  0.00     0.000 C 
BRANCH  17  18
ATOM     18  C   UNL     1      63.494  36.822  61.616  1.00  0.00     0.000 C 
BRANCH  18  19
ATOM     19  C   UNL     1      62.004  36.625  61.278  1.00  0.00     0.000 C 
BRANCH  19  20
ATOM     20  C   UNL     1      61.663  36.695  59.779  1.00  0.00     0.006 C 
BRANCH  20  21
ATOM     21  C   UNL     1      60.175  36.460  59.493  1.00  0.00     0.053 C 
BRANCH  21  22
ATOM     22  C   UNL     1      59.999  35.758  58.182  1.00  0.00     0.041 C 
ATOM     23  O   UNL     1      59.756  34.524  58.152  1.00  0.00    -0.550 OA
ATOM     24  O   UNL     1      60.154  36.458  56.992  1.00  0.00    -0.550 OA
ENDBRANCH  21  22
ENDBRANCH  20  21
ENDBRANCH  19  20
ENDBRANCH  18  19
ENDBRANCH  17  18
ENDBRANCH  16  17
ENDBRANCH  15  16
ENDBRANCH  14  15
ENDBRANCH  13  14
ENDBRANCH   1  13
TORSDOF 20
ENDMDL
MODEL 5
REMARK VINA RESULT:    -3.377      3.742      8.484
REMARK INTER + INTRA:         -10.192
REMARK INTER:                  -7.356
REMARK INTRA:                  -2.835
REMARK UNBOUND:                -2.866
REMARK SMILES CCCCCCCCCCCCCCCCCCCCCC(=O)[O-]
REMARK SMILES IDX 12 1 11 2 10 3 9 4 8 5 7 6 6 7 5 8 4 9 3 10 2 11 1 12 13 13
REMARK SMILES IDX 14 14 15 15 16 16 17 17 18 18 19 19 20 20 21 21 22 22 23 23
REMARK SMILES IDX 24 24
REMARK H PARENT
REMARK Flexibility Score: inf
ROOT
ATOM      1  C   UNL     1      65.348  28.470  60.878  1.00  0.00     0.000 C 
ENDROOT
BRANCH   1   2
ATOM      2  C   UNL     1      66.754  27.850  60.904  1.00  0.00     0.000 C 
BRANCH   2   3
ATOM      3  C   UNL     1      67.667  28.604  61.878  1.00  0.00     0.000 C 
BRANCH   3   4
ATOM      4  C   UNL     1      69.025  28.917  61.229  1.00  0.00    -0.000 C 
BRANCH   4   5
ATOM      5  C   UNL     1      68.972  28.866  59.694  1.00  0.00    -0.000 C 
BRANCH   5   6
ATOM      6  C   UNL     1      68.984  30.263  59.054  1.00  0.00    -0.000 C 
BRANCH   6   7
ATOM      7  C   UNL     1      70.094  30.372  57.998  1.00  0.00    -0.000 C 
BRANCH   7   8
ATOM      8  C   UNL     1      71.263  31.266  58.448  1.00  0.00    -0.000 C 
BRANCH   8   9
ATOM      9  C   UNL     1      70.998  32.092  59.722  1.00  0.00    -0.000 C 
BRANCH   9  10
ATOM     10  C   UNL     1      72.095  32.003  60.801  1.00  0.00    -0.000 C 
BRANCH  10  11
ATOM     11  C   UNL     1      72.042  30.738  61.674  1.00  0.00    -0.003 C 
ATOM     12  C   UNL     1      73.017  29.655  61.213  1.00  0.00     0.004 C 
ENDBRANCH  10  11
ENDBRANCH   9  10
ENDBRANCH   8   9
ENDBRANCH   7   8
ENDBRANCH   6   7
ENDBRANCH   5   6
ENDBRANCH   4   5
ENDBRANCH   3   4
ENDBRANCH   2   3
ENDBRANCH   1   2
BRANCH   1  13
ATOM     13  C   UNL     1      65.375  30.007  60.894  1.00  0.00     0.000 C 
BRANCH  13  14
ATOM     14  C   UNL     1      65.202  30.614  59.491  1.00  0.00     0.000 C 
BRANCH  14  15
ATOM     15  C   UNL     1      64.671  32.056  59.532  1.00  0.00     0.000 C 
BRANCH  15  16
ATOM     16  C   UNL     1      64.173  32.466  60.927  1.00  0.00     0.000 C 
BRANCH  16  17
ATOM     17  C   UNL     1      62.772  33.086  60.849  1.00  0.00     0.000 C 
BRANCH  17  18
ATOM     18  C   UNL     1      61.728  32.037  60.440  1.00  0.00     0.000 C 
BRANCH  18  19
ATOM     19  C   UNL     1      61.260  31.163  61.619  1.00  0.00     0.000 C 
BRANCH  19  20
ATOM     20  C   UNL     1      61.887  29.759  61.675  1.00  0.00     0.006 C 
BRANCH  20  21
ATOM     21  C   UNL     1      61.037  28.695  60.968  1.00  0.00     0.053 C 
BRANCH  21  22
ATOM     22  C   UNL     1      61.633  28.346  59.641  1.00  0.00     0.041 C 
ATOM     23  O   UNL     1      61.362  29.037  58.624  1.00  0.00    -0.550 OA
ATOM     24  O   UNL     1      62.449  27.229  59.516  1.00  0.00    -0.550 OA
ENDBRANCH  21  22
ENDBRANCH  20  21
ENDBRANCH  19  20
ENDBRANCH  18  19
ENDBRANCH  17  18
ENDBRANCH  16  17
ENDBRANCH  15  16
ENDBRANCH  14  15
ENDBRANCH  13  14
ENDBRANCH   1  13
TORSDOF 20
ENDMDL
MODEL 6
REMARK VINA RESULT:    -3.372     11.758     14.233
REMARK INTER + INTRA:         -10.181
REMARK INTER:                  -6.926
REMARK INTRA:                  -3.255
REMARK UNBOUND:                -2.866
REMARK SMILES CCCCCCCCCCCCCCCCCCCCCC(=O)[O-]
REMARK SMILES IDX 12 1 11 2 10 3 9 4 8 5 7 6 6 7 5 8 4 9 3 10 2 11 1 12 13 13
REMARK SMILES IDX 14 14 15 15 16 16 17 17 18 18 19 19 20 20 21 21 22 22 23 23
REMARK SMILES IDX 24 24
REMARK H PARENT
REMARK Flexibility Score: inf
ROOT
ATOM      1  C   UNL     1      58.763  28.773  49.868  1.00  0.00     0.000 C 
ENDROOT
BRANCH   1   2
ATOM      2  C   UNL     1      59.192  29.585  51.099  1.00  0.00     0.000 C 
BRANCH   2   3
ATOM      3  C   UNL     1      58.801  28.864  52.395  1.00  0.00     0.000 C 
BRANCH   3   4
ATOM      4  C   UNL     1      59.999  28.104  52.985  1.00  0.00    -0.000 C 
BRANCH   4   5
ATOM      5  C   UNL     1      61.339  28.801  52.703  1.00  0.00    -0.000 C 
BRANCH   5   6
ATOM      6  C   UNL     1      62.389  27.850  52.109  1.00  0.00    -0.000 C 
BRANCH   6   7
ATOM      7  C   UNL     1      63.544  28.638  51.474  1.00  0.00    -0.000 C 
BRANCH   7   8
ATOM      8  C   UNL     1      63.179  29.236  50.104  1.00  0.00    -0.000 C 
BRANCH   8   9
ATOM      9  C   UNL     1      63.363  30.762  49.990  1.00  0.00    -0.000 C 
BRANCH   9  10
ATOM     10  C   UNL     1      62.059  31.569  49.833  1.00  0.00    -0.000 C 
BRANCH  10  11
ATOM     11  C   UNL     1      62.242  33.097  49.828  1.00  0.00    -0.003 C 
ATOM     12  C   UNL     1      62.190  33.699  48.425  1.00  0.00     0.004 C 
ENDBRANCH  10  11
ENDBRANCH   9  10
ENDBRANCH   8   9
ENDBRANCH   7   8
ENDBRANCH   6   7
ENDBRANCH   5   6
ENDBRANCH   4   5
ENDBRANCH   3   4
ENDBRANCH   2   3
ENDBRANCH   1   2
BRANCH   1  13
ATOM     13  C   UNL     1      59.945  28.076  49.175  1.00  0.00     0.000 C 
BRANCH  13  14
ATOM     14  C   UNL     1      60.080  26.598  49.584  1.00  0.00     0.000 C 
BRANCH  14  15
ATOM     15  C   UNL     1      58.730  25.861  49.588  1.00  0.00     0.000 C 
BRANCH  15  16
ATOM     16  C   UNL     1      58.307  25.404  50.993  1.00  0.00     0.000 C 
BRANCH  16  17
ATOM     17  C   UNL     1      56.835  25.741  51.259  1.00  0.00     0.000 C 
BRANCH  17  18
ATOM     18  C   UNL     1      56.144  26.239  49.981  1.00  0.00     0.000 C 
BRANCH  18  19
ATOM     19  C   UNL     1      54.612  26.310  50.114  1.00  0.00     0.000 C 
BRANCH  19  20
ATOM     20  C   UNL     1      54.011  27.718  49.959  1.00  0.00     0.006 C 
BRANCH  20  21
ATOM     21  C   UNL     1      54.929  28.824  50.496  1.00  0.00     0.053 C 
BRANCH  21  22
ATOM     22  C   UNL     1      54.154  29.780  51.347  1.00  0.00     0.041 C 
ATOM     23  O   UNL     1      53.035  30.207  50.960  1.00  0.00    -0.550 OA
ATOM     24  O   UNL     1      54.690  30.239  52.543  1.00  0.00    -0.550 OA
ENDBRANCH  21  22
ENDBRANCH  20  21
ENDBRANCH  19  20
ENDBRANCH  18  19
ENDBRANCH  17  18
ENDBRANCH  16  17
ENDBRANCH  15  16
ENDBRANCH  14  15
ENDBRANCH  13  14
ENDBRANCH   1  13
TORSDOF 20
ENDMDL
MODEL 7
REMARK VINA RESULT:    -3.370      5.114      6.595
REMARK INTER + INTRA:         -10.178
REMARK INTER:                  -6.306
REMARK INTRA:                  -3.872
REMARK UNBOUND:                -2.866
REMARK SMILES CCCCCCCCCCCCCCCCCCCCCC(=O)[O-]
REMARK SMILES IDX 12 1 11 2 10 3 9 4 8 5 7 6 6 7 5 8 4 9 3 10 2 11 1 12 13 13
REMARK SMILES IDX 14 14 15 15 16 16 17 17 18 18 19 19 20 20 21 21 22 22 23 23
REMARK SMILES IDX 24 24
REMARK H PARENT
REMARK Flexibility Score: inf
ROOT
ATOM      1  C   UNL     1      60.393  31.173  59.022  1.00  0.00     0.000 C 
ENDROOT
BRANCH   1   2
ATOM      2  C   UNL     1      61.351  31.053  57.827  1.00  0.00     0.000 C 
BRANCH   2   3
ATOM      3  C   UNL     1      61.636  32.428  57.211  1.00  0.00     0.000 C 
BRANCH   3   4
ATOM      4  C   UNL     1      63.128  32.779  57.315  1.00  0.00    -0.000 C 
BRANCH   4   5
ATOM      5  C   UNL     1      63.968  31.629  57.893  1.00  0.00    -0.000 C 
BRANCH   5   6
ATOM      6  C   UNL     1      64.894  32.085  59.030  1.00  0.00    -0.000 C 
BRANCH   6   7
ATOM      7  C   UNL     1      64.549  33.512  59.479  1.00  0.00    -0.000 C 
BRANCH   7   8
ATOM      8  C   UNL     1      64.130  33.590  60.958  1.00  0.00    -0.000 C 
BRANCH   8   9
ATOM      9  C   UNL     1      64.353  34.961  61.626  1.00  0.00    -0.000 C 
BRANCH   9  10
ATOM     10  C   UNL     1      63.375  36.070  61.189  1.00  0.00    -0.000 C 
BRANCH  10  11
ATOM     11  C   UNL     1      61.938  35.593  60.918  1.00  0.00    -0.003 C 
ATOM     12  C   UNL     1      61.419  36.017  59.545  1.00  0.00     0.004 C 
ENDBRANCH  10  11
ENDBRANCH   9  10
ENDBRANCH   8   9
ENDBRANCH   7   8
ENDBRANCH   6   7
ENDBRANCH   5   6
ENDBRANCH   4   5
ENDBRANCH   3   4
ENDBRANCH   2   3
ENDBRANCH   1   2
BRANCH   1  13
ATOM     13  C   UNL     1      60.746  32.346  59.950  1.00  0.00     0.000 C 
BRANCH  13  14
ATOM     14  C   UNL     1      61.099  31.884  61.375  1.00  0.00     0.000 C 
BRANCH  14  15
ATOM     15  C   UNL     1      61.037  30.356  61.533  1.00  0.00     0.000 C 
BRANCH  15  16
ATOM     16  C   UNL     1      62.363  29.755  62.023  1.00  0.00     0.000 C 
BRANCH  16  17
ATOM     17  C   UNL     1      63.294  29.445  60.844  1.00  0.00     0.000 C 
BRANCH  17  18
ATOM     18  C   UNL     1      63.179  27.972  60.425  1.00  0.00     0.000 C 
BRANCH  18  19
ATOM     19  C   UNL     1      62.335  27.774  59.151  1.00  0.00     0.000 C 
BRANCH  19  20
ATOM     20  C   UNL     1      60.889  27.308  59.397  1.00  0.00     0.006 C 
BRANCH  20  21
ATOM     21  C   UNL     1      60.712  26.589  60.740  1.00  0.00     0.053 C 
BRANCH  21  22
ATOM     22  C   UNL     1      59.395  26.947  61.355  1.00  0.00     0.041 C 
ATOM     23  O   UNL     1      58.970  26.313  62.356  1.00  0.00    -0.550 OA
ATOM     24  O   UNL     1      58.612  27.947  60.791  1.00  0.00    -0.550 OA
ENDBRANCH  21  22
ENDBRANCH  20  21
ENDBRANCH  19  20
ENDBRANCH  18  19
ENDBRANCH  17  18
ENDBRANCH  16  17
ENDBRANCH  15  16
ENDBRANCH  14  15
ENDBRANCH  13  14
ENDBRANCH   1  13
TORSDOF 20
ENDMDL
MODEL 8
REMARK VINA RESULT:    -3.343      2.901      4.952
REMARK INTER + INTRA:         -10.119
REMARK INTER:                  -7.009
REMARK INTRA:                  -3.109
REMARK UNBOUND:                -2.866
REMARK SMILES CCCCCCCCCCCCCCCCCCCCCC(=O)[O-]
REMARK SMILES IDX 12 1 11 2 10 3 9 4 8 5 7 6 6 7 5 8 4 9 3 10 2 11 1 12 13 13
REMARK SMILES IDX 14 14 15 15 16 16 17 17 18 18 19 19 20 20 21 21 22 22 23 23
REMARK SMILES IDX 24 24
REMARK H PARENT
REMARK Flexibility Score: inf
ROOT
ATOM      1  C   UNL     1      63.401  32.720  60.491  1.00  0.00     0.000 C 
ENDROOT
BRANCH   1   2
ATOM      2  C   UNL     1      64.106  34.074  60.324  1.00  0.00     0.000 C 
BRANCH   2   3
ATOM      3  C   UNL     1      64.409  34.707  61.688  1.00  0.00     0.000 C 
BRANCH   3   4
ATOM      4  C   UNL     1      64.238  36.233  61.637  1.00  0.00    -0.000 C 
BRANCH   4   5
ATOM      5  C   UNL     1      63.206  36.678  60.588  1.00  0.00    -0.000 C 
BRANCH   5   6
ATOM      6  C   UNL     1      61.843  37.024  61.206  1.00  0.00    -0.000 C 
BRANCH   6   7
ATOM      7  C   UNL     1      60.711  36.274  60.489  1.00  0.00    -0.000 C 
BRANCH   7   8
ATOM      8  C   UNL     1      61.019  36.001  59.006  1.00  0.00    -0.000 C 
BRANCH   8   9
ATOM      9  C   UNL     1      60.279  34.793  58.399  1.00  0.00    -0.000 C 
BRANCH   9  10
ATOM     10  C   UNL     1      60.813  34.315  57.035  1.00  0.00    -0.000 C 
BRANCH  10  11
ATOM     11  C   UNL     1      61.818  33.152  57.106  1.00  0.00    -0.003 C 
ATOM     12  C   UNL     1      63.251  33.583  56.795  1.00  0.00     0.004 C 
ENDBRANCH  10  11
ENDBRANCH   9  10
ENDBRANCH   8   9
ENDBRANCH   7   8
ENDBRANCH   6   7
ENDBRANCH   5   6
ENDBRANCH   4   5
ENDBRANCH   3   4
ENDBRANCH   2   3
ENDBRANCH   1   2
BRANCH   1  13
ATOM     13  C   UNL     1      61.914  32.865  60.852  1.00  0.00     0.000 C 
BRANCH  13  14
ATOM     14  C   UNL     1      61.304  31.551  61.373  1.00  0.00     0.000 C 
BRANCH  14  15
ATOM     15  C   UNL     1      61.135  30.498  60.265  1.00  0.00     0.000 C 
BRANCH  15  16
ATOM     16  C   UNL     1      60.379  29.249  60.743  1.00  0.00     0.000 C 
BRANCH  16  17
ATOM     17  C   UNL     1      61.125  27.969  60.342  1.00  0.00     0.000 C 
BRANCH  17  18
ATOM     18  C   UNL     1      61.601  27.198  61.581  1.00  0.00     0.000 C 
BRANCH  18  19
ATOM     19  C   UNL     1      63.135  27.118  61.686  1.00  0.00     0.000 C 
BRANCH  19  20
ATOM     20  C   UNL     1      63.902  28.006  60.690  1.00  0.00     0.006 C 
BRANCH  20  21
ATOM     21  C   UNL     1      64.461  29.282  61.334  1.00  0.00     0.053 C 
BRANCH  21  22
ATOM     22  C   UNL     1      65.842  29.561  60.828  1.00  0.00     0.041 C 
ATOM     23  O   UNL     1      66.839  29.027  61.381  1.00  0.00    -0.550 OA
ATOM     24  O   UNL     1      66.032  30.449  59.777  1.00  0.00    -0.550 OA
ENDBRANCH  21  22
ENDBRANCH  20  21
ENDBRANCH  19  20
ENDBRANCH  18  19
ENDBRANCH  17  18
ENDBRANCH  16  17
ENDBRANCH  15  16
ENDBRANCH  14  15
ENDBRANCH  13  14
ENDBRANCH   1  13
TORSDOF 20
ENDMDL
MODEL 9
REMARK VINA RESULT:    -3.309     11.572     13.392
REMARK INTER + INTRA:         -10.044
REMARK INTER:                  -6.214
REMARK INTRA:                  -3.829
REMARK UNBOUND:                -2.866
REMARK SMILES CCCCCCCCCCCCCCCCCCCCCC(=O)[O-]
REMARK SMILES IDX 12 1 11 2 10 3 9 4 8 5 7 6 6 7 5 8 4 9 3 10 2 11 1 12 13 13
REMARK SMILES IDX 14 14 15 15 16 16 17 17 18 18 19 19 20 20 21 21 22 22 23 23
REMARK SMILES IDX 24 24
REMARK H PARENT
REMARK Flexibility Score: inf
ROOT
ATOM      1  C   UNL     1      55.768  25.877  49.577  1.00  0.00     0.000 C 
ENDROOT
BRANCH   1   2
ATOM      2  C   UNL     1      54.258  25.924  49.297  1.00  0.00     0.000 C 
BRANCH   2   3
ATOM      3  C   UNL     1      53.538  26.816  50.316  1.00  0.00     0.000 C 
BRANCH   3   4
ATOM      4  C   UNL     1      53.113  28.147  49.679  1.00  0.00    -0.000 C 
BRANCH   4   5
ATOM      5  C   UNL     1      53.703  29.366  50.405  1.00  0.00    -0.000 C 
BRANCH   5   6
ATOM      6  C   UNL     1      54.031  29.079  51.878  1.00  0.00    -0.000 C 
BRANCH   6   7
ATOM      7  C   UNL     1      54.758  30.269  52.520  1.00  0.00    -0.000 C 
BRANCH   7   8
ATOM      8  C   UNL     1      56.003  29.849  53.320  1.00  0.00    -0.000 C 
BRANCH   8   9
ATOM      9  C   UNL     1      57.270  30.681  53.036  1.00  0.00    -0.000 C 
BRANCH   9  10
ATOM     10  C   UNL     1      58.603  29.931  53.224  1.00  0.00    -0.000 C 
BRANCH  10  11
ATOM     11  C   UNL     1      59.797  30.534  52.464  1.00  0.00    -0.003 C 
ATOM     12  C   UNL     1      61.125  30.345  53.196  1.00  0.00     0.004 C 
ENDBRANCH  10  11
ENDBRANCH   9  10
ENDBRANCH   8   9
ENDBRANCH   7   8
ENDBRANCH   6   7
ENDBRANCH   5   6
ENDBRANCH   4   5
ENDBRANCH   3   4
ENDBRANCH   2   3
ENDBRANCH   1   2
BRANCH   1  13
ATOM     13  C   UNL     1      56.123  26.340  50.999  1.00  0.00     0.000 C 
BRANCH  13  14
ATOM     14  C   UNL     1      57.349  27.270  51.028  1.00  0.00     0.000 C 
BRANCH  14  15
ATOM     15  C   UNL     1      57.226  28.441  50.038  1.00  0.00     0.000 C 
BRANCH  15  16
ATOM     16  C   UNL     1      58.585  28.905  49.495  1.00  0.00     0.000 C 
BRANCH  16  17
ATOM     17  C   UNL     1      59.550  27.722  49.346  1.00  0.00     0.000 C 
BRANCH  17  18
ATOM     18  C   UNL     1      60.997  28.153  49.628  1.00  0.00     0.000 C 
BRANCH  18  19
ATOM     19  C   UNL     1      61.611  27.435  50.845  1.00  0.00     0.000 C 
BRANCH  19  20
ATOM     20  C   UNL     1      60.591  26.882  51.856  1.00  0.00     0.006 C 
BRANCH  20  21
ATOM     21  C   UNL     1      60.746  25.375  52.098  1.00  0.00     0.053 C 
BRANCH  21  22
ATOM     22  C   UNL     1      59.610  24.859  52.925  1.00  0.00     0.041 C 
ATOM     23  O   UNL     1      59.589  25.062  54.167  1.00  0.00    -0.550 OA
ATOM     24  O   UNL     1      58.602  24.111  52.333  1.00  0.00    -0.550 OA
ENDBRANCH  21  22
ENDBRANCH  20  21
ENDBRANCH  19  20
ENDBRANCH  18  19
ENDBRANCH  17  18
ENDBRANCH  16  17
ENDBRANCH  15  16
ENDBRANCH  14  15
ENDBRANCH  13  14
ENDBRANCH   1  13
TORSDOF 20
ENDMDL
