MODEL 1
REMARK VINA RESULT:    -3.513      0.000      0.000
REMARK INTER + INTRA:          -3.616
REMARK INTER:                  -3.616
REMARK INTRA:                   0.000
REMARK UNBOUND:                 0.000
REMARK SMILES Oc1ccc2[nH]ccc2c1
REMARK SMILES IDX 3 1 4 2 5 3 9 4 8 5 7 6 6 7 10 8 2 9 1 11
REMARK H PARENT 6 10 1 12
REMARK Flexibility Score: inf
ROOT
ATOM      1  C   UNL     1     119.959 108.763 116.868  1.00  0.00     0.048 A 
ATOM      2  C   UNL     1     120.445 108.467 115.581  1.00  0.00     0.030 A 
ATOM      3  C   UNL     1     121.678 107.826 115.483  1.00  0.00     0.046 A 
ATOM      4  C   UNL     1     122.405 107.489 116.594  1.00  0.00     0.003 A 
ATOM      5  C   UNL     1     123.561 106.877 116.161  1.00  0.00     0.028 A 
ATOM      6  C   UNL     1     123.472 106.875 114.771  1.00  0.00     0.083 A 
ATOM      7  N   UNL     1     122.320 107.456 114.363  1.00  0.00    -0.361 N 
ATOM      8  C   UNL     1     121.952 107.768 117.881  1.00  0.00     0.056 A 
ATOM      9  C   UNL     1     120.707 108.416 118.017  1.00  0.00     0.116 A 
ATOM     10  H   UNL     1     122.000 107.588 113.378  1.00  0.00     0.166 HD
ENDROOT
BRANCH   9  11
ATOM     11  O   UNL     1     120.202 108.720 119.279  1.00  0.00    -0.508 OA
ATOM     12  H   UNL     1     119.998 107.994 119.956  1.00  0.00     0.293 HD
ENDBRANCH   9  11
TORSDOF 1
ENDMDL
MODEL 2
REMARK VINA RESULT:    -3.492     19.072     20.049
REMARK INTER + INTRA:          -3.594
REMARK INTER:                  -3.594
REMARK INTRA:                   0.000
REMARK UNBOUND:                 0.000
REMARK SMILES Oc1ccc2[nH]ccc2c1
REMARK SMILES IDX 3 1 4 2 5 3 9 4 8 5 7 6 6 7 10 8 2 9 1 11
REMARK H PARENT 6 10 1 12
REMARK Flexibility Score: inf
ROOT
ATOM      1  C   UNL     1     111.939 125.303 114.879  1.00  0.00     0.048 A 
ATOM      2  C   UNL     1     112.901 124.550 115.576  1.00  0.00     0.030 A 
ATOM      3  C   UNL     1     112.865 124.580 116.969  1.00  0.00     0.046 A 
ATOM      4  C   UNL     1     111.931 125.314 117.650  1.00  0.00     0.003 A 
ATOM      5  C   UNL     1     112.164 125.133 118.996  1.00  0.00     0.028 A 
ATOM      6  C   UNL     1     113.259 124.274 119.062  1.00  0.00     0.083 A 
ATOM      7  N   UNL     1     113.683 123.940 117.821  1.00  0.00    -0.361 N 
ATOM      8  C   UNL     1     110.965 126.070 116.990  1.00  0.00     0.056 A 
ATOM      9  C   UNL     1     110.973 126.062 115.579  1.00  0.00     0.116 A 
ATOM     10  H   UNL     1     114.483 123.313 117.580  1.00  0.00     0.166 HD
ENDROOT
BRANCH   9  11
ATOM     11  O   UNL     1     110.032 126.799 114.864  1.00  0.00    -0.508 OA
ATOM     12  H   UNL     1     110.299 127.366 114.067  1.00  0.00     0.293 HD
ENDBRANCH   9  11
TORSDOF 1
ENDMDL
MODEL 3
REMARK VINA RESULT:    -3.410      2.282      3.642
REMARK INTER + INTRA:          -3.510
REMARK INTER:                  -3.510
REMARK INTRA:                   0.000
REMARK UNBOUND:                 0.000
REMARK SMILES Oc1ccc2[nH]ccc2c1
REMARK SMILES IDX 3 1 4 2 5 3 9 4 8 5 7 6 6 7 10 8 2 9 1 11
REMARK H PARENT 6 10 1 12
REMARK Flexibility Score: inf
ROOT
ATOM      1  C   UNL     1     121.692 107.620 115.267  1.00  0.00     0.048 A 
ATOM      2  C   UNL     1     122.416 107.266 116.420  1.00  0.00     0.030 A 
ATOM      3  C   UNL     1     121.913 107.675 117.654  1.00  0.00     0.046 A 
ATOM      4  C   UNL     1     120.755 108.398 117.756  1.00  0.00     0.003 A 
ATOM      5  C   UNL     1     120.537 108.641 119.094  1.00  0.00     0.028 A 
ATOM      6  C   UNL     1     121.604 108.035 119.752  1.00  0.00     0.083 A 
ATOM      7  N   UNL     1     122.441 107.447 118.867  1.00  0.00    -0.361 N 
ATOM      8  C   UNL     1     120.015 108.765 116.634  1.00  0.00     0.056 A 
ATOM      9  C   UNL     1     120.495 108.366 115.369  1.00  0.00     0.116 A 
ATOM     10  H   UNL     1     123.318 106.924 119.087  1.00  0.00     0.166 HD
ENDROOT
BRANCH   9  11
ATOM     11  O   UNL     1     119.798 108.703 114.211  1.00  0.00    -0.508 OA
ATOM     12  H   UNL     1     118.822 108.459 114.091  1.00  0.00     0.293 HD
ENDBRANCH   9  11
TORSDOF 1
ENDMDL
MODEL 4
REMARK VINA RESULT:    -3.401     13.617     14.061
REMARK INTER + INTRA:          -3.500
REMARK INTER:                  -3.500
REMARK INTRA:                   0.000
REMARK UNBOUND:                 0.000
REMARK SMILES Oc1ccc2[nH]ccc2c1
REMARK SMILES IDX 3 1 4 2 5 3 9 4 8 5 7 6 6 7 10 8 2 9 1 11
REMARK H PARENT 6 10 1 12
REMARK Flexibility Score: inf
ROOT
ATOM      1  C   UNL     1     125.258 121.453 115.303  1.00  0.00     0.048 A 
ATOM      2  C   UNL     1     124.424 120.441 115.814  1.00  0.00     0.030 A 
ATOM      3  C   UNL     1     124.311 120.330 117.199  1.00  0.00     0.046 A 
ATOM      4  C   UNL     1     124.984 121.170 118.046  1.00  0.00     0.003 A 
ATOM      5  C   UNL     1     124.663 120.801 119.334  1.00  0.00     0.028 A 
ATOM      6  C   UNL     1     123.788 119.727 119.196  1.00  0.00     0.083 A 
ATOM      7  N   UNL     1     123.577 119.444 117.890  1.00  0.00    -0.361 N 
ATOM      8  C   UNL     1     125.817 122.181 117.571  1.00  0.00     0.056 A 
ATOM      9  C   UNL     1     125.954 122.322 116.175  1.00  0.00     0.116 A 
ATOM     10  H   UNL     1     122.967 118.689 117.503  1.00  0.00     0.166 HD
ENDROOT
BRANCH   9  11
ATOM     11  O   UNL     1     126.773 123.314 115.642  1.00  0.00    -0.508 OA
ATOM     12  H   UNL     1     127.769 123.333 115.825  1.00  0.00     0.293 HD
ENDBRANCH   9  11
TORSDOF 1
ENDMDL
MODEL 5
REMARK VINA RESULT:    -3.393      2.613      4.208
REMARK INTER + INTRA:          -3.493
REMARK INTER:                  -3.493
REMARK INTRA:                   0.000
REMARK UNBOUND:                 0.000
REMARK SMILES Oc1ccc2[nH]ccc2c1
REMARK SMILES IDX 3 1 4 2 5 3 9 4 8 5 7 6 6 7 10 8 2 9 1 11
REMARK H PARENT 6 10 1 12
REMARK Flexibility Score: inf
ROOT
ATOM      1  C   UNL     1     122.437 106.988 116.733  1.00  0.00     0.048 A 
ATOM      2  C   UNL     1     122.107 107.200 118.084  1.00  0.00     0.030 A 
ATOM      3  C   UNL     1     121.077 108.095 118.369  1.00  0.00     0.046 A 
ATOM      4  C   UNL     1     120.401 108.755 117.377  1.00  0.00     0.003 A 
ATOM      5  C   UNL     1     119.458 109.555 117.982  1.00  0.00     0.028 A 
ATOM      6  C   UNL     1     119.615 109.333 119.347  1.00  0.00     0.083 A 
ATOM      7  N   UNL     1     120.605 108.440 119.578  1.00  0.00    -0.361 N 
ATOM      8  C   UNL     1     120.705 108.568 116.030  1.00  0.00     0.056 A 
ATOM      9  C   UNL     1     121.742 107.668 115.707  1.00  0.00     0.116 A 
ATOM     10  H   UNL     1     120.933 108.094 120.507  1.00  0.00     0.166 HD
ENDROOT
BRANCH   9  11
ATOM     11  O   UNL     1     122.090 107.440 114.377  1.00  0.00    -0.508 OA
ATOM     12  H   UNL     1     122.035 106.514 113.968  1.00  0.00     0.293 HD
ENDBRANCH   9  11
TORSDOF 1
ENDMDL
MODEL 6
REMARK VINA RESULT:    -3.358     14.186     14.475
REMARK INTER + INTRA:          -3.457
REMARK INTER:                  -3.457
REMARK INTRA:                   0.000
REMARK UNBOUND:                 0.000
REMARK SMILES Oc1ccc2[nH]ccc2c1
REMARK SMILES IDX 3 1 4 2 5 3 9 4 8 5 7 6 6 7 10 8 2 9 1 11
REMARK H PARENT 6 10 1 12
REMARK Flexibility Score: inf
ROOT
ATOM      1  C   UNL     1     124.308 120.094 117.359  1.00  0.00     0.048 A 
ATOM      2  C   UNL     1     124.569 120.582 116.066  1.00  0.00     0.030 A 
ATOM      3  C   UNL     1     125.310 121.756 115.952  1.00  0.00     0.046 A 
ATOM      4  C   UNL     1     125.775 122.425 117.053  1.00  0.00     0.003 A 
ATOM      5  C   UNL     1     126.460 123.533 116.604  1.00  0.00     0.028 A 
ATOM      6  C   UNL     1     126.374 123.476 115.216  1.00  0.00     0.083 A 
ATOM      7  N   UNL     1     125.670 122.389 114.823  1.00  0.00    -0.361 N 
ATOM      8  C   UNL     1     125.532 121.969 118.346  1.00  0.00     0.056 A 
ATOM      9  C   UNL     1     124.786 120.782 118.498  1.00  0.00     0.116 A 
ATOM     10  H   UNL     1     125.453 122.104 113.841  1.00  0.00     0.166 HD
ENDROOT
BRANCH   9  11
ATOM     11  O   UNL     1     124.512 120.277 119.767  1.00  0.00    -0.508 OA
ATOM     12  H   UNL     1     124.238 119.311 119.904  1.00  0.00     0.293 HD
ENDBRANCH   9  11
TORSDOF 1
ENDMDL
MODEL 7
REMARK VINA RESULT:    -3.335     14.333     14.712
REMARK INTER + INTRA:          -3.433
REMARK INTER:                  -3.433
REMARK INTRA:                   0.000
REMARK UNBOUND:                 0.000
REMARK SMILES Oc1ccc2[nH]ccc2c1
REMARK SMILES IDX 3 1 4 2 5 3 9 4 8 5 7 6 6 7 10 8 2 9 1 11
REMARK H PARENT 6 10 1 12
REMARK Flexibility Score: inf
ROOT
ATOM      1  C   UNL     1     107.547 111.312 115.240  1.00  0.00     0.048 A 
ATOM      2  C   UNL     1     107.152 110.593 116.383  1.00  0.00     0.030 A 
ATOM      3  C   UNL     1     107.519 111.100 117.629  1.00  0.00     0.046 A 
ATOM      4  C   UNL     1     108.241 112.257 117.751  1.00  0.00     0.003 A 
ATOM      5  C   UNL     1     108.438 112.480 119.096  1.00  0.00     0.028 A 
ATOM      6  C   UNL     1     107.807 111.417 119.737  1.00  0.00     0.083 A 
ATOM      7  N   UNL     1     107.248 110.577 118.836  1.00  0.00    -0.361 N 
ATOM      8  C   UNL     1     108.648 112.991 116.639  1.00  0.00     0.056 A 
ATOM      9  C   UNL     1     108.292 112.507 115.363  1.00  0.00     0.116 A 
ATOM     10  H   UNL     1     106.715 109.702 119.041  1.00  0.00     0.166 HD
ENDROOT
BRANCH   9  11
ATOM     11  O   UNL     1     108.671 113.199 114.215  1.00  0.00    -0.508 OA
ATOM     12  H   UNL     1     108.017 113.364 113.458  1.00  0.00     0.293 HD
ENDBRANCH   9  11
TORSDOF 1
ENDMDL
MODEL 8
REMARK VINA RESULT:    -3.328      2.613      3.635
REMARK INTER + INTRA:          -3.426
REMARK INTER:                  -3.426
REMARK INTRA:                   0.000
REMARK UNBOUND:                 0.000
REMARK SMILES Oc1ccc2[nH]ccc2c1
REMARK SMILES IDX 3 1 4 2 5 3 9 4 8 5 7 6 6 7 10 8 2 9 1 11
REMARK H PARENT 6 10 1 12
REMARK Flexibility Score: inf
ROOT
ATOM      1  C   UNL     1     120.742 108.459 115.607  1.00  0.00     0.048 A 
ATOM      2  C   UNL     1     120.148 108.883 116.809  1.00  0.00     0.030 A 
ATOM      3  C   UNL     1     120.657 108.371 118.002  1.00  0.00     0.046 A 
ATOM      4  C   UNL     1     121.700 107.484 118.018  1.00  0.00     0.003 A 
ATOM      5  C   UNL     1     121.960 107.176 119.335  1.00  0.00     0.028 A 
ATOM      6  C   UNL     1     121.034 107.912 120.069  1.00  0.00     0.083 A 
ATOM      7  N   UNL     1     120.241 108.641 119.250  1.00  0.00    -0.361 N 
ATOM      8  C   UNL     1     122.310 107.045 116.845  1.00  0.00     0.056 A 
ATOM      9  C   UNL     1     121.820 107.543 115.620  1.00  0.00     0.116 A 
ATOM     10  H   UNL     1     119.465 109.280 119.534  1.00  0.00     0.166 HD
ENDROOT
BRANCH   9  11
ATOM     11  O   UNL     1     122.389 107.140 114.415  1.00  0.00    -0.508 OA
ATOM     12  H   UNL     1     121.960 107.368 113.525  1.00  0.00     0.293 HD
ENDBRANCH   9  11
TORSDOF 1
ENDMDL
MODEL 9
REMARK VINA RESULT:    -3.318     13.973     14.440
REMARK INTER + INTRA:          -3.415
REMARK INTER:                  -3.415
REMARK INTRA:                   0.000
REMARK UNBOUND:                 0.000
REMARK SMILES Oc1ccc2[nH]ccc2c1
REMARK SMILES IDX 3 1 4 2 5 3 9 4 8 5 7 6 6 7 10 8 2 9 1 11
REMARK H PARENT 6 10 1 12
REMARK Flexibility Score: inf
ROOT
ATOM      1  C   UNL     1     125.545 121.863 115.468  1.00  0.00     0.048 A 
ATOM      2  C   UNL     1     125.980 122.607 116.580  1.00  0.00     0.030 A 
ATOM      3  C   UNL     1     125.631 122.144 117.848  1.00  0.00     0.046 A 
ATOM      4  C   UNL     1     124.890 121.005 118.021  1.00  0.00     0.003 A 
ATOM      5  C   UNL     1     124.720 120.826 119.376  1.00  0.00     0.028 A 
ATOM      6  C   UNL     1     125.385 121.895 119.970  1.00  0.00     0.083 A 
ATOM      7  N   UNL     1     125.939 122.697 119.032  1.00  0.00    -0.361 N 
ATOM      8  C   UNL     1     124.445 120.247 116.941  1.00  0.00     0.056 A 
ATOM      9  C   UNL     1     124.780 120.686 115.643  1.00  0.00     0.116 A 
ATOM     10  H   UNL     1     126.493 123.567 119.199  1.00  0.00     0.166 HD
ENDROOT
BRANCH   9  11
ATOM     11  O   UNL     1     124.363 119.969 114.524  1.00  0.00    -0.508 OA
ATOM     12  H   UNL     1     123.582 119.325 114.571  1.00  0.00     0.293 HD
ENDBRANCH   9  11
TORSDOF 1
ENDMDL
