MODEL 1
REMARK VINA RESULT:    -3.204      0.000      0.000
REMARK INTER + INTRA:          -3.950
REMARK INTER:                  -3.766
REMARK INTRA:                  -0.184
REMARK UNBOUND:                -0.184
REMARK SMILES O=C([O-])CCC(=O)[O-]
REMARK SMILES IDX 4 1 2 2 1 3 3 4 5 5 6 6 7 7 8 8
REMARK H PARENT
REMARK Flexibility Score: inf
ROOT
ATOM      1  C   UNL     1     140.612 136.027 118.216  1.00  0.00     0.059 C 
ENDROOT
BRANCH   1   2
ATOM      2  C   UNL     1     140.137 134.892 119.070  1.00  0.00     0.042 C 
ATOM      3  O   UNL     1     140.060 133.728 118.594  1.00  0.00    -0.550 OA
ATOM      4  O   UNL     1     139.743 135.127 120.381  1.00  0.00    -0.550 OA
ENDBRANCH   1   2
BRANCH   1   5
ATOM      5  C   UNL     1     139.569 137.147 118.138  1.00  0.00     0.059 C 
BRANCH   5   6
ATOM      6  C   UNL     1     138.314 136.688 117.461  1.00  0.00     0.042 C 
ATOM      7  O   UNL     1     137.195 136.875 118.007  1.00  0.00    -0.550 OA
ATOM      8  O   UNL     1     138.378 136.090 116.209  1.00  0.00    -0.550 OA
ENDBRANCH   5   6
ENDBRANCH   1   5
TORSDOF 3
ENDMDL
MODEL 2
REMARK VINA RESULT:    -3.197      0.120      3.530
REMARK INTER + INTRA:          -3.941
REMARK INTER:                  -3.752
REMARK INTRA:                  -0.189
REMARK UNBOUND:                -0.184
REMARK SMILES O=C([O-])CCC(=O)[O-]
REMARK SMILES IDX 4 1 2 2 1 3 3 4 5 5 6 6 7 7 8 8
REMARK H PARENT
REMARK Flexibility Score: inf
ROOT
ATOM      1  C   UNL     1     139.566 137.145 118.131  1.00  0.00     0.059 C 
ENDROOT
BRANCH   1   2
ATOM      2  C   UNL     1     138.302 136.677 117.478  1.00  0.00     0.042 C 
ATOM      3  O   UNL     1     137.209 136.726 118.102  1.00  0.00    -0.550 OA
ATOM      4  O   UNL     1     138.337 136.150 116.193  1.00  0.00    -0.550 OA
ENDBRANCH   1   2
BRANCH   1   5
ATOM      5  C   UNL     1     140.629 136.040 118.156  1.00  0.00     0.059 C 
BRANCH   5   6
ATOM      6  C   UNL     1     140.178 134.858 118.959  1.00  0.00     0.042 C 
ATOM      7  O   UNL     1     140.168 133.709 118.445  1.00  0.00    -0.550 OA
ATOM      8  O   UNL     1     139.811 135.020 120.289  1.00  0.00    -0.550 OA
ENDBRANCH   5   6
ENDBRANCH   1   5
TORSDOF 3
ENDMDL
MODEL 3
REMARK VINA RESULT:    -3.139     11.134     11.851
REMARK INTER + INTRA:          -3.874
REMARK INTER:                  -3.692
REMARK INTRA:                  -0.182
REMARK UNBOUND:                -0.184
REMARK SMILES O=C([O-])CCC(=O)[O-]
REMARK SMILES IDX 4 1 2 2 1 3 3 4 5 5 6 6 7 7 8 8
REMARK H PARENT
REMARK Flexibility Score: inf
ROOT
ATOM      1  C   UNL     1     131.964 125.189 118.432  1.00  0.00     0.059 C 
ENDROOT
BRANCH   1   2
ATOM      2  C   UNL     1     131.484 126.116 119.506  1.00  0.00     0.042 C 
ATOM      3  O   UNL     1     132.025 126.105 120.643  1.00  0.00    -0.550 OA
ATOM      4  O   UNL     1     130.412 126.966 119.262  1.00  0.00    -0.550 OA
ENDBRANCH   1   2
BRANCH   1   5
ATOM      5  C   UNL     1     133.421 125.476 118.051  1.00  0.00     0.059 C 
BRANCH   5   6
ATOM      6  C   UNL     1     133.575 126.835 117.439  1.00  0.00     0.042 C 
ATOM      7  O   UNL     1     132.931 127.139 116.402  1.00  0.00    -0.550 OA
ATOM      8  O   UNL     1     134.399 127.779 118.040  1.00  0.00    -0.550 OA
ENDBRANCH   5   6
ENDBRANCH   1   5
TORSDOF 3
ENDMDL
MODEL 4
REMARK VINA RESULT:    -3.135     11.201     11.894
REMARK INTER + INTRA:          -3.868
REMARK INTER:                  -3.691
REMARK INTRA:                  -0.177
REMARK UNBOUND:                -0.184
REMARK SMILES O=C([O-])CCC(=O)[O-]
REMARK SMILES IDX 4 1 2 2 1 3 3 4 5 5 6 6 7 7 8 8
REMARK H PARENT
REMARK Flexibility Score: inf
ROOT
ATOM      1  C   UNL     1     133.370 125.521 118.144  1.00  0.00     0.059 C 
ENDROOT
BRANCH   1   2
ATOM      2  C   UNL     1     133.600 126.851 117.494  1.00  0.00     0.042 C 
ATOM      3  O   UNL     1     133.158 127.076 116.336  1.00  0.00    -0.550 OA
ATOM      4  O   UNL     1     134.337 127.828 118.152  1.00  0.00    -0.550 OA
ENDBRANCH   1   2
BRANCH   1   5
ATOM      5  C   UNL     1     131.876 125.192 118.240  1.00  0.00     0.059 C 
BRANCH   5   6
ATOM      6  C   UNL     1     131.138 126.208 119.058  1.00  0.00     0.042 C 
ATOM      7  O   UNL     1     130.188 126.861 118.551  1.00  0.00    -0.550 OA
ATOM      8  O   UNL     1     131.473 126.404 120.392  1.00  0.00    -0.550 OA
ENDBRANCH   5   6
ENDBRANCH   1   5
TORSDOF 3
ENDMDL
MODEL 5
REMARK VINA RESULT:    -3.127     11.104     11.876
REMARK INTER + INTRA:          -3.860
REMARK INTER:                  -3.670
REMARK INTRA:                  -0.190
REMARK UNBOUND:                -0.184
REMARK SMILES O=C([O-])CCC(=O)[O-]
REMARK SMILES IDX 4 1 2 2 1 3 3 4 5 5 6 6 7 7 8 8
REMARK H PARENT
REMARK Flexibility Score: inf
ROOT
ATOM      1  C   UNL     1     126.399 136.732 118.177  1.00  0.00     0.059 C 
ENDROOT
BRANCH   1   2
ATOM      2  C   UNL     1     127.438 135.857 117.545  1.00  0.00     0.042 C 
ATOM      3  O   UNL     1     127.882 134.852 118.161  1.00  0.00    -0.550 OA
ATOM      4  O   UNL     1     127.945 136.174 116.291  1.00  0.00    -0.550 OA
ENDBRANCH   1   2
BRANCH   1   5
ATOM      5  C   UNL     1     126.879 138.183 118.291  1.00  0.00     0.059 C 
BRANCH   5   6
ATOM      6  C   UNL     1     128.129 138.289 119.112  1.00  0.00     0.042 C 
ATOM      7  O   UNL     1     128.125 137.936 120.320  1.00  0.00    -0.550 OA
ATOM      8  O   UNL     1     129.307 138.739 118.530  1.00  0.00    -0.550 OA
ENDBRANCH   5   6
ENDBRANCH   1   5
TORSDOF 3
ENDMDL
MODEL 6
REMARK VINA RESULT:    -3.124     11.325     11.984
REMARK INTER + INTRA:          -3.855
REMARK INTER:                  -3.690
REMARK INTRA:                  -0.166
REMARK UNBOUND:                -0.184
REMARK SMILES O=C([O-])CCC(=O)[O-]
REMARK SMILES IDX 4 1 2 2 1 3 3 4 5 5 6 6 7 7 8 8
REMARK H PARENT
REMARK Flexibility Score: inf
ROOT
ATOM      1  C   UNL     1     126.902 138.124 118.450  1.00  0.00     0.059 C 
ENDROOT
BRANCH   1   2
ATOM      2  C   UNL     1     127.860 138.031 119.597  1.00  0.00     0.042 C 
ATOM      3  O   UNL     1     127.503 137.498 120.681  1.00  0.00    -0.550 OA
ATOM      4  O   UNL     1     129.136 138.568 119.483  1.00  0.00    -0.550 OA
ENDBRANCH   1   2
BRANCH   1   5
ATOM      5  C   UNL     1     126.362 136.746 118.054  1.00  0.00     0.059 C 
BRANCH   5   6
ATOM      6  C   UNL     1     127.428 135.889 117.441  1.00  0.00     0.042 C 
ATOM      7  O   UNL     1     127.772 134.813 117.994  1.00  0.00    -0.550 OA
ATOM      8  O   UNL     1     128.011 136.262 116.236  1.00  0.00    -0.550 OA
ENDBRANCH   5   6
ENDBRANCH   1   5
TORSDOF 3
ENDMDL
MODEL 7
REMARK VINA RESULT:    -3.053     10.674     11.430
REMARK INTER + INTRA:          -3.773
REMARK INTER:                  -3.654
REMARK INTRA:                  -0.119
REMARK UNBOUND:                -0.184
REMARK SMILES O=C([O-])CCC(=O)[O-]
REMARK SMILES IDX 4 1 2 2 1 3 3 4 5 5 6 6 7 7 8 8
REMARK H PARENT
REMARK Flexibility Score: inf
ROOT
ATOM      1  C   UNL     1     133.351 125.518 118.158  1.00  0.00     0.059 C 
ENDROOT
BRANCH   1   2
ATOM      2  C   UNL     1     131.875 125.396 118.382  1.00  0.00     0.042 C 
ATOM      3  O   UNL     1     131.296 124.290 118.216  1.00  0.00    -0.550 OA
ATOM      4  O   UNL     1     131.131 126.516 118.735  1.00  0.00    -0.550 OA
ENDBRANCH   1   2
BRANCH   1   5
ATOM      5  C   UNL     1     133.682 126.658 117.188  1.00  0.00     0.059 C 
BRANCH   5   6
ATOM      6  C   UNL     1     134.318 127.817 117.894  1.00  0.00     0.042 C 
ATOM      7  O   UNL     1     134.872 128.734 117.234  1.00  0.00    -0.550 OA
ATOM      8  O   UNL     1     134.262 127.902 119.280  1.00  0.00    -0.550 OA
ENDBRANCH   5   6
ENDBRANCH   1   5
TORSDOF 3
ENDMDL
MODEL 8
REMARK VINA RESULT:    -3.013      9.136     11.043
REMARK INTER + INTRA:          -3.725
REMARK INTER:                  -3.602
REMARK INTRA:                  -0.123
REMARK UNBOUND:                -0.184
REMARK SMILES O=C([O-])CCC(=O)[O-]
REMARK SMILES IDX 4 1 2 2 1 3 3 4 5 5 6 6 7 7 8 8
REMARK H PARENT
REMARK Flexibility Score: inf
ROOT
ATOM      1  C   UNL     1     128.962 137.932 118.408  1.00  0.00     0.059 C 
ENDROOT
BRANCH   1   2
ATOM      2  C   UNL     1     127.629 138.257 119.009  1.00  0.00     0.042 C 
ATOM      3  O   UNL     1     127.364 137.914 120.192  1.00  0.00    -0.550 OA
ATOM      4  O   UNL     1     126.664 138.906 118.249  1.00  0.00    -0.550 OA
ENDBRANCH   1   2
BRANCH   1   5
ATOM      5  C   UNL     1     129.976 139.058 118.645  1.00  0.00     0.059 C 
BRANCH   5   6
ATOM      6  C   UNL     1     130.760 138.840 119.904  1.00  0.00     0.042 C 
ATOM      7  O   UNL     1     131.827 138.173 119.878  1.00  0.00    -0.550 OA
ATOM      8  O   UNL     1     130.332 139.409 121.097  1.00  0.00    -0.550 OA
ENDBRANCH   5   6
ENDBRANCH   1   5
TORSDOF 3
ENDMDL
MODEL 9
REMARK VINA RESULT:    -2.957      9.131     10.657
REMARK INTER + INTRA:          -3.660
REMARK INTER:                  -3.544
REMARK INTRA:                  -0.116
REMARK UNBOUND:                -0.184
REMARK SMILES O=C([O-])CCC(=O)[O-]
REMARK SMILES IDX 4 1 2 2 1 3 3 4 5 5 6 6 7 7 8 8
REMARK H PARENT
REMARK Flexibility Score: inf
ROOT
ATOM      1  C   UNL     1     129.996 139.014 118.641  1.00  0.00     0.059 C 
ENDROOT
BRANCH   1   2
ATOM      2  C   UNL     1     130.706 138.697 119.921  1.00  0.00     0.042 C 
ATOM      3  O   UNL     1     131.588 137.799 119.953  1.00  0.00    -0.550 OA
ATOM      4  O   UNL     1     130.366 139.369 121.089  1.00  0.00    -0.550 OA
ENDBRANCH   1   2
BRANCH   1   5
ATOM      5  C   UNL     1     128.963 137.938 118.289  1.00  0.00     0.059 C 
BRANCH   5   6
ATOM      6  C   UNL     1     127.621 138.245 118.883  1.00  0.00     0.042 C 
ATOM      7  O   UNL     1     126.724 138.777 118.179  1.00  0.00    -0.550 OA
ATOM      8  O   UNL     1     127.350 137.904 120.202  1.00  0.00    -0.550 OA
ENDBRANCH   5   6
ENDBRANCH   1   5
TORSDOF 3
ENDMDL
