MODEL 1
REMARK VINA RESULT:    -3.748      0.000      0.000
REMARK INTER + INTRA:          -3.983
REMARK INTER:                  -3.967
REMARK INTRA:                  -0.016
REMARK UNBOUND:                -0.016
REMARK SMILES O=C([O-])c1cccnc1
REMARK SMILES IDX 4 1 5 2 9 3 6 4 8 5 7 6 2 7 1 8 3 9
REMARK H PARENT
REMARK Flexibility Score: inf
ROOT
ATOM      1  C   UNL     1     -12.126  19.125 -13.403  1.00  0.00     0.016 A 
ATOM      2  C   UNL     1     -11.496  18.199 -12.554  1.00  0.00     0.013 A 
ATOM      3  C   UNL     1     -11.326  20.039 -14.108  1.00  0.00     0.120 A 
ATOM      4  C   UNL     1     -10.105  18.200 -12.427  1.00  0.00     0.021 A 
ATOM      5  N   UNL     1      -9.973  20.018 -13.966  1.00  0.00    -0.264 NA
ATOM      6  C   UNL     1      -9.353  19.127 -13.149  1.00  0.00     0.111 A 
ENDROOT
BRANCH   1   7
ATOM      7  C   UNL     1     -13.599  19.141 -13.551  1.00  0.00     0.073 C 
ATOM      8  O   UNL     1     -14.148  18.585 -14.539  1.00  0.00    -0.545 OA
ATOM      9  O   UNL     1     -14.395  19.771 -12.603  1.00  0.00    -0.545 OA
ENDBRANCH   1   7
TORSDOF 1
ENDMDL
MODEL 2
REMARK VINA RESULT:    -3.522      0.914      1.929
REMARK INTER + INTRA:          -3.744
REMARK INTER:                  -3.728
REMARK INTRA:                  -0.016
REMARK UNBOUND:                -0.016
REMARK SMILES O=C([O-])c1cccnc1
REMARK SMILES IDX 4 1 5 2 9 3 6 4 8 5 7 6 2 7 1 8 3 9
REMARK H PARENT
REMARK Flexibility Score: inf
ROOT
ATOM      1  C   UNL     1     -12.121  19.119 -13.408  1.00  0.00     0.016 A 
ATOM      2  C   UNL     1     -11.333  20.052 -14.104  1.00  0.00     0.013 A 
ATOM      3  C   UNL     1     -11.476  18.172 -12.596  1.00  0.00     0.120 A 
ATOM      4  C   UNL     1      -9.943  20.025 -13.978  1.00  0.00     0.021 A 
ATOM      5  N   UNL     1     -10.120  18.168 -12.491  1.00  0.00    -0.264 NA
ATOM      6  C   UNL     1      -9.348  19.066 -13.158  1.00  0.00     0.111 A 
ENDROOT
BRANCH   1   7
ATOM      7  C   UNL     1     -13.596  19.129 -13.527  1.00  0.00     0.073 C 
ATOM      8  O   UNL     1     -14.306  19.688 -12.649  1.00  0.00    -0.545 OA
ATOM      9  O   UNL     1     -14.219  18.523 -14.611  1.00  0.00    -0.545 OA
ENDBRANCH   1   7
TORSDOF 1
ENDMDL
MODEL 3
REMARK VINA RESULT:    -3.419      2.479      3.481
REMARK INTER + INTRA:          -3.635
REMARK INTER:                  -3.616
REMARK INTRA:                  -0.019
REMARK UNBOUND:                -0.016
REMARK SMILES O=C([O-])c1cccnc1
REMARK SMILES IDX 4 1 5 2 9 3 6 4 8 5 7 6 2 7 1 8 3 9
REMARK H PARENT
REMARK Flexibility Score: inf
ROOT
ATOM      1  C   UNL     1     -11.842  19.071 -13.385  1.00  0.00     0.016 A 
ATOM      2  C   UNL     1     -13.172  18.911 -12.960  1.00  0.00     0.013 A 
ATOM      3  C   UNL     1     -11.601  19.763 -14.583  1.00  0.00     0.120 A 
ATOM      4  C   UNL     1     -14.218  19.436 -13.722  1.00  0.00     0.021 A 
ATOM      5  N   UNL     1     -12.639  20.264 -15.307  1.00  0.00    -0.264 NA
ATOM      6  C   UNL     1     -13.929  20.116 -14.905  1.00  0.00     0.111 A 
ENDROOT
BRANCH   1   7
ATOM      7  C   UNL     1     -10.719  18.523 -12.592  1.00  0.00     0.073 C 
ATOM      8  O   UNL     1     -10.705  17.309 -12.257  1.00  0.00    -0.545 OA
ATOM      9  O   UNL     1      -9.665  19.342 -12.207  1.00  0.00    -0.545 OA
ENDBRANCH   1   7
TORSDOF 1
ENDMDL
MODEL 4
REMARK VINA RESULT:    -3.404      3.393      4.237
REMARK INTER + INTRA:          -3.619
REMARK INTER:                  -3.603
REMARK INTRA:                  -0.016
REMARK UNBOUND:                -0.016
REMARK SMILES O=C([O-])c1cccnc1
REMARK SMILES IDX 4 1 5 2 9 3 6 4 8 5 7 6 2 7 1 8 3 9
REMARK H PARENT
REMARK Flexibility Score: inf
ROOT
ATOM      1  C   UNL     1      -9.455  19.310 -13.321  1.00  0.00     0.016 A 
ATOM      2  C   UNL     1      -9.980  18.345 -12.445  1.00  0.00     0.013 A 
ATOM      3  C   UNL     1     -10.342  20.001 -14.164  1.00  0.00     0.120 A 
ATOM      4  C   UNL     1     -11.353  18.092 -12.423  1.00  0.00     0.021 A 
ATOM      5  N   UNL     1     -11.675  19.734 -14.123  1.00  0.00    -0.264 NA
ATOM      6  C   UNL     1     -12.193  18.804 -13.279  1.00  0.00     0.111 A 
ENDROOT
BRANCH   1   7
ATOM      7  C   UNL     1      -8.003  19.594 -13.360  1.00  0.00     0.073 C 
ATOM      8  O   UNL     1      -7.532  20.600 -12.766  1.00  0.00    -0.545 OA
ATOM      9  O   UNL     1      -7.140  18.754 -14.052  1.00  0.00    -0.545 OA
ENDBRANCH   1   7
TORSDOF 1
ENDMDL
MODEL 5
REMARK VINA RESULT:    -3.273      2.734      3.741
REMARK INTER + INTRA:          -3.481
REMARK INTER:                  -3.462
REMARK INTRA:                  -0.018
REMARK UNBOUND:                -0.016
REMARK SMILES O=C([O-])c1cccnc1
REMARK SMILES IDX 4 1 5 2 9 3 6 4 8 5 7 6 2 7 1 8 3 9
REMARK H PARENT
REMARK Flexibility Score: inf
ROOT
ATOM      1  C   UNL     1     -11.799  19.086 -13.425  1.00  0.00     0.016 A 
ATOM      2  C   UNL     1     -11.544  19.767 -14.628  1.00  0.00     0.013 A 
ATOM      3  C   UNL     1     -13.134  18.917 -13.021  1.00  0.00     0.120 A 
ATOM      4  C   UNL     1     -12.605  20.257 -15.393  1.00  0.00     0.021 A 
ATOM      5  N   UNL     1     -14.148  19.404 -13.785  1.00  0.00    -0.264 NA
ATOM      6  C   UNL     1     -13.914  20.064 -14.950  1.00  0.00     0.111 A 
ENDROOT
BRANCH   1   7
ATOM      7  C   UNL     1     -10.690  18.559 -12.600  1.00  0.00     0.073 C 
ATOM      8  O   UNL     1     -10.672  17.349 -12.248  1.00  0.00    -0.545 OA
ATOM      9  O   UNL     1      -9.652  19.392 -12.201  1.00  0.00    -0.545 OA
ENDBRANCH   1   7
TORSDOF 1
ENDMDL
MODEL 6
REMARK VINA RESULT:    -3.039      3.284      3.767
REMARK INTER + INTRA:          -3.233
REMARK INTER:                  -3.211
REMARK INTRA:                  -0.022
REMARK UNBOUND:                -0.016
REMARK SMILES O=C([O-])c1cccnc1
REMARK SMILES IDX 4 1 5 2 9 3 6 4 8 5 7 6 2 7 1 8 3 9
REMARK H PARENT
REMARK Flexibility Score: inf
ROOT
ATOM      1  C   UNL     1     -13.925  19.735 -14.893  1.00  0.00     0.016 A 
ATOM      2  C   UNL     1     -13.392  18.578 -15.486  1.00  0.00     0.013 A 
ATOM      3  C   UNL     1     -14.131  20.866 -15.699  1.00  0.00     0.120 A 
ATOM      4  C   UNL     1     -13.081  18.569 -16.848  1.00  0.00     0.021 A 
ATOM      5  N   UNL     1     -13.820  20.831 -17.022  1.00  0.00    -0.264 NA
ATOM      6  C   UNL     1     -13.304  19.718 -17.607  1.00  0.00     0.111 A 
ENDROOT
BRANCH   1   7
ATOM      7  C   UNL     1     -14.262  19.764 -13.452  1.00  0.00     0.073 C 
ATOM      8  O   UNL     1     -15.153  20.541 -13.018  1.00  0.00    -0.545 OA
ATOM      9  O   UNL     1     -13.597  18.935 -12.557  1.00  0.00    -0.545 OA
ENDBRANCH   1   7
TORSDOF 1
ENDMDL
MODEL 7
REMARK VINA RESULT:    -2.911      2.907      3.686
REMARK INTER + INTRA:          -3.097
REMARK INTER:                  -3.075
REMARK INTRA:                  -0.021
REMARK UNBOUND:                -0.016
REMARK SMILES O=C([O-])c1cccnc1
REMARK SMILES IDX 4 1 5 2 9 3 6 4 8 5 7 6 2 7 1 8 3 9
REMARK H PARENT
REMARK Flexibility Score: inf
ROOT
ATOM      1  C   UNL     1     -11.646  19.937 -14.032  1.00  0.00     0.016 A 
ATOM      2  C   UNL     1     -12.262  18.966 -13.225  1.00  0.00     0.013 A 
ATOM      3  C   UNL     1     -12.419  21.018 -14.485  1.00  0.00     0.120 A 
ATOM      4  C   UNL     1     -13.613  19.088 -12.889  1.00  0.00     0.021 A 
ATOM      5  N   UNL     1     -13.732  21.113 -14.144  1.00  0.00    -0.264 NA
ATOM      6  C   UNL     1     -14.339  20.181 -13.364  1.00  0.00     0.111 A 
ENDROOT
BRANCH   1   7
ATOM      7  C   UNL     1     -10.217  19.826 -14.398  1.00  0.00     0.073 C 
ATOM      8  O   UNL     1      -9.798  20.292 -15.490  1.00  0.00    -0.545 OA
ATOM      9  O   UNL     1      -9.317  19.205 -13.541  1.00  0.00    -0.545 OA
ENDBRANCH   1   7
TORSDOF 1
ENDMDL
MODEL 8
REMARK VINA RESULT:    -2.891      2.503      3.252
REMARK INTER + INTRA:          -3.076
REMARK INTER:                  -3.058
REMARK INTRA:                  -0.017
REMARK UNBOUND:                -0.016
REMARK SMILES O=C([O-])c1cccnc1
REMARK SMILES IDX 4 1 5 2 9 3 6 4 8 5 7 6 2 7 1 8 3 9
REMARK H PARENT
REMARK Flexibility Score: inf
ROOT
ATOM      1  C   UNL     1      -9.306  19.601 -13.163  1.00  0.00     0.016 A 
ATOM      2  C   UNL     1      -8.677  20.346 -12.151  1.00  0.00     0.013 A 
ATOM      3  C   UNL     1      -8.721  19.578 -14.439  1.00  0.00     0.120 A 
ATOM      4  C   UNL     1      -7.497  21.041 -12.424  1.00  0.00     0.021 A 
ATOM      5  N   UNL     1      -7.571  20.263 -14.679  1.00  0.00    -0.264 NA
ATOM      6  C   UNL     1      -6.953  20.987 -13.708  1.00  0.00     0.111 A 
ENDROOT
BRANCH   1   7
ATOM      7  C   UNL     1     -10.558  18.858 -12.894  1.00  0.00     0.073 C 
ATOM      8  O   UNL     1     -11.623  19.159 -13.495  1.00  0.00    -0.545 OA
ATOM      9  O   UNL     1     -10.574  17.817 -11.974  1.00  0.00    -0.545 OA
ENDBRANCH   1   7
TORSDOF 1
ENDMDL
