MODEL 1
REMARK VINA RESULT:    -6.020      0.000      0.000
REMARK INTER + INTRA:         -10.108
REMARK INTER:                  -9.187
REMARK INTRA:                  -0.921
REMARK UNBOUND:                -0.921
REMARK SMILES CC(=O)CCC=C(C)CCC=C(C)CCC=C(C)C
REMARK SMILES IDX 10 1 11 2 12 3 13 4 14 5 15 6 16 7 18 8 17 9 19 10 9 11 7 12
REMARK SMILES IDX 6 13 8 14 5 15 4 16 2 17 3 18 1 19
REMARK H PARENT
REMARK Flexibility Score: inf
ROOT
ATOM      1  C   UNL     1      87.906  38.111  28.788  1.00  0.00     0.032 C 
ENDROOT
BRANCH   1   2
ATOM      2  C   UNL     1      87.884  38.043  27.282  1.00  0.00    -0.028 C 
ATOM      3  C   UNL     1      88.841  38.567  26.482  1.00  0.00    -0.077 C 
ATOM      4  C   UNL     1      90.081  39.222  27.045  1.00  0.00     0.039 C 
BRANCH   3   5
ATOM      5  C   UNL     1      88.665  38.494  24.981  1.00  0.00     0.034 C 
BRANCH   5   6
ATOM      6  C   UNL     1      87.639  37.417  24.609  1.00  0.00     0.032 C 
BRANCH   6   7
ATOM      7  C   UNL     1      88.268  36.322  23.782  1.00  0.00    -0.028 C 
ATOM      8  C   UNL     1      86.034  35.457  23.074  1.00  0.00     0.039 C 
ATOM      9  C   UNL     1      87.545  35.422  23.082  1.00  0.00    -0.080 C 
ATOM     10  C   UNL     1      88.272  34.365  22.293  1.00  0.00     0.039 C 
ENDBRANCH   6   7
ENDBRANCH   5   6
ENDBRANCH   3   5
ENDBRANCH   1   2
BRANCH   1  11
ATOM     11  C   UNL     1      86.483  38.016  29.351  1.00  0.00     0.034 C 
BRANCH  11  12
ATOM     12  C   UNL     1      86.259  36.675  30.013  1.00  0.00    -0.077 C 
ATOM     13  C   UNL     1      85.406  36.596  31.060  1.00  0.00    -0.028 C 
ATOM     14  C   UNL     1      86.991  35.462  29.486  1.00  0.00     0.039 C 
BRANCH  13  15
ATOM     15  C   UNL     1      85.136  35.339  31.847  1.00  0.00     0.035 C 
BRANCH  15  16
ATOM     16  C   UNL     1      85.955  35.326  33.141  1.00  0.00     0.079 C 
BRANCH  16  17
ATOM     17  C   UNL     1      86.813  34.094  33.217  1.00  0.00     0.130 C 
ATOM     18  O   UNL     1      86.310  33.022  33.518  1.00  0.00    -0.300 OA
ATOM     19  C   UNL     1      88.277  34.167  32.906  1.00  0.00     0.087 C 
ENDBRANCH  16  17
ENDBRANCH  15  16
ENDBRANCH  13  15
ENDBRANCH  11  12
ENDBRANCH   1  11
TORSDOF 9
ENDMDL
MODEL 2
REMARK VINA RESULT:    -6.006      3.925      8.226
REMARK INTER + INTRA:         -10.087
REMARK INTER:                  -9.118
REMARK INTRA:                  -0.970
REMARK UNBOUND:                -0.921
REMARK SMILES CC(=O)CCC=C(C)CCC=C(C)CCC=C(C)C
REMARK SMILES IDX 10 1 11 2 12 3 13 4 14 5 15 6 16 7 18 8 17 9 19 10 9 11 7 12
REMARK SMILES IDX 6 13 8 14 5 15 4 16 2 17 3 18 1 19
REMARK H PARENT
REMARK Flexibility Score: inf
ROOT
ATOM      1  C   UNL     1      88.286  38.167  24.557  1.00  0.00     0.032 C 
ENDROOT
BRANCH   1   2
ATOM      2  C   UNL     1      88.158  38.146  26.060  1.00  0.00    -0.028 C 
ATOM      3  C   UNL     1      88.993  38.793  26.904  1.00  0.00    -0.077 C 
ATOM      4  C   UNL     1      90.115  39.671  26.400  1.00  0.00     0.039 C 
BRANCH   3   5
ATOM      5  C   UNL     1      88.798  38.634  28.396  1.00  0.00     0.034 C 
BRANCH   5   6
ATOM      6  C   UNL     1      87.405  38.073  28.702  1.00  0.00     0.032 C 
BRANCH   6   7
ATOM      7  C   UNL     1      86.597  39.032  29.542  1.00  0.00    -0.028 C 
ATOM      8  C   UNL     1      85.233  37.176  30.505  1.00  0.00     0.039 C 
ATOM      9  C   UNL     1      85.604  38.634  30.364  1.00  0.00    -0.080 C 
ATOM     10  C   UNL     1      84.856  39.676  31.155  1.00  0.00     0.039 C 
ENDBRANCH   6   7
ENDBRANCH   5   6
ENDBRANCH   3   5
ENDBRANCH   1   2
BRANCH   1  11
ATOM     11  C   UNL     1      88.387  36.740  24.007  1.00  0.00     0.034 C 
BRANCH  11  12
ATOM     12  C   UNL     1      87.037  36.255  23.528  1.00  0.00    -0.077 C 
ATOM     13  C   UNL     1      85.997  37.121  23.515  1.00  0.00    -0.028 C 
ATOM     14  C   UNL     1      86.888  34.821  23.076  1.00  0.00     0.039 C 
BRANCH  13  15
ATOM     15  C   UNL     1      84.589  36.755  23.119  1.00  0.00     0.035 C 
BRANCH  15  16
ATOM     16  C   UNL     1      83.888  37.947  22.460  1.00  0.00     0.079 C 
BRANCH  16  17
ATOM     17  C   UNL     1      84.040  37.896  20.965  1.00  0.00     0.130 C 
ATOM     18  O   UNL     1      84.108  38.936  20.327  1.00  0.00    -0.300 OA
ATOM     19  C   UNL     1      84.129  36.581  20.255  1.00  0.00     0.087 C 
ENDBRANCH  16  17
ENDBRANCH  15  16
ENDBRANCH  13  15
ENDBRANCH  11  12
ENDBRANCH   1  11
TORSDOF 9
ENDMDL
MODEL 3
REMARK VINA RESULT:    -5.975      4.807      7.574
REMARK INTER + INTRA:         -10.040
REMARK INTER:                  -8.918
REMARK INTRA:                  -1.122
REMARK UNBOUND:                -0.921
REMARK SMILES CC(=O)CCC=C(C)CCC=C(C)CCC=C(C)C
REMARK SMILES IDX 10 1 11 2 12 3 13 4 14 5 15 6 16 7 18 8 17 9 19 10 9 11 7 12
REMARK SMILES IDX 6 13 8 14 5 15 4 16 2 17 3 18 1 19
REMARK H PARENT
REMARK Flexibility Score: inf
ROOT
ATOM      1  C   UNL     1      85.260  39.108  30.652  1.00  0.00     0.032 C 
ENDROOT
BRANCH   1   2
ATOM      2  C   UNL     1      84.115  39.745  29.907  1.00  0.00    -0.028 C 
ATOM      3  C   UNL     1      83.100  39.057  29.337  1.00  0.00    -0.077 C 
ATOM      4  C   UNL     1      82.986  37.555  29.461  1.00  0.00     0.039 C 
BRANCH   3   5
ATOM      5  C   UNL     1      82.048  39.812  28.555  1.00  0.00     0.034 C 
BRANCH   5   6
ATOM      6  C   UNL     1      82.530  41.230  28.231  1.00  0.00     0.032 C 
BRANCH   6   7
ATOM      7  C   UNL     1      82.423  41.524  26.754  1.00  0.00    -0.028 C 
ATOM      8  C   UNL     1      81.938  43.937  27.182  1.00  0.00     0.039 C 
ATOM      9  C   UNL     1      82.151  42.753  26.267  1.00  0.00    -0.080 C 
ATOM     10  C   UNL     1      82.060  42.936  24.773  1.00  0.00     0.039 C 
ENDBRANCH   6   7
ENDBRANCH   5   6
ENDBRANCH   3   5
ENDBRANCH   1   2
BRANCH   1  11
ATOM     11  C   UNL     1      86.601  39.633  30.129  1.00  0.00     0.034 C 
BRANCH  11  12
ATOM     12  C   UNL     1      87.236  38.633  29.187  1.00  0.00    -0.077 C 
ATOM     13  C   UNL     1      88.081  39.080  28.231  1.00  0.00    -0.028 C 
ATOM     14  C   UNL     1      86.910  37.166  29.345  1.00  0.00     0.039 C 
BRANCH  13  15
ATOM     15  C   UNL     1      88.735  38.202  27.194  1.00  0.00     0.035 C 
BRANCH  15  16
ATOM     16  C   UNL     1      89.151  39.028  25.973  1.00  0.00     0.079 C 
BRANCH  16  17
ATOM     17  C   UNL     1      90.193  40.045  26.348  1.00  0.00     0.130 C 
ATOM     18  O   UNL     1      89.948  41.237  26.228  1.00  0.00    -0.300 OA
ATOM     19  C   UNL     1      91.521  39.610  26.886  1.00  0.00     0.087 C 
ENDBRANCH  16  17
ENDBRANCH  15  16
ENDBRANCH  13  15
ENDBRANCH  11  12
ENDBRANCH   1  11
TORSDOF 9
ENDMDL
MODEL 4
REMARK VINA RESULT:    -5.958      2.911      4.203
REMARK INTER + INTRA:         -10.014
REMARK INTER:                  -8.560
REMARK INTRA:                  -1.454
REMARK UNBOUND:                -0.921
REMARK SMILES CC(=O)CCC=C(C)CCC=C(C)CCC=C(C)C
REMARK SMILES IDX 10 1 11 2 12 3 13 4 14 5 15 6 16 7 18 8 17 9 19 10 9 11 7 12
REMARK SMILES IDX 6 13 8 14 5 15 4 16 2 17 3 18 1 19
REMARK H PARENT
REMARK Flexibility Score: inf
ROOT
ATOM      1  C   UNL     1      88.473  39.135  26.650  1.00  0.00     0.032 C 
ENDROOT
BRANCH   1   2
ATOM      2  C   UNL     1      88.919  38.274  25.495  1.00  0.00    -0.028 C 
ATOM      3  C   UNL     1      88.089  37.518  24.742  1.00  0.00    -0.077 C 
ATOM      4  C   UNL     1      86.593  37.523  24.956  1.00  0.00     0.039 C 
BRANCH   3   5
ATOM      5  C   UNL     1      88.674  36.643  23.655  1.00  0.00     0.034 C 
BRANCH   5   6
ATOM      6  C   UNL     1      87.667  35.571  23.224  1.00  0.00     0.032 C 
BRANCH   6   7
ATOM      7  C   UNL     1      88.229  34.182  23.410  1.00  0.00    -0.028 C 
ATOM      8  C   UNL     1      86.826  33.793  25.440  1.00  0.00     0.039 C 
ATOM      9  C   UNL     1      87.854  33.366  24.418  1.00  0.00    -0.080 C 
ATOM     10  C   UNL     1      88.483  32.000  24.515  1.00  0.00     0.039 C 
ENDBRANCH   6   7
ENDBRANCH   5   6
ENDBRANCH   3   5
ENDBRANCH   1   2
BRANCH   1  11
ATOM     11  C   UNL     1      88.846  38.480  27.984  1.00  0.00     0.034 C 
BRANCH  11  12
ATOM     12  C   UNL     1      87.610  37.988  28.703  1.00  0.00    -0.077 C 
ATOM     13  C   UNL     1      86.935  38.843  29.505  1.00  0.00    -0.028 C 
ATOM     14  C   UNL     1      87.162  36.559  28.502  1.00  0.00     0.039 C 
BRANCH  13  15
ATOM     15  C   UNL     1      85.724  38.469  30.322  1.00  0.00     0.035 C 
BRANCH  15  16
ATOM     16  C   UNL     1      84.743  39.642  30.400  1.00  0.00     0.079 C 
BRANCH  16  17
ATOM     17  C   UNL     1      83.575  39.422  29.480  1.00  0.00     0.130 C 
ATOM     18  O   UNL     1      83.190  38.285  29.249  1.00  0.00    -0.300 OA
ATOM     19  C   UNL     1      82.865  40.587  28.860  1.00  0.00     0.087 C 
ENDBRANCH  16  17
ENDBRANCH  15  16
ENDBRANCH  13  15
ENDBRANCH  11  12
ENDBRANCH   1  11
TORSDOF 9
ENDMDL
MODEL 5
REMARK VINA RESULT:    -5.916      3.634      6.164
REMARK INTER + INTRA:          -9.950
REMARK INTER:                  -8.039
REMARK INTRA:                  -1.911
REMARK UNBOUND:                -0.921
REMARK SMILES CC(=O)CCC=C(C)CCC=C(C)CCC=C(C)C
REMARK SMILES IDX 10 1 11 2 12 3 13 4 14 5 15 6 16 7 18 8 17 9 19 10 9 11 7 12
REMARK SMILES IDX 6 13 8 14 5 15 4 16 2 17 3 18 1 19
REMARK H PARENT
REMARK Flexibility Score: inf
ROOT
ATOM      1  C   UNL     1      84.503  39.208  30.475  1.00  0.00     0.032 C 
ENDROOT
BRANCH   1   2
ATOM      2  C   UNL     1      83.736  39.567  29.227  1.00  0.00    -0.028 C 
ATOM      3  C   UNL     1      82.851  38.749  28.615  1.00  0.00    -0.077 C 
ATOM      4  C   UNL     1      82.493  37.395  29.181  1.00  0.00     0.039 C 
BRANCH   3   5
ATOM      5  C   UNL     1      82.199  39.203  27.327  1.00  0.00     0.034 C 
BRANCH   5   6
ATOM      6  C   UNL     1      82.366  38.142  26.234  1.00  0.00     0.032 C 
BRANCH   6   7
ATOM      7  C   UNL     1      83.734  38.215  25.601  1.00  0.00    -0.028 C 
ATOM      8  C   UNL     1      84.307  35.908  26.368  1.00  0.00     0.039 C 
ATOM      9  C   UNL     1      84.626  37.204  25.659  1.00  0.00    -0.080 C 
ATOM     10  C   UNL     1      85.968  37.383  24.997  1.00  0.00     0.039 C 
ENDBRANCH   6   7
ENDBRANCH   5   6
ENDBRANCH   3   5
ENDBRANCH   1   2
BRANCH   1  11
ATOM     11  C   UNL     1      85.972  39.623  30.341  1.00  0.00     0.034 C 
BRANCH  11  12
ATOM     12  C   UNL     1      86.726  38.646  29.466  1.00  0.00    -0.077 C 
ATOM     13  C   UNL     1      87.790  39.089  28.757  1.00  0.00    -0.028 C 
ATOM     14  C   UNL     1      86.271  37.207  29.410  1.00  0.00     0.039 C 
BRANCH  13  15
ATOM     15  C   UNL     1      88.592  38.239  27.804  1.00  0.00     0.035 C 
BRANCH  15  16
ATOM     16  C   UNL     1      88.913  39.020  26.526  1.00  0.00     0.079 C 
BRANCH  16  17
ATOM     17  C   UNL     1      90.325  39.534  26.555  1.00  0.00     0.130 C 
ATOM     18  O   UNL     1      91.234  38.791  26.897  1.00  0.00    -0.300 OA
ATOM     19  C   UNL     1      90.630  40.943  26.150  1.00  0.00     0.087 C 
ENDBRANCH  16  17
ENDBRANCH  15  16
ENDBRANCH  13  15
ENDBRANCH  11  12
ENDBRANCH   1  11
TORSDOF 9
ENDMDL
MODEL 6
REMARK VINA RESULT:    -5.913      3.577      7.834
REMARK INTER + INTRA:          -9.945
REMARK INTER:                  -8.725
REMARK INTRA:                  -1.219
REMARK UNBOUND:                -0.921
REMARK SMILES CC(=O)CCC=C(C)CCC=C(C)CCC=C(C)C
REMARK SMILES IDX 10 1 11 2 12 3 13 4 14 5 15 6 16 7 18 8 17 9 19 10 9 11 7 12
REMARK SMILES IDX 6 13 8 14 5 15 4 16 2 17 3 18 1 19
REMARK H PARENT
REMARK Flexibility Score: inf
ROOT
ATOM      1  C   UNL     1      86.171  35.410  28.951  1.00  0.00     0.032 C 
ENDROOT
BRANCH   1   2
ATOM      2  C   UNL     1      87.184  34.959  29.972  1.00  0.00    -0.028 C 
ATOM      3  C   UNL     1      87.392  33.669  30.320  1.00  0.00    -0.077 C 
ATOM      4  C   UNL     1      86.655  32.533  29.650  1.00  0.00     0.039 C 
BRANCH   3   5
ATOM      5  C   UNL     1      88.391  33.354  31.412  1.00  0.00     0.034 C 
BRANCH   5   6
ATOM      6  C   UNL     1      87.987  34.031  32.726  1.00  0.00     0.032 C 
BRANCH   6   7
ATOM      7  C   UNL     1      86.682  33.481  33.250  1.00  0.00    -0.028 C 
ATOM      8  C   UNL     1      85.595  35.727  33.151  1.00  0.00     0.039 C 
ATOM      9  C   UNL     1      85.588  34.246  33.449  1.00  0.00    -0.080 C 
ATOM     10  C   UNL     1      84.337  33.596  33.982  1.00  0.00     0.039 C 
ENDBRANCH   6   7
ENDBRANCH   5   6
ENDBRANCH   3   5
ENDBRANCH   1   2
BRANCH   1  11
ATOM     11  C   UNL     1      85.508  36.719  29.393  1.00  0.00     0.034 C 
BRANCH  11  12
ATOM     12  C   UNL     1      86.463  37.882  29.233  1.00  0.00    -0.077 C 
ATOM     13  C   UNL     1      87.508  37.758  28.383  1.00  0.00    -0.028 C 
ATOM     14  C   UNL     1      86.221  39.146  30.023  1.00  0.00     0.039 C 
BRANCH  13  15
ATOM     15  C   UNL     1      88.564  38.813  28.173  1.00  0.00     0.035 C 
BRANCH  15  16
ATOM     16  C   UNL     1      89.023  38.832  26.711  1.00  0.00     0.079 C 
BRANCH  16  17
ATOM     17  C   UNL     1      90.337  39.551  26.574  1.00  0.00     0.130 C 
ATOM     18  O   UNL     1      91.379  38.961  26.819  1.00  0.00    -0.300 OA
ATOM     19  C   UNL     1      90.379  40.977  26.120  1.00  0.00     0.087 C 
ENDBRANCH  16  17
ENDBRANCH  15  16
ENDBRANCH  13  15
ENDBRANCH  11  12
ENDBRANCH   1  11
TORSDOF 9
ENDMDL
MODEL 7
REMARK VINA RESULT:    -5.872      1.657      2.465
REMARK INTER + INTRA:          -9.882
REMARK INTER:                  -8.481
REMARK INTRA:                  -1.402
REMARK UNBOUND:                -0.921
REMARK SMILES CC(=O)CCC=C(C)CCC=C(C)CCC=C(C)C
REMARK SMILES IDX 10 1 11 2 12 3 13 4 14 5 15 6 16 7 18 8 17 9 19 10 9 11 7 12
REMARK SMILES IDX 6 13 8 14 5 15 4 16 2 17 3 18 1 19
REMARK H PARENT
REMARK Flexibility Score: inf
ROOT
ATOM      1  C   UNL     1      88.266  38.619  28.652  1.00  0.00     0.032 C 
ENDROOT
BRANCH   1   2
ATOM      2  C   UNL     1      88.145  38.098  27.242  1.00  0.00    -0.028 C 
ATOM      3  C   UNL     1      88.763  38.646  26.171  1.00  0.00    -0.077 C 
ATOM      4  C   UNL     1      89.707  39.818  26.308  1.00  0.00     0.039 C 
BRANCH   3   5
ATOM      5  C   UNL     1      88.501  38.069  24.797  1.00  0.00     0.034 C 
BRANCH   5   6
ATOM      6  C   UNL     1      87.352  37.056  24.846  1.00  0.00     0.032 C 
BRANCH   6   7
ATOM      7  C   UNL     1      86.104  37.608  24.201  1.00  0.00    -0.028 C 
ATOM      8  C   UNL     1      84.751  37.187  26.257  1.00  0.00     0.039 C 
ATOM      9  C   UNL     1      84.914  37.670  24.835  1.00  0.00    -0.080 C 
ATOM     10  C   UNL     1      83.728  38.235  24.096  1.00  0.00     0.039 C 
ENDBRANCH   6   7
ENDBRANCH   5   6
ENDBRANCH   3   5
ENDBRANCH   1   2
BRANCH   1  11
ATOM     11  C   UNL     1      86.888  38.989  29.209  1.00  0.00     0.034 C 
BRANCH  11  12
ATOM     12  C   UNL     1      86.200  37.771  29.784  1.00  0.00    -0.077 C 
ATOM     13  C   UNL     1      86.916  36.636  29.959  1.00  0.00    -0.028 C 
ATOM     14  C   UNL     1      84.736  37.856  30.149  1.00  0.00     0.039 C 
BRANCH  13  15
ATOM     15  C   UNL     1      86.343  35.337  30.466  1.00  0.00     0.035 C 
BRANCH  15  16
ATOM     16  C   UNL     1      87.424  34.510  31.169  1.00  0.00     0.079 C 
BRANCH  16  17
ATOM     17  C   UNL     1      87.222  34.526  32.659  1.00  0.00     0.130 C 
ATOM     18  O   UNL     1      88.050  34.001  33.389  1.00  0.00    -0.300 OA
ATOM     19  C   UNL     1      86.025  35.198  33.258  1.00  0.00     0.087 C 
ENDBRANCH  16  17
ENDBRANCH  15  16
ENDBRANCH  13  15
ENDBRANCH  11  12
ENDBRANCH   1  11
TORSDOF 9
ENDMDL
MODEL 8
REMARK VINA RESULT:    -5.844      3.604      7.788
REMARK INTER + INTRA:          -9.840
REMARK INTER:                  -8.632
REMARK INTRA:                  -1.208
REMARK UNBOUND:                -0.921
REMARK SMILES CC(=O)CCC=C(C)CCC=C(C)CCC=C(C)C
REMARK SMILES IDX 10 1 11 2 12 3 13 4 14 5 15 6 16 7 18 8 17 9 19 10 9 11 7 12
REMARK SMILES IDX 6 13 8 14 5 15 4 16 2 17 3 18 1 19
REMARK H PARENT
REMARK Flexibility Score: inf
ROOT
ATOM      1  C   UNL     1      88.205  37.932  24.399  1.00  0.00     0.032 C 
ENDROOT
BRANCH   1   2
ATOM      2  C   UNL     1      88.026  37.932  25.896  1.00  0.00    -0.028 C 
ATOM      3  C   UNL     1      88.694  38.748  26.743  1.00  0.00    -0.077 C 
ATOM      4  C   UNL     1      89.651  39.805  26.243  1.00  0.00     0.039 C 
BRANCH   3   5
ATOM      5  C   UNL     1      88.475  38.600  28.233  1.00  0.00     0.034 C 
BRANCH   5   6
ATOM      6  C   UNL     1      87.076  38.042  28.520  1.00  0.00     0.032 C 
BRANCH   6   7
ATOM      7  C   UNL     1      87.137  36.866  29.465  1.00  0.00    -0.028 C 
ATOM      8  C   UNL     1      86.389  35.285  27.683  1.00  0.00     0.039 C 
ATOM      9  C   UNL     1      86.823  35.607  29.094  1.00  0.00    -0.080 C 
ATOM     10  C   UNL     1      86.912  34.506  30.119  1.00  0.00     0.039 C 
ENDBRANCH   6   7
ENDBRANCH   5   6
ENDBRANCH   3   5
ENDBRANCH   1   2
BRANCH   1  11
ATOM     11  C   UNL     1      88.697  36.563  23.917  1.00  0.00     0.034 C 
BRANCH  11  12
ATOM     12  C   UNL     1      87.579  35.800  23.242  1.00  0.00    -0.077 C 
ATOM     13  C   UNL     1      86.321  36.295  23.300  1.00  0.00    -0.028 C 
ATOM     14  C   UNL     1      87.898  34.511  22.521  1.00  0.00     0.039 C 
BRANCH  13  15
ATOM     15  C   UNL     1      85.108  35.609  22.723  1.00  0.00     0.035 C 
BRANCH  15  16
ATOM     16  C   UNL     1      84.017  36.632  22.394  1.00  0.00     0.079 C 
BRANCH  16  17
ATOM     17  C   UNL     1      84.186  37.161  20.996  1.00  0.00     0.130 C 
ATOM     18  O   UNL     1      84.444  36.390  20.084  1.00  0.00    -0.300 OA
ATOM     19  C   UNL     1      84.021  38.622  20.711  1.00  0.00     0.087 C 
ENDBRANCH  16  17
ENDBRANCH  15  16
ENDBRANCH  13  15
ENDBRANCH  11  12
ENDBRANCH   1  11
TORSDOF 9
ENDMDL
MODEL 9
REMARK VINA RESULT:    -5.800      3.375      4.872
REMARK INTER + INTRA:          -9.773
REMARK INTER:                  -7.998
REMARK INTRA:                  -1.775
REMARK UNBOUND:                -0.921
REMARK SMILES CC(=O)CCC=C(C)CCC=C(C)CCC=C(C)C
REMARK SMILES IDX 10 1 11 2 12 3 13 4 14 5 15 6 16 7 18 8 17 9 19 10 9 11 7 12
REMARK SMILES IDX 6 13 8 14 5 15 4 16 2 17 3 18 1 19
REMARK H PARENT
REMARK Flexibility Score: inf
ROOT
ATOM      1  C   UNL     1      88.133  38.481  28.505  1.00  0.00     0.032 C 
ENDROOT
BRANCH   1   2
ATOM      2  C   UNL     1      88.154  37.968  27.087  1.00  0.00    -0.028 C 
ATOM      3  C   UNL     1      88.729  38.618  26.049  1.00  0.00    -0.077 C 
ATOM      4  C   UNL     1      89.478  39.916  26.238  1.00  0.00     0.039 C 
BRANCH   3   5
ATOM      5  C   UNL     1      88.618  38.027  24.661  1.00  0.00     0.034 C 
BRANCH   5   6
ATOM      6  C   UNL     1      87.484  36.999  24.599  1.00  0.00     0.032 C 
BRANCH   6   7
ATOM      7  C   UNL     1      86.201  37.623  24.107  1.00  0.00    -0.028 C 
ATOM      8  C   UNL     1      84.898  36.649  26.002  1.00  0.00     0.039 C 
ATOM      9  C   UNL     1      85.018  37.468  24.737  1.00  0.00    -0.080 C 
ATOM     10  C   UNL     1      83.795  38.130  24.157  1.00  0.00     0.039 C 
ENDBRANCH   6   7
ENDBRANCH   5   6
ENDBRANCH   3   5
ENDBRANCH   1   2
BRANCH   1  11
ATOM     11  C   UNL     1      87.209  37.622  29.374  1.00  0.00     0.034 C 
BRANCH  11  12
ATOM     12  C   UNL     1      85.895  38.329  29.620  1.00  0.00    -0.077 C 
ATOM     13  C   UNL     1      84.741  37.642  29.459  1.00  0.00    -0.028 C 
ATOM     14  C   UNL     1      85.909  39.781  30.040  1.00  0.00     0.039 C 
BRANCH  13  15
ATOM     15  C   UNL     1      83.365  38.238  29.613  1.00  0.00     0.035 C 
BRANCH  15  16
ATOM     16  C   UNL     1      82.784  38.613  28.247  1.00  0.00     0.079 C 
BRANCH  16  17
ATOM     17  C   UNL     1      82.458  40.080  28.190  1.00  0.00     0.130 C 
ATOM     18  O   UNL     1      82.580  40.767  29.193  1.00  0.00    -0.300 OA
ATOM     19  C   UNL     1      82.004  40.709  26.909  1.00  0.00     0.087 C 
ENDBRANCH  16  17
ENDBRANCH  15  16
ENDBRANCH  13  15
ENDBRANCH  11  12
ENDBRANCH   1  11
TORSDOF 9
ENDMDL
