MODEL 1
REMARK VINA RESULT:    -4.748      0.000      0.000
REMARK INTER + INTRA:          -6.606
REMARK INTER:                  -6.136
REMARK INTRA:                  -0.470
REMARK UNBOUND:                -0.470
REMARK SMILES C=CC(=O)CCCCC
REMARK SMILES IDX 6 1 7 2 8 3 9 4 5 5 3 6 4 7 2 8 1 9
REMARK H PARENT
REMARK Flexibility Score: inf
ROOT
ATOM      1  C   UNL     1     -10.157 -33.945  -9.962  1.00  0.00     0.008 C 
ENDROOT
BRANCH   1   2
ATOM      2  C   UNL     1     -11.626 -33.545  -9.735  1.00  0.00     0.000 C 
BRANCH   2   3
ATOM      3  C   UNL     1     -12.481 -33.676 -11.005  1.00  0.00    -0.003 C 
ATOM      4  C   UNL     1     -13.723 -34.524 -10.745  1.00  0.00     0.004 C 
ENDBRANCH   2   3
ENDBRANCH   1   2
BRANCH   1   5
ATOM      5  C   UNL     1      -9.767 -35.299  -9.343  1.00  0.00     0.080 C 
BRANCH   5   6
ATOM      6  C   UNL     1     -10.524 -36.451  -9.955  1.00  0.00     0.155 C 
ATOM      7  O   UNL     1     -11.248 -37.159  -9.206  1.00  0.00    -0.295 OA
BRANCH   6   8
ATOM      8  C   UNL     1     -10.483 -36.775 -11.397  1.00  0.00     0.039 C 
ATOM      9  C   UNL     1     -11.566 -36.912 -12.162  1.00  0.00     0.012 C 
ENDBRANCH   6   8
ENDBRANCH   5   6
ENDBRANCH   1   5
TORSDOF 5
ENDMDL
MODEL 2
REMARK VINA RESULT:    -4.544      1.613      2.107
REMARK INTER + INTRA:          -6.343
REMARK INTER:                  -6.282
REMARK INTRA:                  -0.061
REMARK UNBOUND:                -0.470
REMARK SMILES C=CC(=O)CCCCC
REMARK SMILES IDX 6 1 7 2 8 3 9 4 5 5 3 6 4 7 2 8 1 9
REMARK H PARENT
REMARK Flexibility Score: inf
ROOT
ATOM      1  C   UNL     1     -11.377 -33.711 -11.402  1.00  0.00     0.008 C 
ENDROOT
BRANCH   1   2
ATOM      2  C   UNL     1     -12.414 -33.800 -10.268  1.00  0.00     0.000 C 
BRANCH   2   3
ATOM      3  C   UNL     1     -13.689 -34.548 -10.684  1.00  0.00    -0.003 C 
ATOM      4  C   UNL     1     -13.371 -35.666 -11.674  1.00  0.00     0.004 C 
ENDBRANCH   2   3
ENDBRANCH   1   2
BRANCH   1   5
ATOM      5  C   UNL     1     -10.324 -34.832 -11.386  1.00  0.00     0.080 C 
BRANCH   5   6
ATOM      6  C   UNL     1      -9.983 -35.281  -9.988  1.00  0.00     0.155 C 
ATOM      7  O   UNL     1      -9.476 -34.444  -9.194  1.00  0.00    -0.295 OA
BRANCH   6   8
ATOM      8  C   UNL     1     -10.239 -36.649  -9.489  1.00  0.00     0.039 C 
ATOM      9  C   UNL     1     -11.405 -37.053  -8.983  1.00  0.00     0.012 C 
ENDBRANCH   6   8
ENDBRANCH   5   6
ENDBRANCH   1   5
TORSDOF 5
ENDMDL
MODEL 3
REMARK VINA RESULT:    -4.375      1.621      3.445
REMARK INTER + INTRA:          -6.124
REMARK INTER:                  -5.932
REMARK INTRA:                  -0.193
REMARK UNBOUND:                -0.470
REMARK SMILES C=CC(=O)CCCCC
REMARK SMILES IDX 6 1 7 2 8 3 9 4 5 5 3 6 4 7 2 8 1 9
REMARK H PARENT
REMARK Flexibility Score: inf
ROOT
ATOM      1  C   UNL     1     -10.628 -35.657 -12.111  1.00  0.00     0.008 C 
ENDROOT
BRANCH   1   2
ATOM      2  C   UNL     1     -10.999 -36.848 -11.208  1.00  0.00     0.000 C 
BRANCH   2   3
ATOM      3  C   UNL     1     -10.509 -36.674  -9.763  1.00  0.00    -0.003 C 
ATOM      4  C   UNL     1     -11.579 -37.107  -8.764  1.00  0.00     0.004 C 
ENDBRANCH   2   3
ENDBRANCH   1   2
BRANCH   1   5
ATOM      5  C   UNL     1     -10.269 -34.371 -11.348  1.00  0.00     0.080 C 
BRANCH   5   6
ATOM      6  C   UNL     1     -11.450 -33.790 -10.612  1.00  0.00     0.155 C 
ATOM      7  O   UNL     1     -11.252 -33.249  -9.492  1.00  0.00    -0.295 OA
BRANCH   6   8
ATOM      8  C   UNL     1     -12.826 -33.796 -11.152  1.00  0.00     0.039 C 
ATOM      9  C   UNL     1     -13.806 -34.572 -10.690  1.00  0.00     0.012 C 
ENDBRANCH   6   8
ENDBRANCH   5   6
ENDBRANCH   1   5
TORSDOF 5
ENDMDL
MODEL 4
REMARK VINA RESULT:    -4.338      8.525      9.903
REMARK INTER + INTRA:          -6.076
REMARK INTER:                  -5.655
REMARK INTRA:                  -0.421
REMARK UNBOUND:                -0.470
REMARK SMILES C=CC(=O)CCCCC
REMARK SMILES IDX 6 1 7 2 8 3 9 4 5 5 3 6 4 7 2 8 1 9
REMARK H PARENT
REMARK Flexibility Score: inf
ROOT
ATOM      1  C   UNL     1     -20.143 -36.634  -4.606  1.00  0.00     0.008 C 
ENDROOT
BRANCH   1   2
ATOM      2  C   UNL     1     -20.591 -37.837  -5.456  1.00  0.00     0.000 C 
BRANCH   2   3
ATOM      3  C   UNL     1     -19.517 -38.931  -5.551  1.00  0.00    -0.003 C 
ATOM      4  C   UNL     1     -19.023 -39.093  -6.986  1.00  0.00     0.004 C 
ENDBRANCH   2   3
ENDBRANCH   1   2
BRANCH   1   5
ATOM      5  C   UNL     1     -18.977 -36.934  -3.649  1.00  0.00     0.080 C 
BRANCH   5   6
ATOM      6  C   UNL     1     -17.790 -36.035  -3.889  1.00  0.00     0.155 C 
ATOM      7  O   UNL     1     -17.992 -34.801  -4.043  1.00  0.00    -0.295 OA
BRANCH   6   8
ATOM      8  C   UNL     1     -16.395 -36.524  -3.925  1.00  0.00     0.039 C 
ATOM      9  C   UNL     1     -16.040 -37.738  -4.347  1.00  0.00     0.012 C 
ENDBRANCH   6   8
ENDBRANCH   5   6
ENDBRANCH   1   5
TORSDOF 5
ENDMDL
MODEL 5
REMARK VINA RESULT:    -4.301      7.991      9.194
REMARK INTER + INTRA:          -6.028
REMARK INTER:                  -5.612
REMARK INTRA:                  -0.416
REMARK UNBOUND:                -0.470
REMARK SMILES C=CC(=O)CCCCC
REMARK SMILES IDX 6 1 7 2 8 3 9 4 5 5 3 6 4 7 2 8 1 9
REMARK H PARENT
REMARK Flexibility Score: inf
ROOT
ATOM      1  C   UNL     1     -16.231 -38.013  -4.202  1.00  0.00     0.008 C 
ENDROOT
BRANCH   1   2
ATOM      2  C   UNL     1     -15.396 -38.334  -5.455  1.00  0.00     0.000 C 
BRANCH   2   3
ATOM      3  C   UNL     1     -15.934 -39.544  -6.234  1.00  0.00    -0.003 C 
ATOM      4  C   UNL     1     -17.374 -39.312  -6.683  1.00  0.00     0.004 C 
ENDBRANCH   2   3
ENDBRANCH   1   2
BRANCH   1   5
ATOM      5  C   UNL     1     -16.363 -36.511  -3.897  1.00  0.00     0.080 C 
BRANCH   5   6
ATOM      6  C   UNL     1     -17.797 -36.045  -3.903  1.00  0.00     0.155 C 
ATOM      7  O   UNL     1     -18.030 -34.821  -4.086  1.00  0.00    -0.295 OA
BRANCH   6   8
ATOM      8  C   UNL     1     -18.948 -36.958  -3.734  1.00  0.00     0.039 C 
ATOM      9  C   UNL     1     -19.843 -37.215  -4.688  1.00  0.00     0.012 C 
ENDBRANCH   6   8
ENDBRANCH   5   6
ENDBRANCH   1   5
TORSDOF 5
ENDMDL
MODEL 6
REMARK VINA RESULT:    -4.117      8.961     10.274
REMARK INTER + INTRA:          -5.791
REMARK INTER:                  -5.616
REMARK INTRA:                  -0.175
REMARK UNBOUND:                -0.470
REMARK SMILES C=CC(=O)CCCCC
REMARK SMILES IDX 6 1 7 2 8 3 9 4 5 5 3 6 4 7 2 8 1 9
REMARK H PARENT
REMARK Flexibility Score: inf
ROOT
ATOM      1  C   UNL     1     -20.167 -36.443  -4.531  1.00  0.00     0.008 C 
ENDROOT
BRANCH   1   2
ATOM      2  C   UNL     1     -20.759 -37.418  -5.566  1.00  0.00     0.000 C 
BRANCH   2   3
ATOM      3  C   UNL     1     -21.995 -36.850  -6.279  1.00  0.00    -0.003 C 
ATOM      4  C   UNL     1     -23.031 -36.358  -5.272  1.00  0.00     0.004 C 
ENDBRANCH   2   3
ENDBRANCH   1   2
BRANCH   1   5
ATOM      5  C   UNL     1     -18.986 -37.015  -3.728  1.00  0.00     0.080 C 
BRANCH   5   6
ATOM      6  C   UNL     1     -17.727 -36.201  -3.897  1.00  0.00     0.155 C 
ATOM      7  O   UNL     1     -17.829 -34.948  -3.978  1.00  0.00    -0.295 OA
BRANCH   6   8
ATOM      8  C   UNL     1     -16.375 -36.797  -3.943  1.00  0.00     0.039 C 
ATOM      9  C   UNL     1     -16.108 -38.005  -4.441  1.00  0.00     0.012 C 
ENDBRANCH   6   8
ENDBRANCH   5   6
ENDBRANCH   1   5
TORSDOF 5
ENDMDL
MODEL 7
REMARK VINA RESULT:    -4.071      8.533      9.814
REMARK INTER + INTRA:          -5.732
REMARK INTER:                  -5.306
REMARK INTRA:                  -0.426
REMARK UNBOUND:                -0.470
REMARK SMILES C=CC(=O)CCCCC
REMARK SMILES IDX 6 1 7 2 8 3 9 4 5 5 3 6 4 7 2 8 1 9
REMARK H PARENT
REMARK Flexibility Score: inf
ROOT
ATOM      1  C   UNL     1     -17.798 -35.977  -3.882  1.00  0.00     0.008 C 
ENDROOT
BRANCH   1   2
ATOM      2  C   UNL     1     -16.377 -36.559  -3.995  1.00  0.00     0.000 C 
BRANCH   2   3
ATOM      3  C   UNL     1     -16.373 -38.071  -4.265  1.00  0.00    -0.003 C 
ATOM      4  C   UNL     1     -15.358 -38.433  -5.345  1.00  0.00     0.004 C 
ENDBRANCH   2   3
ENDBRANCH   1   2
BRANCH   1   5
ATOM      5  C   UNL     1     -18.905 -37.034  -3.723  1.00  0.00     0.080 C 
BRANCH   5   6
ATOM      6  C   UNL     1     -20.001 -36.878  -4.746  1.00  0.00     0.155 C 
ATOM      7  O   UNL     1     -20.619 -35.781  -4.801  1.00  0.00    -0.295 OA
BRANCH   6   8
ATOM      8  C   UNL     1     -20.370 -37.937  -5.709  1.00  0.00     0.039 C 
ATOM      9  C   UNL     1     -19.488 -38.719  -6.332  1.00  0.00     0.012 C 
ENDBRANCH   6   8
ENDBRANCH   5   6
ENDBRANCH   1   5
TORSDOF 5
ENDMDL
MODEL 8
REMARK VINA RESULT:    -4.053      3.076      4.344
REMARK INTER + INTRA:          -5.708
REMARK INTER:                  -5.560
REMARK INTRA:                  -0.148
REMARK UNBOUND:                -0.470
REMARK SMILES C=CC(=O)CCCCC
REMARK SMILES IDX 6 1 7 2 8 3 9 4 5 5 3 6 4 7 2 8 1 9
REMARK H PARENT
REMARK Flexibility Score: inf
ROOT
ATOM      1  C   UNL     1     -12.432 -37.112  -8.753  1.00  0.00     0.008 C 
ENDROOT
BRANCH   1   2
ATOM      2  C   UNL     1     -12.229 -38.178  -7.662  1.00  0.00     0.000 C 
BRANCH   2   3
ATOM      3  C   UNL     1     -13.552 -38.777  -7.162  1.00  0.00    -0.003 C 
ATOM      4  C   UNL     1     -13.311 -39.782  -6.039  1.00  0.00     0.004 C 
ENDBRANCH   2   3
ENDBRANCH   1   2
BRANCH   1   5
ATOM      5  C   UNL     1     -11.143 -36.704  -9.487  1.00  0.00     0.080 C 
BRANCH   5   6
ATOM      6  C   UNL     1     -11.395 -35.690 -10.574  1.00  0.00     0.155 C 
ATOM      7  O   UNL     1     -10.987 -35.944 -11.739  1.00  0.00    -0.295 OA
BRANCH   6   8
ATOM      8  C   UNL     1     -12.125 -34.424 -10.350  1.00  0.00     0.039 C 
ATOM      9  C   UNL     1     -13.279 -34.112 -10.941  1.00  0.00     0.012 C 
ENDBRANCH   6   8
ENDBRANCH   5   6
ENDBRANCH   1   5
TORSDOF 5
ENDMDL
MODEL 9
REMARK VINA RESULT:    -4.005      8.094      9.121
REMARK INTER + INTRA:          -5.646
REMARK INTER:                  -5.212
REMARK INTRA:                  -0.435
REMARK UNBOUND:                -0.470
REMARK SMILES C=CC(=O)CCCCC
REMARK SMILES IDX 6 1 7 2 8 3 9 4 5 5 3 6 4 7 2 8 1 9
REMARK H PARENT
REMARK Flexibility Score: inf
ROOT
ATOM      1  C   UNL     1     -16.944 -39.000  -4.967  1.00  0.00     0.008 C 
ENDROOT
BRANCH   1   2
ATOM      2  C   UNL     1     -15.898 -37.934  -4.590  1.00  0.00     0.000 C 
BRANCH   2   3
ATOM      3  C   UNL     1     -16.509 -36.740  -3.842  1.00  0.00    -0.003 C 
ATOM      4  C   UNL     1     -18.033 -36.818  -3.833  1.00  0.00     0.004 C 
ENDBRANCH   2   3
ENDBRANCH   1   2
BRANCH   1   5
ATOM      5  C   UNL     1     -16.951 -39.381  -6.458  1.00  0.00     0.080 C 
BRANCH   5   6
ATOM      6  C   UNL     1     -18.325 -39.287  -7.070  1.00  0.00     0.155 C 
ATOM      7  O   UNL     1     -18.426 -39.305  -8.326  1.00  0.00    -0.295 OA
BRANCH   6   8
ATOM      8  C   UNL     1     -19.567 -39.203  -6.271  1.00  0.00     0.039 C 
ATOM      9  C   UNL     1     -20.466 -38.226  -6.389  1.00  0.00     0.012 C 
ENDBRANCH   6   8
ENDBRANCH   5   6
ENDBRANCH   1   5
TORSDOF 5
ENDMDL
