MODEL 1
REMARK VINA RESULT:    -5.453      0.000      0.000
REMARK INTER + INTRA:          -7.577
REMARK INTER:                  -6.728
REMARK INTRA:                  -0.849
REMARK UNBOUND:                -0.849
REMARK SMILES C=C(CCC=C(C)C)[C@@H]1CC=C(C)CC1
REMARK SMILES IDX 3 1 2 2 1 3 9 4 13 5 12 6 11 7 14 8 10 9 15 10 4 11 5 12
REMARK SMILES IDX 6 13 7 14 8 15
REMARK H PARENT
REMARK Flexibility Score: inf
ROOT
ATOM      1  C   UNL     1       7.405   9.178  14.038  1.00  0.00     0.035 C 
ENDROOT
BRANCH   1   2
ATOM      2  C   UNL     1       6.556   8.546  15.128  1.00  0.00    -0.074 C 
ATOM      3  C   UNL     1       7.106   7.587  15.893  1.00  0.00     0.008 C 
BRANCH   2   4
ATOM      4  C   UNL     1       5.080   8.889  15.332  1.00  0.00     0.018 C 
ATOM      5  C   UNL     1       0.958   9.219  16.799  1.00  0.00     0.039 C 
ATOM      6  C   UNL     1       2.385   8.991  16.384  1.00  0.00    -0.077 C 
ATOM      7  C   UNL     1       3.374   9.591  17.077  1.00  0.00    -0.027 C 
ATOM      8  C   UNL     1       2.664   8.201  15.121  1.00  0.00     0.031 C 
ATOM      9  C   UNL     1       4.838   9.386  16.771  1.00  0.00     0.035 C 
ATOM     10  C   UNL     1       4.119   7.729  15.021  1.00  0.00     0.013 C 
ENDBRANCH   2   4
ENDBRANCH   1   2
BRANCH   1  11
ATOM     11  C   UNL     1       8.287   8.129  13.353  1.00  0.00     0.032 C 
BRANCH  11  12
ATOM     12  C   UNL     1       7.552   7.477  12.209  1.00  0.00    -0.028 C 
ATOM     13  C   UNL     1       7.281   6.156  12.130  1.00  0.00    -0.080 C 
ATOM     14  C   UNL     1       6.572   5.640  10.905  1.00  0.00     0.039 C 
ATOM     15  C   UNL     1       7.653   5.195  13.236  1.00  0.00     0.039 C 
ENDBRANCH  11  12
ENDBRANCH   1  11
TORSDOF 4
ENDMDL
MODEL 2
REMARK VINA RESULT:    -5.376     13.023     15.581
REMARK INTER + INTRA:          -7.482
REMARK INTER:                  -6.589
REMARK INTRA:                  -0.893
REMARK UNBOUND:                -0.849
REMARK SMILES C=C(CCC=C(C)C)[C@@H]1CC=C(C)CC1
REMARK SMILES IDX 3 1 2 2 1 3 9 4 13 5 12 6 11 7 14 8 10 9 15 10 4 11 5 12
REMARK SMILES IDX 6 13 7 14 8 15
REMARK H PARENT
REMARK Flexibility Score: inf
ROOT
ATOM      1  C   UNL     1       9.756   5.404  27.129  1.00  0.00     0.035 C 
ENDROOT
BRANCH   1   2
ATOM      2  C   UNL     1      10.380   6.743  27.483  1.00  0.00    -0.074 C 
ATOM      3  C   UNL     1       9.674   7.599  28.242  1.00  0.00     0.008 C 
BRANCH   2   4
ATOM      4  C   UNL     1      11.736   7.194  26.940  1.00  0.00     0.018 C 
ATOM      5  C   UNL     1      15.447   7.681  24.650  1.00  0.00     0.039 C 
ATOM      6  C   UNL     1      14.161   7.384  25.371  1.00  0.00    -0.077 C 
ATOM      7  C   UNL     1      12.993   7.750  24.805  1.00  0.00    -0.027 C 
ATOM      8  C   UNL     1      14.221   6.803  26.769  1.00  0.00     0.031 C 
ATOM      9  C   UNL     1      11.649   7.454  25.424  1.00  0.00     0.035 C 
ATOM     10  C   UNL     1      12.884   6.209  27.226  1.00  0.00     0.013 C 
ENDBRANCH   2   4
ENDBRANCH   1   2
BRANCH   1  11
ATOM     11  C   UNL     1       9.322   4.651  28.392  1.00  0.00     0.032 C 
BRANCH  11  12
ATOM     12  C   UNL     1      10.521   4.239  29.208  1.00  0.00    -0.028 C 
ATOM     13  C   UNL     1      10.822   4.737  30.427  1.00  0.00    -0.080 C 
ATOM     14  C   UNL     1      12.078   4.258  31.108  1.00  0.00     0.039 C 
ATOM     15  C   UNL     1       9.931   5.738  31.125  1.00  0.00     0.039 C 
ENDBRANCH  11  12
ENDBRANCH   1  11
TORSDOF 4
ENDMDL
MODEL 3
REMARK VINA RESULT:    -5.346     12.697     15.390
REMARK INTER + INTRA:          -7.444
REMARK INTER:                  -6.969
REMARK INTRA:                  -0.475
REMARK UNBOUND:                -0.849
REMARK SMILES C=C(CCC=C(C)C)[C@@H]1CC=C(C)CC1
REMARK SMILES IDX 3 1 2 2 1 3 9 4 13 5 12 6 11 7 14 8 10 9 15 10 4 11 5 12
REMARK SMILES IDX 6 13 7 14 8 15
REMARK H PARENT
REMARK Flexibility Score: inf
ROOT
ATOM      1  C   UNL     1      12.041   7.153  26.862  1.00  0.00     0.035 C 
ENDROOT
BRANCH   1   2
ATOM      2  C   UNL     1      12.709   7.497  25.542  1.00  0.00    -0.074 C 
ATOM      3  C   UNL     1      12.061   7.206  24.401  1.00  0.00     0.008 C 
BRANCH   2   4
ATOM      4  C   UNL     1      14.121   8.076  25.455  1.00  0.00     0.018 C 
ATOM      5  C   UNL     1      18.410   8.737  24.801  1.00  0.00     0.039 C 
ATOM      6  C   UNL     1      16.967   8.368  25.011  1.00  0.00    -0.077 C 
ATOM      7  C   UNL     1      16.150   8.279  23.941  1.00  0.00    -0.027 C 
ATOM      8  C   UNL     1      16.443   8.237  26.426  1.00  0.00     0.031 C 
ATOM      9  C   UNL     1      14.701   7.868  24.042  1.00  0.00     0.035 C 
ATOM     10  C   UNL     1      15.097   7.505  26.499  1.00  0.00     0.013 C 
ENDBRANCH   2   4
ENDBRANCH   1   2
BRANCH   1  11
ATOM     11  C   UNL     1      11.829   5.640  26.991  1.00  0.00     0.032 C 
BRANCH  11  12
ATOM     12  C   UNL     1      11.217   5.298  28.326  1.00  0.00    -0.028 C 
ATOM     13  C   UNL     1      10.257   4.365  28.509  1.00  0.00    -0.080 C 
ATOM     14  C   UNL     1       9.711   4.158  29.898  1.00  0.00     0.039 C 
ATOM     15  C   UNL     1       9.736   3.520  27.370  1.00  0.00     0.039 C 
ENDBRANCH  11  12
ENDBRANCH   1  11
TORSDOF 4
ENDMDL
MODEL 4
REMARK VINA RESULT:    -5.298     12.867     14.264
REMARK INTER + INTRA:          -7.385
REMARK INTER:                  -6.712
REMARK INTRA:                  -0.673
REMARK UNBOUND:                -0.849
REMARK SMILES C=C(CCC=C(C)C)[C@@H]1CC=C(C)CC1
REMARK SMILES IDX 3 1 2 2 1 3 9 4 13 5 12 6 11 7 14 8 10 9 15 10 4 11 5 12
REMARK SMILES IDX 6 13 7 14 8 15
REMARK H PARENT
REMARK Flexibility Score: inf
ROOT
ATOM      1  C   UNL     1      13.374   6.975  25.001  1.00  0.00     0.035 C 
ENDROOT
BRANCH   1   2
ATOM      2  C   UNL     1      12.404   7.812  25.817  1.00  0.00    -0.074 C 
ATOM      3  C   UNL     1      12.264   9.113  25.511  1.00  0.00     0.008 C 
BRANCH   2   4
ATOM      4  C   UNL     1      11.648   7.259  27.027  1.00  0.00     0.018 C 
ATOM      5  C   UNL     1       9.363   4.790  29.844  1.00  0.00     0.039 C 
ATOM      6  C   UNL     1      10.103   5.545  28.774  1.00  0.00    -0.077 C 
ATOM      7  C   UNL     1      11.379   5.206  28.496  1.00  0.00    -0.027 C 
ATOM      8  C   UNL     1       9.441   6.746  28.132  1.00  0.00     0.031 C 
ATOM      9  C   UNL     1      12.190   5.868  27.409  1.00  0.00     0.035 C 
ATOM     10  C   UNL     1      10.124   7.180  26.829  1.00  0.00     0.013 C 
ENDBRANCH   2   4
ENDBRANCH   1   2
BRANCH   1  11
ATOM     11  C   UNL     1      14.146   7.847  24.005  1.00  0.00     0.032 C 
BRANCH  11  12
ATOM     12  C   UNL     1      15.621   7.538  24.054  1.00  0.00    -0.028 C 
ATOM     13  C   UNL     1      16.537   8.290  24.703  1.00  0.00    -0.080 C 
ATOM     14  C   UNL     1      17.985   7.878  24.632  1.00  0.00     0.039 C 
ATOM     15  C   UNL     1      16.148   9.510  25.504  1.00  0.00     0.039 C 
ENDBRANCH  11  12
ENDBRANCH   1  11
TORSDOF 4
ENDMDL
MODEL 5
REMARK VINA RESULT:    -5.253      1.292      2.563
REMARK INTER + INTRA:          -7.330
REMARK INTER:                  -6.687
REMARK INTRA:                  -0.643
REMARK UNBOUND:                -0.849
REMARK SMILES C=C(CCC=C(C)C)[C@@H]1CC=C(C)CC1
REMARK SMILES IDX 3 1 2 2 1 3 9 4 13 5 12 6 11 7 14 8 10 9 15 10 4 11 5 12
REMARK SMILES IDX 6 13 7 14 8 15
REMARK H PARENT
REMARK Flexibility Score: inf
ROOT
ATOM      1  C   UNL     1       4.925   7.061  15.837  1.00  0.00     0.035 C 
ENDROOT
BRANCH   1   2
ATOM      2  C   UNL     1       4.600   8.521  16.107  1.00  0.00    -0.074 C 
ATOM      3  C   UNL     1       5.573   9.434  15.943  1.00  0.00     0.008 C 
BRANCH   2   4
ATOM      4  C   UNL     1       3.245   8.982  16.641  1.00  0.00     0.018 C 
ATOM      5  C   UNL     1      -0.817   9.220  18.286  1.00  0.00     0.039 C 
ATOM      6  C   UNL     1       0.549   8.998  17.696  1.00  0.00    -0.077 C 
ATOM      7  C   UNL     1       1.559   8.618  18.505  1.00  0.00    -0.027 C 
ATOM      8  C   UNL     1       0.781   9.334  16.237  1.00  0.00     0.031 C 
ATOM      9  C   UNL     1       2.951   8.323  18.003  1.00  0.00     0.035 C 
ATOM     10  C   UNL     1       2.071   8.720  15.681  1.00  0.00     0.013 C 
ENDBRANCH   2   4
ENDBRANCH   1   2
BRANCH   1  11
ATOM     11  C   UNL     1       6.440   6.837  15.787  1.00  0.00     0.032 C 
BRANCH  11  12
ATOM     12  C   UNL     1       6.847   6.217  14.474  1.00  0.00    -0.028 C 
ATOM     13  C   UNL     1       7.665   6.804  13.574  1.00  0.00    -0.080 C 
ATOM     14  C   UNL     1       7.952   6.081  12.284  1.00  0.00     0.039 C 
ATOM     15  C   UNL     1       8.307   8.148  13.833  1.00  0.00     0.039 C 
ENDBRANCH  11  12
ENDBRANCH   1  11
TORSDOF 4
ENDMDL
MODEL 6
REMARK VINA RESULT:    -5.242     12.425     14.448
REMARK INTER + INTRA:          -7.316
REMARK INTER:                  -6.474
REMARK INTRA:                  -0.842
REMARK UNBOUND:                -0.849
REMARK SMILES C=C(CCC=C(C)C)[C@@H]1CC=C(C)CC1
REMARK SMILES IDX 3 1 2 2 1 3 9 4 13 5 12 6 11 7 14 8 10 9 15 10 4 11 5 12
REMARK SMILES IDX 6 13 7 14 8 15
REMARK H PARENT
REMARK Flexibility Score: inf
ROOT
ATOM      1  C   UNL     1      14.595   9.648  24.514  1.00  0.00     0.035 C 
ENDROOT
BRANCH   1   2
ATOM      2  C   UNL     1      13.850   8.407  24.050  1.00  0.00    -0.074 C 
ATOM      3  C   UNL     1      13.590   8.269  22.739  1.00  0.00     0.008 C 
BRANCH   2   4
ATOM      4  C   UNL     1      13.307   7.357  25.020  1.00  0.00     0.018 C 
ATOM      5  C   UNL     1      11.541   5.230  28.427  1.00  0.00     0.039 C 
ATOM      6  C   UNL     1      12.159   6.074  27.347  1.00  0.00    -0.077 C 
ATOM      7  C   UNL     1      11.358   6.817  26.555  1.00  0.00    -0.027 C 
ATOM      8  C   UNL     1      13.649   5.965  27.094  1.00  0.00     0.031 C 
ATOM      9  C   UNL     1      11.884   7.733  25.478  1.00  0.00     0.035 C 
ATOM     10  C   UNL     1      14.198   7.123  26.252  1.00  0.00     0.013 C 
ENDBRANCH   2   4
ENDBRANCH   1   2
BRANCH   1  11
ATOM     11  C   UNL     1      15.806   9.927  23.617  1.00  0.00     0.032 C 
BRANCH  11  12
ATOM     12  C   UNL     1      17.058  10.081  24.442  1.00  0.00    -0.028 C 
ATOM     13  C   UNL     1      17.866   9.060  24.801  1.00  0.00    -0.080 C 
ATOM     14  C   UNL     1      19.065   9.361  25.663  1.00  0.00     0.039 C 
ATOM     15  C   UNL     1      17.611   7.641  24.350  1.00  0.00     0.039 C 
ENDBRANCH  11  12
ENDBRANCH   1  11
TORSDOF 4
ENDMDL
MODEL 7
REMARK VINA RESULT:    -5.239     12.497     15.259
REMARK INTER + INTRA:          -7.312
REMARK INTER:                  -6.545
REMARK INTRA:                  -0.767
REMARK UNBOUND:                -0.849
REMARK SMILES C=C(CCC=C(C)C)[C@@H]1CC=C(C)CC1
REMARK SMILES IDX 3 1 2 2 1 3 9 4 13 5 12 6 11 7 14 8 10 9 15 10 4 11 5 12
REMARK SMILES IDX 6 13 7 14 8 15
REMARK H PARENT
REMARK Flexibility Score: inf
ROOT
ATOM      1  C   UNL     1      13.127   5.986  25.487  1.00  0.00     0.035 C 
ENDROOT
BRANCH   1   2
ATOM      2  C   UNL     1      13.716   7.238  24.859  1.00  0.00    -0.074 C 
ATOM      3  C   UNL     1      12.951   7.952  24.016  1.00  0.00     0.008 C 
BRANCH   2   4
ATOM      4  C   UNL     1      15.168   7.668  25.074  1.00  0.00     0.018 C 
ATOM      5  C   UNL     1      19.125   9.547  24.819  1.00  0.00     0.039 C 
ATOM      6  C   UNL     1      17.744   8.952  24.772  1.00  0.00    -0.077 C 
ATOM      7  C   UNL     1      16.697   9.691  25.190  1.00  0.00    -0.027 C 
ATOM      8  C   UNL     1      17.586   7.497  24.380  1.00  0.00     0.031 C 
ATOM      9  C   UNL     1      15.270   9.204  25.136  1.00  0.00     0.035 C 
ATOM     10  C   UNL     1      16.143   7.132  24.011  1.00  0.00     0.013 C 
ENDBRANCH   2   4
ENDBRANCH   1   2
BRANCH   1  11
ATOM     11  C   UNL     1      12.905   6.181  26.991  1.00  0.00     0.032 C 
BRANCH  11  12
ATOM     12  C   UNL     1      11.458   5.953  27.351  1.00  0.00    -0.028 C 
ATOM     13  C   UNL     1      10.537   6.934  27.467  1.00  0.00    -0.080 C 
ATOM     14  C   UNL     1       9.135   6.560  27.873  1.00  0.00     0.039 C 
ATOM     15  C   UNL     1      10.869   8.381  27.185  1.00  0.00     0.039 C 
ENDBRANCH  11  12
ENDBRANCH   1  11
TORSDOF 4
ENDMDL
MODEL 8
REMARK VINA RESULT:    -5.234     13.056     15.182
REMARK INTER + INTRA:          -7.306
REMARK INTER:                  -6.576
REMARK INTRA:                  -0.730
REMARK UNBOUND:                -0.849
REMARK SMILES C=C(CCC=C(C)C)[C@@H]1CC=C(C)CC1
REMARK SMILES IDX 3 1 2 2 1 3 9 4 13 5 12 6 11 7 14 8 10 9 15 10 4 11 5 12
REMARK SMILES IDX 6 13 7 14 8 15
REMARK H PARENT
REMARK Flexibility Score: inf
ROOT
ATOM      1  C   UNL     1      10.054   4.919  26.985  1.00  0.00     0.035 C 
ENDROOT
BRANCH   1   2
ATOM      2  C   UNL     1      11.422   5.569  27.109  1.00  0.00    -0.074 C 
ATOM      3  C   UNL     1      12.217   5.201  28.128  1.00  0.00     0.008 C 
BRANCH   2   4
ATOM      4  C   UNL     1      11.896   6.685  26.177  1.00  0.00     0.018 C 
ATOM      5  C   UNL     1      13.924  10.120  24.349  1.00  0.00     0.039 C 
ATOM      6  C   UNL     1      13.282   8.988  25.103  1.00  0.00    -0.077 C 
ATOM      7  C   UNL     1      13.967   7.837  25.266  1.00  0.00    -0.027 C 
ATOM      8  C   UNL     1      11.839   9.124  25.542  1.00  0.00     0.031 C 
ATOM      9  C   UNL     1      13.431   6.663  26.048  1.00  0.00     0.035 C 
ATOM     10  C   UNL     1      11.436   8.091  26.601  1.00  0.00     0.013 C 
ENDBRANCH   2   4
ENDBRANCH   1   2
BRANCH   1  11
ATOM     11  C   UNL     1       9.410   4.734  28.363  1.00  0.00     0.032 C 
BRANCH  11  12
ATOM     12  C   UNL     1       9.074   6.069  28.980  1.00  0.00    -0.028 C 
ATOM     13  C   UNL     1       9.427   6.443  30.229  1.00  0.00    -0.080 C 
ATOM     14  C   UNL     1       8.986   7.796  30.726  1.00  0.00     0.039 C 
ATOM     15  C   UNL     1      10.259   5.556  31.125  1.00  0.00     0.039 C 
ENDBRANCH  11  12
ENDBRANCH   1  11
TORSDOF 4
ENDMDL
MODEL 9
REMARK VINA RESULT:    -5.225      1.621      6.176
REMARK INTER + INTRA:          -7.296
REMARK INTER:                  -6.387
REMARK INTRA:                  -0.909
REMARK UNBOUND:                -0.849
REMARK SMILES C=C(CCC=C(C)C)[C@@H]1CC=C(C)CC1
REMARK SMILES IDX 3 1 2 2 1 3 9 4 13 5 12 6 11 7 14 8 10 9 15 10 4 11 5 12
REMARK SMILES IDX 6 13 7 14 8 15
REMARK H PARENT
REMARK Flexibility Score: inf
ROOT
ATOM      1  C   UNL     1       4.936   8.192  17.359  1.00  0.00     0.035 C 
ENDROOT
BRANCH   1   2
ATOM      2  C   UNL     1       4.661   7.099  16.339  1.00  0.00    -0.074 C 
ATOM      3  C   UNL     1       3.787   6.129  16.660  1.00  0.00     0.008 C 
BRANCH   2   4
ATOM      4  C   UNL     1       5.401   7.007  15.005  1.00  0.00     0.018 C 
ATOM      5  C   UNL     1       6.999   5.772  11.109  1.00  0.00     0.039 C 
ATOM      6  C   UNL     1       6.410   6.057  12.463  1.00  0.00    -0.077 C 
ATOM      7  C   UNL     1       5.113   6.414  12.553  1.00  0.00    -0.027 C 
ATOM      8  C   UNL     1       7.323   6.063  13.673  1.00  0.00     0.031 C 
ATOM      9  C   UNL     1       4.417   6.672  13.867  1.00  0.00     0.035 C 
ATOM     10  C   UNL     1       6.557   5.991  14.999  1.00  0.00     0.013 C 
ENDBRANCH   2   4
ENDBRANCH   1   2
BRANCH   1  11
ATOM     11  C   UNL     1       4.144   9.461  17.028  1.00  0.00     0.032 C 
BRANCH  11  12
ATOM     12  C   UNL     1       2.845   9.496  17.794  1.00  0.00    -0.028 C 
ATOM     13  C   UNL     1       1.627   9.317  17.238  1.00  0.00    -0.080 C 
ATOM     14  C   UNL     1       0.412   9.418  18.123  1.00  0.00     0.039 C 
ATOM     15  C   UNL     1       1.456   9.004  15.770  1.00  0.00     0.039 C 
ENDBRANCH  11  12
ENDBRANCH   1  11
TORSDOF 4
ENDMDL
