MODEL 1
REMARK VINA RESULT:    -5.678      0.000      0.000
REMARK INTER + INTRA:          -6.946
REMARK INTER:                  -6.674
REMARK INTRA:                  -0.272
REMARK UNBOUND:                -0.272
REMARK SMILES O=c1cc(-c2ccc(O)c(O)c2)oc2cc(O)cc(O)c12
REMARK SMILES IDX 4 1 3 2 2 3 1 4 21 5 19 6 18 7 16 8 15 9 14 10 13 11 5 12
REMARK SMILES IDX 6 13 7 14 8 15 12 16 10 17 9 18 11 20 20 22 17 24
REMARK H PARENT 9 19 11 21 20 23 17 25
REMARK Flexibility Score: inf
ROOT
ATOM      1  C   UNL     1       1.885   5.259  10.699  1.00  0.00     0.138 A 
ATOM      2  C   UNL     1       2.577   5.635   9.540  1.00  0.00     0.100 A 
ATOM      3  C   UNL     1       2.401   6.918   9.017  1.00  0.00     0.197 A 
ATOM      4  O   UNL     1       3.083   7.248   8.012  1.00  0.00    -0.289 OA
ATOM      5  C   UNL     1       1.503   7.815   9.642  1.00  0.00     0.107 A 
ATOM      6  C   UNL     1       1.213   9.131   9.174  1.00  0.00     0.134 A 
ATOM      7  C   UNL     1       0.395   9.971   9.941  1.00  0.00     0.093 A 
ATOM      8  C   UNL     1      -0.192   9.519  11.126  1.00  0.00     0.123 A 
ATOM      9  C   UNL     1       0.042   8.218  11.562  1.00  0.00     0.094 A 
ATOM     10  C   UNL     1       0.881   7.368  10.839  1.00  0.00     0.146 A 
ATOM     11  O   UNL     1       1.089   6.138  11.297  1.00  0.00    -0.456 OA
ENDROOT
BRANCH   1  12
ATOM     12  C   UNL     1       2.034   3.907  11.296  1.00  0.00     0.021 A 
ATOM     13  C   UNL     1       0.918   3.128  11.654  1.00  0.00     0.016 A 
ATOM     14  C   UNL     1       1.089   1.865  12.224  1.00  0.00     0.051 A 
ATOM     15  C   UNL     1       2.375   1.358  12.452  1.00  0.00     0.157 A 
ATOM     16  C   UNL     1       3.322   3.397  11.541  1.00  0.00     0.062 A 
ATOM     17  C   UNL     1       3.496   2.131  12.110  1.00  0.00     0.158 A 
BRANCH  15  18
ATOM     18  O   UNL     1       2.541   0.096  13.020  1.00  0.00    -0.504 OA
ATOM     19  H   UNL     1       3.395  -0.161  13.502  1.00  0.00     0.293 HD
ENDBRANCH  15  18
BRANCH  17  20
ATOM     20  O   UNL     1       4.790   1.658  12.329  1.00  0.00    -0.504 OA
ATOM     21  H   UNL     1       4.997   0.962  13.035  1.00  0.00     0.293 HD
ENDBRANCH  17  20
ENDBRANCH   1  12
BRANCH   6  22
ATOM     22  O   UNL     1       1.679   9.651   7.963  1.00  0.00    -0.507 OA
ATOM     23  H   UNL     1       2.065  10.575   7.842  1.00  0.00     0.293 HD
ENDBRANCH   6  22
BRANCH   8  24
ATOM     24  O   UNL     1      -1.017  10.357  11.874  1.00  0.00    -0.508 OA
ATOM     25  H   UNL     1      -1.110  11.343  11.656  1.00  0.00     0.293 HD
ENDBRANCH   8  24
TORSDOF 5
ENDMDL
MODEL 2
REMARK VINA RESULT:    -5.501      0.647      1.512
REMARK INTER + INTRA:          -6.737
REMARK INTER:                  -6.445
REMARK INTRA:                  -0.292
REMARK UNBOUND:                -0.272
REMARK SMILES O=c1cc(-c2ccc(O)c(O)c2)oc2cc(O)cc(O)c12
REMARK SMILES IDX 4 1 3 2 2 3 1 4 21 5 19 6 18 7 16 8 15 9 14 10 13 11 5 12
REMARK SMILES IDX 6 13 7 14 8 15 12 16 10 17 9 18 11 20 20 22 17 24
REMARK H PARENT 9 19 11 21 20 23 17 25
REMARK Flexibility Score: inf
ROOT
ATOM      1  C   UNL     1       1.878   5.253  10.754  1.00  0.00     0.138 A 
ATOM      2  C   UNL     1       2.553   5.617   9.582  1.00  0.00     0.100 A 
ATOM      3  C   UNL     1       2.363   6.891   9.043  1.00  0.00     0.197 A 
ATOM      4  O   UNL     1       3.031   7.211   8.025  1.00  0.00    -0.289 OA
ATOM      5  C   UNL     1       1.467   7.792   9.666  1.00  0.00     0.107 A 
ATOM      6  C   UNL     1       1.164   9.099   9.183  1.00  0.00     0.134 A 
ATOM      7  C   UNL     1       0.350   9.945   9.947  1.00  0.00     0.093 A 
ATOM      8  C   UNL     1      -0.220   9.507  11.146  1.00  0.00     0.123 A 
ATOM      9  C   UNL     1       0.027   8.214  11.598  1.00  0.00     0.094 A 
ATOM     10  C   UNL     1       0.863   7.358  10.876  1.00  0.00     0.146 A 
ATOM     11  O   UNL     1       1.084   6.137  11.350  1.00  0.00    -0.456 OA
ENDROOT
BRANCH   1  12
ATOM     12  C   UNL     1       2.043   3.911  11.369  1.00  0.00     0.021 A 
ATOM     13  C   UNL     1       3.309   3.314  11.513  1.00  0.00     0.016 A 
ATOM     14  C   UNL     1       3.433   2.045  12.085  1.00  0.00     0.051 A 
ATOM     15  C   UNL     1       2.297   1.349  12.517  1.00  0.00     0.157 A 
ATOM     16  C   UNL     1       0.906   3.199  11.791  1.00  0.00     0.062 A 
ATOM     17  C   UNL     1       1.028   1.929  12.366  1.00  0.00     0.158 A 
BRANCH  15  18
ATOM     18  O   UNL     1       2.426   0.084  13.089  1.00  0.00    -0.504 OA
ATOM     19  H   UNL     1       1.825  -0.685  12.816  1.00  0.00     0.293 HD
ENDBRANCH  15  18
BRANCH  17  20
ATOM     20  O   UNL     1      -0.123   1.260  12.781  1.00  0.00    -0.504 OA
ATOM     21  H   UNL     1      -0.203   0.251  12.746  1.00  0.00     0.293 HD
ENDBRANCH  17  20
ENDBRANCH   1  12
BRANCH   6  22
ATOM     22  O   UNL     1       1.612   9.604   7.958  1.00  0.00    -0.507 OA
ATOM     23  H   UNL     1       2.050   9.055   7.235  1.00  0.00     0.293 HD
ENDBRANCH   6  22
BRANCH   8  24
ATOM     24  O   UNL     1      -1.041  10.351  11.892  1.00  0.00    -0.508 OA
ATOM     25  H   UNL     1      -2.050  10.312  11.815  1.00  0.00     0.293 HD
ENDBRANCH   8  24
TORSDOF 5
ENDMDL
MODEL 3
REMARK VINA RESULT:    -5.192      1.549      2.880
REMARK INTER + INTRA:          -6.374
REMARK INTER:                  -6.097
REMARK INTRA:                  -0.277
REMARK UNBOUND:                -0.272
REMARK SMILES O=c1cc(-c2ccc(O)c(O)c2)oc2cc(O)cc(O)c12
REMARK SMILES IDX 4 1 3 2 2 3 1 4 21 5 19 6 18 7 16 8 15 9 14 10 13 11 5 12
REMARK SMILES IDX 6 13 7 14 8 15 12 16 10 17 9 18 11 20 20 22 17 24
REMARK H PARENT 9 19 11 21 20 23 17 25
REMARK Flexibility Score: inf
ROOT
ATOM      1  C   UNL     1       1.966   6.134  10.559  1.00  0.00     0.138 A 
ATOM      2  C   UNL     1       0.899   6.790  11.187  1.00  0.00     0.100 A 
ATOM      3  C   UNL     1       0.690   8.150  10.951  1.00  0.00     0.197 A 
ATOM      4  O   UNL     1      -0.313   8.697  11.479  1.00  0.00    -0.289 OA
ATOM      5  C   UNL     1       1.575   8.861  10.106  1.00  0.00     0.107 A 
ATOM      6  C   UNL     1       1.485  10.257   9.826  1.00  0.00     0.134 A 
ATOM      7  C   UNL     1       2.348  10.828   8.883  1.00  0.00     0.093 A 
ATOM      8  C   UNL     1       3.337  10.066   8.256  1.00  0.00     0.123 A 
ATOM      9  C   UNL     1       3.468   8.714   8.563  1.00  0.00     0.094 A 
ATOM     10  C   UNL     1       2.600   8.107   9.474  1.00  0.00     0.146 A 
ATOM     11  O   UNL     1       2.749   6.812   9.728  1.00  0.00    -0.456 OA
ENDROOT
BRANCH   1  12
ATOM     12  C   UNL     1       2.233   4.689  10.777  1.00  0.00     0.021 A 
ATOM     13  C   UNL     1       1.275   3.704  10.470  1.00  0.00     0.016 A 
ATOM     14  C   UNL     1       1.551   2.354  10.695  1.00  0.00     0.051 A 
ATOM     15  C   UNL     1       2.782   1.962  11.235  1.00  0.00     0.157 A 
ATOM     16  C   UNL     1       3.461   4.288  11.332  1.00  0.00     0.062 A 
ATOM     17  C   UNL     1       3.740   2.936  11.557  1.00  0.00     0.158 A 
BRANCH  15  18
ATOM     18  O   UNL     1       3.053   0.612  11.456  1.00  0.00    -0.504 OA
ATOM     19  H   UNL     1       3.904   0.180  11.116  1.00  0.00     0.293 HD
ENDBRANCH  15  18
BRANCH  17  20
ATOM     20  O   UNL     1       4.974   2.579  12.100  1.00  0.00    -0.504 OA
ATOM     21  H   UNL     1       5.437   3.142  12.803  1.00  0.00     0.293 HD
ENDBRANCH  17  20
ENDBRANCH   1  12
BRANCH   6  22
ATOM     22  O   UNL     1       0.590  11.125  10.459  1.00  0.00    -0.507 OA
ATOM     23  H   UNL     1       0.805  12.069  10.742  1.00  0.00     0.293 HD
ENDBRANCH   6  22
BRANCH   8  24
ATOM     24  O   UNL     1       4.201  10.647   7.329  1.00  0.00    -0.508 OA
ATOM     25  H   UNL     1       3.853  11.122   6.505  1.00  0.00     0.293 HD
ENDBRANCH   8  24
TORSDOF 5
ENDMDL
MODEL 4
REMARK VINA RESULT:    -5.106      2.516      3.642
REMARK INTER + INTRA:          -6.273
REMARK INTER:                  -6.001
REMARK INTRA:                  -0.272
REMARK UNBOUND:                -0.272
REMARK SMILES O=c1cc(-c2ccc(O)c(O)c2)oc2cc(O)cc(O)c12
REMARK SMILES IDX 4 1 3 2 2 3 1 4 21 5 19 6 18 7 16 8 15 9 14 10 13 11 5 12
REMARK SMILES IDX 6 13 7 14 8 15 12 16 10 17 9 18 11 20 20 22 17 24
REMARK H PARENT 9 19 11 21 20 23 17 25
REMARK Flexibility Score: inf
ROOT
ATOM      1  C   UNL     1       2.518   6.233  10.259  1.00  0.00     0.138 A 
ATOM      2  C   UNL     1       1.642   6.878   9.376  1.00  0.00     0.100 A 
ATOM      3  C   UNL     1       2.071   8.011   8.683  1.00  0.00     0.197 A 
ATOM      4  O   UNL     1       1.283   8.531   7.851  1.00  0.00    -0.289 OA
ATOM      5  C   UNL     1       3.374   8.516   8.900  1.00  0.00     0.107 A 
ATOM      6  C   UNL     1       3.905   9.687   8.280  1.00  0.00     0.134 A 
ATOM      7  C   UNL     1       5.249  10.026   8.483  1.00  0.00     0.093 A 
ATOM      8  C   UNL     1       6.063   9.270   9.331  1.00  0.00     0.123 A 
ATOM      9  C   UNL     1       5.539   8.157   9.982  1.00  0.00     0.094 A 
ATOM     10  C   UNL     1       4.212   7.773   9.774  1.00  0.00     0.146 A 
ATOM     11  O   UNL     1       3.755   6.696  10.403  1.00  0.00    -0.456 OA
ENDROOT
BRANCH   1  12
ATOM     12  C   UNL     1       2.112   5.025  11.022  1.00  0.00     0.021 A 
ATOM     13  C   UNL     1       2.336   4.915  12.408  1.00  0.00     0.016 A 
ATOM     14  C   UNL     1       1.953   3.763  13.098  1.00  0.00     0.051 A 
ATOM     15  C   UNL     1       1.347   2.698  12.419  1.00  0.00     0.157 A 
ATOM     16  C   UNL     1       1.517   3.946  10.345  1.00  0.00     0.062 A 
ATOM     17  C   UNL     1       1.131   2.791  11.035  1.00  0.00     0.158 A 
BRANCH  15  18
ATOM     18  O   UNL     1       0.966   1.551  13.112  1.00  0.00    -0.504 OA
ATOM     19  H   UNL     1       0.399   1.601  13.951  1.00  0.00     0.293 HD
ENDBRANCH  15  18
BRANCH  17  20
ATOM     20  O   UNL     1       0.534   1.747  10.328  1.00  0.00    -0.504 OA
ATOM     21  H   UNL     1       0.866   0.793  10.395  1.00  0.00     0.293 HD
ENDBRANCH  17  20
ENDBRANCH   1  12
BRANCH   6  22
ATOM     22  O   UNL     1       3.156  10.558   7.483  1.00  0.00    -0.507 OA
ATOM     23  H   UNL     1       3.301  10.704   6.496  1.00  0.00     0.293 HD
ENDBRANCH   6  22
BRANCH   8  24
ATOM     24  O   UNL     1       7.395   9.623   9.538  1.00  0.00    -0.508 OA
ATOM     25  H   UNL     1       7.706  10.585   9.460  1.00  0.00     0.293 HD
ENDBRANCH   8  24
TORSDOF 5
ENDMDL
MODEL 5
REMARK VINA RESULT:    -4.943      1.468      7.379
REMARK INTER + INTRA:          -6.082
REMARK INTER:                  -5.803
REMARK INTRA:                  -0.279
REMARK UNBOUND:                -0.272
REMARK SMILES O=c1cc(-c2ccc(O)c(O)c2)oc2cc(O)cc(O)c12
REMARK SMILES IDX 4 1 3 2 2 3 1 4 21 5 19 6 18 7 16 8 15 9 14 10 13 11 5 12
REMARK SMILES IDX 6 13 7 14 8 15 12 16 10 17 9 18 11 20 20 22 17 24
REMARK H PARENT 9 19 11 21 20 23 17 25
REMARK Flexibility Score: inf
ROOT
ATOM      1  C   UNL     1       2.188   4.604  11.200  1.00  0.00     0.138 A 
ATOM      2  C   UNL     1       1.211   3.658  11.538  1.00  0.00     0.100 A 
ATOM      3  C   UNL     1       1.595   2.445  12.112  1.00  0.00     0.197 A 
ATOM      4  O   UNL     1       0.692   1.642  12.462  1.00  0.00    -0.289 OA
ATOM      5  C   UNL     1       2.967   2.168  12.319  1.00  0.00     0.107 A 
ATOM      6  C   UNL     1       3.477   0.949  12.857  1.00  0.00     0.134 A 
ATOM      7  C   UNL     1       4.847   0.833  13.125  1.00  0.00     0.093 A 
ATOM      8  C   UNL     1       5.732   1.869  12.815  1.00  0.00     0.123 A 
ATOM      9  C   UNL     1       5.251   3.041  12.239  1.00  0.00     0.094 A 
ATOM     10  C   UNL     1       3.885   3.201  11.992  1.00  0.00     0.146 A 
ATOM     11  O   UNL     1       3.465   4.341  11.454  1.00  0.00    -0.456 OA
ENDROOT
BRANCH   1  12
ATOM     12  C   UNL     1       1.835   5.910  10.585  1.00  0.00     0.021 A 
ATOM     13  C   UNL     1       0.968   6.817  11.223  1.00  0.00     0.016 A 
ATOM     14  C   UNL     1       0.645   8.033  10.616  1.00  0.00     0.051 A 
ATOM     15  C   UNL     1       1.175   8.363   9.362  1.00  0.00     0.157 A 
ATOM     16  C   UNL     1       2.351   6.241   9.320  1.00  0.00     0.062 A 
ATOM     17  C   UNL     1       2.031   7.459   8.711  1.00  0.00     0.158 A 
BRANCH  15  18
ATOM     18  O   UNL     1       0.851   9.578   8.761  1.00  0.00    -0.504 OA
ATOM     19  H   UNL     1       1.230   9.841   7.859  1.00  0.00     0.293 HD
ENDBRANCH  15  18
BRANCH  17  20
ATOM     20  O   UNL     1       2.571   7.755   7.460  1.00  0.00    -0.504 OA
ATOM     21  H   UNL     1       2.455   8.661   7.022  1.00  0.00     0.293 HD
ENDBRANCH  17  20
ENDBRANCH   1  12
BRANCH   6  22
ATOM     22  O   UNL     1       2.692  -0.177  13.124  1.00  0.00    -0.507 OA
ATOM     23  H   UNL     1       3.053  -1.091  13.351  1.00  0.00     0.293 HD
ENDBRANCH   6  22
BRANCH   8  24
ATOM     24  O   UNL     1       7.096   1.738  13.071  1.00  0.00    -0.508 OA
ATOM     25  H   UNL     1       7.527   2.170  13.880  1.00  0.00     0.293 HD
ENDBRANCH   8  24
TORSDOF 5
ENDMDL
MODEL 6
REMARK VINA RESULT:    -4.614     21.610     22.404
REMARK INTER + INTRA:          -5.694
REMARK INTER:                  -5.407
REMARK INTRA:                  -0.288
REMARK UNBOUND:                -0.272
REMARK SMILES O=c1cc(-c2ccc(O)c(O)c2)oc2cc(O)cc(O)c12
REMARK SMILES IDX 4 1 3 2 2 3 1 4 21 5 19 6 18 7 16 8 15 9 14 10 13 11 5 12
REMARK SMILES IDX 6 13 7 14 8 15 12 16 10 17 9 18 11 20 20 22 17 24
REMARK H PARENT 9 19 11 21 20 23 17 25
REMARK Flexibility Score: inf
ROOT
ATOM      1  C   UNL     1      -5.949  -5.441  -6.678  1.00  0.00     0.138 A 
ATOM      2  C   UNL     1      -6.882  -6.481  -6.790  1.00  0.00     0.100 A 
ATOM      3  C   UNL     1      -8.239  -6.180  -6.922  1.00  0.00     0.197 A 
ATOM      4  O   UNL     1      -9.045  -7.133  -7.084  1.00  0.00    -0.289 OA
ATOM      5  C   UNL     1      -8.664  -4.831  -6.911  1.00  0.00     0.107 A 
ATOM      6  C   UNL     1     -10.024  -4.408  -6.996  1.00  0.00     0.134 A 
ATOM      7  C   UNL     1     -10.316  -3.041  -7.092  1.00  0.00     0.093 A 
ATOM      8  C   UNL     1      -9.301  -2.082  -7.043  1.00  0.00     0.123 A 
ATOM      9  C   UNL     1      -7.975  -2.484  -6.905  1.00  0.00     0.094 A 
ATOM     10  C   UNL     1      -7.648  -3.840  -6.842  1.00  0.00     0.146 A 
ATOM     11  O   UNL     1      -6.370  -4.182  -6.725  1.00  0.00    -0.456 OA
ENDROOT
BRANCH   1  12
ATOM     12  C   UNL     1      -4.495  -5.706  -6.534  1.00  0.00     0.021 A 
ATOM     13  C   UNL     1      -3.528  -4.785  -6.980  1.00  0.00     0.016 A 
ATOM     14  C   UNL     1      -2.166  -5.066  -6.841  1.00  0.00     0.051 A 
ATOM     15  C   UNL     1      -1.746  -6.270  -6.262  1.00  0.00     0.157 A 
ATOM     16  C   UNL     1      -4.065  -6.919  -5.967  1.00  0.00     0.062 A 
ATOM     17  C   UNL     1      -2.702  -7.201  -5.825  1.00  0.00     0.158 A 
BRANCH  15  18
ATOM     18  O   UNL     1      -0.386  -6.544  -6.124  1.00  0.00    -0.504 OA
ATOM     19  H   UNL     1       0.115  -7.099  -6.808  1.00  0.00     0.293 HD
ENDBRANCH  15  18
BRANCH  17  20
ATOM     20  O   UNL     1      -2.316  -8.411  -5.249  1.00  0.00    -0.504 OA
ATOM     21  H   UNL     1      -2.788  -8.797  -4.441  1.00  0.00     0.293 HD
ENDBRANCH  17  20
ENDBRANCH   1  12
BRANCH   6  22
ATOM     22  O   UNL     1     -11.117  -5.278  -6.968  1.00  0.00    -0.507 OA
ATOM     23  H   UNL     1     -12.071  -5.000  -6.793  1.00  0.00     0.293 HD
ENDBRANCH   6  22
BRANCH   8  24
ATOM     24  O   UNL     1      -9.602  -0.723  -7.124  1.00  0.00    -0.508 OA
ATOM     25  H   UNL     1     -10.474  -0.397  -7.525  1.00  0.00     0.293 HD
ENDBRANCH   8  24
TORSDOF 5
ENDMDL
MODEL 7
REMARK VINA RESULT:    -4.582      2.188      6.982
REMARK INTER + INTRA:          -5.657
REMARK INTER:                  -5.363
REMARK INTRA:                  -0.294
REMARK UNBOUND:                -0.272
REMARK SMILES O=c1cc(-c2ccc(O)c(O)c2)oc2cc(O)cc(O)c12
REMARK SMILES IDX 4 1 3 2 2 3 1 4 21 5 19 6 18 7 16 8 15 9 14 10 13 11 5 12
REMARK SMILES IDX 6 13 7 14 8 15 12 16 10 17 9 18 11 20 20 22 17 24
REMARK H PARENT 9 19 11 21 20 23 17 25
REMARK Flexibility Score: inf
ROOT
ATOM      1  C   UNL     1       3.298   6.009  10.065  1.00  0.00     0.138 A 
ATOM      2  C   UNL     1       4.542   5.482  10.437  1.00  0.00     0.100 A 
ATOM      3  C   UNL     1       4.606   4.224  11.040  1.00  0.00     0.197 A 
ATOM      4  O   UNL     1       5.742   3.751  11.306  1.00  0.00    -0.289 OA
ATOM      5  C   UNL     1       3.415   3.507  11.298  1.00  0.00     0.107 A 
ATOM      6  C   UNL     1       3.356   2.236  11.945  1.00  0.00     0.134 A 
ATOM      7  C   UNL     1       2.129   1.568  12.042  1.00  0.00     0.093 A 
ATOM      8  C   UNL     1       0.950   2.152  11.571  1.00  0.00     0.123 A 
ATOM      9  C   UNL     1       0.990   3.416  10.988  1.00  0.00     0.094 A 
ATOM     10  C   UNL     1       2.203   4.093  10.844  1.00  0.00     0.146 A 
ATOM     11  O   UNL     1       2.199   5.291  10.269  1.00  0.00    -0.456 OA
ENDROOT
BRANCH   1  12
ATOM     12  C   UNL     1       3.173   7.342   9.421  1.00  0.00     0.021 A 
ATOM     13  C   UNL     1       1.970   7.766   8.826  1.00  0.00     0.016 A 
ATOM     14  C   UNL     1       1.885   9.021   8.219  1.00  0.00     0.051 A 
ATOM     15  C   UNL     1       2.998   9.871   8.189  1.00  0.00     0.157 A 
ATOM     16  C   UNL     1       4.290   8.195   9.375  1.00  0.00     0.062 A 
ATOM     17  C   UNL     1       4.206   9.453   8.768  1.00  0.00     0.158 A 
BRANCH  15  18
ATOM     18  O   UNL     1       2.907  11.124   7.583  1.00  0.00    -0.504 OA
ATOM     19  H   UNL     1       3.658  11.491   7.010  1.00  0.00     0.293 HD
ENDBRANCH  15  18
BRANCH  17  20
ATOM     20  O   UNL     1       5.334  10.274   8.752  1.00  0.00    -0.504 OA
ATOM     21  H   UNL     1       6.274   9.898   8.746  1.00  0.00     0.293 HD
ENDBRANCH  17  20
ENDBRANCH   1  12
BRANCH   6  22
ATOM     22  O   UNL     1       4.459   1.602  12.525  1.00  0.00    -0.507 OA
ATOM     23  H   UNL     1       4.945   0.812  12.127  1.00  0.00     0.293 HD
ENDBRANCH   6  22
BRANCH   8  24
ATOM     24  O   UNL     1      -0.269   1.486  11.686  1.00  0.00    -0.508 OA
ATOM     25  H   UNL     1      -1.105   1.830  11.230  1.00  0.00     0.293 HD
ENDBRANCH   8  24
TORSDOF 5
ENDMDL
MODEL 8
REMARK VINA RESULT:    -4.501      1.637      7.061
REMARK INTER + INTRA:          -5.563
REMARK INTER:                  -5.246
REMARK INTRA:                  -0.317
REMARK UNBOUND:                -0.272
REMARK SMILES O=c1cc(-c2ccc(O)c(O)c2)oc2cc(O)cc(O)c12
REMARK SMILES IDX 4 1 3 2 2 3 1 4 21 5 19 6 18 7 16 8 15 9 14 10 13 11 5 12
REMARK SMILES IDX 6 13 7 14 8 15 12 16 10 17 9 18 11 20 20 22 17 24
REMARK H PARENT 9 19 11 21 20 23 17 25
REMARK Flexibility Score: inf
ROOT
ATOM      1  C   UNL     1       2.591   5.825  11.340  1.00  0.00     0.138 A 
ATOM      2  C   UNL     1       3.940   5.468  11.220  1.00  0.00     0.100 A 
ATOM      3  C   UNL     1       4.341   4.169  11.541  1.00  0.00     0.197 A 
ATOM      4  O   UNL     1       5.548   3.860  11.363  1.00  0.00    -0.289 OA
ATOM      5  C   UNL     1       3.389   3.236  12.013  1.00  0.00     0.107 A 
ATOM      6  C   UNL     1       3.690   1.899  12.409  1.00  0.00     0.134 A 
ATOM      7  C   UNL     1       2.646   1.029  12.750  1.00  0.00     0.093 A 
ATOM      8  C   UNL     1       1.320   1.467  12.769  1.00  0.00     0.123 A 
ATOM      9  C   UNL     1       1.022   2.786  12.436  1.00  0.00     0.094 A 
ATOM     10  C   UNL     1       2.036   3.668  12.058  1.00  0.00     0.146 A 
ATOM     11  O   UNL     1       1.708   4.914  11.734  1.00  0.00    -0.456 OA
ENDROOT
BRANCH   1  12
ATOM     12  C   UNL     1       2.111   7.193  11.014  1.00  0.00     0.021 A 
ATOM     13  C   UNL     1       2.949   8.145  10.403  1.00  0.00     0.016 A 
ATOM     14  C   UNL     1       2.473   9.427  10.118  1.00  0.00     0.051 A 
ATOM     15  C   UNL     1       1.158   9.784  10.441  1.00  0.00     0.157 A 
ATOM     16  C   UNL     1       0.796   7.563  11.349  1.00  0.00     0.062 A 
ATOM     17  C   UNL     1       0.317   8.846  11.062  1.00  0.00     0.158 A 
BRANCH  15  18
ATOM     18  O   UNL     1       0.687  11.064  10.153  1.00  0.00    -0.504 OA
ATOM     19  H   UNL     1      -0.300  11.288  10.198  1.00  0.00     0.293 HD
ENDBRANCH  15  18
BRANCH  17  20
ATOM     20  O   UNL     1      -0.996   9.171  11.401  1.00  0.00    -0.504 OA
ATOM     21  H   UNL     1      -1.640   8.487  11.779  1.00  0.00     0.293 HD
ENDBRANCH  17  20
ENDBRANCH   1  12
BRANCH   6  22
ATOM     22  O   UNL     1       4.987   1.385  12.507  1.00  0.00    -0.507 OA
ATOM     23  H   UNL     1       5.607   1.532  13.288  1.00  0.00     0.293 HD
ENDBRANCH   6  22
BRANCH   8  24
ATOM     24  O   UNL     1       0.289   0.599  13.125  1.00  0.00    -0.508 OA
ATOM     25  H   UNL     1       0.436  -0.402  13.180  1.00  0.00     0.293 HD
ENDBRANCH   8  24
TORSDOF 5
ENDMDL
MODEL 9
REMARK VINA RESULT:    -3.954     21.435     22.273
REMARK INTER + INTRA:          -4.919
REMARK INTER:                  -4.602
REMARK INTRA:                  -0.317
REMARK UNBOUND:                -0.272
REMARK SMILES O=c1cc(-c2ccc(O)c(O)c2)oc2cc(O)cc(O)c12
REMARK SMILES IDX 4 1 3 2 2 3 1 4 21 5 19 6 18 7 16 8 15 9 14 10 13 11 5 12
REMARK SMILES IDX 6 13 7 14 8 15 12 16 10 17 9 18 11 20 20 22 17 24
REMARK H PARENT 9 19 11 21 20 23 17 25
REMARK Flexibility Score: inf
ROOT
ATOM      1  C   UNL     1      -5.817  -4.938  -6.455  1.00  0.00     0.138 A 
ATOM      2  C   UNL     1      -6.213  -3.655  -6.855  1.00  0.00     0.100 A 
ATOM      3  C   UNL     1      -7.564  -3.307  -6.820  1.00  0.00     0.197 A 
ATOM      4  O   UNL     1      -7.882  -2.128  -7.125  1.00  0.00    -0.289 OA
ATOM      5  C   UNL     1      -8.526  -4.261  -6.413  1.00  0.00     0.107 A 
ATOM      6  C   UNL     1      -9.933  -4.032  -6.378  1.00  0.00     0.134 A 
ATOM      7  C   UNL     1     -10.779  -5.013  -5.846  1.00  0.00     0.093 A 
ATOM      8  C   UNL     1     -10.274  -6.239  -5.405  1.00  0.00     0.123 A 
ATOM      9  C   UNL     1      -8.907  -6.493  -5.485  1.00  0.00     0.094 A 
ATOM     10  C   UNL     1      -8.033  -5.521  -5.978  1.00  0.00     0.146 A 
ATOM     11  O   UNL     1      -6.735  -5.798  -6.025  1.00  0.00    -0.456 OA
ENDROOT
BRANCH   1  12
ATOM     12  C   UNL     1      -4.393  -5.361  -6.473  1.00  0.00     0.021 A 
ATOM     13  C   UNL     1      -3.402  -4.593  -7.113  1.00  0.00     0.016 A 
ATOM     14  C   UNL     1      -2.072  -5.021  -7.123  1.00  0.00     0.051 A 
ATOM     15  C   UNL     1      -1.709  -6.223  -6.502  1.00  0.00     0.157 A 
ATOM     16  C   UNL     1      -4.024  -6.573  -5.865  1.00  0.00     0.062 A 
ATOM     17  C   UNL     1      -2.692  -7.003  -5.872  1.00  0.00     0.158 A 
BRANCH  15  18
ATOM     18  O   UNL     1      -0.381  -6.645  -6.514  1.00  0.00    -0.504 OA
ATOM     19  H   UNL     1       0.247  -6.441  -5.745  1.00  0.00     0.293 HD
ENDBRANCH  15  18
BRANCH  17  20
ATOM     20  O   UNL     1      -2.364  -8.207  -5.249  1.00  0.00    -0.504 OA
ATOM     21  H   UNL     1      -2.997  -8.673  -4.610  1.00  0.00     0.293 HD
ENDBRANCH  17  20
ENDBRANCH   1  12
BRANCH   6  22
ATOM     22  O   UNL     1     -10.550  -2.878  -6.871  1.00  0.00    -0.507 OA
ATOM     23  H   UNL     1     -10.957  -2.789  -7.790  1.00  0.00     0.293 HD
ENDBRANCH   6  22
BRANCH   8  24
ATOM     24  O   UNL     1     -11.125  -7.215  -4.891  1.00  0.00    -0.508 OA
ATOM     25  H   UNL     1     -10.968  -8.201  -5.066  1.00  0.00     0.293 HD
ENDBRANCH   8  24
TORSDOF 5
ENDMDL
