MODEL 1
REMARK VINA RESULT:    -0.078      0.000      0.000
REMARK INTER + INTRA:          -0.029
REMARK INTER:                  -0.091
REMARK INTRA:                   0.062
REMARK UNBOUND:                 0.062
REMARK SMILES O=c1c(O)c(-c2ccc(O)cc2)oc2cc(O)cc(O)c12
REMARK SMILES IDX 5 1 3 2 2 3 1 4 21 5 19 6 18 7 16 8 15 9 14 10 13 11 6 12
REMARK SMILES IDX 7 13 8 14 9 15 12 16 11 17 10 18 4 20 20 22 17 24
REMARK H PARENT 10 19 4 21 20 23 17 25
REMARK Flexibility Score: inf
ROOT
ATOM      1  C   UNL     1     -21.564 -15.810 -13.955  1.00  0.00     0.180 A 
ATOM      2  C   UNL     1     -22.214 -15.000 -14.902  1.00  0.00     0.208 A 
ATOM      3  C   UNL     1     -23.505 -15.351 -15.328  1.00  0.00     0.238 A 
ATOM      4  O   UNL     1     -24.109 -14.582 -16.118  1.00  0.00    -0.285 OA
ATOM      5  C   UNL     1     -24.108 -16.537 -14.844  1.00  0.00     0.111 A 
ATOM      6  C   UNL     1     -25.394 -17.015 -15.240  1.00  0.00     0.134 A 
ATOM      7  C   UNL     1     -25.935 -18.146 -14.615  1.00  0.00     0.093 A 
ATOM      8  C   UNL     1     -25.209 -18.852 -13.653  1.00  0.00     0.123 A 
ATOM      9  C   UNL     1     -23.932 -18.427 -13.300  1.00  0.00     0.094 A 
ATOM     10  C   UNL     1     -23.380 -17.280 -13.878  1.00  0.00     0.146 A 
ATOM     11  O   UNL     1     -22.168 -16.899 -13.495  1.00  0.00    -0.452 OA
ENDROOT
BRANCH   1  12
ATOM     12  C   UNL     1     -20.209 -15.497 -13.448  1.00  0.00     0.021 A 
ATOM     13  C   UNL     1     -19.176 -16.453 -13.475  1.00  0.00     0.016 A 
ATOM     14  C   UNL     1     -17.898 -16.125 -13.013  1.00  0.00     0.047 A 
ATOM     15  C   UNL     1     -17.631 -14.840 -12.532  1.00  0.00     0.115 A 
ATOM     16  C   UNL     1     -19.928 -14.202 -12.982  1.00  0.00     0.016 A 
ATOM     17  C   UNL     1     -18.649 -13.878 -12.519  1.00  0.00     0.047 A 
BRANCH  15  18
ATOM     18  O   UNL     1     -16.353 -14.529 -12.073  1.00  0.00    -0.508 OA
ATOM     19  H   UNL     1     -15.527 -14.743 -12.621  1.00  0.00     0.293 HD
ENDBRANCH  15  18
ENDBRANCH   1  12
BRANCH   2  20
ATOM     20  O   UNL     1     -21.571 -13.875 -15.426  1.00  0.00    -0.502 OA
ATOM     21  H   UNL     1     -21.559 -13.667 -16.417  1.00  0.00     0.293 HD
ENDBRANCH   2  20
BRANCH   6  22
ATOM     22  O   UNL     1     -26.166 -16.436 -16.253  1.00  0.00    -0.507 OA
ATOM     23  H   UNL     1     -26.148 -15.462 -16.508  1.00  0.00     0.293 HD
ENDBRANCH   6  22
BRANCH   8  24
ATOM     24  O   UNL     1     -25.747 -19.986 -13.049  1.00  0.00    -0.508 OA
ATOM     25  H   UNL     1     -25.325 -20.400 -12.225  1.00  0.00     0.293 HD
ENDBRANCH   8  24
TORSDOF 5
ENDMDL
MODEL 2
REMARK VINA RESULT:     0.197      0.062      1.059
REMARK INTER + INTRA:           0.294
REMARK INTER:                   0.335
REMARK INTRA:                  -0.041
REMARK UNBOUND:                 0.062
REMARK SMILES O=c1c(O)c(-c2ccc(O)cc2)oc2cc(O)cc(O)c12
REMARK SMILES IDX 5 1 3 2 2 3 1 4 21 5 19 6 18 7 16 8 15 9 14 10 13 11 6 12
REMARK SMILES IDX 7 13 8 14 9 15 12 16 11 17 10 18 4 20 20 22 17 24
REMARK H PARENT 10 19 4 21 20 23 17 25
REMARK Flexibility Score: inf
ROOT
ATOM      1  C   UNL     1     -21.581 -15.766 -13.996  1.00  0.00     0.180 A 
ATOM      2  C   UNL     1     -22.235 -14.988 -14.966  1.00  0.00     0.208 A 
ATOM      3  C   UNL     1     -23.524 -15.359 -15.382  1.00  0.00     0.238 A 
ATOM      4  O   UNL     1     -24.133 -14.617 -16.194  1.00  0.00    -0.285 OA
ATOM      5  C   UNL     1     -24.120 -16.534 -14.863  1.00  0.00     0.111 A 
ATOM      6  C   UNL     1     -25.404 -17.030 -15.245  1.00  0.00     0.134 A 
ATOM      7  C   UNL     1     -25.938 -18.145 -14.587  1.00  0.00     0.093 A 
ATOM      8  C   UNL     1     -25.208 -18.819 -13.604  1.00  0.00     0.123 A 
ATOM      9  C   UNL     1     -23.933 -18.376 -13.264  1.00  0.00     0.094 A 
ATOM     10  C   UNL     1     -23.388 -17.244 -13.876  1.00  0.00     0.146 A 
ATOM     11  O   UNL     1     -22.178 -16.845 -13.504  1.00  0.00    -0.452 OA
ENDROOT
BRANCH   1  12
ATOM     12  C   UNL     1     -20.227 -15.431 -13.498  1.00  0.00     0.021 A 
ATOM     13  C   UNL     1     -19.935 -14.162 -12.965  1.00  0.00     0.016 A 
ATOM     14  C   UNL     1     -18.655 -13.877 -12.479  1.00  0.00     0.047 A 
ATOM     15  C   UNL     1     -17.658 -14.857 -12.504  1.00  0.00     0.115 A 
ATOM     16  C   UNL     1     -19.226 -16.416 -13.502  1.00  0.00     0.016 A 
ATOM     17  C   UNL     1     -17.947 -16.129 -13.016  1.00  0.00     0.047 A 
BRANCH  15  18
ATOM     18  O   UNL     1     -16.387 -14.559 -12.017  1.00  0.00    -0.508 OA
ATOM     19  H   UNL     1     -15.880 -13.739 -12.331  1.00  0.00     0.293 HD
ENDBRANCH  15  18
ENDBRANCH   1  12
BRANCH   2  20
ATOM     20  O   UNL     1     -21.598 -13.875 -15.523  1.00  0.00    -0.502 OA
ATOM     21  H   UNL     1     -21.367 -13.816 -16.507  1.00  0.00     0.293 HD
ENDBRANCH   2  20
BRANCH   6  22
ATOM     22  O   UNL     1     -26.179 -16.486 -16.274  1.00  0.00    -0.507 OA
ATOM     23  H   UNL     1     -25.867 -16.349 -17.222  1.00  0.00     0.293 HD
ENDBRANCH   6  22
BRANCH   8  24
ATOM     24  O   UNL     1     -25.740 -19.938 -12.967  1.00  0.00    -0.508 OA
ATOM     25  H   UNL     1     -26.208 -19.865 -12.071  1.00  0.00     0.293 HD
ENDBRANCH   8  24
TORSDOF 5
ENDMDL
