MODEL 1
REMARK VINA RESULT:    -3.469      0.000      0.000
REMARK INTER + INTRA:          -3.695
REMARK INTER:                  -3.672
REMARK INTRA:                  -0.024
REMARK UNBOUND:                -0.024
REMARK SMILES O=C([O-])c1cccnc1
REMARK SMILES IDX 4 1 5 2 9 3 6 4 8 5 7 6 2 7 1 8 3 9
REMARK H PARENT
REMARK Flexibility Score: inf
ROOT
ATOM      1  C   UNL     1      -0.462   5.644   6.396  1.00  0.00     0.016 A 
ATOM      2  C   UNL     1       0.344   4.604   6.889  1.00  0.00     0.013 A 
ATOM      3  C   UNL     1      -1.283   6.339   7.300  1.00  0.00     0.120 A 
ATOM      4  C   UNL     1       0.317   4.280   8.247  1.00  0.00     0.021 A 
ATOM      5  N   UNL     1      -1.289   6.004   8.618  1.00  0.00    -0.264 NA
ATOM      6  C   UNL     1      -0.514   5.000   9.106  1.00  0.00     0.111 A 
ENDROOT
BRANCH   1   7
ATOM      7  C   UNL     1      -0.448   6.002   4.961  1.00  0.00     0.073 C 
ATOM      8  O   UNL     1       0.083   5.236   4.115  1.00  0.00    -0.545 OA
ATOM      9  O   UNL     1      -1.023   7.191   4.527  1.00  0.00    -0.545 OA
ENDBRANCH   1   7
TORSDOF 1
ENDMDL
MODEL 2
REMARK VINA RESULT:    -3.347      2.642      3.187
REMARK INTER + INTRA:          -3.566
REMARK INTER:                  -3.550
REMARK INTRA:                  -0.016
REMARK UNBOUND:                -0.024
REMARK SMILES O=C([O-])c1cccnc1
REMARK SMILES IDX 4 1 5 2 9 3 6 4 8 5 7 6 2 7 1 8 3 9
REMARK H PARENT
REMARK Flexibility Score: inf
ROOT
ATOM      1  C   UNL     1      -0.897   6.154   6.502  1.00  0.00     0.016 A 
ATOM      2  C   UNL     1       0.007   5.287   7.139  1.00  0.00     0.013 A 
ATOM      3  C   UNL     1      -0.900   6.201   5.098  1.00  0.00     0.120 A 
ATOM      4  C   UNL     1       0.876   4.498   6.381  1.00  0.00     0.021 A 
ATOM      5  N   UNL     1      -0.045   5.421   4.383  1.00  0.00    -0.264 NA
ATOM      6  C   UNL     1       0.834   4.580   4.989  1.00  0.00     0.111 A 
ENDROOT
BRANCH   1   7
ATOM      7  C   UNL     1      -1.824   6.997   7.287  1.00  0.00     0.073 C 
ATOM      8  O   UNL     1      -2.934   6.542   7.671  1.00  0.00    -0.545 OA
ATOM      9  O   UNL     1      -1.482   8.304   7.612  1.00  0.00    -0.545 OA
ENDBRANCH   1   7
TORSDOF 1
ENDMDL
MODEL 3
REMARK VINA RESULT:    -3.265      2.052      2.616
REMARK INTER + INTRA:          -3.480
REMARK INTER:                  -3.456
REMARK INTRA:                  -0.023
REMARK UNBOUND:                -0.024
REMARK SMILES O=C([O-])c1cccnc1
REMARK SMILES IDX 4 1 5 2 9 3 6 4 8 5 7 6 2 7 1 8 3 9
REMARK H PARENT
REMARK Flexibility Score: inf
ROOT
ATOM      1  C   UNL     1      -0.116   5.601   6.005  1.00  0.00     0.016 A 
ATOM      2  C   UNL     1      -0.071   5.020   7.283  1.00  0.00     0.013 A 
ATOM      3  C   UNL     1       0.649   5.018   4.981  1.00  0.00     0.120 A 
ATOM      4  C   UNL     1       0.720   3.893   7.516  1.00  0.00     0.021 A 
ATOM      5  N   UNL     1       1.410   3.919   5.232  1.00  0.00    -0.264 NA
ATOM      6  C   UNL     1       1.461   3.351   6.465  1.00  0.00     0.111 A 
ENDROOT
BRANCH   1   7
ATOM      7  C   UNL     1      -0.947   6.794   5.740  1.00  0.00     0.073 C 
ATOM      8  O   UNL     1      -1.196   7.151   4.558  1.00  0.00    -0.545 OA
ATOM      9  O   UNL     1      -1.466   7.539   6.793  1.00  0.00    -0.545 OA
ENDBRANCH   1   7
TORSDOF 1
ENDMDL
MODEL 4
REMARK VINA RESULT:    -3.209      1.557      2.039
REMARK INTER + INTRA:          -3.421
REMARK INTER:                  -3.397
REMARK INTRA:                  -0.023
REMARK UNBOUND:                -0.024
REMARK SMILES O=C([O-])c1cccnc1
REMARK SMILES IDX 4 1 5 2 9 3 6 4 8 5 7 6 2 7 1 8 3 9
REMARK H PARENT
REMARK Flexibility Score: inf
ROOT
ATOM      1  C   UNL     1       0.297   4.907   6.117  1.00  0.00     0.016 A 
ATOM      2  C   UNL     1      -0.346   5.387   7.270  1.00  0.00     0.013 A 
ATOM      3  C   UNL     1       1.117   3.771   6.234  1.00  0.00     0.120 A 
ATOM      4  C   UNL     1      -0.163   4.742   8.496  1.00  0.00     0.021 A 
ATOM      5  N   UNL     1       1.276   3.161   7.438  1.00  0.00    -0.264 NA
ATOM      6  C   UNL     1       0.660   3.617   8.560  1.00  0.00     0.111 A 
ENDROOT
BRANCH   1   7
ATOM      7  C   UNL     1       0.117   5.576   4.811  1.00  0.00     0.073 C 
ATOM      8  O   UNL     1       0.483   5.011   3.746  1.00  0.00    -0.545 OA
ATOM      9  O   UNL     1      -0.460   6.838   4.741  1.00  0.00    -0.545 OA
ENDBRANCH   1   7
TORSDOF 1
ENDMDL
MODEL 5
REMARK VINA RESULT:    -3.208     13.334     14.142
REMARK INTER + INTRA:          -3.420
REMARK INTER:                  -3.402
REMARK INTRA:                  -0.018
REMARK UNBOUND:                -0.024
REMARK SMILES O=C([O-])c1cccnc1
REMARK SMILES IDX 4 1 5 2 9 3 6 4 8 5 7 6 2 7 1 8 3 9
REMARK H PARENT
REMARK Flexibility Score: inf
ROOT
ATOM      1  C   UNL     1      -0.813  -3.500  -3.802  1.00  0.00     0.016 A 
ATOM      2  C   UNL     1      -0.838  -3.656  -2.406  1.00  0.00     0.013 A 
ATOM      3  C   UNL     1      -0.269  -4.535  -4.580  1.00  0.00     0.120 A 
ATOM      4  C   UNL     1      -0.328  -4.817  -1.821  1.00  0.00     0.021 A 
ATOM      5  N   UNL     1       0.220  -5.657  -3.986  1.00  0.00    -0.264 NA
ATOM      6  C   UNL     1       0.202  -5.818  -2.636  1.00  0.00     0.111 A 
ENDROOT
BRANCH   1   7
ATOM      7  C   UNL     1      -1.348  -2.278  -4.441  1.00  0.00     0.073 C 
ATOM      8  O   UNL     1      -0.858  -1.149  -4.173  1.00  0.00    -0.545 OA
ATOM      9  O   UNL     1      -2.399  -2.359  -5.346  1.00  0.00    -0.545 OA
ENDBRANCH   1   7
TORSDOF 1
ENDMDL
MODEL 6
REMARK VINA RESULT:    -3.195      1.154      1.692
REMARK INTER + INTRA:          -3.406
REMARK INTER:                  -3.387
REMARK INTRA:                  -0.019
REMARK UNBOUND:                -0.024
REMARK SMILES O=C([O-])c1cccnc1
REMARK SMILES IDX 4 1 5 2 9 3 6 4 8 5 7 6 2 7 1 8 3 9
REMARK H PARENT
REMARK Flexibility Score: inf
ROOT
ATOM      1  C   UNL     1       0.444   4.687   6.446  1.00  0.00     0.016 A 
ATOM      2  C   UNL     1       0.855   3.526   7.123  1.00  0.00     0.013 A 
ATOM      3  C   UNL     1      -0.308   5.640   7.153  1.00  0.00     0.120 A 
ATOM      4  C   UNL     1       0.516   3.339   8.465  1.00  0.00     0.021 A 
ATOM      5  N   UNL     1      -0.623   5.434   8.460  1.00  0.00    -0.264 NA
ATOM      6  C   UNL     1      -0.231   4.315   9.123  1.00  0.00     0.111 A 
ENDROOT
BRANCH   1   7
ATOM      7  C   UNL     1       0.793   4.903   5.026  1.00  0.00     0.073 C 
ATOM      8  O   UNL     1      -0.081   5.288   4.203  1.00  0.00    -0.545 OA
ATOM      9  O   UNL     1       2.091   4.686   4.579  1.00  0.00    -0.545 OA
ENDBRANCH   1   7
TORSDOF 1
ENDMDL
MODEL 7
REMARK VINA RESULT:    -3.158      8.383      8.846
REMARK INTER + INTRA:          -3.366
REMARK INTER:                  -3.348
REMARK INTRA:                  -0.018
REMARK UNBOUND:                -0.024
REMARK SMILES O=C([O-])c1cccnc1
REMARK SMILES IDX 4 1 5 2 9 3 6 4 8 5 7 6 2 7 1 8 3 9
REMARK H PARENT
REMARK Flexibility Score: inf
ROOT
ATOM      1  C   UNL     1       2.264  -2.403   5.793  1.00  0.00     0.016 A 
ATOM      2  C   UNL     1       1.161  -1.769   5.199  1.00  0.00     0.013 A 
ATOM      3  C   UNL     1       2.026  -3.342   6.811  1.00  0.00     0.120 A 
ATOM      4  C   UNL     1      -0.135  -2.073   5.621  1.00  0.00     0.021 A 
ATOM      5  N   UNL     1       0.754  -3.622   7.202  1.00  0.00    -0.264 NA
ATOM      6  C   UNL     1      -0.320  -3.014   6.635  1.00  0.00     0.111 A 
ENDROOT
BRANCH   1   7
ATOM      7  C   UNL     1       3.644  -2.094   5.361  1.00  0.00     0.073 C 
ATOM      8  O   UNL     1       3.984  -2.232   4.156  1.00  0.00    -0.545 OA
ATOM      9  O   UNL     1       4.585  -1.644   6.279  1.00  0.00    -0.545 OA
ENDBRANCH   1   7
TORSDOF 1
ENDMDL
MODEL 8
REMARK VINA RESULT:    -3.084      6.882      7.890
REMARK INTER + INTRA:          -3.288
REMARK INTER:                  -3.268
REMARK INTRA:                  -0.019
REMARK UNBOUND:                -0.024
REMARK SMILES O=C([O-])c1cccnc1
REMARK SMILES IDX 4 1 5 2 9 3 6 4 8 5 7 6 2 7 1 8 3 9
REMARK H PARENT
REMARK Flexibility Score: inf
ROOT
ATOM      1  C   UNL     1       4.220   4.609   1.362  1.00  0.00     0.016 A 
ATOM      2  C   UNL     1       4.507   3.599   0.429  1.00  0.00     0.013 A 
ATOM      3  C   UNL     1       5.274   5.123   2.135  1.00  0.00     0.120 A 
ATOM      4  C   UNL     1       5.813   3.126   0.286  1.00  0.00     0.021 A 
ATOM      5  N   UNL     1       6.538   4.647   1.976  1.00  0.00    -0.264 NA
ATOM      6  C   UNL     1       6.827   3.669   1.077  1.00  0.00     0.111 A 
ENDROOT
BRANCH   1   7
ATOM      7  C   UNL     1       2.843   5.122   1.529  1.00  0.00     0.073 C 
ATOM      8  O   UNL     1       2.166   5.475   0.528  1.00  0.00    -0.545 OA
ATOM      9  O   UNL     1       2.277   5.221   2.795  1.00  0.00    -0.545 OA
ENDBRANCH   1   7
TORSDOF 1
ENDMDL
MODEL 9
REMARK VINA RESULT:    -3.075     13.335     14.464
REMARK INTER + INTRA:          -3.279
REMARK INTER:                  -3.261
REMARK INTRA:                  -0.018
REMARK UNBOUND:                -0.024
REMARK SMILES O=C([O-])c1cccnc1
REMARK SMILES IDX 4 1 5 2 9 3 6 4 8 5 7 6 2 7 1 8 3 9
REMARK H PARENT
REMARK Flexibility Score: inf
ROOT
ATOM      1  C   UNL     1      -0.713  -3.703  -3.589  1.00  0.00     0.016 A 
ATOM      2  C   UNL     1      -0.805  -4.560  -4.698  1.00  0.00     0.013 A 
ATOM      3  C   UNL     1      -0.979  -2.337  -3.777  1.00  0.00     0.120 A 
ATOM      4  C   UNL     1      -1.153  -4.051  -5.951  1.00  0.00     0.021 A 
ATOM      5  N   UNL     1      -1.317  -1.866  -5.008  1.00  0.00    -0.264 NA
ATOM      6  C   UNL     1      -1.409  -2.686  -6.087  1.00  0.00     0.111 A 
ENDROOT
BRANCH   1   7
ATOM      7  C   UNL     1      -0.345  -4.223  -2.254  1.00  0.00     0.073 C 
ATOM      8  O   UNL     1      -1.113  -4.059  -1.269  1.00  0.00    -0.545 OA
ATOM      9  O   UNL     1       0.854  -4.902  -2.069  1.00  0.00    -0.545 OA
ENDBRANCH   1   7
TORSDOF 1
ENDMDL
