MODEL 1
REMARK VINA RESULT:    -3.968      0.000      0.000
REMARK INTER + INTRA:          -5.268
REMARK INTER:                  -5.128
REMARK INTRA:                  -0.140
REMARK UNBOUND:                -0.140
REMARK SMILES CCCCCCC(=O)[O-]
REMARK SMILES IDX 5 1 6 2 7 3 8 4 9 5 4 6 3 7 2 8 1 9
REMARK H PARENT
REMARK Flexibility Score: inf
ROOT
ATOM      1  C   UNL     1     -11.150 -13.038  19.436  1.00  0.00     0.006 C 
ENDROOT
BRANCH   1   2
ATOM      2  C   UNL     1     -11.129 -12.619  17.959  1.00  0.00     0.053 C 
BRANCH   2   3
ATOM      3  C   UNL     1     -12.060 -11.476  17.692  1.00  0.00     0.041 C 
ATOM      4  O   UNL     1     -13.270 -11.549  18.034  1.00  0.00    -0.550 OA
ATOM      5  O   UNL     1     -11.598 -10.341  17.038  1.00  0.00    -0.550 OA
ENDBRANCH   2   3
ENDBRANCH   1   2
BRANCH   1   6
ATOM      6  C   UNL     1     -12.059 -14.256  19.679  1.00  0.00     0.000 C 
BRANCH   6   7
ATOM      7  C   UNL     1     -13.086 -14.011  20.796  1.00  0.00    -0.000 C 
BRANCH   7   8
ATOM      8  C   UNL     1     -12.561 -14.416  22.182  1.00  0.00    -0.003 C 
ATOM      9  C   UNL     1     -13.361 -13.738  23.291  1.00  0.00     0.004 C 
ENDBRANCH   7   8
ENDBRANCH   6   7
ENDBRANCH   1   6
TORSDOF 5
ENDMDL
MODEL 2
REMARK VINA RESULT:    -3.961      2.916      5.044
REMARK INTER + INTRA:          -5.258
REMARK INTER:                  -5.104
REMARK INTRA:                  -0.155
REMARK UNBOUND:                -0.140
REMARK SMILES CCCCCCC(=O)[O-]
REMARK SMILES IDX 5 1 6 2 7 3 8 4 9 5 4 6 3 7 2 8 1 9
REMARK H PARENT
REMARK Flexibility Score: inf
ROOT
ATOM      1  C   UNL     1     -12.110 -14.092  19.555  1.00  0.00     0.006 C 
ENDROOT
BRANCH   1   2
ATOM      2  C   UNL     1     -13.154 -13.579  20.557  1.00  0.00     0.053 C 
BRANCH   2   3
ATOM      3  C   UNL     1     -13.003 -14.226  21.899  1.00  0.00     0.041 C 
ATOM      4  O   UNL     1     -12.581 -13.561  22.882  1.00  0.00    -0.550 OA
ATOM      5  O   UNL     1     -13.301 -15.574  22.058  1.00  0.00    -0.550 OA
ENDBRANCH   2   3
ENDBRANCH   1   2
BRANCH   1   6
ATOM      6  C   UNL     1     -11.053 -13.023  19.223  1.00  0.00     0.000 C 
BRANCH   6   7
ATOM      7  C   UNL     1     -11.167 -12.511  17.778  1.00  0.00    -0.000 C 
BRANCH   7   8
ATOM      8  C   UNL     1     -12.133 -11.324  17.645  1.00  0.00    -0.003 C 
ATOM      9  C   UNL     1     -11.490 -10.178  16.869  1.00  0.00     0.004 C 
ENDBRANCH   7   8
ENDBRANCH   6   7
ENDBRANCH   1   6
TORSDOF 5
ENDMDL
MODEL 3
REMARK VINA RESULT:    -3.896      3.255      4.790
REMARK INTER + INTRA:          -5.175
REMARK INTER:                  -4.979
REMARK INTRA:                  -0.197
REMARK UNBOUND:                -0.140
REMARK SMILES CCCCCCC(=O)[O-]
REMARK SMILES IDX 5 1 6 2 7 3 8 4 9 5 4 6 3 7 2 8 1 9
REMARK H PARENT
REMARK Flexibility Score: inf
ROOT
ATOM      1  C   UNL     1     -13.312 -13.282  19.690  1.00  0.00     0.006 C 
ENDROOT
BRANCH   1   2
ATOM      2  C   UNL     1     -14.152 -14.439  19.131  1.00  0.00     0.053 C 
BRANCH   2   3
ATOM      3  C   UNL     1     -13.709 -15.761  19.679  1.00  0.00     0.041 C 
ATOM      4  O   UNL     1     -13.191 -16.623  18.920  1.00  0.00    -0.550 OA
ATOM      5  O   UNL     1     -13.896 -16.054  21.024  1.00  0.00    -0.550 OA
ENDBRANCH   2   3
ENDBRANCH   1   2
BRANCH   1   6
ATOM      6  C   UNL     1     -11.822 -13.650  19.805  1.00  0.00     0.000 C 
BRANCH   6   7
ATOM      7  C   UNL     1     -10.912 -12.663  19.057  1.00  0.00    -0.000 C 
BRANCH   7   8
ATOM      8  C   UNL     1     -11.340 -12.453  17.596  1.00  0.00    -0.003 C 
ATOM      9  C   UNL     1     -11.652 -10.985  17.321  1.00  0.00     0.004 C 
ENDBRANCH   7   8
ENDBRANCH   6   7
ENDBRANCH   1   6
TORSDOF 5
ENDMDL
MODEL 4
REMARK VINA RESULT:    -3.737      3.050      4.517
REMARK INTER + INTRA:          -4.970
REMARK INTER:                  -4.623
REMARK INTRA:                  -0.347
REMARK UNBOUND:                -0.140
REMARK SMILES CCCCCCC(=O)[O-]
REMARK SMILES IDX 5 1 6 2 7 3 8 4 9 5 4 6 3 7 2 8 1 9
REMARK H PARENT
REMARK Flexibility Score: inf
ROOT
ATOM      1  C   UNL     1     -14.716 -13.413  18.718  1.00  0.00     0.006 C 
ENDROOT
BRANCH   1   2
ATOM      2  C   UNL     1     -14.992 -14.546  19.715  1.00  0.00     0.053 C 
BRANCH   2   3
ATOM      3  C   UNL     1     -13.741 -15.286  20.077  1.00  0.00     0.041 C 
ATOM      4  O   UNL     1     -13.344 -15.316  21.272  1.00  0.00    -0.550 OA
ATOM      5  O   UNL     1     -12.997 -15.919  19.089  1.00  0.00    -0.550 OA
ENDBRANCH   2   3
ENDBRANCH   1   2
BRANCH   1   6
ATOM      6  C   UNL     1     -13.601 -12.471  19.207  1.00  0.00     0.000 C 
BRANCH   6   7
ATOM      7  C   UNL     1     -12.820 -11.829  18.049  1.00  0.00    -0.000 C 
BRANCH   7   8
ATOM      8  C   UNL     1     -11.330 -12.203  18.062  1.00  0.00    -0.003 C 
ATOM      9  C   UNL     1     -10.964 -12.956  19.338  1.00  0.00     0.004 C 
ENDBRANCH   7   8
ENDBRANCH   6   7
ENDBRANCH   1   6
TORSDOF 5
ENDMDL
MODEL 5
REMARK VINA RESULT:    -3.712      1.455      1.767
REMARK INTER + INTRA:          -4.937
REMARK INTER:                  -4.620
REMARK INTRA:                  -0.317
REMARK UNBOUND:                -0.140
REMARK SMILES CCCCCCC(=O)[O-]
REMARK SMILES IDX 5 1 6 2 7 3 8 4 9 5 4 6 3 7 2 8 1 9
REMARK H PARENT
REMARK Flexibility Score: inf
ROOT
ATOM      1  C   UNL     1     -12.878 -14.281  19.162  1.00  0.00     0.006 C 
ENDROOT
BRANCH   1   2
ATOM      2  C   UNL     1     -13.146 -12.826  18.754  1.00  0.00     0.053 C 
BRANCH   2   3
ATOM      3  C   UNL     1     -11.881 -12.104  18.404  1.00  0.00     0.041 C 
ATOM      4  O   UNL     1     -10.803 -12.391  18.989  1.00  0.00    -0.550 OA
ATOM      5  O   UNL     1     -11.898 -11.093  17.452  1.00  0.00    -0.550 OA
ENDBRANCH   2   3
ENDBRANCH   1   2
BRANCH   1   6
ATOM      6  C   UNL     1     -13.441 -14.604  20.558  1.00  0.00     0.000 C 
BRANCH   6   7
ATOM      7  C   UNL     1     -12.591 -14.006  21.690  1.00  0.00    -0.000 C 
BRANCH   7   8
ATOM      8  C   UNL     1     -13.439 -13.539  22.883  1.00  0.00    -0.003 C 
ATOM      9  C   UNL     1     -14.699 -12.818  22.412  1.00  0.00     0.004 C 
ENDBRANCH   7   8
ENDBRANCH   6   7
ENDBRANCH   1   6
TORSDOF 5
ENDMDL
MODEL 6
REMARK VINA RESULT:    -3.682      1.841      2.228
REMARK INTER + INTRA:          -4.899
REMARK INTER:                  -4.587
REMARK INTRA:                  -0.311
REMARK UNBOUND:                -0.140
REMARK SMILES CCCCCCC(=O)[O-]
REMARK SMILES IDX 5 1 6 2 7 3 8 4 9 5 4 6 3 7 2 8 1 9
REMARK H PARENT
REMARK Flexibility Score: inf
ROOT
ATOM      1  C   UNL     1     -14.069 -12.462  18.783  1.00  0.00     0.006 C 
ENDROOT
BRANCH   1   2
ATOM      2  C   UNL     1     -12.807 -13.335  18.763  1.00  0.00     0.053 C 
BRANCH   2   3
ATOM      3  C   UNL     1     -11.562 -12.509  18.651  1.00  0.00     0.041 C 
ATOM      4  O   UNL     1     -10.628 -12.652  19.484  1.00  0.00    -0.550 OA
ATOM      5  O   UNL     1     -11.444 -11.561  17.643  1.00  0.00    -0.550 OA
ENDBRANCH   2   3
ENDBRANCH   1   2
BRANCH   1   6
ATOM      6  C   UNL     1     -14.688 -12.370  20.189  1.00  0.00     0.000 C 
BRANCH   6   7
ATOM      7  C   UNL     1     -14.470 -13.649  21.014  1.00  0.00    -0.000 C 
BRANCH   7   8
ATOM      8  C   UNL     1     -13.868 -13.364  22.399  1.00  0.00    -0.003 C 
ATOM      9  C   UNL     1     -12.513 -14.047  22.559  1.00  0.00     0.004 C 
ENDBRANCH   7   8
ENDBRANCH   6   7
ENDBRANCH   1   6
TORSDOF 5
ENDMDL
MODEL 7
REMARK VINA RESULT:    -3.466      3.076      4.823
REMARK INTER + INTRA:          -4.619
REMARK INTER:                  -4.289
REMARK INTRA:                  -0.330
REMARK UNBOUND:                -0.140
REMARK SMILES CCCCCCC(=O)[O-]
REMARK SMILES IDX 5 1 6 2 7 3 8 4 9 5 4 6 3 7 2 8 1 9
REMARK H PARENT
REMARK Flexibility Score: inf
ROOT
ATOM      1  C   UNL     1     -14.506 -12.934  21.002  1.00  0.00     0.006 C 
ENDROOT
BRANCH   1   2
ATOM      2  C   UNL     1     -13.927 -14.353  21.086  1.00  0.00     0.053 C 
BRANCH   2   3
ATOM      3  C   UNL     1     -13.181 -14.575  22.367  1.00  0.00     0.041 C 
ATOM      4  O   UNL     1     -13.165 -15.714  22.904  1.00  0.00    -0.550 OA
ATOM      5  O   UNL     1     -12.527 -13.515  22.982  1.00  0.00    -0.550 OA
ENDBRANCH   2   3
ENDBRANCH   1   2
BRANCH   1   6
ATOM      6  C   UNL     1     -14.235 -12.278  19.637  1.00  0.00     0.000 C 
BRANCH   6   7
ATOM      7  C   UNL     1     -13.383 -13.165  18.715  1.00  0.00    -0.000 C 
BRANCH   7   8
ATOM      8  C   UNL     1     -12.052 -12.505  18.323  1.00  0.00    -0.003 C 
ATOM      9  C   UNL     1     -10.951 -12.858  19.318  1.00  0.00     0.004 C 
ENDBRANCH   7   8
ENDBRANCH   6   7
ENDBRANCH   1   6
TORSDOF 5
ENDMDL
MODEL 8
REMARK VINA RESULT:    -3.457     20.194     21.583
REMARK INTER + INTRA:          -4.608
REMARK INTER:                  -4.409
REMARK INTRA:                  -0.199
REMARK UNBOUND:                -0.140
REMARK SMILES CCCCCCC(=O)[O-]
REMARK SMILES IDX 5 1 6 2 7 3 8 4 9 5 4 6 3 7 2 8 1 9
REMARK H PARENT
REMARK Flexibility Score: inf
ROOT
ATOM      1  C   UNL     1       4.304  -1.311  11.852  1.00  0.00     0.006 C 
ENDROOT
BRANCH   1   2
ATOM      2  C   UNL     1       4.460  -0.563  10.521  1.00  0.00     0.053 C 
BRANCH   2   3
ATOM      3  C   UNL     1       4.042   0.871  10.637  1.00  0.00     0.041 C 
ATOM      4  O   UNL     1       4.236   1.504  11.708  1.00  0.00    -0.550 OA
ATOM      5  O   UNL     1       3.413   1.500   9.570  1.00  0.00    -0.550 OA
ENDBRANCH   2   3
ENDBRANCH   1   2
BRANCH   1   6
ATOM      6  C   UNL     1       3.276  -2.453  11.759  1.00  0.00     0.000 C 
BRANCH   6   7
ATOM      7  C   UNL     1       3.700  -3.549  10.768  1.00  0.00    -0.000 C 
BRANCH   7   8
ATOM      8  C   UNL     1       4.472  -4.692  11.446  1.00  0.00    -0.003 C 
ATOM      9  C   UNL     1       3.957  -4.936  12.862  1.00  0.00     0.004 C 
ENDBRANCH   7   8
ENDBRANCH   6   7
ENDBRANCH   1   6
TORSDOF 5
ENDMDL
MODEL 9
REMARK VINA RESULT:    -3.436     20.759     21.929
REMARK INTER + INTRA:          -4.581
REMARK INTER:                  -4.232
REMARK INTRA:                  -0.349
REMARK UNBOUND:                -0.140
REMARK SMILES CCCCCCC(=O)[O-]
REMARK SMILES IDX 5 1 6 2 7 3 8 4 9 5 4 6 3 7 2 8 1 9
REMARK H PARENT
REMARK Flexibility Score: inf
ROOT
ATOM      1  C   UNL     1       3.436  -2.596  11.873  1.00  0.00     0.006 C 
ENDROOT
BRANCH   1   2
ATOM      2  C   UNL     1       4.676  -1.821  12.340  1.00  0.00     0.053 C 
BRANCH   2   3
ATOM      3  C   UNL     1       4.493  -0.341  12.195  1.00  0.00     0.041 C 
ATOM      4  O   UNL     1       4.262   0.163  11.064  1.00  0.00    -0.550 OA
ATOM      5  O   UNL     1       4.605   0.485  13.306  1.00  0.00    -0.550 OA
ENDBRANCH   2   3
ENDBRANCH   1   2
BRANCH   1   6
ATOM      6  C   UNL     1       3.801  -3.969  11.280  1.00  0.00     0.000 C 
BRANCH   6   7
ATOM      7  C   UNL     1       4.674  -3.854  10.020  1.00  0.00    -0.000 C 
BRANCH   7   8
ATOM      8  C   UNL     1       3.980  -3.082   8.888  1.00  0.00    -0.003 C 
ATOM      9  C   UNL     1       4.878  -1.972   8.349  1.00  0.00     0.004 C 
ENDBRANCH   7   8
ENDBRANCH   6   7
ENDBRANCH   1   6
TORSDOF 5
ENDMDL
