MODEL 1
REMARK VINA RESULT:    -4.211      0.000      0.000
REMARK INTER + INTRA:          -6.822
REMARK INTER:                  -6.427
REMARK INTRA:                  -0.395
REMARK UNBOUND:                -0.395
REMARK SMILES O=C([O-])CCCCCCCCC(=O)[O-]
REMARK SMILES IDX 7 1 6 2 5 3 4 4 2 5 1 6 3 7 8 8 9 9 10 10 11 11 12 12 13 13
REMARK SMILES IDX 14 14
REMARK H PARENT
REMARK Flexibility Score: inf
ROOT
ATOM      1  C   UNL     1      58.873  -5.240  82.507  1.00  0.00     0.000 C 
ENDROOT
BRANCH   1   2
ATOM      2  C   UNL     1      59.479  -6.098  83.631  1.00  0.00     0.000 C 
BRANCH   2   3
ATOM      3  C   UNL     1      60.708  -6.935  83.221  1.00  0.00     0.006 C 
BRANCH   3   4
ATOM      4  C   UNL     1      60.784  -7.265  81.723  1.00  0.00     0.053 C 
BRANCH   4   5
ATOM      5  C   UNL     1      60.407  -8.687  81.443  1.00  0.00     0.041 C 
ATOM      6  O   UNL     1      59.215  -9.068  81.586  1.00  0.00    -0.550 OA
ATOM      7  O   UNL     1      61.378  -9.601  81.055  1.00  0.00    -0.550 OA
ENDBRANCH   4   5
ENDBRANCH   3   4
ENDBRANCH   2   3
ENDBRANCH   1   2
BRANCH   1   8
ATOM      8  C   UNL     1      59.359  -3.781  82.541  1.00  0.00     0.000 C 
BRANCH   8   9
ATOM      9  C   UNL     1      58.371  -2.815  81.868  1.00  0.00     0.000 C 
BRANCH   9  10
ATOM     10  C   UNL     1      57.763  -1.808  82.861  1.00  0.00     0.006 C 
BRANCH  10  11
ATOM     11  C   UNL     1      56.273  -2.076  83.117  1.00  0.00     0.053 C 
BRANCH  11  12
ATOM     12  C   UNL     1      55.556  -0.837  83.555  1.00  0.00     0.041 C 
ATOM     13  O   UNL     1      54.429  -0.551  83.071  1.00  0.00    -0.550 OA
ATOM     14  O   UNL     1      56.148   0.021  84.474  1.00  0.00    -0.550 OA
ENDBRANCH  11  12
ENDBRANCH  10  11
ENDBRANCH   9  10
ENDBRANCH   8   9
ENDBRANCH   1   8
TORSDOF 9
ENDMDL
MODEL 2
REMARK VINA RESULT:    -4.201      0.850      7.876
REMARK INTER + INTRA:          -6.806
REMARK INTER:                  -6.429
REMARK INTRA:                  -0.377
REMARK UNBOUND:                -0.395
REMARK SMILES O=C([O-])CCCCCCCCC(=O)[O-]
REMARK SMILES IDX 7 1 6 2 5 3 4 4 2 5 1 6 3 7 8 8 9 9 10 10 11 11 12 12 13 13
REMARK SMILES IDX 14 14
REMARK H PARENT
REMARK Flexibility Score: inf
ROOT
ATOM      1  C   UNL     1      58.763  -2.729  81.773  1.00  0.00     0.000 C 
ENDROOT
BRANCH   1   2
ATOM      2  C   UNL     1      57.400  -2.514  82.454  1.00  0.00     0.000 C 
BRANCH   2   3
ATOM      3  C   UNL     1      57.244  -1.165  83.186  1.00  0.00     0.006 C 
BRANCH   3   4
ATOM      4  C   UNL     1      56.139  -1.141  84.252  1.00  0.00     0.053 C 
BRANCH   4   5
ATOM      5  C   UNL     1      55.162  -0.030  84.019  1.00  0.00     0.041 C 
ATOM      6  O   UNL     1      55.297   1.071  84.616  1.00  0.00    -0.550 OA
ATOM      7  O   UNL     1      54.083  -0.221  83.165  1.00  0.00    -0.550 OA
ENDBRANCH   4   5
ENDBRANCH   3   4
ENDBRANCH   2   3
ENDBRANCH   1   2
BRANCH   1   8
ATOM      8  C   UNL     1      59.477  -4.003  82.257  1.00  0.00     0.000 C 
BRANCH   8   9
ATOM      9  C   UNL     1      58.495  -5.123  82.634  1.00  0.00     0.000 C 
BRANCH   9  10
ATOM     10  C   UNL     1      59.205  -6.359  83.213  1.00  0.00     0.006 C 
BRANCH  10  11
ATOM     11  C   UNL     1      60.549  -6.630  82.524  1.00  0.00     0.053 C 
BRANCH  11  12
ATOM     12  C   UNL     1      60.520  -7.903  81.737  1.00  0.00     0.041 C 
ATOM     13  O   UNL     1      59.466  -8.589  81.676  1.00  0.00    -0.550 OA
ATOM     14  O   UNL     1      61.670  -8.351  81.096  1.00  0.00    -0.550 OA
ENDBRANCH  11  12
ENDBRANCH  10  11
ENDBRANCH   9  10
ENDBRANCH   8   9
ENDBRANCH   1   8
TORSDOF 9
ENDMDL
MODEL 3
REMARK VINA RESULT:    -4.108      1.019      7.747
REMARK INTER + INTRA:          -6.665
REMARK INTER:                  -6.346
REMARK INTRA:                  -0.319
REMARK UNBOUND:                -0.395
REMARK SMILES O=C([O-])CCCCCCCCC(=O)[O-]
REMARK SMILES IDX 7 1 6 2 5 3 4 4 2 5 1 6 3 7 8 8 9 9 10 10 11 11 12 12 13 13
REMARK SMILES IDX 14 14
REMARK H PARENT
REMARK Flexibility Score: inf
ROOT
ATOM      1  C   UNL     1      59.180  -4.679  82.672  1.00  0.00     0.000 C 
ENDROOT
BRANCH   1   2
ATOM      2  C   UNL     1      57.868  -4.036  82.189  1.00  0.00     0.000 C 
BRANCH   2   3
ATOM      3  C   UNL     1      57.774  -2.511  82.401  1.00  0.00     0.006 C 
BRANCH   3   4
ATOM      4  C   UNL     1      56.459  -2.034  83.035  1.00  0.00     0.053 C 
BRANCH   4   5
ATOM      5  C   UNL     1      56.609  -0.700  83.698  1.00  0.00     0.041 C 
ATOM      6  O   UNL     1      57.731  -0.330  84.135  1.00  0.00    -0.550 OA
ATOM      7  O   UNL     1      55.503   0.124  83.861  1.00  0.00    -0.550 OA
ENDBRANCH   4   5
ENDBRANCH   3   4
ENDBRANCH   2   3
ENDBRANCH   1   2
BRANCH   1   8
ATOM      8  C   UNL     1      58.995  -6.130  83.146  1.00  0.00     0.000 C 
BRANCH   8   9
ATOM      9  C   UNL     1      60.328  -6.813  83.488  1.00  0.00     0.000 C 
BRANCH   9  10
ATOM     10  C   UNL     1      61.140  -7.183  82.234  1.00  0.00     0.006 C 
BRANCH  10  11
ATOM     11  C   UNL     1      60.977  -8.662  81.856  1.00  0.00     0.053 C 
BRANCH  11  12
ATOM     12  C   UNL     1      60.092  -8.832  80.660  1.00  0.00     0.041 C 
ATOM     13  O   UNL     1      60.583  -8.833  79.501  1.00  0.00    -0.550 OA
ATOM     14  O   UNL     1      58.717  -8.958  80.825  1.00  0.00    -0.550 OA
ENDBRANCH  11  12
ENDBRANCH  10  11
ENDBRANCH   9  10
ENDBRANCH   8   9
ENDBRANCH   1   8
TORSDOF 9
ENDMDL
MODEL 4
REMARK VINA RESULT:    -4.104     13.139     14.328
REMARK INTER + INTRA:          -6.658
REMARK INTER:                  -6.081
REMARK INTRA:                  -0.578
REMARK UNBOUND:                -0.395
REMARK SMILES O=C([O-])CCCCCCCCC(=O)[O-]
REMARK SMILES IDX 7 1 6 2 5 3 4 4 2 5 1 6 3 7 8 8 9 9 10 10 11 11 12 12 13 13
REMARK SMILES IDX 14 14
REMARK H PARENT
REMARK Flexibility Score: inf
ROOT
ATOM      1  C   UNL     1      49.491  -3.035  72.602  1.00  0.00     0.000 C 
ENDROOT
BRANCH   1   2
ATOM      2  C   UNL     1      50.718  -2.460  71.873  1.00  0.00     0.000 C 
BRANCH   2   3
ATOM      3  C   UNL     1      51.778  -1.817  72.791  1.00  0.00     0.006 C 
BRANCH   3   4
ATOM      4  C   UNL     1      53.096  -1.455  72.089  1.00  0.00     0.053 C 
BRANCH   4   5
ATOM      5  C   UNL     1      53.039  -0.098  71.459  1.00  0.00     0.041 C 
ATOM      6  O   UNL     1      54.039   0.359  70.844  1.00  0.00    -0.550 OA
ATOM      7  O   UNL     1      51.893   0.677  71.578  1.00  0.00    -0.550 OA
ENDBRANCH   4   5
ENDBRANCH   3   4
ENDBRANCH   2   3
ENDBRANCH   1   2
BRANCH   1   8
ATOM      8  C   UNL     1      48.276  -2.093  72.561  1.00  0.00     0.000 C 
BRANCH   8   9
ATOM      9  C   UNL     1      48.498  -0.884  71.637  1.00  0.00     0.000 C 
BRANCH   9  10
ATOM     10  C   UNL     1      48.258   0.456  72.354  1.00  0.00     0.006 C 
BRANCH  10  11
ATOM     11  C   UNL     1      47.874   0.264  73.827  1.00  0.00     0.053 C 
BRANCH  11  12
ATOM     12  C   UNL     1      46.807   1.224  74.251  1.00  0.00     0.041 C 
ATOM     13  O   UNL     1      46.535   2.227  73.538  1.00  0.00    -0.550 OA
ATOM     14  O   UNL     1      46.133   1.030  75.451  1.00  0.00    -0.550 OA
ENDBRANCH  11  12
ENDBRANCH  10  11
ENDBRANCH   9  10
ENDBRANCH   8   9
ENDBRANCH   1   8
TORSDOF 9
ENDMDL
MODEL 5
REMARK VINA RESULT:    -4.087     12.035     13.347
REMARK INTER + INTRA:          -6.633
REMARK INTER:                  -6.169
REMARK INTRA:                  -0.464
REMARK UNBOUND:                -0.395
REMARK SMILES O=C([O-])CCCCCCCCC(=O)[O-]
REMARK SMILES IDX 7 1 6 2 5 3 4 4 2 5 1 6 3 7 8 8 9 9 10 10 11 11 12 12 13 13
REMARK SMILES IDX 14 14
REMARK H PARENT
REMARK Flexibility Score: inf
ROOT
ATOM      1  C   UNL     1      50.470  -2.485  72.260  1.00  0.00     0.000 C 
ENDROOT
BRANCH   1   2
ATOM      2  C   UNL     1      51.473  -1.320  72.331  1.00  0.00     0.000 C 
BRANCH   2   3
ATOM      3  C   UNL     1      52.956  -1.731  72.219  1.00  0.00     0.006 C 
BRANCH   3   4
ATOM      4  C   UNL     1      53.547  -2.346  73.496  1.00  0.00     0.053 C 
BRANCH   4   5
ATOM      5  C   UNL     1      53.824  -3.809  73.335  1.00  0.00     0.041 C 
ATOM      6  O   UNL     1      54.888  -4.198  72.786  1.00  0.00    -0.550 OA
ATOM      7  O   UNL     1      52.890  -4.745  73.763  1.00  0.00    -0.550 OA
ENDBRANCH   4   5
ENDBRANCH   3   4
ENDBRANCH   2   3
ENDBRANCH   1   2
BRANCH   1   8
ATOM      8  C   UNL     1      49.020  -2.012  72.063  1.00  0.00     0.000 C 
BRANCH   8   9
ATOM      9  C   UNL     1      48.928  -0.517  71.719  1.00  0.00     0.000 C 
BRANCH   9  10
ATOM     10  C   UNL     1      48.085   0.271  72.737  1.00  0.00     0.006 C 
BRANCH  10  11
ATOM     11  C   UNL     1      48.699   1.641  73.059  1.00  0.00     0.053 C 
BRANCH  11  12
ATOM     12  C   UNL     1      47.645   2.676  73.302  1.00  0.00     0.041 C 
ATOM     13  O   UNL     1      46.461   2.329  73.557  1.00  0.00    -0.550 OA
ATOM     14  O   UNL     1      47.962   4.026  73.213  1.00  0.00    -0.550 OA
ENDBRANCH  11  12
ENDBRANCH  10  11
ENDBRANCH   9  10
ENDBRANCH   8   9
ENDBRANCH   1   8
TORSDOF 9
ENDMDL
MODEL 6
REMARK VINA RESULT:    -4.049     12.063     13.532
REMARK INTER + INTRA:          -6.575
REMARK INTER:                  -5.652
REMARK INTRA:                  -0.923
REMARK UNBOUND:                -0.395
REMARK SMILES O=C([O-])CCCCCCCCC(=O)[O-]
REMARK SMILES IDX 7 1 6 2 5 3 4 4 2 5 1 6 3 7 8 8 9 9 10 10 11 11 12 12 13 13
REMARK SMILES IDX 14 14
REMARK H PARENT
REMARK Flexibility Score: inf
ROOT
ATOM      1  C   UNL     1      48.283  -0.515  71.602  1.00  0.00     0.000 C 
ENDROOT
BRANCH   1   2
ATOM      2  C   UNL     1      49.388  -1.553  71.868  1.00  0.00     0.000 C 
BRANCH   2   3
ATOM      3  C   UNL     1      50.743  -0.962  72.308  1.00  0.00     0.006 C 
BRANCH   3   4
ATOM      4  C   UNL     1      51.746  -1.994  72.845  1.00  0.00     0.053 C 
BRANCH   4   5
ATOM      5  C   UNL     1      53.075  -1.891  72.162  1.00  0.00     0.041 C 
ATOM      6  O   UNL     1      53.421  -0.816  71.604  1.00  0.00    -0.550 OA
ATOM      7  O   UNL     1      53.919  -2.993  72.115  1.00  0.00    -0.550 OA
ENDBRANCH   4   5
ENDBRANCH   3   4
ENDBRANCH   2   3
ENDBRANCH   1   2
BRANCH   1   8
ATOM      8  C   UNL     1      48.371   0.703  72.536  1.00  0.00     0.000 C 
BRANCH   8   9
ATOM      9  C   UNL     1      47.545   0.523  73.820  1.00  0.00     0.000 C 
BRANCH   9  10
ATOM     10  C   UNL     1      48.420   0.179  75.039  1.00  0.00     0.006 C 
BRANCH  10  11
ATOM     11  C   UNL     1      48.029  -1.164  75.671  1.00  0.00     0.053 C 
BRANCH  11  12
ATOM     12  C   UNL     1      49.140  -2.164  75.575  1.00  0.00     0.041 C 
ATOM     13  O   UNL     1      50.260  -1.921  76.098  1.00  0.00    -0.550 OA
ATOM     14  O   UNL     1      48.948  -3.351  74.880  1.00  0.00    -0.550 OA
ENDBRANCH  11  12
ENDBRANCH  10  11
ENDBRANCH   9  10
ENDBRANCH   8   9
ENDBRANCH   1   8
TORSDOF 9
ENDMDL
MODEL 7
REMARK VINA RESULT:    -4.044      2.579      4.118
REMARK INTER + INTRA:          -6.567
REMARK INTER:                  -5.935
REMARK INTRA:                  -0.632
REMARK UNBOUND:                -0.395
REMARK SMILES O=C([O-])CCCCCCCCC(=O)[O-]
REMARK SMILES IDX 7 1 6 2 5 3 4 4 2 5 1 6 3 7 8 8 9 9 10 10 11 11 12 12 13 13
REMARK SMILES IDX 14 14
REMARK H PARENT
REMARK Flexibility Score: inf
ROOT
ATOM      1  C   UNL     1      61.811  -7.055  80.598  1.00  0.00     0.000 C 
ENDROOT
BRANCH   1   2
ATOM      2  C   UNL     1      62.104  -8.505  80.173  1.00  0.00     0.000 C 
BRANCH   2   3
ATOM      3  C   UNL     1      60.938  -9.222  79.462  1.00  0.00     0.006 C 
BRANCH   3   4
ATOM      4  C   UNL     1      60.776 -10.703  79.836  1.00  0.00     0.053 C 
BRANCH   4   5
ATOM      5  C   UNL     1      60.635 -10.893  81.315  1.00  0.00     0.041 C 
ATOM      6  O   UNL     1      59.580 -10.538  81.904  1.00  0.00    -0.550 OA
ATOM      7  O   UNL     1      61.683 -11.434  82.049  1.00  0.00    -0.550 OA
ENDBRANCH   4   5
ENDBRANCH   3   4
ENDBRANCH   2   3
ENDBRANCH   1   2
BRANCH   1   8
ATOM      8  C   UNL     1      61.573  -6.912  82.111  1.00  0.00     0.000 C 
BRANCH   8   9
ATOM      9  C   UNL     1      60.107  -7.151  82.502  1.00  0.00     0.000 C 
BRANCH   9  10
ATOM     10  C   UNL     1      59.530  -6.007  83.354  1.00  0.00     0.006 C 
BRANCH  10  11
ATOM     11  C   UNL     1      58.426  -5.237  82.617  1.00  0.00     0.053 C 
BRANCH  11  12
ATOM     12  C   UNL     1      58.884  -3.872  82.207  1.00  0.00     0.041 C 
ATOM     13  O   UNL     1      58.044  -2.991  81.884  1.00  0.00    -0.550 OA
ATOM     14  O   UNL     1      60.242  -3.582  82.148  1.00  0.00    -0.550 OA
ENDBRANCH  11  12
ENDBRANCH  10  11
ENDBRANCH   9  10
ENDBRANCH   8   9
ENDBRANCH   1   8
TORSDOF 9
ENDMDL
MODEL 8
REMARK VINA RESULT:    -4.032      1.835      7.494
REMARK INTER + INTRA:          -6.549
REMARK INTER:                  -5.980
REMARK INTRA:                  -0.568
REMARK UNBOUND:                -0.395
REMARK SMILES O=C([O-])CCCCCCCCC(=O)[O-]
REMARK SMILES IDX 7 1 6 2 5 3 4 4 2 5 1 6 3 7 8 8 9 9 10 10 11 11 12 12 13 13
REMARK SMILES IDX 14 14
REMARK H PARENT
REMARK Flexibility Score: inf
ROOT
ATOM      1  C   UNL     1      59.657  -6.799  82.431  1.00  0.00     0.000 C 
ENDROOT
BRANCH   1   2
ATOM      2  C   UNL     1      59.223  -5.577  83.258  1.00  0.00     0.000 C 
BRANCH   2   3
ATOM      3  C   UNL     1      59.516  -4.211  82.604  1.00  0.00     0.006 C 
BRANCH   3   4
ATOM      4  C   UNL     1      58.383  -3.671  81.719  1.00  0.00     0.053 C 
BRANCH   4   5
ATOM      5  C   UNL     1      57.469  -2.757  82.476  1.00  0.00     0.041 C 
ATOM      6  O   UNL     1      57.893  -1.654  82.913  1.00  0.00    -0.550 OA
ATOM      7  O   UNL     1      56.157  -3.137  82.726  1.00  0.00    -0.550 OA
ENDBRANCH   4   5
ENDBRANCH   3   4
ENDBRANCH   2   3
ENDBRANCH   1   2
BRANCH   1   8
ATOM      8  C   UNL     1      61.105  -7.232  82.718  1.00  0.00     0.000 C 
BRANCH   8   9
ATOM      9  C   UNL     1      62.103  -6.664  81.697  1.00  0.00     0.000 C 
BRANCH   9  10
ATOM     10  C   UNL     1      61.851  -7.187  80.272  1.00  0.00     0.006 C 
BRANCH  10  11
ATOM     11  C   UNL     1      62.125  -8.692  80.151  1.00  0.00     0.053 C 
BRANCH  11  12
ATOM     12  C   UNL     1      60.983  -9.412  79.505  1.00  0.00     0.041 C 
ATOM     13  O   UNL     1      61.201 -10.326  78.666  1.00  0.00    -0.550 OA
ATOM     14  O   UNL     1      59.674  -9.052  79.805  1.00  0.00    -0.550 OA
ENDBRANCH  11  12
ENDBRANCH  10  11
ENDBRANCH   9  10
ENDBRANCH   8   9
ENDBRANCH   1   8
TORSDOF 9
ENDMDL
MODEL 9
REMARK VINA RESULT:    -4.019      2.494      7.161
REMARK INTER + INTRA:          -6.529
REMARK INTER:                  -5.813
REMARK INTRA:                  -0.715
REMARK UNBOUND:                -0.395
REMARK SMILES O=C([O-])CCCCCCCCC(=O)[O-]
REMARK SMILES IDX 7 1 6 2 5 3 4 4 2 5 1 6 3 7 8 8 9 9 10 10 11 11 12 12 13 13
REMARK SMILES IDX 14 14
REMARK H PARENT
REMARK Flexibility Score: inf
ROOT
ATOM      1  C   UNL     1      60.989  -7.559  82.544  1.00  0.00     0.000 C 
ENDROOT
BRANCH   1   2
ATOM      2  C   UNL     1      59.547  -7.025  82.474  1.00  0.00     0.000 C 
BRANCH   2   3
ATOM      3  C   UNL     1      59.305  -5.705  83.235  1.00  0.00     0.006 C 
BRANCH   3   4
ATOM      4  C   UNL     1      59.642  -4.437  82.437  1.00  0.00     0.053 C 
BRANCH   4   5
ATOM      5  C   UNL     1      58.413  -3.657  82.081  1.00  0.00     0.041 C 
ATOM      6  O   UNL     1      57.283  -4.211  82.094  1.00  0.00    -0.550 OA
ATOM      7  O   UNL     1      58.521  -2.324  81.705  1.00  0.00    -0.550 OA
ENDBRANCH   4   5
ENDBRANCH   3   4
ENDBRANCH   2   3
ENDBRANCH   1   2
BRANCH   1   8
ATOM      8  C   UNL     1      61.851  -7.111  81.352  1.00  0.00     0.000 C 
BRANCH   8   9
ATOM      9  C   UNL     1      61.577  -7.934  80.084  1.00  0.00     0.000 C 
BRANCH   9  10
ATOM     10  C   UNL     1      61.688  -9.449  80.330  1.00  0.00     0.006 C 
BRANCH  10  11
ATOM     11  C   UNL     1      60.538 -10.227  79.676  1.00  0.00     0.053 C 
BRANCH  11  12
ATOM     12  C   UNL     1      59.248 -10.027  80.410  1.00  0.00     0.041 C 
ATOM     13  O   UNL     1      58.304  -9.392  79.871  1.00  0.00    -0.550 OA
ATOM     14  O   UNL     1      59.100 -10.515  81.703  1.00  0.00    -0.550 OA
ENDBRANCH  11  12
ENDBRANCH  10  11
ENDBRANCH   9  10
ENDBRANCH   8   9
ENDBRANCH   1   8
TORSDOF 9
ENDMDL
