MODEL 1
REMARK VINA RESULT:    -4.481      0.000      0.000
REMARK INTER + INTRA:          -6.006
REMARK INTER:                  -5.136
REMARK INTRA:                  -0.870
REMARK UNBOUND:                -0.870
REMARK SMILES C=C(C)[C@@H]1CC[C@]2(C(=O)[O-])CC[C@]3(C)[C@@H](CC[C@H]4[C@@]5(C)CC[C@@H](O)C(C)(C)[C@H]5CC[C@]43C)[C@H]12
REMARK SMILES IDX 7 1 6 2 33 3 11 4 5 5 15 6 4 7 12 8 16 9 13 10 17 11 31 12
REMARK SMILES IDX 14 13 18 14 30 15 32 16 19 17 29 18 21 19 20 20 28 21 22 22
REMARK SMILES IDX 25 23 23 24 26 25 27 26 8 27 9 28 10 29 2 30 3 31 1 32 24 33
REMARK H PARENT 24 34
REMARK Flexibility Score: inf
ROOT
ATOM      1  C   UNL     1       5.647  -8.939  -8.621  1.00  0.00     0.014 C 
ATOM      2  C   UNL     1       6.060  -9.026  -7.124  1.00  0.00     0.014 C 
ATOM      3  C   UNL     1       6.474  -7.761  -9.196  1.00  0.00     0.012 C 
ATOM      4  C   UNL     1       6.011 -10.249  -9.342  1.00  0.00     0.014 C 
ATOM      5  C   UNL     1       7.107  -7.941  -6.861  1.00  0.00     0.009 C 
ATOM      6  C   UNL     1       6.763  -7.710 -10.760  1.00  0.00     0.000 C 
ATOM      7  C   UNL     1       7.658  -7.513  -8.225  1.00  0.00     0.018 C 
ATOM      8  C   UNL     1       5.837 -10.146 -10.858  1.00  0.00     0.008 C 
ATOM      9  C   UNL     1       5.888  -6.619 -11.425  1.00  0.00     0.005 C 
ATOM     10  C   UNL     1       6.754  -9.094 -11.574  1.00  0.00    -0.024 C 
ATOM     11  C   UNL     1       4.631  -7.213 -12.029  1.00  0.00     0.005 C 
ATOM     12  C   UNL     1       6.272  -8.933 -13.136  1.00  0.00    -0.024 C 
ATOM     13  C   UNL     1       8.209  -9.667 -11.532  1.00  0.00     0.012 C 
ATOM     14  C   UNL     1       4.957  -8.044 -13.296  1.00  0.00     0.002 C 
ATOM     15  C   UNL     1       7.386  -8.293 -13.999  1.00  0.00     0.008 C 
ATOM     16  C   UNL     1       5.995 -10.361 -13.743  1.00  0.00     0.012 C 
ATOM     17  C   UNL     1       4.752  -7.190 -14.658  1.00  0.00    -0.026 C 
ATOM     18  C   UNL     1       7.038  -8.109 -15.486  1.00  0.00     0.005 C 
ATOM     19  C   UNL     1       5.226  -5.697 -14.565  1.00  0.00     0.010 C 
ATOM     20  C   UNL     1       3.205  -7.224 -14.909  1.00  0.00     0.012 C 
ATOM     21  C   UNL     1       5.543  -7.830 -15.863  1.00  0.00     0.003 C 
ATOM     22  C   UNL     1       5.057  -4.889 -15.866  1.00  0.00     0.033 C 
ATOM     23  C   UNL     1       5.445  -7.041 -17.250  1.00  0.00    -0.006 C 
ATOM     24  C   UNL     1       5.772  -5.519 -17.075  1.00  0.00     0.120 C 
ATOM     25  C   UNL     1       4.033  -7.188 -17.897  1.00  0.00     0.014 C 
ATOM     26  C   UNL     1       6.416  -7.661 -18.302  1.00  0.00     0.014 C 
ENDROOT
BRANCH   1  27
ATOM     27  C   UNL     1       4.139  -8.689  -8.698  1.00  0.00     0.048 C 
ATOM     28  O   UNL     1       3.684  -7.514  -8.725  1.00  0.00    -0.550 OA
ATOM     29  O   UNL     1       3.236  -9.745  -8.625  1.00  0.00    -0.550 OA
ENDBRANCH   1  27
BRANCH   7  30
ATOM     30  C   UNL     1       9.006  -8.152  -8.574  1.00  0.00    -0.077 C 
ATOM     31  C   UNL     1      10.020  -7.346  -9.350  1.00  0.00     0.039 C 
ATOM     32  C   UNL     1       9.387  -9.359  -8.117  1.00  0.00     0.008 C 
ENDBRANCH   7  30
BRANCH  24  33
ATOM     33  O   UNL     1       7.158  -5.304 -16.957  1.00  0.00    -0.393 OA
ATOM     34  H   UNL     1       7.607  -5.905 -17.607  1.00  0.00     0.210 HD
ENDBRANCH  24  33
TORSDOF 3
ENDMDL
MODEL 2
REMARK VINA RESULT:    -3.978      2.298      7.450
REMARK INTER + INTRA:          -5.430
REMARK INTER:                  -5.002
REMARK INTRA:                  -0.428
REMARK UNBOUND:                -0.870
REMARK SMILES C=C(C)[C@@H]1CC[C@]2(C(=O)[O-])CC[C@]3(C)[C@@H](CC[C@H]4[C@@]5(C)CC[C@@H](O)C(C)(C)[C@H]5CC[C@]43C)[C@H]12
REMARK SMILES IDX 7 1 6 2 33 3 11 4 5 5 15 6 4 7 12 8 16 9 13 10 17 11 31 12
REMARK SMILES IDX 14 13 18 14 30 15 32 16 19 17 29 18 21 19 20 20 28 21 22 22
REMARK SMILES IDX 25 23 23 24 26 25 27 26 8 27 9 28 10 29 2 30 3 31 1 32 24 33
REMARK H PARENT 24 34
REMARK Flexibility Score: inf
ROOT
ATOM      1  C   UNL     1       5.236  -9.280 -15.710  1.00  0.00     0.014 C 
ATOM      2  C   UNL     1       5.134  -9.318 -17.261  1.00  0.00     0.014 C 
ATOM      3  C   UNL     1       6.560  -8.529 -15.415  1.00  0.00     0.012 C 
ATOM      4  C   UNL     1       4.042  -8.508 -15.124  1.00  0.00     0.014 C 
ATOM      5  C   UNL     1       6.353  -8.590 -17.831  1.00  0.00     0.009 C 
ATOM      6  C   UNL     1       6.741  -7.805 -14.009  1.00  0.00     0.000 C 
ATOM      7  C   UNL     1       6.937  -7.741 -16.697  1.00  0.00     0.018 C 
ATOM      8  C   UNL     1       4.199  -8.243 -13.625  1.00  0.00     0.008 C 
ATOM      9  C   UNL     1       7.716  -8.615 -13.119  1.00  0.00     0.005 C 
ATOM     10  C   UNL     1       5.420  -7.344 -13.223  1.00  0.00    -0.024 C 
ATOM     11  C   UNL     1       6.967  -9.521 -12.163  1.00  0.00     0.005 C 
ATOM     12  C   UNL     1       5.589  -7.365 -11.588  1.00  0.00    -0.024 C 
ATOM     13  C   UNL     1       5.081  -5.892 -13.694  1.00  0.00     0.012 C 
ATOM     14  C   UNL     1       6.269  -8.703 -11.048  1.00  0.00     0.002 C 
ATOM     15  C   UNL     1       6.443  -6.169 -11.102  1.00  0.00     0.008 C 
ATOM     16  C   UNL     1       4.171  -7.210 -10.919  1.00  0.00     0.012 C 
ATOM     17  C   UNL     1       7.153  -8.637  -9.691  1.00  0.00    -0.026 C 
ATOM     18  C   UNL     1       6.651  -6.090  -9.580  1.00  0.00     0.005 C 
ATOM     19  C   UNL     1       8.694  -8.467  -9.931  1.00  0.00     0.010 C 
ATOM     20  C   UNL     1       6.891 -10.014  -8.988  1.00  0.00     0.012 C 
ATOM     21  C   UNL     1       6.713  -7.432  -8.775  1.00  0.00     0.003 C 
ATOM     22  C   UNL     1       9.537  -8.377  -8.643  1.00  0.00     0.033 C 
ATOM     23  C   UNL     1       7.552  -7.248  -7.426  1.00  0.00    -0.006 C 
ATOM     24  C   UNL     1       9.094  -7.244  -7.700  1.00  0.00     0.120 C 
ATOM     25  C   UNL     1       7.221  -8.362  -6.385  1.00  0.00     0.014 C 
ATOM     26  C   UNL     1       7.151  -5.921  -6.710  1.00  0.00     0.014 C 
ENDROOT
BRANCH   1  27
ATOM     27  C   UNL     1       5.251 -10.719 -15.186  1.00  0.00     0.048 C 
ATOM     28  O   UNL     1       6.288 -11.198 -14.653  1.00  0.00    -0.550 OA
ATOM     29  O   UNL     1       4.163 -11.563 -15.389  1.00  0.00    -0.550 OA
ENDBRANCH   1  27
BRANCH   7  30
ATOM     30  C   UNL     1       6.537  -6.264 -16.764  1.00  0.00    -0.077 C 
ATOM     31  C   UNL     1       7.607  -5.208 -16.619  1.00  0.00     0.039 C 
ATOM     32  C   UNL     1       5.293  -5.853 -17.070  1.00  0.00     0.008 C 
ENDBRANCH   7  30
BRANCH  24  33
ATOM     33  O   UNL     1       9.517  -6.010  -8.229  1.00  0.00    -0.393 OA
ATOM     34  H   UNL     1      10.504  -5.965  -8.120  1.00  0.00     0.210 HD
ENDBRANCH  24  33
TORSDOF 3
ENDMDL
MODEL 3
REMARK VINA RESULT:    -3.438      2.234      4.193
REMARK INTER + INTRA:          -4.811
REMARK INTER:                  -4.271
REMARK INTRA:                  -0.540
REMARK UNBOUND:                -0.870
REMARK SMILES C=C(C)[C@@H]1CC[C@]2(C(=O)[O-])CC[C@]3(C)[C@@H](CC[C@H]4[C@@]5(C)CC[C@@H](O)C(C)(C)[C@H]5CC[C@]43C)[C@H]12
REMARK SMILES IDX 7 1 6 2 33 3 11 4 5 5 15 6 4 7 12 8 16 9 13 10 17 11 31 12
REMARK SMILES IDX 14 13 18 14 30 15 32 16 19 17 29 18 21 19 20 20 28 21 22 22
REMARK SMILES IDX 25 23 23 24 26 25 27 26 8 27 9 28 10 29 2 30 3 31 1 32 24 33
REMARK H PARENT 24 34
REMARK Flexibility Score: inf
ROOT
ATOM      1  C   UNL     1       7.185  -9.186  -7.467  1.00  0.00     0.014 C 
ATOM      2  C   UNL     1       7.163  -9.686  -5.995  1.00  0.00     0.014 C 
ATOM      3  C   UNL     1       6.341 -10.222  -8.254  1.00  0.00     0.012 C 
ATOM      4  C   UNL     1       6.539  -7.792  -7.557  1.00  0.00     0.014 C 
ATOM      5  C   UNL     1       6.314 -10.958  -5.943  1.00  0.00     0.009 C 
ATOM      6  C   UNL     1       5.668  -9.786  -9.628  1.00  0.00     0.000 C 
ATOM      7  C   UNL     1       5.471 -10.984  -7.222  1.00  0.00     0.018 C 
ATOM      8  C   UNL     1       6.328  -7.342  -9.003  1.00  0.00     0.008 C 
ATOM      9  C   UNL     1       6.433 -10.418 -10.816  1.00  0.00     0.005 C 
ATOM     10  C   UNL     1       5.351  -8.228  -9.852  1.00  0.00    -0.024 C 
ATOM     11  C   UNL     1       7.438  -9.448 -11.403  1.00  0.00     0.005 C 
ATOM     12  C   UNL     1       5.429  -7.763 -11.426  1.00  0.00    -0.024 C 
ATOM     13  C   UNL     1       3.912  -7.962  -9.299  1.00  0.00     0.012 C 
ATOM     14  C   UNL     1       6.730  -8.305 -12.173  1.00  0.00     0.002 C 
ATOM     15  C   UNL     1       4.190  -8.253 -12.213  1.00  0.00     0.008 C 
ATOM     16  C   UNL     1       5.419  -6.188 -11.501  1.00  0.00     0.012 C 
ATOM     17  C   UNL     1       6.651  -8.595 -13.766  1.00  0.00    -0.026 C 
ATOM     18  C   UNL     1       4.161  -7.857 -13.699  1.00  0.00     0.005 C 
ATOM     19  C   UNL     1       6.345 -10.089 -14.138  1.00  0.00     0.010 C 
ATOM     20  C   UNL     1       8.074  -8.213 -14.302  1.00  0.00     0.012 C 
ATOM     21  C   UNL     1       5.527  -7.730 -14.454  1.00  0.00     0.003 C 
ATOM     22  C   UNL     1       6.243 -10.364 -15.651  1.00  0.00     0.033 C 
ATOM     23  C   UNL     1       5.334  -7.971 -16.023  1.00  0.00    -0.006 C 
ATOM     24  C   UNL     1       5.192  -9.493 -16.362  1.00  0.00     0.120 C 
ATOM     25  C   UNL     1       6.516  -7.372 -16.847  1.00  0.00     0.014 C 
ATOM     26  C   UNL     1       4.077  -7.206 -16.543  1.00  0.00     0.014 C 
ENDROOT
BRANCH   1  27
ATOM     27  C   UNL     1       8.639  -9.133  -7.943  1.00  0.00     0.048 C 
ATOM     28  O   UNL     1       9.119 -10.062  -8.645  1.00  0.00    -0.550 OA
ATOM     29  O   UNL     1       9.491  -8.118  -7.519  1.00  0.00    -0.550 OA
ENDBRANCH   1  27
BRANCH   7  30
ATOM     30  C   UNL     1       4.029 -10.506  -7.020  1.00  0.00    -0.077 C 
ATOM     31  C   UNL     1       2.893 -11.387  -7.482  1.00  0.00     0.039 C 
ATOM     32  C   UNL     1       3.714  -9.391  -6.337  1.00  0.00     0.008 C 
ENDBRANCH   7  30
BRANCH  24  33
ATOM     33  O   UNL     1       3.906  -9.970 -16.047  1.00  0.00    -0.393 OA
ATOM     34  H   UNL     1       3.397  -9.212 -15.658  1.00  0.00     0.210 HD
ENDBRANCH  24  33
TORSDOF 3
ENDMDL
MODEL 4
REMARK VINA RESULT:    -3.299      2.312      4.303
REMARK INTER + INTRA:          -4.651
REMARK INTER:                  -4.046
REMARK INTRA:                  -0.604
REMARK UNBOUND:                -0.870
REMARK SMILES C=C(C)[C@@H]1CC[C@]2(C(=O)[O-])CC[C@]3(C)[C@@H](CC[C@H]4[C@@]5(C)CC[C@@H](O)C(C)(C)[C@H]5CC[C@]43C)[C@H]12
REMARK SMILES IDX 7 1 6 2 33 3 11 4 5 5 15 6 4 7 12 8 16 9 13 10 17 11 31 12
REMARK SMILES IDX 14 13 18 14 30 15 32 16 19 17 29 18 21 19 20 20 28 21 22 22
REMARK SMILES IDX 25 23 23 24 26 25 27 26 8 27 9 28 10 29 2 30 3 31 1 32 24 33
REMARK H PARENT 24 34
REMARK Flexibility Score: inf
ROOT
ATOM      1  C   UNL     1       6.936  -9.408  -7.879  1.00  0.00     0.014 C 
ATOM      2  C   UNL     1       7.153 -10.273  -6.605  1.00  0.00     0.014 C 
ATOM      3  C   UNL     1       5.817 -10.134  -8.669  1.00  0.00     0.012 C 
ATOM      4  C   UNL     1       6.477  -7.994  -7.481  1.00  0.00     0.014 C 
ATOM      5  C   UNL     1       6.171 -11.445  -6.659  1.00  0.00     0.009 C 
ATOM      6  C   UNL     1       4.937  -9.303  -9.703  1.00  0.00     0.000 C 
ATOM      7  C   UNL     1       5.085 -11.071  -7.674  1.00  0.00     0.018 C 
ATOM      8  C   UNL     1       6.033  -7.166  -8.688  1.00  0.00     0.008 C 
ATOM      9  C   UNL     1       5.348  -9.659 -11.153  1.00  0.00     0.005 C 
ATOM     10  C   UNL     1       4.792  -7.722  -9.469  1.00  0.00    -0.024 C 
ATOM     11  C   UNL     1       6.331  -8.649 -11.711  1.00  0.00     0.005 C 
ATOM     12  C   UNL     1       4.604  -6.868 -10.861  1.00  0.00    -0.024 C 
ATOM     13  C   UNL     1       3.547  -7.500  -8.548  1.00  0.00     0.012 C 
ATOM     14  C   UNL     1       5.637  -7.294 -11.999  1.00  0.00     0.002 C 
ATOM     15  C   UNL     1       3.174  -7.038 -11.429  1.00  0.00     0.008 C 
ATOM     16  C   UNL     1       4.789  -5.333 -10.555  1.00  0.00     0.012 C 
ATOM     17  C   UNL     1       5.192  -7.150 -13.551  1.00  0.00    -0.026 C 
ATOM     18  C   UNL     1       2.892  -6.266 -12.729  1.00  0.00     0.005 C 
ATOM     19  C   UNL     1       4.619  -8.466 -14.185  1.00  0.00     0.010 C 
ATOM     20  C   UNL     1       6.511  -6.751 -14.299  1.00  0.00     0.012 C 
ATOM     21  C   UNL     1       4.076  -6.051 -13.731  1.00  0.00     0.003 C 
ATOM     22  C   UNL     1       4.170  -8.328 -15.653  1.00  0.00     0.033 C 
ATOM     23  C   UNL     1       3.532  -5.858 -15.221  1.00  0.00    -0.006 C 
ATOM     24  C   UNL     1       3.121  -7.222 -15.869  1.00  0.00     0.120 C 
ATOM     25  C   UNL     1       4.586  -5.156 -16.133  1.00  0.00     0.014 C 
ATOM     26  C   UNL     1       2.308  -4.889 -15.235  1.00  0.00     0.014 C 
ENDROOT
BRANCH   1  27
ATOM     27  C   UNL     1       8.253  -9.343  -8.655  1.00  0.00     0.048 C 
ATOM     28  O   UNL     1       8.431 -10.056  -9.679  1.00  0.00    -0.550 OA
ATOM     29  O   UNL     1       9.321  -8.585  -8.186  1.00  0.00    -0.550 OA
ENDBRANCH   1  27
BRANCH   7  30
ATOM     30  C   UNL     1       3.793 -10.553  -7.032  1.00  0.00    -0.077 C 
ATOM     31  C   UNL     1       2.498 -10.666  -7.799  1.00  0.00     0.039 C 
ATOM     32  C   UNL     1       3.730 -10.111  -5.763  1.00  0.00     0.008 C 
ENDBRANCH   7  30
BRANCH  24  33
ATOM     33  O   UNL     1       1.876  -7.665 -15.385  1.00  0.00    -0.393 OA
ATOM     34  H   UNL     1       1.207  -6.964 -15.604  1.00  0.00     0.210 HD
ENDBRANCH  24  33
TORSDOF 3
ENDMDL
MODEL 5
REMARK VINA RESULT:    -2.650     10.587     13.224
REMARK INTER + INTRA:          -3.908
REMARK INTER:                  -3.139
REMARK INTRA:                  -0.768
REMARK UNBOUND:                -0.870
REMARK SMILES C=C(C)[C@@H]1CC[C@]2(C(=O)[O-])CC[C@]3(C)[C@@H](CC[C@H]4[C@@]5(C)CC[C@@H](O)C(C)(C)[C@H]5CC[C@]43C)[C@H]12
REMARK SMILES IDX 7 1 6 2 33 3 11 4 5 5 15 6 4 7 12 8 16 9 13 10 17 11 31 12
REMARK SMILES IDX 14 13 18 14 30 15 32 16 19 17 29 18 21 19 20 20 28 21 22 22
REMARK SMILES IDX 25 23 23 24 26 25 27 26 8 27 9 28 10 29 2 30 3 31 1 32 24 33
REMARK H PARENT 24 34
REMARK Flexibility Score: inf
ROOT
ATOM      1  C   UNL     1       4.094 -17.411  -5.947  1.00  0.00     0.014 C 
ATOM      2  C   UNL     1       4.408 -16.095  -5.182  1.00  0.00     0.014 C 
ATOM      3  C   UNL     1       4.776 -17.242  -7.330  1.00  0.00     0.012 C 
ATOM      4  C   UNL     1       4.699 -18.611  -5.198  1.00  0.00     0.014 C 
ATOM      5  C   UNL     1       5.261 -15.211  -6.095  1.00  0.00     0.009 C 
ATOM      6  C   UNL     1       5.164 -18.540  -8.165  1.00  0.00     0.000 C 
ATOM      7  C   UNL     1       5.838 -16.121  -7.185  1.00  0.00     0.018 C 
ATOM      8  C   UNL     1       4.619 -19.905  -6.010  1.00  0.00     0.008 C 
ATOM      9  C   UNL     1       4.186 -18.718  -9.351  1.00  0.00     0.005 C 
ATOM     10  C   UNL     1       5.418 -19.906  -7.360  1.00  0.00    -0.024 C 
ATOM     11  C   UNL     1       3.077 -19.693  -9.011  1.00  0.00     0.005 C 
ATOM     12  C   UNL     1       5.029 -21.253  -8.216  1.00  0.00    -0.024 C 
ATOM     13  C   UNL     1       6.935 -19.947  -6.982  1.00  0.00     0.012 C 
ATOM     14  C   UNL     1       3.611 -21.146  -8.940  1.00  0.00     0.002 C 
ATOM     15  C   UNL     1       6.094 -21.551  -9.299  1.00  0.00     0.008 C 
ATOM     16  C   UNL     1       5.011 -22.496  -7.246  1.00  0.00     0.012 C 
ATOM     17  C   UNL     1       3.379 -21.954 -10.325  1.00  0.00    -0.026 C 
ATOM     18  C   UNL     1       5.828 -22.804 -10.151  1.00  0.00     0.005 C 
ATOM     19  C   UNL     1       3.618 -21.100 -11.620  1.00  0.00     0.010 C 
ATOM     20  C   UNL     1       1.876 -22.395 -10.271  1.00  0.00     0.012 C 
ATOM     21  C   UNL     1       4.339 -23.200 -10.434  1.00  0.00     0.003 C 
ATOM     22  C   UNL     1       3.423 -21.872 -12.941  1.00  0.00     0.033 C 
ATOM     23  C   UNL     1       4.223 -24.045 -11.786  1.00  0.00    -0.006 C 
ATOM     24  C   UNL     1       4.308 -23.127 -13.052  1.00  0.00     0.120 C 
ATOM     25  C   UNL     1       2.898 -24.867 -11.839  1.00  0.00     0.014 C 
ATOM     26  C   UNL     1       5.348 -25.125 -11.854  1.00  0.00     0.014 C 
ENDROOT
BRANCH   1  27
ATOM     27  C   UNL     1       2.575 -17.561  -6.058  1.00  0.00     0.048 C 
ATOM     28  O   UNL     1       1.916 -16.845  -6.859  1.00  0.00    -0.550 OA
ATOM     29  O   UNL     1       1.878 -18.407  -5.201  1.00  0.00    -0.550 OA
ENDBRANCH   1  27
BRANCH   7  30
ATOM     30  C   UNL     1       7.287 -16.548  -6.929  1.00  0.00    -0.077 C 
ATOM     31  C   UNL     1       8.236 -16.657  -8.099  1.00  0.00     0.039 C 
ATOM     32  C   UNL     1       7.797 -16.713  -5.695  1.00  0.00     0.008 C 
ENDBRANCH   7  30
BRANCH  24  33
ATOM     33  O   UNL     1       5.634 -22.736 -13.314  1.00  0.00    -0.393 OA
ATOM     34  H   UNL     1       6.019 -23.400 -13.944  1.00  0.00     0.210 HD
ENDBRANCH  24  33
TORSDOF 3
ENDMDL
MODEL 6
REMARK VINA RESULT:    -2.132      2.324      7.472
REMARK INTER + INTRA:          -3.313
REMARK INTER:                  -3.276
REMARK INTRA:                  -0.038
REMARK UNBOUND:                -0.870
REMARK SMILES C=C(C)[C@@H]1CC[C@]2(C(=O)[O-])CC[C@]3(C)[C@@H](CC[C@H]4[C@@]5(C)CC[C@@H](O)C(C)(C)[C@H]5CC[C@]43C)[C@H]12
REMARK SMILES IDX 7 1 6 2 33 3 11 4 5 5 15 6 4 7 12 8 16 9 13 10 17 11 31 12
REMARK SMILES IDX 14 13 18 14 30 15 32 16 19 17 29 18 21 19 20 20 28 21 22 22
REMARK SMILES IDX 25 23 23 24 26 25 27 26 8 27 9 28 10 29 2 30 3 31 1 32 24 33
REMARK H PARENT 24 34
REMARK Flexibility Score: inf
ROOT
ATOM      1  C   UNL     1       5.095  -8.902 -16.541  1.00  0.00     0.014 C 
ATOM      2  C   UNL     1       5.483  -9.049 -18.039  1.00  0.00     0.014 C 
ATOM      3  C   UNL     1       6.256  -8.094 -15.905  1.00  0.00     0.012 C 
ATOM      4  C   UNL     1       3.772  -8.126 -16.415  1.00  0.00     0.014 C 
ATOM      5  C   UNL     1       6.815  -8.328 -18.254  1.00  0.00     0.009 C 
ATOM      6  C   UNL     1       5.984  -7.271 -14.571  1.00  0.00     0.000 C 
ATOM      7  C   UNL     1       7.010  -7.386 -17.061  1.00  0.00     0.018 C 
ATOM      8  C   UNL     1       3.452  -7.755 -14.966  1.00  0.00     0.008 C 
ATOM      9  C   UNL     1       6.637  -7.989 -13.364  1.00  0.00     0.005 C 
ATOM     10  C   UNL     1       4.481  -6.795 -14.271  1.00  0.00    -0.024 C 
ATOM     11  C   UNL     1       5.632  -8.849 -12.624  1.00  0.00     0.005 C 
ATOM     12  C   UNL     1       4.131  -6.699 -12.668  1.00  0.00    -0.024 C 
ATOM     13  C   UNL     1       4.297  -5.389 -14.931  1.00  0.00     0.012 C 
ATOM     14  C   UNL     1       4.615  -7.977 -11.845  1.00  0.00     0.002 C 
ATOM     15  C   UNL     1       4.783  -5.448 -12.031  1.00  0.00     0.008 C 
ATOM     16  C   UNL     1       2.573  -6.539 -12.487  1.00  0.00     0.012 C 
ATOM     17  C   UNL     1       5.030  -7.792 -10.289  1.00  0.00    -0.026 C 
ATOM     18  C   UNL     1       4.505  -5.259 -10.530  1.00  0.00     0.005 C 
ATOM     19  C   UNL     1       6.569  -7.594 -10.050  1.00  0.00     0.010 C 
ATOM     20  C   UNL     1       4.570  -9.124  -9.603  1.00  0.00     0.012 C 
ATOM     21  C   UNL     1       4.319  -6.540  -9.648  1.00  0.00     0.003 C 
ATOM     22  C   UNL     1       6.966  -7.392  -8.574  1.00  0.00     0.033 C 
ATOM     23  C   UNL     1       4.694  -6.240  -8.123  1.00  0.00    -0.006 C 
ATOM     24  C   UNL     1       6.244  -6.210  -7.903  1.00  0.00     0.120 C 
ATOM     25  C   UNL     1       4.060  -7.288  -7.157  1.00  0.00     0.014 C 
ATOM     26  C   UNL     1       4.080  -4.879  -7.667  1.00  0.00     0.014 C 
ENDROOT
BRANCH   1  27
ATOM     27  C   UNL     1       4.954 -10.300 -15.933  1.00  0.00     0.048 C 
ATOM     28  O   UNL     1       5.616 -10.627 -14.912  1.00  0.00    -0.550 OA
ATOM     29  O   UNL     1       4.182 -11.275 -16.558  1.00  0.00    -0.550 OA
ENDBRANCH   1  27
BRANCH   7  30
ATOM     30  C   UNL     1       6.642  -5.929 -17.358  1.00  0.00    -0.077 C 
ATOM     31  C   UNL     1       5.403  -5.637 -18.171  1.00  0.00     0.039 C 
ATOM     32  C   UNL     1       7.300  -4.882 -16.827  1.00  0.00     0.008 C 
ENDBRANCH   7  30
BRANCH  24  33
ATOM     33  O   UNL     1       6.804  -5.004  -8.363  1.00  0.00    -0.393 OA
ATOM     34  H   UNL     1       7.783  -5.148  -8.452  1.00  0.00     0.210 HD
ENDBRANCH  24  33
TORSDOF 3
ENDMDL
