MODEL 1
REMARK VINA RESULT:    -3.610      0.000      0.000
REMARK INTER + INTRA:         -10.506
REMARK INTER:                  -7.831
REMARK INTRA:                  -2.675
REMARK UNBOUND:                -2.675
REMARK SMILES CCCCCCCCCCCCCCCCCCCCCC(=O)[O-]
REMARK SMILES IDX 12 1 11 2 10 3 9 4 8 5 7 6 6 7 5 8 4 9 3 10 2 11 1 12 13 13
REMARK SMILES IDX 14 14 15 15 16 16 17 17 18 18 19 19 20 20 21 21 22 22 23 23
REMARK SMILES IDX 24 24
REMARK H PARENT
REMARK Flexibility Score: inf
ROOT
ATOM      1  C   UNL     1     -25.101   2.267 -36.656  1.00  0.00     0.000 C 
ENDROOT
BRANCH   1   2
ATOM      2  C   UNL     1     -24.178   2.263 -35.424  1.00  0.00     0.000 C 
BRANCH   2   3
ATOM      3  C   UNL     1     -24.587   1.214 -34.377  1.00  0.00     0.000 C 
BRANCH   3   4
ATOM      4  C   UNL     1     -24.221   1.634 -32.942  1.00  0.00    -0.000 C 
BRANCH   4   5
ATOM      5  C   UNL     1     -22.790   2.189 -32.839  1.00  0.00    -0.000 C 
BRANCH   5   6
ATOM      6  C   UNL     1     -22.124   1.845 -31.495  1.00  0.00    -0.000 C 
BRANCH   6   7
ATOM      7  C   UNL     1     -20.744   1.190 -31.669  1.00  0.00    -0.000 C 
BRANCH   7   8
ATOM      8  C   UNL     1     -20.520   0.646 -33.092  1.00  0.00    -0.000 C 
BRANCH   8   9
ATOM      9  C   UNL     1     -20.665  -0.882 -33.174  1.00  0.00    -0.000 C 
BRANCH   9  10
ATOM     10  C   UNL     1     -19.982  -1.605 -32.001  1.00  0.00    -0.000 C 
BRANCH  10  11
ATOM     11  C   UNL     1     -19.100  -2.774 -32.466  1.00  0.00    -0.003 C 
ATOM     12  C   UNL     1     -19.211  -3.039 -33.968  1.00  0.00     0.004 C 
ENDBRANCH  10  11
ENDBRANCH   9  10
ENDBRANCH   8   9
ENDBRANCH   7   8
ENDBRANCH   6   7
ENDBRANCH   5   6
ENDBRANCH   4   5
ENDBRANCH   3   4
ENDBRANCH   2   3
ENDBRANCH   1   2
BRANCH   1  13
ATOM     13  C   UNL     1     -26.421   3.020 -36.409  1.00  0.00     0.000 C 
BRANCH  13  14
ATOM     14  C   UNL     1     -26.381   4.527 -36.719  1.00  0.00     0.000 C 
BRANCH  14  15
ATOM     15  C   UNL     1     -26.627   5.402 -35.478  1.00  0.00     0.000 C 
BRANCH  15  16
ATOM     16  C   UNL     1     -27.122   4.577 -34.273  1.00  0.00     0.000 C 
BRANCH  16  17
ATOM     17  C   UNL     1     -26.223   4.698 -33.031  1.00  0.00     0.000 C 
BRANCH  17  18
ATOM     18  C   UNL     1     -24.826   5.249 -33.359  1.00  0.00     0.000 C 
BRANCH  18  19
ATOM     19  C   UNL     1     -24.091   5.801 -32.126  1.00  0.00     0.000 C 
BRANCH  19  20
ATOM     20  C   UNL     1     -24.892   5.771 -30.809  1.00  0.00     0.006 C 
BRANCH  20  21
ATOM     21  C   UNL     1     -24.021   5.656 -29.545  1.00  0.00     0.053 C 
BRANCH  21  22
ATOM     22  C   UNL     1     -24.117   6.871 -28.672  1.00  0.00     0.041 C 
ATOM     23  O   UNL     1     -24.505   7.968 -29.151  1.00  0.00    -0.550 OA
ATOM     24  O   UNL     1     -23.740   6.804 -27.337  1.00  0.00    -0.550 OA
ENDBRANCH  21  22
ENDBRANCH  20  21
ENDBRANCH  19  20
ENDBRANCH  18  19
ENDBRANCH  17  18
ENDBRANCH  16  17
ENDBRANCH  15  16
ENDBRANCH  14  15
ENDBRANCH  13  14
ENDBRANCH   1  13
TORSDOF 20
ENDMDL
MODEL 2
REMARK VINA RESULT:    -3.528      6.461      9.050
REMARK INTER + INTRA:         -10.328
REMARK INTER:                  -6.915
REMARK INTRA:                  -3.414
REMARK UNBOUND:                -2.675
REMARK SMILES CCCCCCCCCCCCCCCCCCCCCC(=O)[O-]
REMARK SMILES IDX 12 1 11 2 10 3 9 4 8 5 7 6 6 7 5 8 4 9 3 10 2 11 1 12 13 13
REMARK SMILES IDX 14 14 15 15 16 16 17 17 18 18 19 19 20 20 21 21 22 22 23 23
REMARK SMILES IDX 24 24
REMARK H PARENT
REMARK Flexibility Score: inf
ROOT
ATOM      1  C   UNL     1     -32.047  -0.502 -38.605  1.00  0.00     0.000 C 
ENDROOT
BRANCH   1   2
ATOM      2  C   UNL     1     -30.765  -0.079 -39.345  1.00  0.00     0.000 C 
BRANCH   2   3
ATOM      3  C   UNL     1     -30.055  -1.258 -40.029  1.00  0.00     0.000 C 
BRANCH   3   4
ATOM      4  C   UNL     1     -29.101  -2.008 -39.081  1.00  0.00    -0.000 C 
BRANCH   4   5
ATOM      5  C   UNL     1     -28.236  -1.052 -38.242  1.00  0.00    -0.000 C 
BRANCH   5   6
ATOM      6  C   UNL     1     -28.279  -1.388 -36.741  1.00  0.00    -0.000 C 
BRANCH   6   7
ATOM      7  C   UNL     1     -29.132  -2.631 -36.437  1.00  0.00    -0.000 C 
BRANCH   7   8
ATOM      8  C   UNL     1     -30.221  -2.360 -35.382  1.00  0.00    -0.000 C 
BRANCH   8   9
ATOM      9  C   UNL     1     -30.763  -0.923 -35.444  1.00  0.00    -0.000 C 
BRANCH   9  10
ATOM     10  C   UNL     1     -32.081  -0.753 -34.669  1.00  0.00    -0.000 C 
BRANCH  10  11
ATOM     11  C   UNL     1     -32.252  -1.807 -33.565  1.00  0.00    -0.003 C 
ATOM     12  C   UNL     1     -33.517  -2.648 -33.739  1.00  0.00     0.004 C 
ENDBRANCH  10  11
ENDBRANCH   9  10
ENDBRANCH   8   9
ENDBRANCH   7   8
ENDBRANCH   6   7
ENDBRANCH   5   6
ENDBRANCH   4   5
ENDBRANCH   3   4
ENDBRANCH   2   3
ENDBRANCH   1   2
BRANCH   1  13
ATOM     13  C   UNL     1     -33.142   0.580 -38.643  1.00  0.00     0.000 C 
BRANCH  13  14
ATOM     14  C   UNL     1     -32.672   1.965 -39.123  1.00  0.00     0.000 C 
BRANCH  14  15
ATOM     15  C   UNL     1     -32.831   3.057 -38.051  1.00  0.00     0.000 C 
BRANCH  15  16
ATOM     16  C   UNL     1     -31.471   3.534 -37.500  1.00  0.00     0.000 C 
BRANCH  16  17
ATOM     17  C   UNL     1     -30.822   2.545 -36.518  1.00  0.00     0.000 C 
BRANCH  17  18
ATOM     18  C   UNL     1     -29.329   2.316 -36.803  1.00  0.00     0.000 C 
BRANCH  18  19
ATOM     19  C   UNL     1     -28.916   2.733 -38.224  1.00  0.00     0.000 C 
BRANCH  19  20
ATOM     20  C   UNL     1     -27.932   3.917 -38.307  1.00  0.00     0.006 C 
BRANCH  20  21
ATOM     21  C   UNL     1     -27.985   4.865 -37.096  1.00  0.00     0.053 C 
BRANCH  21  22
ATOM     22  C   UNL     1     -26.681   4.925 -36.359  1.00  0.00     0.041 C 
ATOM     23  O   UNL     1     -26.488   5.809 -35.483  1.00  0.00    -0.550 OA
ATOM     24  O   UNL     1     -25.663   4.031 -36.665  1.00  0.00    -0.550 OA
ENDBRANCH  21  22
ENDBRANCH  20  21
ENDBRANCH  19  20
ENDBRANCH  18  19
ENDBRANCH  17  18
ENDBRANCH  16  17
ENDBRANCH  15  16
ENDBRANCH  14  15
ENDBRANCH  13  14
ENDBRANCH   1  13
TORSDOF 20
ENDMDL
MODEL 3
REMARK VINA RESULT:    -3.502      4.872      8.496
REMARK INTER + INTRA:         -10.272
REMARK INTER:                  -6.820
REMARK INTRA:                  -3.452
REMARK UNBOUND:                -2.675
REMARK SMILES CCCCCCCCCCCCCCCCCCCCCC(=O)[O-]
REMARK SMILES IDX 12 1 11 2 10 3 9 4 8 5 7 6 6 7 5 8 4 9 3 10 2 11 1 12 13 13
REMARK SMILES IDX 14 14 15 15 16 16 17 17 18 18 19 19 20 20 21 21 22 22 23 23
REMARK SMILES IDX 24 24
REMARK H PARENT
REMARK Flexibility Score: inf
ROOT
ATOM      1  C   UNL     1     -31.702   5.575 -37.896  1.00  0.00     0.000 C 
ENDROOT
BRANCH   1   2
ATOM      2  C   UNL     1     -32.243   4.262 -37.302  1.00  0.00     0.000 C 
BRANCH   2   3
ATOM      3  C   UNL     1     -32.176   3.088 -38.291  1.00  0.00     0.000 C 
BRANCH   3   4
ATOM      4  C   UNL     1     -33.272   2.036 -38.039  1.00  0.00    -0.000 C 
BRANCH   4   5
ATOM      5  C   UNL     1     -32.927   0.669 -38.652  1.00  0.00    -0.000 C 
BRANCH   5   6
ATOM      6  C   UNL     1     -31.437   0.552 -39.022  1.00  0.00    -0.000 C 
BRANCH   6   7
ATOM      7  C   UNL     1     -30.959  -0.907 -39.102  1.00  0.00    -0.000 C 
BRANCH   7   8
ATOM      8  C   UNL     1     -29.613  -1.131 -38.389  1.00  0.00    -0.000 C 
BRANCH   8   9
ATOM      9  C   UNL     1     -29.652  -0.727 -36.907  1.00  0.00    -0.000 C 
BRANCH   9  10
ATOM     10  C   UNL     1     -30.697  -1.521 -36.103  1.00  0.00    -0.000 C 
BRANCH  10  11
ATOM     11  C   UNL     1     -31.665  -0.607 -35.336  1.00  0.00    -0.003 C 
ATOM     12  C   UNL     1     -31.171   0.836 -35.244  1.00  0.00     0.004 C 
ENDBRANCH  10  11
ENDBRANCH   9  10
ENDBRANCH   8   9
ENDBRANCH   7   8
ENDBRANCH   6   7
ENDBRANCH   5   6
ENDBRANCH   4   5
ENDBRANCH   3   4
ENDBRANCH   2   3
ENDBRANCH   1   2
BRANCH   1  13
ATOM     13  C   UNL     1     -30.755   5.344 -39.088  1.00  0.00     0.000 C 
BRANCH  13  14
ATOM     14  C   UNL     1     -29.366   5.992 -38.952  1.00  0.00     0.000 C 
BRANCH  14  15
ATOM     15  C   UNL     1     -28.347   5.085 -38.239  1.00  0.00     0.000 C 
BRANCH  15  16
ATOM     16  C   UNL     1     -28.495   3.607 -38.653  1.00  0.00     0.000 C 
BRANCH  16  17
ATOM     17  C   UNL     1     -28.612   2.641 -37.462  1.00  0.00     0.000 C 
BRANCH  17  18
ATOM     18  C   UNL     1     -28.223   3.294 -36.126  1.00  0.00     0.000 C 
BRANCH  18  19
ATOM     19  C   UNL     1     -27.696   2.283 -35.093  1.00  0.00     0.000 C 
BRANCH  19  20
ATOM     20  C   UNL     1     -26.580   2.805 -34.167  1.00  0.00     0.006 C 
BRANCH  20  21
ATOM     21  C   UNL     1     -26.331   4.320 -34.271  1.00  0.00     0.053 C 
BRANCH  21  22
ATOM     22  C   UNL     1     -25.739   4.891 -33.018  1.00  0.00     0.041 C 
ATOM     23  O   UNL     1     -26.373   4.831 -31.932  1.00  0.00    -0.550 OA
ATOM     24  O   UNL     1     -24.504   5.526 -33.055  1.00  0.00    -0.550 OA
ENDBRANCH  21  22
ENDBRANCH  20  21
ENDBRANCH  19  20
ENDBRANCH  18  19
ENDBRANCH  17  18
ENDBRANCH  16  17
ENDBRANCH  15  16
ENDBRANCH  14  15
ENDBRANCH  13  14
ENDBRANCH   1  13
TORSDOF 20
ENDMDL
MODEL 4
REMARK VINA RESULT:    -3.492      4.922      8.122
REMARK INTER + INTRA:         -10.249
REMARK INTER:                  -6.497
REMARK INTRA:                  -3.751
REMARK UNBOUND:                -2.675
REMARK SMILES CCCCCCCCCCCCCCCCCCCCCC(=O)[O-]
REMARK SMILES IDX 12 1 11 2 10 3 9 4 8 5 7 6 6 7 5 8 4 9 3 10 2 11 1 12 13 13
REMARK SMILES IDX 14 14 15 15 16 16 17 17 18 18 19 19 20 20 21 21 22 22 23 23
REMARK SMILES IDX 24 24
REMARK H PARENT
REMARK Flexibility Score: inf
ROOT
ATOM      1  C   UNL     1     -31.605   0.812 -39.001  1.00  0.00     0.000 C 
ENDROOT
BRANCH   1   2
ATOM      2  C   UNL     1     -31.298  -0.693 -38.912  1.00  0.00     0.000 C 
BRANCH   2   3
ATOM      3  C   UNL     1     -30.093  -1.108 -39.772  1.00  0.00     0.000 C 
BRANCH   3   4
ATOM      4  C   UNL     1     -28.880  -1.535 -38.926  1.00  0.00    -0.000 C 
BRANCH   4   5
ATOM      5  C   UNL     1     -27.910  -0.372 -38.660  1.00  0.00    -0.000 C 
BRANCH   5   6
ATOM      6  C   UNL     1     -27.518  -0.264 -37.175  1.00  0.00    -0.000 C 
BRANCH   6   7
ATOM      7  C   UNL     1     -28.390   0.740 -36.404  1.00  0.00    -0.000 C 
BRANCH   7   8
ATOM      8  C   UNL     1     -29.648   0.092 -35.799  1.00  0.00    -0.000 C 
BRANCH   8   9
ATOM      9  C   UNL     1     -30.611   1.123 -35.187  1.00  0.00    -0.000 C 
BRANCH   9  10
ATOM     10  C   UNL     1     -30.613   2.459 -35.951  1.00  0.00    -0.000 C 
BRANCH  10  11
ATOM     11  C   UNL     1     -30.247   3.649 -35.051  1.00  0.00    -0.003 C 
ATOM     12  C   UNL     1     -30.003   3.241 -33.598  1.00  0.00     0.004 C 
ENDBRANCH  10  11
ENDBRANCH   9  10
ENDBRANCH   8   9
ENDBRANCH   7   8
ENDBRANCH   6   7
ENDBRANCH   5   6
ENDBRANCH   4   5
ENDBRANCH   3   4
ENDBRANCH   2   3
ENDBRANCH   1   2
BRANCH   1  13
ATOM     13  C   UNL     1     -30.509   1.601 -39.742  1.00  0.00     0.000 C 
BRANCH  13  14
ATOM     14  C   UNL     1     -30.675   3.131 -39.713  1.00  0.00     0.000 C 
BRANCH  14  15
ATOM     15  C   UNL     1     -29.347   3.883 -39.904  1.00  0.00     0.000 C 
BRANCH  15  16
ATOM     16  C   UNL     1     -28.350   3.603 -38.761  1.00  0.00     0.000 C 
BRANCH  16  17
ATOM     17  C   UNL     1     -28.202   4.771 -37.772  1.00  0.00     0.000 C 
BRANCH  17  18
ATOM     18  C   UNL     1     -26.799   4.851 -37.150  1.00  0.00     0.000 C 
BRANCH  18  19
ATOM     19  C   UNL     1     -26.825   5.023 -35.622  1.00  0.00     0.000 C 
BRANCH  19  20
ATOM     20  C   UNL     1     -26.422   3.777 -34.808  1.00  0.00     0.006 C 
BRANCH  20  21
ATOM     21  C   UNL     1     -25.480   2.816 -35.554  1.00  0.00     0.053 C 
BRANCH  21  22
ATOM     22  C   UNL     1     -24.064   3.307 -35.580  1.00  0.00     0.041 C 
ATOM     23  O   UNL     1     -23.377   3.209 -36.630  1.00  0.00    -0.550 OA
ATOM     24  O   UNL     1     -23.487   3.837 -34.432  1.00  0.00    -0.550 OA
ENDBRANCH  21  22
ENDBRANCH  20  21
ENDBRANCH  19  20
ENDBRANCH  18  19
ENDBRANCH  17  18
ENDBRANCH  16  17
ENDBRANCH  15  16
ENDBRANCH  14  15
ENDBRANCH  13  14
ENDBRANCH   1  13
TORSDOF 20
ENDMDL
MODEL 5
REMARK VINA RESULT:    -3.478      5.337      8.757
REMARK INTER + INTRA:         -10.220
REMARK INTER:                  -6.743
REMARK INTRA:                  -3.477
REMARK UNBOUND:                -2.675
REMARK SMILES CCCCCCCCCCCCCCCCCCCCCC(=O)[O-]
REMARK SMILES IDX 12 1 11 2 10 3 9 4 8 5 7 6 6 7 5 8 4 9 3 10 2 11 1 12 13 13
REMARK SMILES IDX 14 14 15 15 16 16 17 17 18 18 19 19 20 20 21 21 22 22 23 23
REMARK SMILES IDX 24 24
REMARK H PARENT
REMARK Flexibility Score: inf
ROOT
ATOM      1  C   UNL     1     -33.111   1.203 -38.126  1.00  0.00     0.000 C 
ENDROOT
BRANCH   1   2
ATOM      2  C   UNL     1     -32.352  -0.116 -37.894  1.00  0.00     0.000 C 
BRANCH   2   3
ATOM      3  C   UNL     1     -31.296  -0.395 -38.976  1.00  0.00     0.000 C 
BRANCH   3   4
ATOM      4  C   UNL     1     -29.865  -0.443 -38.409  1.00  0.00    -0.000 C 
BRANCH   4   5
ATOM      5  C   UNL     1     -29.343   0.949 -38.013  1.00  0.00    -0.000 C 
BRANCH   5   6
ATOM      6  C   UNL     1     -28.324   0.886 -36.861  1.00  0.00    -0.000 C 
BRANCH   6   7
ATOM      7  C   UNL     1     -28.845   1.546 -35.574  1.00  0.00    -0.000 C 
BRANCH   7   8
ATOM      8  C   UNL     1     -30.330   1.940 -35.668  1.00  0.00    -0.000 C 
BRANCH   8   9
ATOM      9  C   UNL     1     -30.658   3.213 -34.872  1.00  0.00    -0.000 C 
BRANCH   9  10
ATOM     10  C   UNL     1     -31.425   4.253 -35.708  1.00  0.00    -0.000 C 
BRANCH  10  11
ATOM     11  C   UNL     1     -32.909   4.338 -35.319  1.00  0.00    -0.003 C 
ATOM     12  C   UNL     1     -33.117   4.711 -33.851  1.00  0.00     0.004 C 
ENDBRANCH  10  11
ENDBRANCH   9  10
ENDBRANCH   8   9
ENDBRANCH   7   8
ENDBRANCH   6   7
ENDBRANCH   5   6
ENDBRANCH   4   5
ENDBRANCH   3   4
ENDBRANCH   2   3
ENDBRANCH   1   2
BRANCH   1  13
ATOM     13  C   UNL     1     -32.618   1.962 -39.372  1.00  0.00     0.000 C 
BRANCH  13  14
ATOM     14  C   UNL     1     -32.339   3.460 -39.155  1.00  0.00     0.000 C 
BRANCH  14  15
ATOM     15  C   UNL     1     -30.895   3.859 -39.505  1.00  0.00     0.000 C 
BRANCH  15  16
ATOM     16  C   UNL     1     -30.508   5.227 -38.907  1.00  0.00     0.000 C 
BRANCH  16  17
ATOM     17  C   UNL     1     -28.990   5.436 -38.777  1.00  0.00     0.000 C 
BRANCH  17  18
ATOM     18  C   UNL     1     -28.345   4.494 -37.748  1.00  0.00     0.000 C 
BRANCH  18  19
ATOM     19  C   UNL     1     -26.946   4.953 -37.305  1.00  0.00     0.000 C 
BRANCH  19  20
ATOM     20  C   UNL     1     -26.834   5.415 -35.839  1.00  0.00     0.006 C 
BRANCH  20  21
ATOM     21  C   UNL     1     -26.443   4.298 -34.855  1.00  0.00     0.053 C 
BRANCH  21  22
ATOM     22  C   UNL     1     -26.106   4.826 -33.493  1.00  0.00     0.041 C 
ATOM     23  O   UNL     1     -26.924   4.705 -32.544  1.00  0.00    -0.550 OA
ATOM     24  O   UNL     1     -24.904   5.490 -33.279  1.00  0.00    -0.550 OA
ENDBRANCH  21  22
ENDBRANCH  20  21
ENDBRANCH  19  20
ENDBRANCH  18  19
ENDBRANCH  17  18
ENDBRANCH  16  17
ENDBRANCH  15  16
ENDBRANCH  14  15
ENDBRANCH  13  14
ENDBRANCH   1  13
TORSDOF 20
ENDMDL
MODEL 6
REMARK VINA RESULT:    -3.463      4.732      8.548
REMARK INTER + INTRA:         -10.186
REMARK INTER:                  -6.550
REMARK INTRA:                  -3.637
REMARK UNBOUND:                -2.675
REMARK SMILES CCCCCCCCCCCCCCCCCCCCCC(=O)[O-]
REMARK SMILES IDX 12 1 11 2 10 3 9 4 8 5 7 6 6 7 5 8 4 9 3 10 2 11 1 12 13 13
REMARK SMILES IDX 14 14 15 15 16 16 17 17 18 18 19 19 20 20 21 21 22 22 23 23
REMARK SMILES IDX 24 24
REMARK H PARENT
REMARK Flexibility Score: inf
ROOT
ATOM      1  C   UNL     1     -28.012   1.101 -38.080  1.00  0.00     0.000 C 
ENDROOT
BRANCH   1   2
ATOM      2  C   UNL     1     -29.156   0.192 -37.597  1.00  0.00     0.000 C 
BRANCH   2   3
ATOM      3  C   UNL     1     -29.547  -0.875 -38.632  1.00  0.00     0.000 C 
BRANCH   3   4
ATOM      4  C   UNL     1     -30.932  -0.622 -39.253  1.00  0.00    -0.000 C 
BRANCH   4   5
ATOM      5  C   UNL     1     -31.842   0.216 -38.338  1.00  0.00    -0.000 C 
BRANCH   5   6
ATOM      6  C   UNL     1     -32.468   1.414 -39.073  1.00  0.00    -0.000 C 
BRANCH   6   7
ATOM      7  C   UNL     1     -32.462   2.697 -38.226  1.00  0.00    -0.000 C 
BRANCH   7   8
ATOM      8  C   UNL     1     -31.782   2.502 -36.859  1.00  0.00    -0.000 C 
BRANCH   8   9
ATOM      9  C   UNL     1     -31.289   3.823 -36.247  1.00  0.00    -0.000 C 
BRANCH   9  10
ATOM     10  C   UNL     1     -30.348   3.608 -35.049  1.00  0.00    -0.000 C 
BRANCH  10  11
ATOM     11  C   UNL     1     -30.457   2.190 -34.466  1.00  0.00    -0.003 C 
ATOM     12  C   UNL     1     -29.096   1.522 -34.272  1.00  0.00     0.004 C 
ENDBRANCH  10  11
ENDBRANCH   9  10
ENDBRANCH   8   9
ENDBRANCH   7   8
ENDBRANCH   6   7
ENDBRANCH   5   6
ENDBRANCH   4   5
ENDBRANCH   3   4
ENDBRANCH   2   3
ENDBRANCH   1   2
BRANCH   1  13
ATOM     13  C   UNL     1     -28.508   2.276 -38.943  1.00  0.00     0.000 C 
BRANCH  13  14
ATOM     14  C   UNL     1     -28.372   3.665 -38.293  1.00  0.00     0.000 C 
BRANCH  14  15
ATOM     15  C   UNL     1     -27.238   3.733 -37.255  1.00  0.00     0.000 C 
BRANCH  15  16
ATOM     16  C   UNL     1     -26.825   5.186 -36.939  1.00  0.00     0.000 C 
BRANCH  16  17
ATOM     17  C   UNL     1     -26.554   5.439 -35.447  1.00  0.00     0.000 C 
BRANCH  17  18
ATOM     18  C   UNL     1     -26.609   4.154 -34.605  1.00  0.00     0.000 C 
BRANCH  18  19
ATOM     19  C   UNL     1     -25.395   3.991 -33.674  1.00  0.00     0.000 C 
BRANCH  19  20
ATOM     20  C   UNL     1     -24.027   3.906 -34.379  1.00  0.00     0.006 C 
BRANCH  20  21
ATOM     21  C   UNL     1     -23.695   2.513 -34.943  1.00  0.00     0.053 C 
BRANCH  21  22
ATOM     22  C   UNL     1     -23.794   2.462 -36.438  1.00  0.00     0.041 C 
ATOM     23  O   UNL     1     -23.217   3.331 -37.143  1.00  0.00    -0.550 OA
ATOM     24  O   UNL     1     -24.556   1.478 -37.055  1.00  0.00    -0.550 OA
ENDBRANCH  21  22
ENDBRANCH  20  21
ENDBRANCH  19  20
ENDBRANCH  18  19
ENDBRANCH  17  18
ENDBRANCH  16  17
ENDBRANCH  15  16
ENDBRANCH  14  15
ENDBRANCH  13  14
ENDBRANCH   1  13
TORSDOF 20
ENDMDL
MODEL 7
REMARK VINA RESULT:    -3.461      4.950      8.472
REMARK INTER + INTRA:         -10.183
REMARK INTER:                  -7.166
REMARK INTRA:                  -3.016
REMARK UNBOUND:                -2.675
REMARK SMILES CCCCCCCCCCCCCCCCCCCCCC(=O)[O-]
REMARK SMILES IDX 12 1 11 2 10 3 9 4 8 5 7 6 6 7 5 8 4 9 3 10 2 11 1 12 13 13
REMARK SMILES IDX 14 14 15 15 16 16 17 17 18 18 19 19 20 20 21 21 22 22 23 23
REMARK SMILES IDX 24 24
REMARK H PARENT
REMARK Flexibility Score: inf
ROOT
ATOM      1  C   UNL     1     -31.670   4.737 -38.690  1.00  0.00     0.000 C 
ENDROOT
BRANCH   1   2
ATOM      2  C   UNL     1     -32.421   3.544 -39.307  1.00  0.00     0.000 C 
BRANCH   2   3
ATOM      3  C   UNL     1     -33.122   2.671 -38.253  1.00  0.00     0.000 C 
BRANCH   3   4
ATOM      4  C   UNL     1     -33.075   1.172 -38.598  1.00  0.00    -0.000 C 
BRANCH   4   5
ATOM      5  C   UNL     1     -31.670   0.711 -39.024  1.00  0.00    -0.000 C 
BRANCH   5   6
ATOM      6  C   UNL     1     -31.404  -0.763 -38.667  1.00  0.00    -0.000 C 
BRANCH   6   7
ATOM      7  C   UNL     1     -30.260  -0.929 -37.653  1.00  0.00    -0.000 C 
BRANCH   7   8
ATOM      8  C   UNL     1     -30.767  -1.100 -36.209  1.00  0.00    -0.000 C 
BRANCH   8   9
ATOM      9  C   UNL     1     -31.088   0.241 -35.530  1.00  0.00    -0.000 C 
BRANCH   9  10
ATOM     10  C   UNL     1     -29.872   0.846 -34.807  1.00  0.00    -0.000 C 
BRANCH  10  11
ATOM     11  C   UNL     1     -29.404   2.162 -35.448  1.00  0.00    -0.003 C 
ATOM     12  C   UNL     1     -30.527   3.189 -35.581  1.00  0.00     0.004 C 
ENDBRANCH  10  11
ENDBRANCH   9  10
ENDBRANCH   8   9
ENDBRANCH   7   8
ENDBRANCH   6   7
ENDBRANCH   5   6
ENDBRANCH   4   5
ENDBRANCH   3   4
ENDBRANCH   2   3
ENDBRANCH   1   2
BRANCH   1  13
ATOM     13  C   UNL     1     -30.310   4.997 -39.364  1.00  0.00     0.000 C 
BRANCH  13  14
ATOM     14  C   UNL     1     -29.524   3.733 -39.758  1.00  0.00     0.000 C 
BRANCH  14  15
ATOM     15  C   UNL     1     -28.375   3.414 -38.786  1.00  0.00     0.000 C 
BRANCH  15  16
ATOM     16  C   UNL     1     -27.976   4.637 -37.934  1.00  0.00     0.000 C 
BRANCH  16  17
ATOM     17  C   UNL     1     -26.777   4.379 -37.007  1.00  0.00     0.000 C 
BRANCH  17  18
ATOM     18  C   UNL     1     -26.566   5.503 -35.980  1.00  0.00     0.000 C 
BRANCH  18  19
ATOM     19  C   UNL     1     -26.701   5.023 -34.525  1.00  0.00     0.000 C 
BRANCH  19  20
ATOM     20  C   UNL     1     -25.415   5.102 -33.679  1.00  0.00     0.006 C 
BRANCH  20  21
ATOM     21  C   UNL     1     -24.273   4.202 -34.186  1.00  0.00     0.053 C 
BRANCH  21  22
ATOM     22  C   UNL     1     -24.634   2.747 -34.154  1.00  0.00     0.041 C 
ATOM     23  O   UNL     1     -24.881   2.178 -33.059  1.00  0.00    -0.550 OA
ATOM     24  O   UNL     1     -24.658   2.008 -35.330  1.00  0.00    -0.550 OA
ENDBRANCH  21  22
ENDBRANCH  20  21
ENDBRANCH  19  20
ENDBRANCH  18  19
ENDBRANCH  17  18
ENDBRANCH  16  17
ENDBRANCH  15  16
ENDBRANCH  14  15
ENDBRANCH  13  14
ENDBRANCH   1  13
TORSDOF 20
ENDMDL
MODEL 8
REMARK VINA RESULT:    -3.454      6.599     10.341
REMARK INTER + INTRA:         -10.167
REMARK INTER:                  -6.714
REMARK INTRA:                  -3.453
REMARK UNBOUND:                -2.675
REMARK SMILES CCCCCCCCCCCCCCCCCCCCCC(=O)[O-]
REMARK SMILES IDX 12 1 11 2 10 3 9 4 8 5 7 6 6 7 5 8 4 9 3 10 2 11 1 12 13 13
REMARK SMILES IDX 14 14 15 15 16 16 17 17 18 18 19 19 20 20 21 21 22 22 23 23
REMARK SMILES IDX 24 24
REMARK H PARENT
REMARK Flexibility Score: inf
ROOT
ATOM      1  C   UNL     1     -31.494  -0.005 -38.127  1.00  0.00     0.000 C 
ENDROOT
BRANCH   1   2
ATOM      2  C   UNL     1     -32.843   0.650 -38.469  1.00  0.00     0.000 C 
BRANCH   2   3
ATOM      3  C   UNL     1     -32.809   2.183 -38.353  1.00  0.00     0.000 C 
BRANCH   3   4
ATOM      4  C   UNL     1     -32.891   2.883 -39.721  1.00  0.00    -0.000 C 
BRANCH   4   5
ATOM      5  C   UNL     1     -31.635   3.714 -40.033  1.00  0.00    -0.000 C 
BRANCH   5   6
ATOM      6  C   UNL     1     -30.664   3.777 -38.840  1.00  0.00    -0.000 C 
BRANCH   6   7
ATOM      7  C   UNL     1     -29.222   4.095 -39.266  1.00  0.00    -0.000 C 
BRANCH   7   8
ATOM      8  C   UNL     1     -28.547   5.133 -38.351  1.00  0.00    -0.000 C 
BRANCH   8   9
ATOM      9  C   UNL     1     -27.785   4.489 -37.182  1.00  0.00    -0.000 C 
BRANCH   9  10
ATOM     10  C   UNL     1     -26.757   5.441 -36.548  1.00  0.00    -0.000 C 
BRANCH  10  11
ATOM     11  C   UNL     1     -26.292   4.964 -35.163  1.00  0.00    -0.003 C 
ATOM     12  C   UNL     1     -25.498   3.659 -35.221  1.00  0.00     0.004 C 
ENDBRANCH  10  11
ENDBRANCH   9  10
ENDBRANCH   8   9
ENDBRANCH   7   8
ENDBRANCH   6   7
ENDBRANCH   5   6
ENDBRANCH   4   5
ENDBRANCH   3   4
ENDBRANCH   2   3
ENDBRANCH   1   2
BRANCH   1  13
ATOM     13  C   UNL     1     -30.760  -0.543 -39.369  1.00  0.00     0.000 C 
BRANCH  13  14
ATOM     14  C   UNL     1     -29.759   0.435 -40.010  1.00  0.00     0.000 C 
BRANCH  14  15
ATOM     15  C   UNL     1     -28.301  -0.047 -39.910  1.00  0.00     0.000 C 
BRANCH  15  16
ATOM     16  C   UNL     1     -27.389   0.994 -39.228  1.00  0.00     0.000 C 
BRANCH  16  17
ATOM     17  C   UNL     1     -26.918   0.576 -37.825  1.00  0.00     0.000 C 
BRANCH  17  18
ATOM     18  C   UNL     1     -27.987   0.807 -36.745  1.00  0.00     0.000 C 
BRANCH  18  19
ATOM     19  C   UNL     1     -28.494  -0.499 -36.110  1.00  0.00     0.000 C 
BRANCH  19  20
ATOM     20  C   UNL     1     -27.766  -1.781 -36.561  1.00  0.00     0.006 C 
BRANCH  20  21
ATOM     21  C   UNL     1     -28.658  -2.777 -37.324  1.00  0.00     0.053 C 
BRANCH  21  22
ATOM     22  C   UNL     1     -27.992  -3.315 -38.555  1.00  0.00     0.041 C 
ATOM     23  O   UNL     1     -28.674  -3.588 -39.577  1.00  0.00    -0.550 OA
ATOM     24  O   UNL     1     -26.624  -3.553 -38.562  1.00  0.00    -0.550 OA
ENDBRANCH  21  22
ENDBRANCH  20  21
ENDBRANCH  19  20
ENDBRANCH  18  19
ENDBRANCH  17  18
ENDBRANCH  16  17
ENDBRANCH  15  16
ENDBRANCH  14  15
ENDBRANCH  13  14
ENDBRANCH   1  13
TORSDOF 20
ENDMDL
MODEL 9
REMARK VINA RESULT:    -3.426      7.848     10.666
REMARK INTER + INTRA:         -10.107
REMARK INTER:                  -6.016
REMARK INTRA:                  -4.091
REMARK UNBOUND:                -2.675
REMARK SMILES CCCCCCCCCCCCCCCCCCCCCC(=O)[O-]
REMARK SMILES IDX 12 1 11 2 10 3 9 4 8 5 7 6 6 7 5 8 4 9 3 10 2 11 1 12 13 13
REMARK SMILES IDX 14 14 15 15 16 16 17 17 18 18 19 19 20 20 21 21 22 22 23 23
REMARK SMILES IDX 24 24
REMARK H PARENT
REMARK Flexibility Score: inf
ROOT
ATOM      1  C   UNL     1     -31.315   0.590 -38.183  1.00  0.00     0.000 C 
ENDROOT
BRANCH   1   2
ATOM      2  C   UNL     1     -31.141   1.557 -39.368  1.00  0.00     0.000 C 
BRANCH   2   3
ATOM      3  C   UNL     1     -32.147   2.718 -39.343  1.00  0.00     0.000 C 
BRANCH   3   4
ATOM      4  C   UNL     1     -33.120   2.635 -38.152  1.00  0.00    -0.000 C 
BRANCH   4   5
ATOM      5  C   UNL     1     -33.147   3.930 -37.323  1.00  0.00    -0.000 C 
BRANCH   5   6
ATOM      6  C   UNL     1     -31.736   4.409 -36.939  1.00  0.00    -0.000 C 
BRANCH   6   7
ATOM      7  C   UNL     1     -31.077   3.515 -35.875  1.00  0.00    -0.000 C 
BRANCH   7   8
ATOM      8  C   UNL     1     -29.611   3.181 -36.207  1.00  0.00    -0.000 C 
BRANCH   8   9
ATOM      9  C   UNL     1     -28.938   4.258 -37.072  1.00  0.00    -0.000 C 
BRANCH   9  10
ATOM     10  C   UNL     1     -28.343   3.688 -38.372  1.00  0.00    -0.000 C 
BRANCH  10  11
ATOM     11  C   UNL     1     -28.851   4.423 -39.621  1.00  0.00    -0.003 C 
ATOM     12  C   UNL     1     -29.355   5.834 -39.316  1.00  0.00     0.004 C 
ENDBRANCH  10  11
ENDBRANCH   9  10
ENDBRANCH   8   9
ENDBRANCH   7   8
ENDBRANCH   6   7
ENDBRANCH   5   6
ENDBRANCH   4   5
ENDBRANCH   3   4
ENDBRANCH   2   3
ENDBRANCH   1   2
BRANCH   1  13
ATOM     13  C   UNL     1     -31.292  -0.889 -38.612  1.00  0.00     0.000 C 
BRANCH  13  14
ATOM     14  C   UNL     1     -30.460  -1.189 -39.871  1.00  0.00     0.000 C 
BRANCH  14  15
ATOM     15  C   UNL     1     -29.102  -1.839 -39.553  1.00  0.00     0.000 C 
BRANCH  15  16
ATOM     16  C   UNL     1     -27.926  -0.864 -39.765  1.00  0.00     0.000 C 
BRANCH  16  17
ATOM     17  C   UNL     1     -27.681   0.076 -38.573  1.00  0.00     0.000 C 
BRANCH  17  18
ATOM     18  C   UNL     1     -27.314  -0.679 -37.285  1.00  0.00     0.000 C 
BRANCH  18  19
ATOM     19  C   UNL     1     -28.192  -0.287 -36.086  1.00  0.00     0.000 C 
BRANCH  19  20
ATOM     20  C   UNL     1     -28.674  -1.459 -35.207  1.00  0.00     0.006 C 
BRANCH  20  21
ATOM     21  C   UNL     1     -29.643  -2.421 -35.916  1.00  0.00     0.053 C 
BRANCH  21  22
ATOM     22  C   UNL     1     -29.097  -3.814 -36.013  1.00  0.00     0.041 C 
ATOM     23  O   UNL     1     -28.117  -4.061 -36.763  1.00  0.00    -0.550 OA
ATOM     24  O   UNL     1     -29.696  -4.850 -35.307  1.00  0.00    -0.550 OA
ENDBRANCH  21  22
ENDBRANCH  20  21
ENDBRANCH  19  20
ENDBRANCH  18  19
ENDBRANCH  17  18
ENDBRANCH  16  17
ENDBRANCH  15  16
ENDBRANCH  14  15
ENDBRANCH  13  14
ENDBRANCH   1  13
TORSDOF 20
ENDMDL
