MODEL 1
REMARK VINA RESULT:    -3.338      0.000      0.000
REMARK INTER + INTRA:          -3.631
REMARK INTER:                  -3.631
REMARK INTRA:                   0.000
REMARK UNBOUND:                 0.000
REMARK SMILES [NH3+]CC(=O)[O-]
REMARK SMILES IDX 2 1 1 2 3 6 4 7 5 8
REMARK H PARENT 1 3 1 4 1 5
REMARK Flexibility Score: inf
ROOT
ATOM      1  C   UNL     1      13.644  36.043  12.396  1.00  0.00     0.312 C 
ENDROOT
BRANCH   1   2
ATOM      2  N   UNL     1      12.794  36.991  13.115  1.00  0.00    -0.353 N 
ATOM      3  H   UNL     1      12.843  36.807  14.144  1.00  0.00     0.344 HD
ATOM      4  H   UNL     1      11.805  36.874  12.797  1.00  0.00     0.344 HD
ATOM      5  H   UNL     1      13.101  37.971  12.915  1.00  0.00     0.344 HD
ENDBRANCH   1   2
BRANCH   1   6
ATOM      6  C   UNL     1      14.035  34.904  13.286  1.00  0.00     0.096 C 
ATOM      7  O   UNL     1      13.163  34.093  13.698  1.00  0.00    -0.544 OA
ATOM      8  O   UNL     1      15.353  34.767  13.702  1.00  0.00    -0.544 OA
ENDBRANCH   1   6
TORSDOF 2
ENDMDL
MODEL 2
REMARK VINA RESULT:    -3.191     11.005     11.410
REMARK INTER + INTRA:          -3.471
REMARK INTER:                  -3.471
REMARK INTRA:                   0.000
REMARK UNBOUND:                 0.000
REMARK SMILES [NH3+]CC(=O)[O-]
REMARK SMILES IDX 2 1 1 2 3 6 4 7 5 8
REMARK H PARENT 1 3 1 4 1 5
REMARK Flexibility Score: inf
ROOT
ATOM      1  C   UNL     1       4.822  40.273  12.987  1.00  0.00     0.312 C 
ENDROOT
BRANCH   1   2
ATOM      2  N   UNL     1       4.940  39.320  14.090  1.00  0.00    -0.353 N 
ATOM      3  H   UNL     1       4.124  39.419  14.738  1.00  0.00     0.344 HD
ATOM      4  H   UNL     1       5.820  39.517  14.620  1.00  0.00     0.344 HD
ATOM      5  H   UNL     1       4.980  38.343  13.717  1.00  0.00     0.344 HD
ENDBRANCH   1   2
BRANCH   1   6
ATOM      6  C   UNL     1       3.400  40.382  12.533  1.00  0.00     0.096 C 
ATOM      7  O   UNL     1       2.579  39.463  12.793  1.00  0.00    -0.544 OA
ATOM      8  O   UNL     1       2.993  41.474  11.777  1.00  0.00    -0.544 OA
ENDBRANCH   1   6
TORSDOF 2
ENDMDL
MODEL 3
REMARK VINA RESULT:    -3.077      2.403      2.603
REMARK INTER + INTRA:          -3.347
REMARK INTER:                  -3.347
REMARK INTRA:                   0.000
REMARK UNBOUND:                 0.000
REMARK SMILES [NH3+]CC(=O)[O-]
REMARK SMILES IDX 2 1 1 2 3 6 4 7 5 8
REMARK H PARENT 1 3 1 4 1 5
REMARK Flexibility Score: inf
ROOT
ATOM      1  C   UNL     1      13.406  33.053  12.972  1.00  0.00     0.312 C 
ENDROOT
BRANCH   1   2
ATOM      2  N   UNL     1      12.587  32.305  13.925  1.00  0.00    -0.353 N 
ATOM      3  H   UNL     1      11.687  32.810  14.097  1.00  0.00     0.344 HD
ATOM      4  H   UNL     1      13.105  32.218  14.828  1.00  0.00     0.344 HD
ATOM      5  H   UNL     1      12.390  31.346  13.553  1.00  0.00     0.344 HD
ENDBRANCH   1   2
BRANCH   1   6
ATOM      6  C   UNL     1      13.869  34.343  13.573  1.00  0.00     0.096 C 
ATOM      7  O   UNL     1      13.041  35.258  13.824  1.00  0.00    -0.544 OA
ATOM      8  O   UNL     1      15.222  34.555  13.809  1.00  0.00    -0.544 OA
ENDBRANCH   1   6
TORSDOF 2
ENDMDL
MODEL 4
REMARK VINA RESULT:    -2.935      2.707      2.800
REMARK INTER + INTRA:          -3.192
REMARK INTER:                  -3.192
REMARK INTRA:                   0.000
REMARK UNBOUND:                 0.000
REMARK SMILES [NH3+]CC(=O)[O-]
REMARK SMILES IDX 2 1 1 2 3 6 4 7 5 8
REMARK H PARENT 1 3 1 4 1 5
REMARK Flexibility Score: inf
ROOT
ATOM      1  C   UNL     1      15.226  34.369  13.870  1.00  0.00     0.312 C 
ENDROOT
BRANCH   1   2
ATOM      2  N   UNL     1      15.796  33.102  13.414  1.00  0.00    -0.353 N 
ATOM      3  H   UNL     1      16.507  33.278  12.667  1.00  0.00     0.344 HD
ATOM      4  H   UNL     1      15.033  32.504  13.022  1.00  0.00     0.344 HD
ATOM      5  H   UNL     1      16.243  32.600  14.217  1.00  0.00     0.344 HD
ENDBRANCH   1   2
BRANCH   1   6
ATOM      6  C   UNL     1      13.731  34.330  13.801  1.00  0.00     0.096 C 
ATOM      7  O   UNL     1      13.126  33.225  13.782  1.00  0.00    -0.544 OA
ATOM      8  O   UNL     1      13.008  35.512  13.704  1.00  0.00    -0.544 OA
ENDBRANCH   1   6
TORSDOF 2
ENDMDL
MODEL 5
REMARK VINA RESULT:    -2.909      2.180      2.353
REMARK INTER + INTRA:          -3.164
REMARK INTER:                  -3.164
REMARK INTRA:                   0.000
REMARK UNBOUND:                 0.000
REMARK SMILES [NH3+]CC(=O)[O-]
REMARK SMILES IDX 2 1 1 2 3 6 4 7 5 8
REMARK H PARENT 1 3 1 4 1 5
REMARK Flexibility Score: inf
ROOT
ATOM      1  C   UNL     1      13.949  34.263  13.522  1.00  0.00     0.312 C 
ENDROOT
BRANCH   1   2
ATOM      2  N   UNL     1      12.810  35.063  13.969  1.00  0.00    -0.353 N 
ATOM      3  H   UNL     1      12.133  34.462  14.493  1.00  0.00     0.344 HD
ATOM      4  H   UNL     1      12.328  35.468  13.134  1.00  0.00     0.344 HD
ATOM      5  H   UNL     1      13.139  35.844  14.583  1.00  0.00     0.344 HD
ENDBRANCH   1   2
BRANCH   1   6
ATOM      6  C   UNL     1      13.509  32.883  13.143  1.00  0.00     0.096 C 
ATOM      7  O   UNL     1      12.663  32.272  13.848  1.00  0.00    -0.544 OA
ATOM      8  O   UNL     1      14.071  32.251  12.040  1.00  0.00    -0.544 OA
ENDBRANCH   1   6
TORSDOF 2
ENDMDL
MODEL 6
REMARK VINA RESULT:    -2.901     14.952     15.388
REMARK INTER + INTRA:          -3.156
REMARK INTER:                  -3.156
REMARK INTRA:                   0.000
REMARK UNBOUND:                 0.000
REMARK SMILES [NH3+]CC(=O)[O-]
REMARK SMILES IDX 2 1 1 2 3 6 4 7 5 8
REMARK H PARENT 1 3 1 4 1 5
REMARK Flexibility Score: inf
ROOT
ATOM      1  C   UNL     1       6.467  47.756   9.301  1.00  0.00     0.312 C 
ENDROOT
BRANCH   1   2
ATOM      2  N   UNL     1       6.423  48.876   8.363  1.00  0.00    -0.353 N 
ATOM      3  H   UNL     1       7.186  48.780   7.653  1.00  0.00     0.344 HD
ATOM      4  H   UNL     1       6.562  49.769   8.890  1.00  0.00     0.344 HD
ATOM      5  H   UNL     1       5.494  48.906   7.883  1.00  0.00     0.344 HD
ENDBRANCH   1   2
BRANCH   1   6
ATOM      6  C   UNL     1       5.135  47.076   9.375  1.00  0.00     0.096 C 
ATOM      7  O   UNL     1       4.929  46.178  10.234  1.00  0.00    -0.544 OA
ATOM      8  O   UNL     1       4.139  47.397   8.461  1.00  0.00    -0.544 OA
ENDBRANCH   1   6
TORSDOF 2
ENDMDL
MODEL 7
REMARK VINA RESULT:    -2.817     10.779     11.189
REMARK INTER + INTRA:          -3.064
REMARK INTER:                  -3.064
REMARK INTRA:                   0.000
REMARK UNBOUND:                 0.000
REMARK SMILES [NH3+]CC(=O)[O-]
REMARK SMILES IDX 2 1 1 2 3 6 4 7 5 8
REMARK H PARENT 1 3 1 4 1 5
REMARK Flexibility Score: inf
ROOT
ATOM      1  C   UNL     1       3.154  41.016  12.180  1.00  0.00     0.312 C 
ENDROOT
BRANCH   1   2
ATOM      2  N   UNL     1       4.264  41.899  11.827  1.00  0.00    -0.353 N 
ATOM      3  H   UNL     1       4.315  42.699  12.500  1.00  0.00     0.344 HD
ATOM      4  H   UNL     1       4.108  42.277  10.864  1.00  0.00     0.344 HD
ATOM      5  H   UNL     1       5.165  41.367  11.840  1.00  0.00     0.344 HD
ENDBRANCH   1   2
BRANCH   1   6
ATOM      6  C   UNL     1       3.660  39.763  12.824  1.00  0.00     0.096 C 
ATOM      7  O   UNL     1       2.993  38.698  12.748  1.00  0.00    -0.544 OA
ATOM      8  O   UNL     1       4.843  39.784  13.553  1.00  0.00    -0.544 OA
ENDBRANCH   1   6
TORSDOF 2
ENDMDL
MODEL 8
REMARK VINA RESULT:    -2.815     13.700     13.993
REMARK INTER + INTRA:          -3.061
REMARK INTER:                  -3.061
REMARK INTRA:                   0.000
REMARK UNBOUND:                 0.000
REMARK SMILES [NH3+]CC(=O)[O-]
REMARK SMILES IDX 2 1 1 2 3 6 4 7 5 8
REMARK H PARENT 1 3 1 4 1 5
REMARK Flexibility Score: inf
ROOT
ATOM      1  C   UNL     1       3.966  43.819   9.472  1.00  0.00     0.312 C 
ENDROOT
BRANCH   1   2
ATOM      2  N   UNL     1       4.635  42.918  10.409  1.00  0.00    -0.353 N 
ATOM      3  H   UNL     1       4.887  43.433  11.284  1.00  0.00     0.344 HD
ATOM      4  H   UNL     1       5.509  42.553   9.967  1.00  0.00     0.344 HD
ATOM      5  H   UNL     1       4.009  42.111  10.641  1.00  0.00     0.344 HD
ENDBRANCH   1   2
BRANCH   1   6
ATOM      6  C   UNL     1       4.194  45.247   9.859  1.00  0.00     0.096 C 
ATOM      7  O   UNL     1       4.499  46.100   8.983  1.00  0.00    -0.544 OA
ATOM      8  O   UNL     1       4.122  45.627  11.193  1.00  0.00    -0.544 OA
ENDBRANCH   1   6
TORSDOF 2
ENDMDL
MODEL 9
REMARK VINA RESULT:    -2.749     12.703     13.216
REMARK INTER + INTRA:          -2.991
REMARK INTER:                  -2.991
REMARK INTRA:                   0.000
REMARK UNBOUND:                 0.000
REMARK SMILES [NH3+]CC(=O)[O-]
REMARK SMILES IDX 2 1 1 2 3 6 4 7 5 8
REMARK H PARENT 1 3 1 4 1 5
REMARK Flexibility Score: inf
ROOT
ATOM      1  C   UNL     1       3.094  42.904  10.286  1.00  0.00     0.312 C 
ENDROOT
BRANCH   1   2
ATOM      2  N   UNL     1       4.549  43.048  10.265  1.00  0.00    -0.353 N 
ATOM      3  H   UNL     1       4.898  43.023   9.279  1.00  0.00     0.344 HD
ATOM      4  H   UNL     1       4.979  42.257  10.797  1.00  0.00     0.344 HD
ATOM      5  H   UNL     1       4.827  43.951  10.716  1.00  0.00     0.344 HD
ENDBRANCH   1   2
BRANCH   1   6
ATOM      6  C   UNL     1       2.643  42.292  11.576  1.00  0.00     0.096 C 
ATOM      7  O   UNL     1       3.197  41.247  12.010  1.00  0.00    -0.544 OA
ATOM      8  O   UNL     1       1.576  42.846  12.273  1.00  0.00    -0.544 OA
ENDBRANCH   1   6
TORSDOF 2
ENDMDL
