MODEL 1
REMARK VINA RESULT:     6.124      0.000      0.000
REMARK INTER + INTRA:           9.831
REMARK INTER:                   9.346
REMARK INTRA:                   0.485
REMARK UNBOUND:                 0.485
REMARK SMILES CC(=O)CCC=C(C)CCC=C(C)CCC=C(C)C
REMARK SMILES IDX 10 1 11 2 12 3 13 4 14 5 15 6 16 7 18 8 17 9 19 10 9 11 7 12
REMARK SMILES IDX 6 13 8 14 5 15 4 16 2 17 3 18 1 19
REMARK H PARENT
REMARK Flexibility Score: inf
ROOT
ATOM      1  C   UNL     1      90.193  17.638 120.350  1.00  0.00     0.032 C 
ENDROOT
BRANCH   1   2
ATOM      2  C   UNL     1      89.245  18.656 120.932  1.00  0.00    -0.028 C 
ATOM      3  C   UNL     1      88.054  18.992 120.384  1.00  0.00    -0.077 C 
ATOM      4  C   UNL     1      87.588  18.410 119.070  1.00  0.00     0.039 C 
BRANCH   3   5
ATOM      5  C   UNL     1      87.172  19.990 121.101  1.00  0.00     0.034 C 
BRANCH   5   6
ATOM      6  C   UNL     1      85.716  19.511 121.123  1.00  0.00     0.032 C 
BRANCH   6   7
ATOM      7  C   UNL     1      85.632  18.037 120.818  1.00  0.00    -0.028 C 
ATOM      8  C   UNL     1      83.128  18.015 120.823  1.00  0.00     0.039 C 
ATOM      9  C   UNL     1      84.475  17.345 120.712  1.00  0.00    -0.080 C 
ATOM     10  C   UNL     1      84.509  15.865 120.432  1.00  0.00     0.039 C 
ENDBRANCH   6   7
ENDBRANCH   5   6
ENDBRANCH   3   5
ENDBRANCH   1   2
BRANCH   1  11
ATOM     11  C   UNL     1      91.617  17.866 120.871  1.00  0.00     0.034 C 
BRANCH  11  12
ATOM     12  C   UNL     1      92.592  18.090 119.731  1.00  0.00    -0.077 C 
ATOM     13  C   UNL     1      93.845  17.578 119.710  1.00  0.00    -0.028 C 
ATOM     14  C   UNL     1      92.147  18.917 118.551  1.00  0.00     0.039 C 
BRANCH  13  15
ATOM     15  C   UNL     1      94.479  16.754 120.806  1.00  0.00     0.035 C 
BRANCH  15  16
ATOM     16  C   UNL     1      93.604  15.539 121.125  1.00  0.00     0.079 C 
BRANCH  16  17
ATOM     17  C   UNL     1      94.202  14.286 120.546  1.00  0.00     0.130 C 
ATOM     18  O   UNL     1      95.048  14.372 119.668  1.00  0.00    -0.300 OA
ATOM     19  C   UNL     1      93.786  12.927 121.027  1.00  0.00     0.087 C 
ENDBRANCH  16  17
ENDBRANCH  15  16
ENDBRANCH  13  15
ENDBRANCH  11  12
ENDBRANCH   1  11
TORSDOF 9
ENDMDL
