MODEL 1
REMARK VINA RESULT:    -7.958      0.000      0.000
REMARK INTER + INTRA:          -8.693
REMARK INTER:                  -8.423
REMARK INTRA:                  -0.270
REMARK UNBOUND:                -0.270
REMARK SMILES CC(C)[C@H]1CC[C@@H](C)[C@H]2C=C[C@H](C)C[C@H]21
REMARK SMILES IDX 8 1 7 2 6 3 5 4 4 5 15 6 9 7 10 8 11 9 12 10 14 11 13 12
REMARK SMILES IDX 2 13 1 14 3 15
REMARK H PARENT
REMARK Flexibility Score: inf
ROOT
ATOM      1  C   UNL     1      -3.893 -18.747  10.746  1.00  0.00     0.008 C 
ATOM      2  C   UNL     1      -4.183 -17.673   9.684  1.00  0.00    -0.007 C 
ATOM      3  C   UNL     1      -3.519 -18.034   8.349  1.00  0.00     0.004 C 
ATOM      4  C   UNL     1      -4.019 -17.130   7.204  1.00  0.00     0.004 C 
ATOM      5  C   UNL     1      -4.540 -15.739   7.671  1.00  0.00    -0.005 C 
ATOM      6  C   UNL     1      -3.722 -15.221   8.899  1.00  0.00    -0.000 C 
ATOM      7  C   UNL     1      -3.822 -16.211  10.116  1.00  0.00     0.018 C 
ATOM      8  C   UNL     1      -2.627 -16.141  11.062  1.00  0.00    -0.027 C 
ATOM      9  C   UNL     1      -1.554 -15.362  10.868  1.00  0.00    -0.028 C 
ATOM     10  C   UNL     1      -1.438 -14.403   9.719  1.00  0.00     0.008 C 
ATOM     11  C   UNL     1      -2.258 -14.883   8.515  1.00  0.00     0.012 C 
ATOM     12  C   UNL     1      -1.827 -12.989  10.168  1.00  0.00     0.012 C 
ENDROOT
BRANCH   5  13
ATOM     13  C   UNL     1      -4.630 -14.733   6.471  1.00  0.00    -0.014 C 
ATOM     14  C   UNL     1      -5.442 -15.324   5.305  1.00  0.00     0.007 C 
ATOM     15  C   UNL     1      -5.261 -13.389   6.881  1.00  0.00     0.007 C 
ENDBRANCH   5  13
TORSDOF 1
ENDMDL
MODEL 2
REMARK VINA RESULT:    -6.782      1.151      4.200
REMARK INTER + INTRA:          -7.449
REMARK INTER:                  -7.190
REMARK INTRA:                  -0.259
REMARK UNBOUND:                -0.270
REMARK SMILES CC(C)[C@H]1CC[C@@H](C)[C@H]2C=C[C@H](C)C[C@H]21
REMARK SMILES IDX 8 1 7 2 6 3 5 4 4 5 15 6 9 7 10 8 11 9 12 10 14 11 13 12
REMARK SMILES IDX 2 13 1 14 3 15
REMARK H PARENT
REMARK Flexibility Score: inf
ROOT
ATOM      1  C   UNL     1      -2.631 -19.125   7.642  1.00  0.00     0.008 C 
ATOM      2  C   UNL     1      -2.528 -17.843   8.485  1.00  0.00    -0.007 C 
ATOM      3  C   UNL     1      -3.352 -17.971   9.773  1.00  0.00     0.004 C 
ATOM      4  C   UNL     1      -3.044 -16.825  10.759  1.00  0.00     0.004 C 
ATOM      5  C   UNL     1      -2.517 -15.525  10.082  1.00  0.00    -0.005 C 
ATOM      6  C   UNL     1      -3.180 -15.317   8.682  1.00  0.00    -0.000 C 
ATOM      7  C   UNL     1      -2.881 -16.523   7.718  1.00  0.00     0.018 C 
ATOM      8  C   UNL     1      -3.939 -16.721   6.638  1.00  0.00    -0.027 C 
ATOM      9  C   UNL     1      -5.057 -15.989   6.531  1.00  0.00    -0.028 C 
ATOM     10  C   UNL     1      -5.362 -14.829   7.433  1.00  0.00     0.008 C 
ATOM     11  C   UNL     1      -4.694 -15.004   8.802  1.00  0.00     0.012 C 
ATOM     12  C   UNL     1      -4.969 -13.512   6.752  1.00  0.00     0.012 C 
ENDROOT
BRANCH   5  13
ATOM     13  C   UNL     1      -2.627 -14.295  11.048  1.00  0.00    -0.014 C 
ATOM     14  C   UNL     1      -2.391 -14.710  12.512  1.00  0.00     0.007 C 
ATOM     15  C   UNL     1      -1.631 -13.176  10.688  1.00  0.00     0.007 C 
ENDBRANCH   5  13
TORSDOF 1
ENDMDL
MODEL 3
REMARK VINA RESULT:    -6.443      1.958      4.632
REMARK INTER + INTRA:          -7.090
REMARK INTER:                  -6.829
REMARK INTRA:                  -0.261
REMARK UNBOUND:                -0.270
REMARK SMILES CC(C)[C@H]1CC[C@@H](C)[C@H]2C=C[C@H](C)C[C@H]21
REMARK SMILES IDX 8 1 7 2 6 3 5 4 4 5 15 6 9 7 10 8 11 9 12 10 14 11 13 12
REMARK SMILES IDX 2 13 1 14 3 15
REMARK H PARENT
REMARK Flexibility Score: inf
ROOT
ATOM      1  C   UNL     1      -5.085 -17.259   8.153  1.00  0.00     0.008 C 
ATOM      2  C   UNL     1      -4.214 -17.139   9.414  1.00  0.00    -0.007 C 
ATOM      3  C   UNL     1      -4.820 -16.133  10.401  1.00  0.00     0.004 C 
ATOM      4  C   UNL     1      -4.127 -16.201  11.777  1.00  0.00     0.004 C 
ATOM      5  C   UNL     1      -2.666 -16.738  11.732  1.00  0.00    -0.005 C 
ATOM      6  C   UNL     1      -1.950 -16.292  10.415  1.00  0.00    -0.000 C 
ATOM      7  C   UNL     1      -2.704 -16.822   9.141  1.00  0.00     0.018 C 
ATOM      8  C   UNL     1      -2.485 -15.964   7.899  1.00  0.00    -0.027 C 
ATOM      9  C   UNL     1      -1.772 -14.830   7.879  1.00  0.00    -0.028 C 
ATOM     10  C   UNL     1      -1.037 -14.308   9.079  1.00  0.00     0.008 C 
ATOM     11  C   UNL     1      -1.711 -14.760  10.380  1.00  0.00     0.012 C 
ATOM     12  C   UNL     1       0.441 -14.712   9.012  1.00  0.00     0.012 C 
ENDROOT
BRANCH   5  13
ATOM     13  C   UNL     1      -1.890 -16.393  13.049  1.00  0.00    -0.014 C 
ATOM     14  C   UNL     1      -2.707 -15.446  13.948  1.00  0.00     0.007 C 
ATOM     15  C   UNL     1      -1.526 -17.650  13.861  1.00  0.00     0.007 C 
ENDBRANCH   5  13
TORSDOF 1
ENDMDL
MODEL 4
REMARK VINA RESULT:    -6.317      1.041      4.091
REMARK INTER + INTRA:          -6.957
REMARK INTER:                  -6.711
REMARK INTRA:                  -0.246
REMARK UNBOUND:                -0.270
REMARK SMILES CC(C)[C@H]1CC[C@@H](C)[C@H]2C=C[C@H](C)C[C@H]21
REMARK SMILES IDX 8 1 7 2 6 3 5 4 4 5 15 6 9 7 10 8 11 9 12 10 14 11 13 12
REMARK SMILES IDX 2 13 1 14 3 15
REMARK H PARENT
REMARK Flexibility Score: inf
ROOT
ATOM      1  C   UNL     1      -4.009 -18.880  10.859  1.00  0.00     0.008 C 
ATOM      2  C   UNL     1      -3.149 -17.680  10.429  1.00  0.00    -0.007 C 
ATOM      3  C   UNL     1      -3.405 -16.473  11.341  1.00  0.00     0.004 C 
ATOM      4  C   UNL     1      -2.364 -15.358  11.111  1.00  0.00     0.004 C 
ATOM      5  C   UNL     1      -1.718 -15.370   9.694  1.00  0.00    -0.005 C 
ATOM      6  C   UNL     1      -2.749 -15.837   8.616  1.00  0.00    -0.000 C 
ATOM      7  C   UNL     1      -3.284 -17.284   8.919  1.00  0.00     0.018 C 
ATOM      8  C   UNL     1      -4.672 -17.556   8.348  1.00  0.00    -0.027 C 
ATOM      9  C   UNL     1      -5.413 -16.649   7.696  1.00  0.00    -0.028 C 
ATOM     10  C   UNL     1      -4.922 -15.265   7.388  1.00  0.00     0.008 C 
ATOM     11  C   UNL     1      -3.888 -14.802   8.421  1.00  0.00     0.012 C 
ATOM     12  C   UNL     1      -4.387 -15.200   5.952  1.00  0.00     0.012 C 
ENDROOT
BRANCH   5  13
ATOM     13  C   UNL     1      -1.012 -14.006   9.378  1.00  0.00    -0.014 C 
ATOM     14  C   UNL     1      -1.437 -12.912  10.375  1.00  0.00     0.007 C 
ATOM     15  C   UNL     1       0.524 -14.123   9.400  1.00  0.00     0.007 C 
ENDBRANCH   5  13
TORSDOF 1
ENDMDL
MODEL 5
REMARK VINA RESULT:    -5.965      1.276      4.924
REMARK INTER + INTRA:          -6.583
REMARK INTER:                  -6.756
REMARK INTRA:                   0.173
REMARK UNBOUND:                -0.270
REMARK SMILES CC(C)[C@H]1CC[C@@H](C)[C@H]2C=C[C@H](C)C[C@H]21
REMARK SMILES IDX 8 1 7 2 6 3 5 4 4 5 15 6 9 7 10 8 11 9 12 10 14 11 13 12
REMARK SMILES IDX 2 13 1 14 3 15
REMARK H PARENT
REMARK Flexibility Score: inf
ROOT
ATOM      1  C   UNL     1      -4.976 -13.904   6.705  1.00  0.00     0.008 C 
ATOM      2  C   UNL     1      -4.314 -14.152   8.070  1.00  0.00    -0.007 C 
ATOM      3  C   UNL     1      -2.812 -13.850   8.010  1.00  0.00     0.004 C 
ATOM      4  C   UNL     1      -2.182 -13.820   9.418  1.00  0.00     0.004 C 
ATOM      5  C   UNL     1      -2.949 -14.664  10.478  1.00  0.00    -0.005 C 
ATOM      6  C   UNL     1      -3.573 -15.942   9.829  1.00  0.00    -0.000 C 
ATOM      7  C   UNL     1      -4.581 -15.570   8.680  1.00  0.00     0.018 C 
ATOM      8  C   UNL     1      -4.734 -16.659   7.624  1.00  0.00    -0.027 C 
ATOM      9  C   UNL     1      -4.045 -17.809   7.617  1.00  0.00    -0.028 C 
ATOM     10  C   UNL     1      -3.084 -18.190   8.705  1.00  0.00     0.008 C 
ATOM     11  C   UNL     1      -2.484 -16.946   9.372  1.00  0.00     0.012 C 
ATOM     12  C   UNL     1      -3.766 -19.125   9.711  1.00  0.00     0.012 C 
ENDROOT
BRANCH   5  13
ATOM     13  C   UNL     1      -2.060 -14.938  11.740  1.00  0.00    -0.014 C 
ATOM     14  C   UNL     1      -2.301 -13.883  12.835  1.00  0.00     0.007 C 
ATOM     15  C   UNL     1      -2.308 -16.335  12.339  1.00  0.00     0.007 C 
ENDBRANCH   5  13
TORSDOF 1
ENDMDL
MODEL 6
REMARK VINA RESULT:    -5.896      1.680      3.341
REMARK INTER + INTRA:          -6.510
REMARK INTER:                  -6.605
REMARK INTRA:                   0.095
REMARK UNBOUND:                -0.270
REMARK SMILES CC(C)[C@H]1CC[C@@H](C)[C@H]2C=C[C@H](C)C[C@H]21
REMARK SMILES IDX 8 1 7 2 6 3 5 4 4 5 15 6 9 7 10 8 11 9 12 10 14 11 13 12
REMARK SMILES IDX 2 13 1 14 3 15
REMARK H PARENT
REMARK Flexibility Score: inf
ROOT
ATOM      1  C   UNL     1      -2.011 -15.561  14.028  1.00  0.00     0.008 C 
ATOM      2  C   UNL     1      -2.709 -16.141  12.787  1.00  0.00    -0.007 C 
ATOM      3  C   UNL     1      -1.849 -17.233  12.139  1.00  0.00     0.004 C 
ATOM      4  C   UNL     1      -2.638 -18.018  11.071  1.00  0.00     0.004 C 
ATOM      5  C   UNL     1      -3.816 -17.223  10.436  1.00  0.00    -0.005 C 
ATOM      6  C   UNL     1      -3.465 -15.704  10.321  1.00  0.00    -0.000 C 
ATOM      7  C   UNL     1      -3.157 -15.075  11.729  1.00  0.00     0.018 C 
ATOM      8  C   UNL     1      -2.235 -13.862  11.670  1.00  0.00    -0.027 C 
ATOM      9  C   UNL     1      -1.678 -13.389  10.546  1.00  0.00    -0.028 C 
ATOM     10  C   UNL     1      -1.962 -13.966   9.190  1.00  0.00     0.008 C 
ATOM     11  C   UNL     1      -2.336 -15.450   9.288  1.00  0.00     0.012 C 
ATOM     12  C   UNL     1      -3.035 -13.136   8.475  1.00  0.00     0.012 C 
ENDROOT
BRANCH   5  13
ATOM     13  C   UNL     1      -4.297 -17.887   9.100  1.00  0.00    -0.014 C 
ATOM     14  C   UNL     1      -5.036 -16.875   8.205  1.00  0.00     0.007 C 
ATOM     15  C   UNL     1      -3.133 -18.496   8.296  1.00  0.00     0.007 C 
ENDBRANCH   5  13
TORSDOF 1
ENDMDL
MODEL 7
REMARK VINA RESULT:    -5.838      1.288      4.292
REMARK INTER + INTRA:          -6.450
REMARK INTER:                  -6.189
REMARK INTRA:                  -0.260
REMARK UNBOUND:                -0.270
REMARK SMILES CC(C)[C@H]1CC[C@@H](C)[C@H]2C=C[C@H](C)C[C@H]21
REMARK SMILES IDX 8 1 7 2 6 3 5 4 4 5 15 6 9 7 10 8 11 9 12 10 14 11 13 12
REMARK SMILES IDX 2 13 1 14 3 15
REMARK H PARENT
REMARK Flexibility Score: inf
ROOT
ATOM      1  C   UNL     1      -5.218 -15.369   5.674  1.00  0.00     0.008 C 
ATOM      2  C   UNL     1      -4.220 -14.951   6.767  1.00  0.00    -0.007 C 
ATOM      3  C   UNL     1      -2.920 -15.756   6.654  1.00  0.00     0.004 C 
ATOM      4  C   UNL     1      -1.809 -15.169   7.549  1.00  0.00     0.004 C 
ATOM      5  C   UNL     1      -2.335 -14.364   8.773  1.00  0.00    -0.005 C 
ATOM      6  C   UNL     1      -3.660 -14.986   9.322  1.00  0.00    -0.000 C 
ATOM      7  C   UNL     1      -4.788 -14.998   8.226  1.00  0.00     0.018 C 
ATOM      8  C   UNL     1      -5.829 -16.093   8.431  1.00  0.00    -0.027 C 
ATOM      9  C   UNL     1      -5.782 -17.009   9.408  1.00  0.00    -0.028 C 
ATOM     10  C   UNL     1      -4.721 -17.015  10.470  1.00  0.00     0.008 C 
ATOM     11  C   UNL     1      -3.422 -16.381   9.956  1.00  0.00     0.012 C 
ATOM     12  C   UNL     1      -5.242 -16.336  11.743  1.00  0.00     0.012 C 
ENDROOT
BRANCH   5  13
ATOM     13  C   UNL     1      -1.211 -14.162   9.848  1.00  0.00    -0.014 C 
ATOM     14  C   UNL     1       0.152 -14.657   9.332  1.00  0.00     0.007 C 
ATOM     15  C   UNL     1      -1.070 -12.690  10.279  1.00  0.00     0.007 C 
ENDBRANCH   5  13
TORSDOF 1
ENDMDL
MODEL 8
REMARK VINA RESULT:    -5.787      1.120      3.466
REMARK INTER + INTRA:          -6.395
REMARK INTER:                  -7.002
REMARK INTRA:                   0.607
REMARK UNBOUND:                -0.270
REMARK SMILES CC(C)[C@H]1CC[C@@H](C)[C@H]2C=C[C@H](C)C[C@H]21
REMARK SMILES IDX 8 1 7 2 6 3 5 4 4 5 15 6 9 7 10 8 11 9 12 10 14 11 13 12
REMARK SMILES IDX 2 13 1 14 3 15
REMARK H PARENT
REMARK Flexibility Score: inf
ROOT
ATOM      1  C   UNL     1      -1.225 -12.861  10.256  1.00  0.00     0.008 C 
ATOM      2  C   UNL     1      -1.892 -13.719   9.168  1.00  0.00    -0.007 C 
ATOM      3  C   UNL     1      -3.230 -13.106   8.736  1.00  0.00     0.004 C 
ATOM      4  C   UNL     1      -3.779 -13.784   7.463  1.00  0.00     0.004 C 
ATOM      5  C   UNL     1      -3.280 -15.243   7.250  1.00  0.00    -0.005 C 
ATOM      6  C   UNL     1      -3.098 -15.975   8.620  1.00  0.00    -0.000 C 
ATOM      7  C   UNL     1      -2.058 -15.233   9.536  1.00  0.00     0.018 C 
ATOM      8  C   UNL     1      -2.277 -15.468  11.027  1.00  0.00    -0.027 C 
ATOM      9  C   UNL     1      -3.287 -16.186  11.539  1.00  0.00    -0.028 C 
ATOM     10  C   UNL     1      -4.288 -16.910  10.686  1.00  0.00     0.008 C 
ATOM     11  C   UNL     1      -4.456 -16.220   9.327  1.00  0.00     0.012 C 
ATOM     12  C   UNL     1      -3.898 -18.387  10.550  1.00  0.00     0.012 C 
ENDROOT
BRANCH   5  13
ATOM     13  C   UNL     1      -4.174 -16.006   6.213  1.00  0.00    -0.014 C 
ATOM     14  C   UNL     1      -4.879 -17.211   6.861  1.00  0.00     0.007 C 
ATOM     15  C   UNL     1      -5.240 -15.095   5.577  1.00  0.00     0.007 C 
ENDBRANCH   5  13
TORSDOF 1
ENDMDL
MODEL 9
REMARK VINA RESULT:    -5.258      1.827      4.411
REMARK INTER + INTRA:          -5.835
REMARK INTER:                  -5.933
REMARK INTRA:                   0.098
REMARK UNBOUND:                -0.270
REMARK SMILES CC(C)[C@H]1CC[C@@H](C)[C@H]2C=C[C@H](C)C[C@H]21
REMARK SMILES IDX 8 1 7 2 6 3 5 4 4 5 15 6 9 7 10 8 11 9 12 10 14 11 13 12
REMARK SMILES IDX 2 13 1 14 3 15
REMARK H PARENT
REMARK Flexibility Score: inf
ROOT
ATOM      1  C   UNL     1      -1.607 -17.994  13.791  1.00  0.00     0.008 C 
ATOM      2  C   UNL     1      -1.679 -16.808  12.815  1.00  0.00    -0.007 C 
ATOM      3  C   UNL     1      -2.599 -15.709  13.360  1.00  0.00     0.004 C 
ATOM      4  C   UNL     1      -2.470 -14.405  12.545  1.00  0.00     0.004 C 
ATOM      5  C   UNL     1      -1.990 -14.613  11.079  1.00  0.00    -0.005 C 
ATOM      6  C   UNL     1      -2.542 -15.955  10.497  1.00  0.00    -0.000 C 
ATOM      7  C   UNL     1      -2.066 -17.191  11.345  1.00  0.00     0.018 C 
ATOM      8  C   UNL     1      -3.007 -18.388  11.265  1.00  0.00    -0.027 C 
ATOM      9  C   UNL     1      -4.165 -18.396  10.590  1.00  0.00    -0.028 C 
ATOM     10  C   UNL     1      -4.638 -17.233   9.767  1.00  0.00     0.008 C 
ATOM     11  C   UNL     1      -4.081 -15.911  10.308  1.00  0.00     0.012 C 
ATOM     12  C   UNL     1      -4.292 -17.455   8.289  1.00  0.00     0.012 C 
ENDROOT
BRANCH   5  13
ATOM     13  C   UNL     1      -2.280 -13.348  10.199  1.00  0.00    -0.014 C 
ATOM     14  C   UNL     1      -1.102 -12.357  10.239  1.00  0.00     0.007 C 
ATOM     15  C   UNL     1      -2.569 -13.711   8.730  1.00  0.00     0.007 C 
ENDBRANCH   5  13
TORSDOF 1
ENDMDL
