MODEL 1
REMARK VINA RESULT:    -6.042      0.000      0.000
REMARK INTER + INTRA:          -6.042
REMARK INTER:                  -6.042
REMARK INTRA:                   0.000
REMARK UNBOUND:                 0.000
REMARK SMILES O=c1ccc2ccccc2o1
REMARK SMILES IDX 7 1 8 2 9 3 10 4 5 5 6 6 4 7 3 8 2 9 1 10 11 11
REMARK H PARENT
REMARK Flexibility Score: inf
ROOT
ATOM      1  C   UNL     1      47.695  59.337  76.947  1.00  0.00     0.001 A 
ATOM      2  C   UNL     1      48.110  59.050  75.643  1.00  0.00     0.004 A 
ATOM      3  C   UNL     1      49.460  59.154  75.295  1.00  0.00     0.048 A 
ATOM      4  C   UNL     1      50.403  59.548  76.251  1.00  0.00     0.138 A 
ATOM      5  C   UNL     1      49.984  59.840  77.570  1.00  0.00     0.018 A 
ATOM      6  C   UNL     1      48.627  59.732  77.912  1.00  0.00     0.012 A 
ATOM      7  C   UNL     1      50.947  60.231  78.503  1.00  0.00     0.019 A 
ATOM      8  C   UNL     1      52.282  60.322  78.112  1.00  0.00     0.094 A 
ATOM      9  C   UNL     1      52.624  60.018  76.790  1.00  0.00     0.336 A 
ATOM     10  O   UNL     1      53.824  60.095  76.418  1.00  0.00    -0.246 OA
ATOM     11  O   UNL     1      51.687  59.648  75.920  1.00  0.00    -0.423 OA
ENDROOT
TORSDOF 0
ENDMDL
MODEL 2
REMARK VINA RESULT:    -5.821     10.453     12.320
REMARK INTER + INTRA:          -5.821
REMARK INTER:                  -5.821
REMARK INTRA:                   0.000
REMARK UNBOUND:                 0.000
REMARK SMILES O=c1ccc2ccccc2o1
REMARK SMILES IDX 7 1 8 2 9 3 10 4 5 5 6 6 4 7 3 8 2 9 1 10 11 11
REMARK H PARENT
REMARK Flexibility Score: inf
ROOT
ATOM      1  C   UNL     1      58.825  55.753  86.233  1.00  0.00     0.001 A 
ATOM      2  C   UNL     1      58.521  55.977  87.579  1.00  0.00     0.004 A 
ATOM      3  C   UNL     1      57.702  57.048  87.948  1.00  0.00     0.048 A 
ATOM      4  C   UNL     1      57.184  57.903  86.969  1.00  0.00     0.138 A 
ATOM      5  C   UNL     1      57.491  57.679  85.607  1.00  0.00     0.018 A 
ATOM      6  C   UNL     1      58.313  56.601  85.245  1.00  0.00     0.012 A 
ATOM      7  C   UNL     1      56.959  58.550  84.652  1.00  0.00     0.019 A 
ATOM      8  C   UNL     1      56.148  59.606  85.065  1.00  0.00     0.094 A 
ATOM      9  C   UNL     1      55.887  59.767  86.430  1.00  0.00     0.336 A 
ATOM     10  O   UNL     1      55.157  60.715  86.822  1.00  0.00    -0.246 OA
ATOM     11  O   UNL     1      56.406  58.924  87.319  1.00  0.00    -0.423 OA
ENDROOT
TORSDOF 0
ENDMDL
MODEL 3
REMARK VINA RESULT:    -5.790      1.225      2.139
REMARK INTER + INTRA:          -5.790
REMARK INTER:                  -5.790
REMARK INTRA:                   0.000
REMARK UNBOUND:                 0.000
REMARK SMILES O=c1ccc2ccccc2o1
REMARK SMILES IDX 7 1 8 2 9 3 10 4 5 5 6 6 4 7 3 8 2 9 1 10 11 11
REMARK H PARENT
REMARK Flexibility Score: inf
ROOT
ATOM      1  C   UNL     1      48.058  59.030  75.577  1.00  0.00     0.001 A 
ATOM      2  C   UNL     1      47.673  59.304  76.894  1.00  0.00     0.004 A 
ATOM      3  C   UNL     1      48.625  59.707  77.836  1.00  0.00     0.048 A 
ATOM      4  C   UNL     1      49.968  59.835  77.465  1.00  0.00     0.138 A 
ATOM      5  C   UNL     1      50.358  59.556  76.135  1.00  0.00     0.018 A 
ATOM      6  C   UNL     1      49.398  59.154  75.194  1.00  0.00     0.012 A 
ATOM      7  C   UNL     1      51.706  59.693  75.793  1.00  0.00     0.019 A 
ATOM      8  C   UNL     1      52.620  60.096  76.765  1.00  0.00     0.094 A 
ATOM      9  C   UNL     1      52.163  60.355  78.062  1.00  0.00     0.336 A 
ATOM     10  O   UNL     1      52.974  60.719  78.953  1.00  0.00    -0.246 OA
ATOM     11  O   UNL     1      50.874  60.217  78.361  1.00  0.00    -0.423 OA
ENDROOT
TORSDOF 0
ENDMDL
MODEL 4
REMARK VINA RESULT:    -5.781      1.941      4.356
REMARK INTER + INTRA:          -5.781
REMARK INTER:                  -5.781
REMARK INTRA:                   0.000
REMARK UNBOUND:                 0.000
REMARK SMILES O=c1ccc2ccccc2o1
REMARK SMILES IDX 7 1 8 2 9 3 10 4 5 5 6 6 4 7 3 8 2 9 1 10 11 11
REMARK H PARENT
REMARK Flexibility Score: inf
ROOT
ATOM      1  C   UNL     1      52.841  60.085  76.360  1.00  0.00     0.001 A 
ATOM      2  C   UNL     1      52.617  60.338  77.717  1.00  0.00     0.004 A 
ATOM      3  C   UNL     1      51.331  60.219  78.253  1.00  0.00     0.048 A 
ATOM      4  C   UNL     1      50.261  59.846  77.432  1.00  0.00     0.138 A 
ATOM      5  C   UNL     1      50.486  59.591  76.059  1.00  0.00     0.018 A 
ATOM      6  C   UNL     1      51.779  59.712  75.528  1.00  0.00     0.012 A 
ATOM      7  C   UNL     1      49.398  59.221  75.264  1.00  0.00     0.019 A 
ATOM      8  C   UNL     1      48.133  59.115  75.841  1.00  0.00     0.094 A 
ATOM      9  C   UNL     1      47.985  59.384  77.206  1.00  0.00     0.336 A 
ATOM     10  O   UNL     1      46.851  59.294  77.745  1.00  0.00    -0.246 OA
ATOM     11  O   UNL     1      49.037  59.734  77.941  1.00  0.00    -0.423 OA
ENDROOT
TORSDOF 0
ENDMDL
MODEL 5
REMARK VINA RESULT:    -5.781     10.465     12.170
REMARK INTER + INTRA:          -5.781
REMARK INTER:                  -5.781
REMARK INTRA:                   0.000
REMARK UNBOUND:                 0.000
REMARK SMILES O=c1ccc2ccccc2o1
REMARK SMILES IDX 7 1 8 2 9 3 10 4 5 5 6 6 4 7 3 8 2 9 1 10 11 11
REMARK H PARENT
REMARK Flexibility Score: inf
ROOT
ATOM      1  C   UNL     1      55.712  60.079  86.304  1.00  0.00     0.001 A 
ATOM      2  C   UNL     1      56.096  59.739  85.003  1.00  0.00     0.004 A 
ATOM      3  C   UNL     1      56.936  58.643  84.781  1.00  0.00     0.048 A 
ATOM      4  C   UNL     1      57.396  57.882  85.861  1.00  0.00     0.138 A 
ATOM      5  C   UNL     1      57.010  58.226  87.177  1.00  0.00     0.018 A 
ATOM      6  C   UNL     1      56.167  59.327  87.393  1.00  0.00     0.012 A 
ATOM      7  C   UNL     1      57.486  57.448  88.236  1.00  0.00     0.019 A 
ATOM      8  C   UNL     1      58.321  56.365  87.968  1.00  0.00     0.094 A 
ATOM      9  C   UNL     1      58.663  56.083  86.640  1.00  0.00     0.336 A 
ATOM     10  O   UNL     1      59.416  55.110  86.378  1.00  0.00    -0.246 OA
ATOM     11  O   UNL     1      58.196  56.840  85.650  1.00  0.00    -0.423 OA
ENDROOT
TORSDOF 0
ENDMDL
MODEL 6
REMARK VINA RESULT:    -5.742      6.631      7.620
REMARK INTER + INTRA:          -5.742
REMARK INTER:                  -5.742
REMARK INTRA:                   0.000
REMARK UNBOUND:                 0.000
REMARK SMILES O=c1ccc2ccccc2o1
REMARK SMILES IDX 7 1 8 2 9 3 10 4 5 5 6 6 4 7 3 8 2 9 1 10 11 11
REMARK H PARENT
REMARK Flexibility Score: inf
ROOT
ATOM      1  C   UNL     1      53.694  53.739  76.358  1.00  0.00     0.001 A 
ATOM      2  C   UNL     1      53.266  54.281  75.142  1.00  0.00     0.004 A 
ATOM      3  C   UNL     1      51.925  54.178  74.758  1.00  0.00     0.048 A 
ATOM      4  C   UNL     1      51.006  53.529  75.590  1.00  0.00     0.138 A 
ATOM      5  C   UNL     1      51.438  52.980  76.819  1.00  0.00     0.018 A 
ATOM      6  C   UNL     1      52.784  53.088  77.198  1.00  0.00     0.012 A 
ATOM      7  C   UNL     1      50.496  52.338  77.629  1.00  0.00     0.019 A 
ATOM      8  C   UNL     1      49.171  52.258  77.206  1.00  0.00     0.094 A 
ATOM      9  C   UNL     1      48.815  52.824  75.976  1.00  0.00     0.336 A 
ATOM     10  O   UNL     1      47.623  52.762  75.578  1.00  0.00    -0.246 OA
ATOM     11  O   UNL     1      49.730  53.430  75.224  1.00  0.00    -0.423 OA
ENDROOT
TORSDOF 0
ENDMDL
MODEL 7
REMARK VINA RESULT:    -5.706      1.464      3.790
REMARK INTER + INTRA:          -5.706
REMARK INTER:                  -5.706
REMARK INTRA:                   0.000
REMARK UNBOUND:                 0.000
REMARK SMILES O=c1ccc2ccccc2o1
REMARK SMILES IDX 7 1 8 2 9 3 10 4 5 5 6 6 4 7 3 8 2 9 1 10 11 11
REMARK H PARENT
REMARK Flexibility Score: inf
ROOT
ATOM      1  C   UNL     1      52.857  60.471  78.063  1.00  0.00     0.001 A 
ATOM      2  C   UNL     1      53.249  60.186  76.751  1.00  0.00     0.004 A 
ATOM      3  C   UNL     1      52.307  59.752  75.813  1.00  0.00     0.048 A 
ATOM      4  C   UNL     1      50.967  59.598  76.185  1.00  0.00     0.138 A 
ATOM      5  C   UNL     1      50.570  59.885  77.511  1.00  0.00     0.018 A 
ATOM      6  C   UNL     1      51.520  60.321  78.446  1.00  0.00     0.012 A 
ATOM      7  C   UNL     1      49.224  59.722  77.853  1.00  0.00     0.019 A 
ATOM      8  C   UNL     1      48.320  59.285  76.886  1.00  0.00     0.094 A 
ATOM      9  C   UNL     1      48.785  59.020  75.593  1.00  0.00     0.336 A 
ATOM     10  O   UNL     1      47.984  58.625  74.706  1.00  0.00    -0.246 OA
ATOM     11  O   UNL     1      50.071  59.183  75.293  1.00  0.00    -0.423 OA
ENDROOT
TORSDOF 0
ENDMDL
MODEL 8
REMARK VINA RESULT:    -5.652     10.668     12.384
REMARK INTER + INTRA:          -5.652
REMARK INTER:                  -5.652
REMARK INTRA:                   0.000
REMARK UNBOUND:                 0.000
REMARK SMILES O=c1ccc2ccccc2o1
REMARK SMILES IDX 7 1 8 2 9 3 10 4 5 5 6 6 4 7 3 8 2 9 1 10 11 11
REMARK H PARENT
REMARK Flexibility Score: inf
ROOT
ATOM      1  C   UNL     1      56.204  59.682  84.692  1.00  0.00     0.001 A 
ATOM      2  C   UNL     1      55.812  60.141  85.953  1.00  0.00     0.004 A 
ATOM      3  C   UNL     1      56.197  59.448  87.105  1.00  0.00     0.048 A 
ATOM      4  C   UNL     1      56.976  58.291  87.000  1.00  0.00     0.138 A 
ATOM      5  C   UNL     1      57.371  57.825  85.725  1.00  0.00     0.018 A 
ATOM      6  C   UNL     1      56.983  58.525  84.573  1.00  0.00     0.012 A 
ATOM      7  C   UNL     1      58.149  56.666  85.651  1.00  0.00     0.019 A 
ATOM      8  C   UNL     1      58.509  56.007  86.826  1.00  0.00     0.094 A 
ATOM      9  C   UNL     1      58.081  56.525  88.053  1.00  0.00     0.336 A 
ATOM     10  O   UNL     1      58.395  55.944  89.124  1.00  0.00    -0.246 OA
ATOM     11  O   UNL     1      57.341  57.630  88.096  1.00  0.00    -0.423 OA
ENDROOT
TORSDOF 0
ENDMDL
MODEL 9
REMARK VINA RESULT:    -5.648     12.132     13.092
REMARK INTER + INTRA:          -5.648
REMARK INTER:                  -5.648
REMARK INTRA:                   0.000
REMARK UNBOUND:                 0.000
REMARK SMILES O=c1ccc2ccccc2o1
REMARK SMILES IDX 7 1 8 2 9 3 10 4 5 5 6 6 4 7 3 8 2 9 1 10 11 11
REMARK H PARENT
REMARK Flexibility Score: inf
ROOT
ATOM      1  C   UNL     1      45.469  51.041  85.343  1.00  0.00     0.001 A 
ATOM      2  C   UNL     1      45.046  51.437  84.070  1.00  0.00     0.004 A 
ATOM      3  C   UNL     1      44.255  52.579  83.914  1.00  0.00     0.048 A 
ATOM      4  C   UNL     1      43.882  53.331  85.034  1.00  0.00     0.138 A 
ATOM      5  C   UNL     1      44.308  52.931  86.321  1.00  0.00     0.018 A 
ATOM      6  C   UNL     1      45.102  51.784  86.470  1.00  0.00     0.012 A 
ATOM      7  C   UNL     1      43.919  53.702  87.420  1.00  0.00     0.019 A 
ATOM      8  C   UNL     1      43.130  54.833  87.218  1.00  0.00     0.094 A 
ATOM      9  C   UNL     1      42.745  55.169  85.915  1.00  0.00     0.336 A 
ATOM     10  O   UNL     1      42.032  56.186  85.713  1.00  0.00    -0.246 OA
ATOM     11  O   UNL     1      43.128  54.418  84.886  1.00  0.00    -0.423 OA
ENDROOT
TORSDOF 0
ENDMDL
