MODEL 1
REMARK VINA RESULT:    -5.510      0.000      0.000
REMARK INTER + INTRA:          -6.193
REMARK INTER:                  -5.993
REMARK INTRA:                  -0.200
REMARK UNBOUND:                -0.200
REMARK SMILES CC(=O)c1cc(C)ccc1O
REMARK SMILES IDX 7 1 6 2 5 3 4 4 10 5 9 6 8 7 2 8 3 9 1 10 11 11
REMARK H PARENT 11 12
REMARK Flexibility Score: inf
ROOT
ATOM      1  C   UNL     1       0.117 -23.862  -6.736  1.00  0.00     0.044 C 
ATOM      2  C   UNL     1       0.619 -22.447  -6.703  1.00  0.00    -0.050 A 
ATOM      3  C   UNL     1       0.530 -21.695  -5.522  1.00  0.00     0.019 A 
ATOM      4  C   UNL     1       1.037 -20.383  -5.462  1.00  0.00     0.059 A 
ATOM      5  C   UNL     1       1.630 -19.823  -6.621  1.00  0.00     0.126 A 
ATOM      6  C   UNL     1       1.746 -20.595  -7.782  1.00  0.00     0.047 A 
ATOM      7  C   UNL     1       1.251 -21.898  -7.823  1.00  0.00     0.007 A 
ENDROOT
BRANCH   4   8
ATOM      8  C   UNL     1       0.972 -19.645  -4.179  1.00  0.00     0.163 C 
ATOM      9  O   UNL     1       1.395 -18.460  -4.114  1.00  0.00    -0.294 OA
ATOM     10  C   UNL     1       0.499 -20.312  -2.924  1.00  0.00     0.093 C 
ENDBRANCH   4   8
BRANCH   5  11
ATOM     11  O   UNL     1       2.087 -18.504  -6.664  1.00  0.00    -0.507 OA
ATOM     12  H   UNL     1       2.264 -18.005  -7.526  1.00  0.00     0.293 HD
ENDBRANCH   5  11
TORSDOF 2
ENDMDL
MODEL 2
REMARK VINA RESULT:    -5.049      1.688      3.685
REMARK INTER + INTRA:          -5.692
REMARK INTER:                  -5.463
REMARK INTRA:                  -0.229
REMARK UNBOUND:                -0.200
REMARK SMILES CC(=O)c1cc(C)ccc1O
REMARK SMILES IDX 7 1 6 2 5 3 4 4 10 5 9 6 8 7 2 8 3 9 1 10 11 11
REMARK H PARENT 11 12
REMARK Flexibility Score: inf
ROOT
ATOM      1  C   UNL     1       0.285 -19.713  -2.983  1.00  0.00     0.044 C 
ATOM      2  C   UNL     1       0.866 -19.870  -4.358  1.00  0.00    -0.050 A 
ATOM      3  C   UNL     1       0.639 -21.045  -5.090  1.00  0.00     0.019 A 
ATOM      4  C   UNL     1       1.139 -21.188  -6.398  1.00  0.00     0.059 A 
ATOM      5  C   UNL     1       1.892 -20.130  -6.966  1.00  0.00     0.126 A 
ATOM      6  C   UNL     1       2.082 -18.949  -6.241  1.00  0.00     0.047 A 
ATOM      7  C   UNL     1       1.570 -18.815  -4.950  1.00  0.00     0.007 A 
ENDROOT
BRANCH   4   8
ATOM      8  C   UNL     1       0.827 -22.423  -7.156  1.00  0.00     0.163 C 
ATOM      9  O   UNL     1       1.061 -22.478  -8.393  1.00  0.00    -0.294 OA
ATOM     10  C   UNL     1       0.148 -23.585  -6.498  1.00  0.00     0.093 C 
ENDBRANCH   4   8
BRANCH   5  11
ATOM     11  O   UNL     1       2.485 -20.226  -8.226  1.00  0.00    -0.507 OA
ATOM     12  H   UNL     1       2.075 -20.738  -8.996  1.00  0.00     0.293 HD
ENDBRANCH   5  11
TORSDOF 2
ENDMDL
MODEL 3
REMARK VINA RESULT:    -4.944      2.160      4.318
REMARK INTER + INTRA:          -5.578
REMARK INTER:                  -5.268
REMARK INTRA:                  -0.310
REMARK UNBOUND:                -0.200
REMARK SMILES CC(=O)c1cc(C)ccc1O
REMARK SMILES IDX 7 1 6 2 5 3 4 4 10 5 9 6 8 7 2 8 3 9 1 10 11 11
REMARK H PARENT 11 12
REMARK Flexibility Score: inf
ROOT
ATOM      1  C   UNL     1       1.464 -17.958  -3.602  1.00  0.00     0.044 C 
ATOM      2  C   UNL     1       1.223 -19.170  -4.455  1.00  0.00    -0.050 A 
ATOM      3  C   UNL     1       1.856 -19.293  -5.700  1.00  0.00     0.019 A 
ATOM      4  C   UNL     1       1.676 -20.444  -6.491  1.00  0.00     0.059 A 
ATOM      5  C   UNL     1       0.831 -21.478  -6.016  1.00  0.00     0.126 A 
ATOM      6  C   UNL     1       0.234 -21.361  -4.756  1.00  0.00     0.047 A 
ATOM      7  C   UNL     1       0.431 -20.220  -3.978  1.00  0.00     0.007 A 
ENDROOT
BRANCH   4   8
ATOM      8  C   UNL     1       2.407 -20.557  -7.775  1.00  0.00     0.163 C 
ATOM      9  O   UNL     1       1.813 -20.980  -8.802  1.00  0.00    -0.294 OA
ATOM     10  C   UNL     1       3.874 -20.266  -7.859  1.00  0.00     0.093 C 
ENDBRANCH   4   8
BRANCH   5  11
ATOM     11  O   UNL     1       0.542 -22.615  -6.773  1.00  0.00    -0.507 OA
ATOM     12  H   UNL     1      -0.117 -23.325  -6.481  1.00  0.00     0.293 HD
ENDBRANCH   5  11
TORSDOF 2
ENDMDL
MODEL 4
REMARK VINA RESULT:    -4.943      1.464      2.743
REMARK INTER + INTRA:          -5.577
REMARK INTER:                  -5.303
REMARK INTRA:                  -0.274
REMARK UNBOUND:                -0.200
REMARK SMILES CC(=O)c1cc(C)ccc1O
REMARK SMILES IDX 7 1 6 2 5 3 4 4 10 5 9 6 8 7 2 8 3 9 1 10 11 11
REMARK H PARENT 11 12
REMARK Flexibility Score: inf
ROOT
ATOM      1  C   UNL     1       1.628 -21.025  -8.779  1.00  0.00     0.044 C 
ATOM      2  C   UNL     1       1.321 -20.902  -7.315  1.00  0.00    -0.050 A 
ATOM      3  C   UNL     1       1.710 -19.755  -6.607  1.00  0.00     0.019 A 
ATOM      4  C   UNL     1       1.389 -19.605  -5.245  1.00  0.00     0.059 A 
ATOM      5  C   UNL     1       0.676 -20.639  -4.589  1.00  0.00     0.126 A 
ATOM      6  C   UNL     1       0.261 -21.762  -5.313  1.00  0.00     0.047 A 
ATOM      7  C   UNL     1       0.575 -21.892  -6.667  1.00  0.00     0.007 A 
ENDROOT
BRANCH   4   8
ATOM      8  C   UNL     1       1.771 -18.353  -4.550  1.00  0.00     0.163 C 
ATOM      9  O   UNL     1       1.883 -18.340  -3.295  1.00  0.00    -0.294 OA
ATOM     10  C   UNL     1       1.937 -17.069  -5.303  1.00  0.00     0.093 C 
ENDBRANCH   4   8
BRANCH   5  11
ATOM     11  O   UNL     1       0.387 -20.599  -3.224  1.00  0.00    -0.507 OA
ATOM     12  H   UNL     1       1.026 -20.234  -2.530  1.00  0.00     0.293 HD
ENDBRANCH   5  11
TORSDOF 2
ENDMDL
MODEL 5
REMARK VINA RESULT:    -4.885     13.386     15.507
REMARK INTER + INTRA:          -5.514
REMARK INTER:                  -5.212
REMARK INTRA:                  -0.301
REMARK UNBOUND:                -0.200
REMARK SMILES CC(=O)c1cc(C)ccc1O
REMARK SMILES IDX 7 1 6 2 5 3 4 4 10 5 9 6 8 7 2 8 3 9 1 10 11 11
REMARK H PARENT 11 12
REMARK Flexibility Score: inf
ROOT
ATOM      1  C   UNL     1       4.626 -21.959  10.125  1.00  0.00     0.044 C 
ATOM      2  C   UNL     1       5.019 -23.204   9.383  1.00  0.00    -0.050 A 
ATOM      3  C   UNL     1       5.446 -23.124   8.049  1.00  0.00     0.019 A 
ATOM      4  C   UNL     1       5.861 -24.276   7.354  1.00  0.00     0.059 A 
ATOM      5  C   UNL     1       5.828 -25.527   8.018  1.00  0.00     0.126 A 
ATOM      6  C   UNL     1       5.435 -25.590   9.359  1.00  0.00     0.047 A 
ATOM      7  C   UNL     1       5.038 -24.438  10.040  1.00  0.00     0.007 A 
ENDROOT
BRANCH   4   8
ATOM      8  C   UNL     1       6.357 -24.138   5.965  1.00  0.00     0.163 C 
ATOM      9  O   UNL     1       6.102 -25.032   5.114  1.00  0.00    -0.294 OA
ATOM     10  C   UNL     1       7.244 -22.998   5.568  1.00  0.00     0.093 C 
ENDBRANCH   4   8
BRANCH   5  11
ATOM     11  O   UNL     1       6.150 -26.724   7.375  1.00  0.00    -0.507 OA
ATOM     12  H   UNL     1       6.877 -26.802   6.677  1.00  0.00     0.293 HD
ENDBRANCH   5  11
TORSDOF 2
ENDMDL
MODEL 6
REMARK VINA RESULT:    -4.791      1.903      3.414
REMARK INTER + INTRA:          -5.412
REMARK INTER:                  -5.124
REMARK INTRA:                  -0.288
REMARK UNBOUND:                -0.200
REMARK SMILES CC(=O)c1cc(C)ccc1O
REMARK SMILES IDX 7 1 6 2 5 3 4 4 10 5 9 6 8 7 2 8 3 9 1 10 11 11
REMARK H PARENT 11 12
REMARK Flexibility Score: inf
ROOT
ATOM      1  C   UNL     1       0.370 -20.489  -3.105  1.00  0.00     0.044 C 
ATOM      2  C   UNL     1       0.780 -20.655  -4.540  1.00  0.00    -0.050 A 
ATOM      3  C   UNL     1       1.844 -19.903  -5.060  1.00  0.00     0.019 A 
ATOM      4  C   UNL     1       2.270 -20.080  -6.390  1.00  0.00     0.059 A 
ATOM      5  C   UNL     1       1.598 -21.022  -7.207  1.00  0.00     0.126 A 
ATOM      6  C   UNL     1       0.562 -21.793  -6.667  1.00  0.00     0.047 A 
ATOM      7  C   UNL     1       0.158 -21.616  -5.343  1.00  0.00     0.007 A 
ENDROOT
BRANCH   4   8
ATOM      8  C   UNL     1       3.434 -19.305  -6.881  1.00  0.00     0.163 C 
ATOM      9  O   UNL     1       4.162 -19.776  -7.796  1.00  0.00    -0.294 OA
ATOM     10  C   UNL     1       3.824 -18.006  -6.246  1.00  0.00     0.093 C 
ENDBRANCH   4   8
BRANCH   5  11
ATOM     11  O   UNL     1       1.911 -21.201  -8.556  1.00  0.00    -0.507 OA
ATOM     12  H   UNL     1       2.468 -21.972  -8.900  1.00  0.00     0.293 HD
ENDBRANCH   5  11
TORSDOF 2
ENDMDL
MODEL 7
REMARK VINA RESULT:    -4.777      2.015      2.999
REMARK INTER + INTRA:          -5.397
REMARK INTER:                  -5.111
REMARK INTRA:                  -0.285
REMARK UNBOUND:                -0.200
REMARK SMILES CC(=O)c1cc(C)ccc1O
REMARK SMILES IDX 7 1 6 2 5 3 4 4 10 5 9 6 8 7 2 8 3 9 1 10 11 11
REMARK H PARENT 11 12
REMARK Flexibility Score: inf
ROOT
ATOM      1  C   UNL     1       4.584 -19.494  -7.687  1.00  0.00     0.044 C 
ATOM      2  C   UNL     1       3.309 -20.182  -7.296  1.00  0.00    -0.050 A 
ATOM      3  C   UNL     1       2.730 -19.935  -6.043  1.00  0.00     0.019 A 
ATOM      4  C   UNL     1       1.511 -20.538  -5.679  1.00  0.00     0.059 A 
ATOM      5  C   UNL     1       0.879 -21.416  -6.596  1.00  0.00     0.126 A 
ATOM      6  C   UNL     1       1.447 -21.628  -7.857  1.00  0.00     0.047 A 
ATOM      7  C   UNL     1       2.649 -21.013  -8.208  1.00  0.00     0.007 A 
ENDROOT
BRANCH   4   8
ATOM      8  C   UNL     1       0.906 -20.206  -4.368  1.00  0.00     0.163 C 
ATOM      9  O   UNL     1       0.169 -21.045  -3.785  1.00  0.00    -0.294 OA
ATOM     10  C   UNL     1       1.075 -18.848  -3.760  1.00  0.00     0.093 C 
ENDBRANCH   4   8
BRANCH   5  11
ATOM     11  O   UNL     1      -0.290 -22.111  -6.281  1.00  0.00    -0.507 OA
ATOM     12  H   UNL     1      -0.482 -23.051  -6.603  1.00  0.00     0.293 HD
ENDBRANCH   5  11
TORSDOF 2
ENDMDL
MODEL 8
REMARK VINA RESULT:    -4.748     11.522     13.175
REMARK INTER + INTRA:          -5.365
REMARK INTER:                  -5.055
REMARK INTRA:                  -0.310
REMARK UNBOUND:                -0.200
REMARK SMILES CC(=O)c1cc(C)ccc1O
REMARK SMILES IDX 7 1 6 2 5 3 4 4 10 5 9 6 8 7 2 8 3 9 1 10 11 11
REMARK H PARENT 11 12
REMARK Flexibility Score: inf
ROOT
ATOM      1  C   UNL     1      -5.488 -26.792  -3.242  1.00  0.00     0.044 C 
ATOM      2  C   UNL     1      -6.377 -28.001  -3.268  1.00  0.00    -0.050 A 
ATOM      3  C   UNL     1      -7.734 -27.887  -2.933  1.00  0.00     0.019 A 
ATOM      4  C   UNL     1      -8.590 -29.003  -2.996  1.00  0.00     0.059 A 
ATOM      5  C   UNL     1      -8.057 -30.255  -3.392  1.00  0.00     0.126 A 
ATOM      6  C   UNL     1      -6.710 -30.351  -3.758  1.00  0.00     0.047 A 
ATOM      7  C   UNL     1      -5.876 -29.233  -3.703  1.00  0.00     0.007 A 
ENDROOT
BRANCH   4   8
ATOM      8  C   UNL     1     -10.028 -28.825  -2.688  1.00  0.00     0.163 C 
ATOM      9  O   UNL     1     -10.629 -29.676  -1.979  1.00  0.00    -0.294 OA
ATOM     10  C   UNL     1     -10.814 -27.697  -3.282  1.00  0.00     0.093 C 
ENDBRANCH   4   8
BRANCH   5  11
ATOM     11  O   UNL     1      -8.822 -31.423  -3.406  1.00  0.00    -0.507 OA
ATOM     12  H   UNL     1      -8.756 -32.122  -4.134  1.00  0.00     0.293 HD
ENDBRANCH   5  11
TORSDOF 2
ENDMDL
MODEL 9
REMARK VINA RESULT:    -4.678     10.028     11.309
REMARK INTER + INTRA:          -5.289
REMARK INTER:                  -5.017
REMARK INTRA:                  -0.272
REMARK UNBOUND:                -0.200
REMARK SMILES CC(=O)c1cc(C)ccc1O
REMARK SMILES IDX 7 1 6 2 5 3 4 4 10 5 9 6 8 7 2 8 3 9 1 10 11 11
REMARK H PARENT 11 12
REMARK Flexibility Score: inf
ROOT
ATOM      1  C   UNL     1      -6.608 -30.369  -4.083  1.00  0.00     0.044 C 
ATOM      2  C   UNL     1      -6.665 -28.942  -3.624  1.00  0.00    -0.050 A 
ATOM      3  C   UNL     1      -7.821 -28.177  -3.840  1.00  0.00     0.019 A 
ATOM      4  C   UNL     1      -7.906 -26.851  -3.374  1.00  0.00     0.059 A 
ATOM      5  C   UNL     1      -6.797 -26.289  -2.693  1.00  0.00     0.126 A 
ATOM      6  C   UNL     1      -5.663 -27.073  -2.452  1.00  0.00     0.047 A 
ATOM      7  C   UNL     1      -5.597 -28.390  -2.907  1.00  0.00     0.007 A 
ENDROOT
BRANCH   4   8
ATOM      8  C   UNL     1      -9.167 -26.098  -3.575  1.00  0.00     0.163 C 
ATOM      9  O   UNL     1      -9.156 -24.838  -3.555  1.00  0.00    -0.294 OA
ATOM     10  C   UNL     1     -10.479 -26.807  -3.707  1.00  0.00     0.093 C 
ENDBRANCH   4   8
BRANCH   5  11
ATOM     11  O   UNL     1      -6.775 -24.960  -2.269  1.00  0.00    -0.507 OA
ATOM     12  H   UNL     1      -6.875 -24.173  -2.897  1.00  0.00     0.293 HD
ENDBRANCH   5  11
TORSDOF 2
ENDMDL
