MODEL 1
REMARK VINA RESULT:    -3.352      0.000      0.000
REMARK INTER + INTRA:          -3.646
REMARK INTER:                  -3.646
REMARK INTRA:                   0.000
REMARK UNBOUND:                 0.000
REMARK SMILES [NH3+]CC(=O)[O-]
REMARK SMILES IDX 2 1 1 2 3 6 4 7 5 8
REMARK H PARENT 1 3 1 4 1 5
REMARK Flexibility Score: inf
ROOT
ATOM      1  C   UNL     1       9.441  -1.785 -32.400  1.00  0.00     0.312 C 
ENDROOT
BRANCH   1   2
ATOM      2  N   UNL     1       8.937  -3.152 -32.283  1.00  0.00    -0.353 N 
ATOM      3  H   UNL     1       8.600  -3.491 -33.213  1.00  0.00     0.344 HD
ATOM      4  H   UNL     1       8.139  -3.166 -31.608  1.00  0.00     0.344 HD
ATOM      5  H   UNL     1       9.692  -3.784 -31.929  1.00  0.00     0.344 HD
ENDBRANCH   1   2
BRANCH   1   6
ATOM      6  C   UNL     1      10.789  -1.662 -31.759  1.00  0.00     0.096 C 
ATOM      7  O   UNL     1      11.713  -2.459 -32.070  1.00  0.00    -0.544 OA
ATOM      8  O   UNL     1      11.039  -0.637 -30.856  1.00  0.00    -0.544 OA
ENDBRANCH   1   6
TORSDOF 2
ENDMDL
MODEL 2
REMARK VINA RESULT:    -3.339      2.255      2.709
REMARK INTER + INTRA:          -3.631
REMARK INTER:                  -3.631
REMARK INTRA:                   0.000
REMARK UNBOUND:                 0.000
REMARK SMILES [NH3+]CC(=O)[O-]
REMARK SMILES IDX 2 1 1 2 3 6 4 7 5 8
REMARK H PARENT 1 3 1 4 1 5
REMARK Flexibility Score: inf
ROOT
ATOM      1  C   UNL     1       9.851  -1.908 -32.323  1.00  0.00     0.312 C 
ENDROOT
BRANCH   1   2
ATOM      2  N   UNL     1       8.958  -3.063 -32.253  1.00  0.00    -0.353 N 
ATOM      3  H   UNL     1       9.452  -3.920 -32.592  1.00  0.00     0.344 HD
ATOM      4  H   UNL     1       8.125  -2.889 -32.860  1.00  0.00     0.344 HD
ATOM      5  H   UNL     1       8.635  -3.207 -31.268  1.00  0.00     0.344 HD
ENDBRANCH   1   2
BRANCH   1   6
ATOM      6  C   UNL     1       9.150  -0.734 -32.934  1.00  0.00     0.096 C 
ATOM      7  O   UNL     1       8.418   0.006 -32.224  1.00  0.00    -0.544 OA
ATOM      8  O   UNL     1       9.344  -0.428 -34.274  1.00  0.00    -0.544 OA
ENDBRANCH   1   6
TORSDOF 2
ENDMDL
MODEL 3
REMARK VINA RESULT:    -3.245      2.473      2.782
REMARK INTER + INTRA:          -3.530
REMARK INTER:                  -3.530
REMARK INTRA:                   0.000
REMARK UNBOUND:                 0.000
REMARK SMILES [NH3+]CC(=O)[O-]
REMARK SMILES IDX 2 1 1 2 3 6 4 7 5 8
REMARK H PARENT 1 3 1 4 1 5
REMARK Flexibility Score: inf
ROOT
ATOM      1  C   UNL     1      12.016  -3.092 -32.873  1.00  0.00     0.312 C 
ENDROOT
BRANCH   1   2
ATOM      2  N   UNL     1      13.256  -2.351 -33.092  1.00  0.00    -0.353 N 
ATOM      3  H   UNL     1      13.772  -2.238 -32.189  1.00  0.00     0.344 HD
ATOM      4  H   UNL     1      13.027  -1.404 -33.472  1.00  0.00     0.344 HD
ATOM      5  H   UNL     1      13.859  -2.856 -33.783  1.00  0.00     0.344 HD
ENDBRANCH   1   2
BRANCH   1   6
ATOM      6  C   UNL     1      10.994  -2.225 -32.204  1.00  0.00     0.096 C 
ATOM      7  O   UNL     1      11.355  -1.215 -31.543  1.00  0.00    -0.544 OA
ATOM      8  O   UNL     1       9.642  -2.503 -32.353  1.00  0.00    -0.544 OA
ENDBRANCH   1   6
TORSDOF 2
ENDMDL
MODEL 4
REMARK VINA RESULT:    -3.241      1.607      2.184
REMARK INTER + INTRA:          -3.526
REMARK INTER:                  -3.526
REMARK INTRA:                   0.000
REMARK UNBOUND:                 0.000
REMARK SMILES [NH3+]CC(=O)[O-]
REMARK SMILES IDX 2 1 1 2 3 6 4 7 5 8
REMARK H PARENT 1 3 1 4 1 5
REMARK Flexibility Score: inf
ROOT
ATOM      1  C   UNL     1      10.387  -2.183 -32.146  1.00  0.00     0.312 C 
ENDROOT
BRANCH   1   2
ATOM      2  N   UNL     1       9.149  -2.945 -32.298  1.00  0.00    -0.353 N 
ATOM      3  H   UNL     1       9.019  -3.586 -31.482  1.00  0.00     0.344 HD
ATOM      4  H   UNL     1       9.204  -3.515 -33.172  1.00  0.00     0.344 HD
ATOM      5  H   UNL     1       8.333  -2.293 -32.369  1.00  0.00     0.344 HD
ENDBRANCH   1   2
BRANCH   1   6
ATOM      6  C   UNL     1      11.555  -2.962 -32.669  1.00  0.00     0.096 C 
ATOM      7  O   UNL     1      12.673  -2.403 -32.818  1.00  0.00    -0.544 OA
ATOM      8  O   UNL     1      11.419  -4.316 -32.943  1.00  0.00    -0.544 OA
ENDBRANCH   1   6
TORSDOF 2
ENDMDL
MODEL 5
REMARK VINA RESULT:    -3.024      1.866      2.192
REMARK INTER + INTRA:          -3.289
REMARK INTER:                  -3.289
REMARK INTRA:                   0.000
REMARK UNBOUND:                 0.000
REMARK SMILES [NH3+]CC(=O)[O-]
REMARK SMILES IDX 2 1 1 2 3 6 4 7 5 8
REMARK H PARENT 1 3 1 4 1 5
REMARK Flexibility Score: inf
ROOT
ATOM      1  C   UNL     1      11.779  -3.759 -32.973  1.00  0.00     0.312 C 
ENDROOT
BRANCH   1   2
ATOM      2  N   UNL     1      10.666  -4.644 -32.634  1.00  0.00    -0.353 N 
ATOM      3  H   UNL     1       9.755  -4.166 -32.823  1.00  0.00     0.344 HD
ATOM      4  H   UNL     1      10.718  -4.884 -31.617  1.00  0.00     0.344 HD
ATOM      5  H   UNL     1      10.725  -5.526 -33.194  1.00  0.00     0.344 HD
ENDBRANCH   1   2
BRANCH   1   6
ATOM      6  C   UNL     1      11.555  -2.389 -32.410  1.00  0.00     0.096 C 
ATOM      7  O   UNL     1      10.569  -2.167 -31.660  1.00  0.00    -0.544 OA
ATOM      8  O   UNL     1      12.463  -1.373 -32.675  1.00  0.00    -0.544 OA
ENDBRANCH   1   6
TORSDOF 2
ENDMDL
MODEL 6
REMARK VINA RESULT:    -3.009      2.176      2.378
REMARK INTER + INTRA:          -3.273
REMARK INTER:                  -3.273
REMARK INTRA:                   0.000
REMARK UNBOUND:                 0.000
REMARK SMILES [NH3+]CC(=O)[O-]
REMARK SMILES IDX 2 1 1 2 3 6 4 7 5 8
REMARK H PARENT 1 3 1 4 1 5
REMARK Flexibility Score: inf
ROOT
ATOM      1  C   UNL     1       8.716  -0.379 -32.673  1.00  0.00     0.312 C 
ENDROOT
BRANCH   1   2
ATOM      2  N   UNL     1       8.099  -0.281 -33.994  1.00  0.00    -0.353 N 
ATOM      3  H   UNL     1       7.121   0.082 -33.908  1.00  0.00     0.344 HD
ATOM      4  H   UNL     1       8.070  -1.231 -34.429  1.00  0.00     0.344 HD
ATOM      5  H   UNL     1       8.659   0.355 -34.606  1.00  0.00     0.344 HD
ENDBRANCH   1   2
BRANCH   1   6
ATOM      6  C   UNL     1       9.592  -1.591 -32.588  1.00  0.00     0.096 C 
ATOM      7  O   UNL     1       9.092  -2.716 -32.322  1.00  0.00    -0.544 OA
ATOM      8  O   UNL     1      10.951  -1.486 -32.852  1.00  0.00    -0.544 OA
ENDBRANCH   1   6
TORSDOF 2
ENDMDL
MODEL 7
REMARK VINA RESULT:    -2.872      9.268      9.655
REMARK INTER + INTRA:          -3.124
REMARK INTER:                  -3.124
REMARK INTRA:                   0.000
REMARK UNBOUND:                 0.000
REMARK SMILES [NH3+]CC(=O)[O-]
REMARK SMILES IDX 2 1 1 2 3 6 4 7 5 8
REMARK H PARENT 1 3 1 4 1 5
REMARK Flexibility Score: inf
ROOT
ATOM      1  C   UNL     1       5.269   1.289 -25.963  1.00  0.00     0.312 C 
ENDROOT
BRANCH   1   2
ATOM      2  N   UNL     1       5.603  -0.130 -26.064  1.00  0.00    -0.353 N 
ATOM      3  H   UNL     1       6.345  -0.375 -25.369  1.00  0.00     0.344 HD
ATOM      4  H   UNL     1       5.960  -0.330 -27.027  1.00  0.00     0.344 HD
ATOM      5  H   UNL     1       4.751  -0.713 -25.892  1.00  0.00     0.344 HD
ENDBRANCH   1   2
BRANCH   1   6
ATOM      6  C   UNL     1       4.377   1.539 -24.786  1.00  0.00     0.096 C 
ATOM      7  O   UNL     1       4.839   1.471 -23.616  1.00  0.00    -0.544 OA
ATOM      8  O   UNL     1       3.050   1.897 -24.983  1.00  0.00    -0.544 OA
ENDBRANCH   1   6
TORSDOF 2
ENDMDL
MODEL 8
REMARK VINA RESULT:    -2.832      8.372      8.808
REMARK INTER + INTRA:          -3.081
REMARK INTER:                  -3.081
REMARK INTRA:                   0.000
REMARK UNBOUND:                 0.000
REMARK SMILES [NH3+]CC(=O)[O-]
REMARK SMILES IDX 2 1 1 2 3 6 4 7 5 8
REMARK H PARENT 1 3 1 4 1 5
REMARK Flexibility Score: inf
ROOT
ATOM      1  C   UNL     1       4.511   1.079 -25.172  1.00  0.00     0.312 C 
ENDROOT
BRANCH   1   2
ATOM      2  N   UNL     1       3.729   2.306 -25.026  1.00  0.00    -0.353 N 
ATOM      3  H   UNL     1       3.571   2.745 -25.962  1.00  0.00     0.344 HD
ATOM      4  H   UNL     1       4.255   2.977 -24.421  1.00  0.00     0.344 HD
ATOM      5  H   UNL     1       2.809   2.093 -24.576  1.00  0.00     0.344 HD
ENDBRANCH   1   2
BRANCH   1   6
ATOM      6  C   UNL     1       5.393   1.156 -26.380  1.00  0.00     0.096 C 
ATOM      7  O   UNL     1       5.695   2.275 -26.873  1.00  0.00    -0.544 OA
ATOM      8  O   UNL     1       5.923  -0.004 -26.928  1.00  0.00    -0.544 OA
ENDBRANCH   1   6
TORSDOF 2
ENDMDL
MODEL 9
REMARK VINA RESULT:    -2.779      7.533      7.880
REMARK INTER + INTRA:          -3.023
REMARK INTER:                  -3.023
REMARK INTRA:                   0.000
REMARK UNBOUND:                 0.000
REMARK SMILES [NH3+]CC(=O)[O-]
REMARK SMILES IDX 2 1 1 2 3 6 4 7 5 8
REMARK H PARENT 1 3 1 4 1 5
REMARK Flexibility Score: inf
ROOT
ATOM      1  C   UNL     1       6.505   2.043 -27.128  1.00  0.00     0.312 C 
ENDROOT
BRANCH   1   2
ATOM      2  N   UNL     1       5.652   3.191 -27.430  1.00  0.00    -0.353 N 
ATOM      3  H   UNL     1       4.783   2.874 -27.920  1.00  0.00     0.344 HD
ATOM      4  H   UNL     1       6.172   3.849 -28.054  1.00  0.00     0.344 HD
ATOM      5  H   UNL     1       5.397   3.691 -26.547  1.00  0.00     0.344 HD
ENDBRANCH   1   2
BRANCH   1   6
ATOM      6  C   UNL     1       5.676   0.835 -26.819  1.00  0.00     0.096 C 
ATOM      7  O   UNL     1       5.693  -0.159 -27.593  1.00  0.00    -0.544 OA
ATOM      8  O   UNL     1       4.925   0.787 -25.653  1.00  0.00    -0.544 OA
ENDBRANCH   1   6
TORSDOF 2
ENDMDL
