MODEL 1
REMARK VINA RESULT:    -3.709      0.000      0.000
REMARK INTER + INTRA:          -4.452
REMARK INTER:                  -4.359
REMARK INTRA:                  -0.092
REMARK UNBOUND:                -0.092
REMARK SMILES CCCCC(=O)[O-]
REMARK SMILES IDX 4 1 5 2 6 3 7 4 3 5 2 6 1 7
REMARK H PARENT
REMARK Flexibility Score: inf
ROOT
ATOM      1  C   UNL     1      13.451  33.671  13.587  1.00  0.00     0.053 C 
ENDROOT
BRANCH   1   2
ATOM      2  C   UNL     1      14.364  34.830  13.325  1.00  0.00     0.041 C 
ATOM      3  O   UNL     1      15.536  34.829  13.786  1.00  0.00    -0.550 OA
ATOM      4  O   UNL     1      13.909  35.924  12.600  1.00  0.00    -0.550 OA
ENDBRANCH   1   2
BRANCH   1   5
ATOM      5  C   UNL     1      13.550  32.601  12.488  1.00  0.00     0.006 C 
BRANCH   5   6
ATOM      6  C   UNL     1      14.295  31.324  12.917  1.00  0.00    -0.003 C 
ATOM      7  C   UNL     1      15.813  31.457  12.811  1.00  0.00     0.004 C 
ENDBRANCH   5   6
ENDBRANCH   1   5
TORSDOF 3
ENDMDL
MODEL 2
REMARK VINA RESULT:    -3.597     14.991     15.962
REMARK INTER + INTRA:          -4.320
REMARK INTER:                  -4.295
REMARK INTRA:                  -0.025
REMARK UNBOUND:                -0.092
REMARK SMILES CCCCC(=O)[O-]
REMARK SMILES IDX 4 1 5 2 6 3 7 4 3 5 2 6 1 7
REMARK H PARENT
REMARK Flexibility Score: inf
ROOT
ATOM      1  C   UNL     1       4.189  45.903  10.875  1.00  0.00     0.053 C 
ENDROOT
BRANCH   1   2
ATOM      2  C   UNL     1       4.340  44.486  11.338  1.00  0.00     0.041 C 
ATOM      3  O   UNL     1       4.583  44.237  12.548  1.00  0.00    -0.550 OA
ATOM      4  O   UNL     1       4.245  43.442  10.426  1.00  0.00    -0.550 OA
ENDBRANCH   1   2
BRANCH   1   5
ATOM      5  C   UNL     1       4.648  46.085   9.420  1.00  0.00     0.006 C 
BRANCH   5   6
ATOM      6  C   UNL     1       5.262  47.465   9.121  1.00  0.00    -0.003 C 
ATOM      7  C   UNL     1       6.769  47.510   9.364  1.00  0.00     0.004 C 
ENDBRANCH   5   6
ENDBRANCH   1   5
TORSDOF 3
ENDMDL
MODEL 3
REMARK VINA RESULT:    -3.596      2.418      3.876
REMARK INTER + INTRA:          -4.319
REMARK INTER:                  -4.250
REMARK INTRA:                  -0.069
REMARK UNBOUND:                -0.092
REMARK SMILES CCCCC(=O)[O-]
REMARK SMILES IDX 4 1 5 2 6 3 7 4 3 5 2 6 1 7
REMARK H PARENT
REMARK Flexibility Score: inf
ROOT
ATOM      1  C   UNL     1      13.361  33.972  13.939  1.00  0.00     0.053 C 
ENDROOT
BRANCH   1   2
ATOM      2  C   UNL     1      13.181  32.635  13.287  1.00  0.00     0.041 C 
ATOM      3  O   UNL     1      13.695  32.405  12.161  1.00  0.00    -0.550 OA
ATOM      4  O   UNL     1      12.419  31.654  13.910  1.00  0.00    -0.550 OA
ENDBRANCH   1   2
BRANCH   1   5
ATOM      5  C   UNL     1      14.491  34.783  13.286  1.00  0.00     0.006 C 
BRANCH   5   6
ATOM      6  C   UNL     1      14.003  35.950  12.409  1.00  0.00    -0.003 C 
ATOM      7  C   UNL     1      12.851  36.729  13.042  1.00  0.00     0.004 C 
ENDBRANCH   5   6
ENDBRANCH   1   5
TORSDOF 3
ENDMDL
MODEL 4
REMARK VINA RESULT:    -3.530     15.795     16.781
REMARK INTER + INTRA:          -4.241
REMARK INTER:                  -4.222
REMARK INTRA:                  -0.019
REMARK UNBOUND:                -0.092
REMARK SMILES CCCCC(=O)[O-]
REMARK SMILES IDX 4 1 5 2 6 3 7 4 3 5 2 6 1 7
REMARK H PARENT
REMARK Flexibility Score: inf
ROOT
ATOM      1  C   UNL     1       5.086  47.463   9.126  1.00  0.00     0.053 C 
ENDROOT
BRANCH   1   2
ATOM      2  C   UNL     1       6.399  48.183   9.184  1.00  0.00     0.041 C 
ATOM      3  O   UNL     1       6.480  49.383   8.811  1.00  0.00    -0.550 OA
ATOM      4  O   UNL     1       7.539  47.518   9.618  1.00  0.00    -0.550 OA
ENDBRANCH   1   2
BRANCH   1   5
ATOM      5  C   UNL     1       5.031  46.287  10.115  1.00  0.00     0.006 C 
BRANCH   5   6
ATOM      6  C   UNL     1       3.644  46.054  10.740  1.00  0.00    -0.003 C 
ATOM      7  C   UNL     1       3.592  44.814  11.629  1.00  0.00     0.004 C 
ENDBRANCH   5   6
ENDBRANCH   1   5
TORSDOF 3
ENDMDL
MODEL 5
REMARK VINA RESULT:    -3.497     15.323     16.358
REMARK INTER + INTRA:          -4.202
REMARK INTER:                  -4.167
REMARK INTRA:                  -0.036
REMARK UNBOUND:                -0.092
REMARK SMILES CCCCC(=O)[O-]
REMARK SMILES IDX 4 1 5 2 6 3 7 4 3 5 2 6 1 7
REMARK H PARENT
REMARK Flexibility Score: inf
ROOT
ATOM      1  C   UNL     1       4.269  46.344  10.643  1.00  0.00     0.053 C 
ENDROOT
BRANCH   1   2
ATOM      2  C   UNL     1       4.279  44.858  10.836  1.00  0.00     0.041 C 
ATOM      3  O   UNL     1       4.077  44.092   9.858  1.00  0.00    -0.550 OA
ATOM      4  O   UNL     1       4.479  44.322  12.101  1.00  0.00    -0.550 OA
ENDBRANCH   1   2
BRANCH   1   5
ATOM      5  C   UNL     1       4.927  46.757   9.317  1.00  0.00     0.006 C 
BRANCH   5   6
ATOM      6  C   UNL     1       6.348  47.328   9.471  1.00  0.00    -0.003 C 
ATOM      7  C   UNL     1       6.429  48.819   9.148  1.00  0.00     0.004 C 
ENDBRANCH   5   6
ENDBRANCH   1   5
TORSDOF 3
ENDMDL
MODEL 6
REMARK VINA RESULT:    -3.413     15.490     16.680
REMARK INTER + INTRA:          -4.104
REMARK INTER:                  -4.080
REMARK INTRA:                  -0.024
REMARK UNBOUND:                -0.092
REMARK SMILES CCCCC(=O)[O-]
REMARK SMILES IDX 4 1 5 2 6 3 7 4 3 5 2 6 1 7
REMARK H PARENT
REMARK Flexibility Score: inf
ROOT
ATOM      1  C   UNL     1       4.897  46.238  10.036  1.00  0.00     0.053 C 
ENDROOT
BRANCH   1   2
ATOM      2  C   UNL     1       4.996  47.413   9.111  1.00  0.00     0.041 C 
ATOM      3  O   UNL     1       4.039  47.697   8.343  1.00  0.00    -0.550 OA
ATOM      4  O   UNL     1       6.158  48.173   9.075  1.00  0.00    -0.550 OA
ENDBRANCH   1   2
BRANCH   1   5
ATOM      5  C   UNL     1       3.535  46.180  10.748  1.00  0.00     0.006 C 
BRANCH   5   6
ATOM      6  C   UNL     1       3.218  44.817  11.388  1.00  0.00    -0.003 C 
ATOM      7  C   UNL     1       4.374  44.268  12.222  1.00  0.00     0.004 C 
ENDBRANCH   5   6
ENDBRANCH   1   5
TORSDOF 3
ENDMDL
MODEL 7
REMARK VINA RESULT:    -3.407     14.683     15.598
REMARK INTER + INTRA:          -4.097
REMARK INTER:                  -3.994
REMARK INTRA:                  -0.103
REMARK UNBOUND:                -0.092
REMARK SMILES CCCCC(=O)[O-]
REMARK SMILES IDX 4 1 5 2 6 3 7 4 3 5 2 6 1 7
REMARK H PARENT
REMARK Flexibility Score: inf
ROOT
ATOM      1  C   UNL     1       2.746  43.738  11.955  1.00  0.00     0.053 C 
ENDROOT
BRANCH   1   2
ATOM      2  C   UNL     1       2.813  42.433  11.221  1.00  0.00     0.041 C 
ATOM      3  O   UNL     1       2.965  41.357  11.856  1.00  0.00    -0.550 OA
ATOM      4  O   UNL     1       2.740  42.411   9.834  1.00  0.00    -0.550 OA
ENDBRANCH   1   2
BRANCH   1   5
ATOM      5  C   UNL     1       4.000  44.595  11.720  1.00  0.00     0.006 C 
BRANCH   5   6
ATOM      6  C   UNL     1       3.750  45.857  10.875  1.00  0.00    -0.003 C 
ATOM      7  C   UNL     1       4.315  45.747   9.460  1.00  0.00     0.004 C 
ENDBRANCH   5   6
ENDBRANCH   1   5
TORSDOF 3
ENDMDL
MODEL 8
REMARK VINA RESULT:    -3.371     14.361     15.418
REMARK INTER + INTRA:          -4.054
REMARK INTER:                  -3.957
REMARK INTRA:                  -0.097
REMARK UNBOUND:                -0.092
REMARK SMILES CCCCC(=O)[O-]
REMARK SMILES IDX 4 1 5 2 6 3 7 4 3 5 2 6 1 7
REMARK H PARENT
REMARK Flexibility Score: inf
ROOT
ATOM      1  C   UNL     1       4.120  44.478  11.837  1.00  0.00     0.053 C 
ENDROOT
BRANCH   1   2
ATOM      2  C   UNL     1       4.283  45.238  10.556  1.00  0.00     0.041 C 
ATOM      3  O   UNL     1       4.162  44.648   9.450  1.00  0.00    -0.550 OA
ATOM      4  O   UNL     1       4.602  46.590  10.585  1.00  0.00    -0.550 OA
ENDBRANCH   1   2
BRANCH   1   5
ATOM      5  C   UNL     1       2.649  44.129  12.115  1.00  0.00     0.006 C 
BRANCH   5   6
ATOM      6  C   UNL     1       2.232  42.729  11.632  1.00  0.00    -0.003 C 
ATOM      7  C   UNL     1       3.370  41.713  11.698  1.00  0.00     0.004 C 
ENDBRANCH   5   6
ENDBRANCH   1   5
TORSDOF 3
ENDMDL
MODEL 9
REMARK VINA RESULT:    -3.304     14.651     15.526
REMARK INTER + INTRA:          -3.975
REMARK INTER:                  -3.893
REMARK INTRA:                  -0.082
REMARK UNBOUND:                -0.092
REMARK SMILES CCCCC(=O)[O-]
REMARK SMILES IDX 4 1 5 2 6 3 7 4 3 5 2 6 1 7
REMARK H PARENT
REMARK Flexibility Score: inf
ROOT
ATOM      1  C   UNL     1       2.619  42.908   9.848  1.00  0.00     0.053 C 
ENDROOT
BRANCH   1   2
ATOM      2  C   UNL     1       2.655  42.451  11.275  1.00  0.00     0.041 C 
ATOM      3  O   UNL     1       1.727  42.769  12.065  1.00  0.00    -0.550 OA
ATOM      4  O   UNL     1       3.729  41.703  11.739  1.00  0.00    -0.550 OA
ENDBRANCH   1   2
BRANCH   1   5
ATOM      5  C   UNL     1       3.876  43.707   9.468  1.00  0.00     0.006 C 
BRANCH   5   6
ATOM      6  C   UNL     1       4.103  44.967  10.322  1.00  0.00    -0.003 C 
ATOM      7  C   UNL     1       4.561  46.169   9.499  1.00  0.00     0.004 C 
ENDBRANCH   5   6
ENDBRANCH   1   5
TORSDOF 3
ENDMDL
