MODEL 1
REMARK VINA RESULT:    -5.021      0.000      0.000
REMARK INTER + INTRA:         -13.129
REMARK INTER:                 -10.891
REMARK INTRA:                  -2.238
REMARK UNBOUND:                -2.238
REMARK SMILES CCCCCCCCCCCCCCCCCCCCCC(=O)[O-]
REMARK SMILES IDX 12 1 11 2 10 3 9 4 8 5 7 6 6 7 5 8 4 9 3 10 2 11 1 12 13 13
REMARK SMILES IDX 14 14 15 15 16 16 17 17 18 18 19 19 20 20 21 21 22 22 23 23
REMARK SMILES IDX 24 24
REMARK H PARENT
REMARK Flexibility Score: inf
ROOT
ATOM      1  C   UNL     1       0.760  44.024   8.130  1.00  0.00     0.000 C 
ENDROOT
BRANCH   1   2
ATOM      2  C   UNL     1       1.418  44.906   9.205  1.00  0.00     0.000 C 
BRANCH   2   3
ATOM      3  C   UNL     1       0.744  44.779  10.585  1.00  0.00     0.000 C 
BRANCH   3   4
ATOM      4  C   UNL     1       1.677  44.373  11.741  1.00  0.00    -0.000 C 
BRANCH   4   5
ATOM      5  C   UNL     1       3.107  44.914  11.580  1.00  0.00    -0.000 C 
BRANCH   5   6
ATOM      6  C   UNL     1       4.168  43.800  11.531  1.00  0.00    -0.000 C 
BRANCH   6   7
ATOM      7  C   UNL     1       3.738  42.510  10.802  1.00  0.00    -0.000 C 
BRANCH   7   8
ATOM      8  C   UNL     1       3.369  41.332  11.721  1.00  0.00    -0.000 C 
BRANCH   8   9
ATOM      9  C   UNL     1       4.556  40.838  12.562  1.00  0.00    -0.000 C 
BRANCH   9  10
ATOM     10  C   UNL     1       4.270  39.449  13.151  1.00  0.00    -0.000 C 
BRANCH  10  11
ATOM     11  C   UNL     1       2.845  38.962  12.849  1.00  0.00    -0.003 C 
ATOM     12  C   UNL     1       2.821  37.620  12.117  1.00  0.00     0.004 C 
ENDBRANCH  10  11
ENDBRANCH   9  10
ENDBRANCH   8   9
ENDBRANCH   7   8
ENDBRANCH   6   7
ENDBRANCH   5   6
ENDBRANCH   4   5
ENDBRANCH   3   4
ENDBRANCH   2   3
ENDBRANCH   1   2
BRANCH   1  13
ATOM     13  C   UNL     1      -0.021  44.844   7.090  1.00  0.00     0.000 C 
BRANCH  13  14
ATOM     14  C   UNL     1      -0.938  45.899   7.729  1.00  0.00     0.000 C 
BRANCH  14  15
ATOM     15  C   UNL     1      -0.511  47.316   7.317  1.00  0.00     0.000 C 
BRANCH  15  16
ATOM     16  C   UNL     1      -0.264  48.234   8.525  1.00  0.00     0.000 C 
BRANCH  16  17
ATOM     17  C   UNL     1       1.228  48.515   8.759  1.00  0.00     0.000 C 
BRANCH  17  18
ATOM     18  C   UNL     1       2.089  47.823   7.692  1.00  0.00     0.000 C 
BRANCH  18  19
ATOM     19  C   UNL     1       3.589  48.146   7.825  1.00  0.00     0.000 C 
BRANCH  19  20
ATOM     20  C   UNL     1       4.446  47.015   8.424  1.00  0.00     0.006 C 
BRANCH  20  21
ATOM     21  C   UNL     1       5.165  47.430   9.714  1.00  0.00     0.053 C 
BRANCH  21  22
ATOM     22  C   UNL     1       6.492  48.045   9.399  1.00  0.00     0.041 C 
ATOM     23  O   UNL     1       7.551  47.376   9.535  1.00  0.00    -0.550 OA
ATOM     24  O   UNL     1       6.563  49.369   8.983  1.00  0.00    -0.550 OA
ENDBRANCH  21  22
ENDBRANCH  20  21
ENDBRANCH  19  20
ENDBRANCH  18  19
ENDBRANCH  17  18
ENDBRANCH  16  17
ENDBRANCH  15  16
ENDBRANCH  14  15
ENDBRANCH  13  14
ENDBRANCH   1  13
TORSDOF 20
ENDMDL
MODEL 2
REMARK VINA RESULT:    -4.882      3.496      7.538
REMARK INTER + INTRA:         -12.828
REMARK INTER:                 -10.429
REMARK INTRA:                  -2.399
REMARK UNBOUND:                -2.238
REMARK SMILES CCCCCCCCCCCCCCCCCCCCCC(=O)[O-]
REMARK SMILES IDX 12 1 11 2 10 3 9 4 8 5 7 6 6 7 5 8 4 9 3 10 2 11 1 12 13 13
REMARK SMILES IDX 14 14 15 15 16 16 17 17 18 18 19 19 20 20 21 21 22 22 23 23
REMARK SMILES IDX 24 24
REMARK H PARENT
REMARK Flexibility Score: inf
ROOT
ATOM      1  C   UNL     1       1.142  44.217   8.848  1.00  0.00     0.000 C 
ENDROOT
BRANCH   1   2
ATOM      2  C   UNL     1       0.407  44.347   7.503  1.00  0.00     0.000 C 
BRANCH   2   3
ATOM      3  C   UNL     1      -0.316  45.698   7.339  1.00  0.00     0.000 C 
BRANCH   3   4
ATOM      4  C   UNL     1      -0.892  46.301   8.634  1.00  0.00    -0.000 C 
BRANCH   4   5
ATOM      5  C   UNL     1      -0.173  47.588   9.070  1.00  0.00    -0.000 C 
BRANCH   5   6
ATOM      6  C   UNL     1       0.237  48.478   7.883  1.00  0.00    -0.000 C 
BRANCH   6   7
ATOM      7  C   UNL     1       1.728  48.870   7.834  1.00  0.00    -0.000 C 
BRANCH   7   8
ATOM      8  C   UNL     1       2.715  47.690   7.855  1.00  0.00    -0.000 C 
BRANCH   8   9
ATOM      9  C   UNL     1       4.181  48.138   7.758  1.00  0.00    -0.000 C 
BRANCH   9  10
ATOM     10  C   UNL     1       4.950  47.777   9.038  1.00  0.00    -0.000 C 
BRANCH  10  11
ATOM     11  C   UNL     1       6.326  48.456   9.111  1.00  0.00    -0.003 C 
ATOM     12  C   UNL     1       7.450  47.480   9.461  1.00  0.00     0.004 C 
ENDBRANCH  10  11
ENDBRANCH   9  10
ENDBRANCH   8   9
ENDBRANCH   7   8
ENDBRANCH   6   7
ENDBRANCH   5   6
ENDBRANCH   4   5
ENDBRANCH   3   4
ENDBRANCH   2   3
ENDBRANCH   1   2
BRANCH   1  13
ATOM     13  C   UNL     1       2.316  43.227   8.786  1.00  0.00     0.000 C 
BRANCH  13  14
ATOM     14  C   UNL     1       3.661  43.873   9.154  1.00  0.00     0.000 C 
BRANCH  14  15
ATOM     15  C   UNL     1       3.465  44.994  10.187  1.00  0.00     0.000 C 
BRANCH  15  16
ATOM     16  C   UNL     1       4.450  44.895  11.362  1.00  0.00     0.000 C 
BRANCH  16  17
ATOM     17  C   UNL     1       3.986  43.905  12.441  1.00  0.00     0.000 C 
BRANCH  17  18
ATOM     18  C   UNL     1       2.476  43.648  12.333  1.00  0.00     0.000 C 
BRANCH  18  19
ATOM     19  C   UNL     1       2.121  42.149  12.298  1.00  0.00     0.000 C 
BRANCH  19  20
ATOM     20  C   UNL     1       3.266  41.222  11.849  1.00  0.00     0.006 C 
BRANCH  20  21
ATOM     21  C   UNL     1       3.586  40.128  12.876  1.00  0.00     0.053 C 
BRANCH  21  22
ATOM     22  C   UNL     1       2.603  39.006  12.768  1.00  0.00     0.041 C 
ATOM     23  O   UNL     1       2.924  37.933  12.191  1.00  0.00    -0.550 OA
ATOM     24  O   UNL     1       1.319  39.155  13.278  1.00  0.00    -0.550 OA
ENDBRANCH  21  22
ENDBRANCH  20  21
ENDBRANCH  19  20
ENDBRANCH  18  19
ENDBRANCH  17  18
ENDBRANCH  16  17
ENDBRANCH  15  16
ENDBRANCH  14  15
ENDBRANCH  13  14
ENDBRANCH   1  13
TORSDOF 20
ENDMDL
MODEL 3
REMARK VINA RESULT:    -4.817      4.047      8.721
REMARK INTER + INTRA:         -12.687
REMARK INTER:                 -10.507
REMARK INTRA:                  -2.180
REMARK UNBOUND:                -2.238
REMARK SMILES CCCCCCCCCCCCCCCCCCCCCC(=O)[O-]
REMARK SMILES IDX 12 1 11 2 10 3 9 4 8 5 7 6 6 7 5 8 4 9 3 10 2 11 1 12 13 13
REMARK SMILES IDX 14 14 15 15 16 16 17 17 18 18 19 19 20 20 21 21 22 22 23 23
REMARK SMILES IDX 24 24
REMARK H PARENT
REMARK Flexibility Score: inf
ROOT
ATOM      1  C   UNL     1       3.670  44.202   9.489  1.00  0.00     0.000 C 
ENDROOT
BRANCH   1   2
ATOM      2  C   UNL     1       2.472  43.410   8.938  1.00  0.00     0.000 C 
BRANCH   2   3
ATOM      3  C   UNL     1       1.136  44.166   9.073  1.00  0.00     0.000 C 
BRANCH   3   4
ATOM      4  C   UNL     1       0.497  44.623   7.748  1.00  0.00    -0.000 C 
BRANCH   4   5
ATOM      5  C   UNL     1       0.344  46.150   7.649  1.00  0.00    -0.000 C 
BRANCH   5   6
ATOM      6  C   UNL     1       0.578  46.864   8.993  1.00  0.00    -0.000 C 
BRANCH   6   7
ATOM      7  C   UNL     1       1.838  47.752   9.059  1.00  0.00    -0.000 C 
BRANCH   7   8
ATOM      8  C   UNL     1       2.670  47.802   7.766  1.00  0.00    -0.000 C 
BRANCH   8   9
ATOM      9  C   UNL     1       4.100  48.312   7.997  1.00  0.00    -0.000 C 
BRANCH   9  10
ATOM     10  C   UNL     1       4.875  47.368   8.928  1.00  0.00    -0.000 C 
BRANCH  10  11
ATOM     11  C   UNL     1       6.232  47.946   9.359  1.00  0.00    -0.003 C 
ATOM     12  C   UNL     1       6.455  49.371   8.852  1.00  0.00     0.004 C 
ENDBRANCH  10  11
ENDBRANCH   9  10
ENDBRANCH   8   9
ENDBRANCH   7   8
ENDBRANCH   6   7
ENDBRANCH   5   6
ENDBRANCH   4   5
ENDBRANCH   3   4
ENDBRANCH   2   3
ENDBRANCH   1   2
BRANCH   1  13
ATOM     13  C   UNL     1       3.350  44.909  10.816  1.00  0.00     0.000 C 
BRANCH  13  14
ATOM     14  C   UNL     1       3.474  43.978  12.033  1.00  0.00     0.000 C 
BRANCH  14  15
ATOM     15  C   UNL     1       2.108  43.385  12.410  1.00  0.00     0.000 C 
BRANCH  15  16
ATOM     16  C   UNL     1       2.196  41.906  12.815  1.00  0.00     0.000 C 
BRANCH  16  17
ATOM     17  C   UNL     1       3.089  41.086  11.872  1.00  0.00     0.000 C 
BRANCH  17  18
ATOM     18  C   UNL     1       4.211  40.386  12.653  1.00  0.00     0.000 C 
BRANCH  18  19
ATOM     19  C   UNL     1       3.938  38.888  12.888  1.00  0.00     0.000 C 
BRANCH  19  20
ATOM     20  C   UNL     1       2.508  38.428  12.547  1.00  0.00     0.006 C 
BRANCH  20  21
ATOM     21  C   UNL     1       2.471  37.065  11.846  1.00  0.00     0.053 C 
BRANCH  21  22
ATOM     22  C   UNL     1       1.092  36.486  11.898  1.00  0.00     0.041 C 
ATOM     23  O   UNL     1       0.862  35.346  11.415  1.00  0.00    -0.550 OA
ATOM     24  O   UNL     1       0.051  37.220  12.455  1.00  0.00    -0.550 OA
ENDBRANCH  21  22
ENDBRANCH  20  21
ENDBRANCH  19  20
ENDBRANCH  18  19
ENDBRANCH  17  18
ENDBRANCH  16  17
ENDBRANCH  15  16
ENDBRANCH  14  15
ENDBRANCH  13  14
ENDBRANCH   1  13
TORSDOF 20
ENDMDL
MODEL 4
REMARK VINA RESULT:    -4.768      1.527      1.840
REMARK INTER + INTRA:         -12.580
REMARK INTER:                 -10.051
REMARK INTRA:                  -2.529
REMARK UNBOUND:                -2.238
REMARK SMILES CCCCCCCCCCCCCCCCCCCCCC(=O)[O-]
REMARK SMILES IDX 12 1 11 2 10 3 9 4 8 5 7 6 6 7 5 8 4 9 3 10 2 11 1 12 13 13
REMARK SMILES IDX 14 14 15 15 16 16 17 17 18 18 19 19 20 20 21 21 22 22 23 23
REMARK SMILES IDX 24 24
REMARK H PARENT
REMARK Flexibility Score: inf
ROOT
ATOM      1  C   UNL     1       0.920  44.270   8.747  1.00  0.00     0.000 C 
ENDROOT
BRANCH   1   2
ATOM      2  C   UNL     1       0.819  44.854  10.167  1.00  0.00     0.000 C 
BRANCH   2   3
ATOM      3  C   UNL     1       2.119  45.537  10.631  1.00  0.00     0.000 C 
BRANCH   3   4
ATOM      4  C   UNL     1       3.423  44.824  10.225  1.00  0.00    -0.000 C 
BRANCH   4   5
ATOM      5  C   UNL     1       4.453  44.756  11.365  1.00  0.00    -0.000 C 
BRANCH   5   6
ATOM      6  C   UNL     1       4.280  43.512  12.255  1.00  0.00    -0.000 C 
BRANCH   6   7
ATOM      7  C   UNL     1       3.682  42.275  11.553  1.00  0.00    -0.000 C 
BRANCH   7   8
ATOM      8  C   UNL     1       2.334  41.792  12.116  1.00  0.00    -0.000 C 
BRANCH   8   9
ATOM      9  C   UNL     1       2.429  40.415  12.790  1.00  0.00    -0.000 C 
BRANCH   9  10
ATOM     10  C   UNL     1       1.165  40.117  13.610  1.00  0.00    -0.000 C 
BRANCH  10  11
ATOM     11  C   UNL     1       0.282  41.360  13.805  1.00  0.00    -0.003 C 
ATOM     12  C   UNL     1      -0.894  41.107  14.749  1.00  0.00     0.004 C 
ENDBRANCH  10  11
ENDBRANCH   9  10
ENDBRANCH   8   9
ENDBRANCH   7   8
ENDBRANCH   6   7
ENDBRANCH   5   6
ENDBRANCH   4   5
ENDBRANCH   3   4
ENDBRANCH   2   3
ENDBRANCH   1   2
BRANCH   1  13
ATOM     13  C   UNL     1       0.215  45.144   7.698  1.00  0.00     0.000 C 
BRANCH  13  14
ATOM     14  C   UNL     1      -0.801  46.117   8.317  1.00  0.00     0.000 C 
BRANCH  14  15
ATOM     15  C   UNL     1      -1.054  47.311   7.384  1.00  0.00     0.000 C 
BRANCH  15  16
ATOM     16  C   UNL     1      -0.564  48.641   7.979  1.00  0.00     0.000 C 
BRANCH  16  17
ATOM     17  C   UNL     1       0.784  48.503   8.704  1.00  0.00     0.000 C 
BRANCH  17  18
ATOM     18  C   UNL     1       1.952  48.727   7.734  1.00  0.00     0.000 C 
BRANCH  18  19
ATOM     19  C   UNL     1       3.066  47.672   7.878  1.00  0.00     0.000 C 
BRANCH  19  20
ATOM     20  C   UNL     1       4.481  48.246   8.077  1.00  0.00     0.006 C 
BRANCH  20  21
ATOM     21  C   UNL     1       5.229  47.598   9.249  1.00  0.00     0.053 C 
BRANCH  21  22
ATOM     22  C   UNL     1       6.577  48.222   9.419  1.00  0.00     0.041 C 
ATOM     23  O   UNL     1       7.614  47.507   9.417  1.00  0.00    -0.550 OA
ATOM     24  O   UNL     1       6.688  49.595   9.611  1.00  0.00    -0.550 OA
ENDBRANCH  21  22
ENDBRANCH  20  21
ENDBRANCH  19  20
ENDBRANCH  18  19
ENDBRANCH  17  18
ENDBRANCH  16  17
ENDBRANCH  15  16
ENDBRANCH  14  15
ENDBRANCH  13  14
ENDBRANCH   1  13
TORSDOF 20
ENDMDL
MODEL 5
REMARK VINA RESULT:    -4.766      1.260      1.815
REMARK INTER + INTRA:         -12.576
REMARK INTER:                  -9.860
REMARK INTRA:                  -2.717
REMARK UNBOUND:                -2.238
REMARK SMILES CCCCCCCCCCCCCCCCCCCCCC(=O)[O-]
REMARK SMILES IDX 12 1 11 2 10 3 9 4 8 5 7 6 6 7 5 8 4 9 3 10 2 11 1 12 13 13
REMARK SMILES IDX 14 14 15 15 16 16 17 17 18 18 19 19 20 20 21 21 22 22 23 23
REMARK SMILES IDX 24 24
REMARK H PARENT
REMARK Flexibility Score: inf
ROOT
ATOM      1  C   UNL     1       1.194  44.103   8.858  1.00  0.00     0.000 C 
ENDROOT
BRANCH   1   2
ATOM      2  C   UNL     1       2.309  43.046   8.792  1.00  0.00     0.000 C 
BRANCH   2   3
ATOM      3  C   UNL     1       3.630  43.522   9.426  1.00  0.00     0.000 C 
BRANCH   3   4
ATOM      4  C   UNL     1       3.919  42.979  10.838  1.00  0.00    -0.000 C 
BRANCH   4   5
ATOM      5  C   UNL     1       3.534  43.966  11.953  1.00  0.00    -0.000 C 
BRANCH   5   6
ATOM      6  C   UNL     1       2.032  43.936  12.287  1.00  0.00    -0.000 C 
BRANCH   6   7
ATOM      7  C   UNL     1       1.359  42.551  12.184  1.00  0.00    -0.000 C 
BRANCH   7   8
ATOM      8  C   UNL     1       1.168  41.817  13.522  1.00  0.00    -0.000 C 
BRANCH   8   9
ATOM      9  C   UNL     1       1.518  40.323  13.437  1.00  0.00    -0.000 C 
BRANCH   9  10
ATOM     10  C   UNL     1       2.742  40.098  12.537  1.00  0.00    -0.000 C 
BRANCH  10  11
ATOM     11  C   UNL     1       3.465  38.777  12.845  1.00  0.00    -0.003 C 
ATOM     12  C   UNL     1       2.870  37.588  12.091  1.00  0.00     0.004 C 
ENDBRANCH  10  11
ENDBRANCH   9  10
ENDBRANCH   8   9
ENDBRANCH   7   8
ENDBRANCH   6   7
ENDBRANCH   5   6
ENDBRANCH   4   5
ENDBRANCH   3   4
ENDBRANCH   2   3
ENDBRANCH   1   2
BRANCH   1  13
ATOM     13  C   UNL     1       0.487  44.302   7.508  1.00  0.00     0.000 C 
BRANCH  13  14
ATOM     14  C   UNL     1      -0.181  45.680   7.382  1.00  0.00     0.000 C 
BRANCH  14  15
ATOM     15  C   UNL     1      -0.329  46.345   8.759  1.00  0.00     0.000 C 
BRANCH  15  16
ATOM     16  C   UNL     1       0.571  47.581   8.919  1.00  0.00     0.000 C 
BRANCH  16  17
ATOM     17  C   UNL     1       1.565  47.744   7.760  1.00  0.00     0.000 C 
BRANCH  17  18
ATOM     18  C   UNL     1       3.006  47.518   8.239  1.00  0.00     0.000 C 
BRANCH  18  19
ATOM     19  C   UNL     1       3.091  47.117   9.724  1.00  0.00     0.000 C 
BRANCH  19  20
ATOM     20  C   UNL     1       4.518  47.065  10.301  1.00  0.00     0.006 C 
BRANCH  20  21
ATOM     21  C   UNL     1       5.595  46.927   9.218  1.00  0.00     0.053 C 
BRANCH  21  22
ATOM     22  C   UNL     1       6.767  47.803   9.530  1.00  0.00     0.041 C 
ATOM     23  O   UNL     1       7.925  47.313   9.605  1.00  0.00    -0.550 OA
ATOM     24  O   UNL     1       6.576  49.159   9.771  1.00  0.00    -0.550 OA
ENDBRANCH  21  22
ENDBRANCH  20  21
ENDBRANCH  19  20
ENDBRANCH  18  19
ENDBRANCH  17  18
ENDBRANCH  16  17
ENDBRANCH  15  16
ENDBRANCH  14  15
ENDBRANCH  13  14
ENDBRANCH   1  13
TORSDOF 20
ENDMDL
MODEL 6
REMARK VINA RESULT:    -4.663      1.163      2.247
REMARK INTER + INTRA:         -12.354
REMARK INTER:                 -10.796
REMARK INTRA:                  -1.558
REMARK UNBOUND:                -2.238
REMARK SMILES CCCCCCCCCCCCCCCCCCCCCC(=O)[O-]
REMARK SMILES IDX 12 1 11 2 10 3 9 4 8 5 7 6 6 7 5 8 4 9 3 10 2 11 1 12 13 13
REMARK SMILES IDX 14 14 15 15 16 16 17 17 18 18 19 19 20 20 21 21 22 22 23 23
REMARK SMILES IDX 24 24
REMARK H PARENT
REMARK Flexibility Score: inf
ROOT
ATOM      1  C   UNL     1       2.889  43.448   9.096  1.00  0.00     0.000 C 
ENDROOT
BRANCH   1   2
ATOM      2  C   UNL     1       3.738  44.407   9.947  1.00  0.00     0.000 C 
BRANCH   2   3
ATOM      3  C   UNL     1       4.108  43.826  11.324  1.00  0.00     0.000 C 
BRANCH   3   4
ATOM      4  C   UNL     1       2.966  43.793  12.357  1.00  0.00    -0.000 C 
BRANCH   4   5
ATOM      5  C   UNL     1       2.325  42.404  12.502  1.00  0.00    -0.000 C 
BRANCH   5   6
ATOM      6  C   UNL     1       3.119  41.299  11.782  1.00  0.00    -0.000 C 
BRANCH   6   7
ATOM      7  C   UNL     1       4.317  40.726  12.568  1.00  0.00    -0.000 C 
BRANCH   7   8
ATOM      8  C   UNL     1       4.185  39.247  12.971  1.00  0.00    -0.000 C 
BRANCH   8   9
ATOM      9  C   UNL     1       2.726  38.767  13.009  1.00  0.00    -0.000 C 
BRANCH   9  10
ATOM     10  C   UNL     1       2.527  37.546  12.099  1.00  0.00    -0.000 C 
BRANCH  10  11
ATOM     11  C   UNL     1       1.064  37.078  12.051  1.00  0.00    -0.003 C 
ATOM     12  C   UNL     1       0.925  35.619  11.614  1.00  0.00     0.004 C 
ENDBRANCH  10  11
ENDBRANCH   9  10
ENDBRANCH   8   9
ENDBRANCH   7   8
ENDBRANCH   6   7
ENDBRANCH   5   6
ENDBRANCH   4   5
ENDBRANCH   3   4
ENDBRANCH   2   3
ENDBRANCH   1   2
BRANCH   1  13
ATOM     13  C   UNL     1       1.461  43.968   8.866  1.00  0.00     0.000 C 
BRANCH  13  14
ATOM     14  C   UNL     1       0.910  44.750  10.069  1.00  0.00     0.000 C 
BRANCH  14  15
ATOM     15  C   UNL     1       0.137  45.994   9.606  1.00  0.00     0.000 C 
BRANCH  15  16
ATOM     16  C   UNL     1       0.160  46.172   8.079  1.00  0.00     0.000 C 
BRANCH  16  17
ATOM     17  C   UNL     1       0.334  47.639   7.657  1.00  0.00     0.000 C 
BRANCH  17  18
ATOM     18  C   UNL     1       1.605  48.239   8.276  1.00  0.00     0.000 C 
BRANCH  18  19
ATOM     19  C   UNL     1       2.860  47.383   8.023  1.00  0.00     0.000 C 
BRANCH  19  20
ATOM     20  C   UNL     1       4.197  48.133   8.175  1.00  0.00     0.006 C 
BRANCH  20  21
ATOM     21  C   UNL     1       5.151  47.456   9.168  1.00  0.00     0.053 C 
BRANCH  21  22
ATOM     22  C   UNL     1       6.461  48.176   9.208  1.00  0.00     0.041 C 
ATOM     23  O   UNL     1       7.511  47.568   9.548  1.00  0.00    -0.550 OA
ATOM     24  O   UNL     1       6.520  49.531   8.901  1.00  0.00    -0.550 OA
ENDBRANCH  21  22
ENDBRANCH  20  21
ENDBRANCH  19  20
ENDBRANCH  18  19
ENDBRANCH  17  18
ENDBRANCH  16  17
ENDBRANCH  15  16
ENDBRANCH  14  15
ENDBRANCH  13  14
ENDBRANCH   1  13
TORSDOF 20
ENDMDL
MODEL 7
REMARK VINA RESULT:    -4.634      3.267      7.665
REMARK INTER + INTRA:         -12.289
REMARK INTER:                 -10.051
REMARK INTRA:                  -2.238
REMARK UNBOUND:                -2.238
REMARK SMILES CCCCCCCCCCCCCCCCCCCCCC(=O)[O-]
REMARK SMILES IDX 12 1 11 2 10 3 9 4 8 5 7 6 6 7 5 8 4 9 3 10 2 11 1 12 13 13
REMARK SMILES IDX 14 14 15 15 16 16 17 17 18 18 19 19 20 20 21 21 22 22 23 23
REMARK SMILES IDX 24 24
REMARK H PARENT
REMARK Flexibility Score: inf
ROOT
ATOM      1  C   UNL     1       3.630  43.347   9.289  1.00  0.00     0.000 C 
ENDROOT
BRANCH   1   2
ATOM      2  C   UNL     1       2.201  43.055   8.801  1.00  0.00     0.000 C 
BRANCH   2   3
ATOM      3  C   UNL     1       1.238  44.239   9.009  1.00  0.00     0.000 C 
BRANCH   3   4
ATOM      4  C   UNL     1       0.554  44.768   7.734  1.00  0.00    -0.000 C 
BRANCH   4   5
ATOM      5  C   UNL     1       0.180  46.257   7.826  1.00  0.00    -0.000 C 
BRANCH   5   6
ATOM      6  C   UNL     1       0.664  46.918   9.128  1.00  0.00    -0.000 C 
BRANCH   6   7
ATOM      7  C   UNL     1       1.864  47.876   8.977  1.00  0.00    -0.000 C 
BRANCH   7   8
ATOM      8  C   UNL     1       2.420  48.005   7.549  1.00  0.00    -0.000 C 
BRANCH   8   9
ATOM      9  C   UNL     1       3.897  48.429   7.521  1.00  0.00    -0.000 C 
BRANCH   9  10
ATOM     10  C   UNL     1       4.655  47.856   8.727  1.00  0.00    -0.000 C 
BRANCH  10  11
ATOM     11  C   UNL     1       6.005  48.551   8.960  1.00  0.00    -0.003 C 
ATOM     12  C   UNL     1       7.105  47.579   9.388  1.00  0.00     0.004 C 
ENDBRANCH  10  11
ENDBRANCH   9  10
ENDBRANCH   8   9
ENDBRANCH   7   8
ENDBRANCH   6   7
ENDBRANCH   5   6
ENDBRANCH   4   5
ENDBRANCH   3   4
ENDBRANCH   2   3
ENDBRANCH   1   2
BRANCH   1  13
ATOM     13  C   UNL     1       3.907  44.852   9.437  1.00  0.00     0.000 C 
BRANCH  13  14
ATOM     14  C   UNL     1       3.802  45.338  10.891  1.00  0.00     0.000 C 
BRANCH  14  15
ATOM     15  C   UNL     1       4.482  44.348  11.850  1.00  0.00     0.000 C 
BRANCH  15  16
ATOM     16  C   UNL     1       3.487  43.674  12.807  1.00  0.00     0.000 C 
BRANCH  16  17
ATOM     17  C   UNL     1       2.026  44.013  12.477  1.00  0.00     0.000 C 
BRANCH  17  18
ATOM     18  C   UNL     1       1.244  42.747  12.096  1.00  0.00     0.000 C 
BRANCH  18  19
ATOM     19  C   UNL     1       0.786  41.931  13.319  1.00  0.00     0.000 C 
BRANCH  19  20
ATOM     20  C   UNL     1       1.472  40.561  13.478  1.00  0.00     0.006 C 
BRANCH  20  21
ATOM     21  C   UNL     1       2.604  40.340  12.467  1.00  0.00     0.053 C 
BRANCH  21  22
ATOM     22  C   UNL     1       3.347  39.080  12.781  1.00  0.00     0.041 C 
ATOM     23  O   UNL     1       2.882  37.963  12.429  1.00  0.00    -0.550 OA
ATOM     24  O   UNL     1       4.541  39.135  13.491  1.00  0.00    -0.550 OA
ENDBRANCH  21  22
ENDBRANCH  20  21
ENDBRANCH  19  20
ENDBRANCH  18  19
ENDBRANCH  17  18
ENDBRANCH  16  17
ENDBRANCH  15  16
ENDBRANCH  14  15
ENDBRANCH  13  14
ENDBRANCH   1  13
TORSDOF 20
ENDMDL
MODEL 8
REMARK VINA RESULT:    -4.429      3.606      7.858
REMARK INTER + INTRA:         -11.846
REMARK INTER:                  -9.699
REMARK INTRA:                  -2.147
REMARK UNBOUND:                -2.238
REMARK SMILES CCCCCCCCCCCCCCCCCCCCCC(=O)[O-]
REMARK SMILES IDX 12 1 11 2 10 3 9 4 8 5 7 6 6 7 5 8 4 9 3 10 2 11 1 12 13 13
REMARK SMILES IDX 14 14 15 15 16 16 17 17 18 18 19 19 20 20 21 21 22 22 23 23
REMARK SMILES IDX 24 24
REMARK H PARENT
REMARK Flexibility Score: inf
ROOT
ATOM      1  C   UNL     1       1.083  44.324   8.919  1.00  0.00     0.000 C 
ENDROOT
BRANCH   1   2
ATOM      2  C   UNL     1       0.092  44.763   7.829  1.00  0.00     0.000 C 
BRANCH   2   3
ATOM      3  C   UNL     1      -0.769  45.970   8.247  1.00  0.00     0.000 C 
BRANCH   3   4
ATOM      4  C   UNL     1      -0.758  47.161   7.270  1.00  0.00    -0.000 C 
BRANCH   4   5
ATOM      5  C   UNL     1      -0.573  48.516   7.974  1.00  0.00    -0.000 C 
BRANCH   5   6
ATOM      6  C   UNL     1       0.875  49.034   7.904  1.00  0.00    -0.000 C 
BRANCH   6   7
ATOM      7  C   UNL     1       1.937  48.120   8.549  1.00  0.00    -0.000 C 
BRANCH   7   8
ATOM      8  C   UNL     1       3.233  47.950   7.738  1.00  0.00    -0.000 C 
BRANCH   8   9
ATOM      9  C   UNL     1       4.464  47.709   8.625  1.00  0.00    -0.000 C 
BRANCH   9  10
ATOM     10  C   UNL     1       5.540  48.775   8.371  1.00  0.00    -0.000 C 
BRANCH  10  11
ATOM     11  C   UNL     1       6.684  48.714   9.395  1.00  0.00    -0.003 C 
ATOM     12  C   UNL     1       7.369  47.348   9.434  1.00  0.00     0.004 C 
ENDBRANCH  10  11
ENDBRANCH   9  10
ENDBRANCH   8   9
ENDBRANCH   7   8
ENDBRANCH   6   7
ENDBRANCH   5   6
ENDBRANCH   4   5
ENDBRANCH   3   4
ENDBRANCH   2   3
ENDBRANCH   1   2
BRANCH   1  13
ATOM     13  C   UNL     1       0.941  45.143  10.212  1.00  0.00     0.000 C 
BRANCH  13  14
ATOM     14  C   UNL     1       2.295  45.568  10.801  1.00  0.00     0.000 C 
BRANCH  14  15
ATOM     15  C   UNL     1       3.406  44.595  10.379  1.00  0.00     0.000 C 
BRANCH  15  16
ATOM     16  C   UNL     1       4.434  44.349  11.495  1.00  0.00     0.000 C 
BRANCH  16  17
ATOM     17  C   UNL     1       4.147  43.067  12.291  1.00  0.00     0.000 C 
BRANCH  17  18
ATOM     18  C   UNL     1       3.161  42.163  11.536  1.00  0.00     0.000 C 
BRANCH  18  19
ATOM     19  C   UNL     1       3.155  40.713  12.055  1.00  0.00     0.000 C 
BRANCH  19  20
ATOM     20  C   UNL     1       2.118  40.422  13.155  1.00  0.00     0.006 C 
BRANCH  20  21
ATOM     21  C   UNL     1       0.990  41.460  13.202  1.00  0.00     0.053 C 
BRANCH  21  22
ATOM     22  C   UNL     1      -0.091  41.018  14.137  1.00  0.00     0.041 C 
ATOM     23  O   UNL     1      -0.084  41.392  15.340  1.00  0.00    -0.550 OA
ATOM     24  O   UNL     1      -1.092  40.164  13.687  1.00  0.00    -0.550 OA
ENDBRANCH  21  22
ENDBRANCH  20  21
ENDBRANCH  19  20
ENDBRANCH  18  19
ENDBRANCH  17  18
ENDBRANCH  16  17
ENDBRANCH  15  16
ENDBRANCH  14  15
ENDBRANCH  13  14
ENDBRANCH   1  13
TORSDOF 20
ENDMDL
MODEL 9
REMARK VINA RESULT:    -4.365      3.158      7.487
REMARK INTER + INTRA:         -11.706
REMARK INTER:                  -9.257
REMARK INTRA:                  -2.449
REMARK UNBOUND:                -2.238
REMARK SMILES CCCCCCCCCCCCCCCCCCCCCC(=O)[O-]
REMARK SMILES IDX 12 1 11 2 10 3 9 4 8 5 7 6 6 7 5 8 4 9 3 10 2 11 1 12 13 13
REMARK SMILES IDX 14 14 15 15 16 16 17 17 18 18 19 19 20 20 21 21 22 22 23 23
REMARK SMILES IDX 24 24
REMARK H PARENT
REMARK Flexibility Score: inf
ROOT
ATOM      1  C   UNL     1       3.775  43.171   9.947  1.00  0.00     0.000 C 
ENDROOT
BRANCH   1   2
ATOM      2  C   UNL     1       4.348  43.321  11.366  1.00  0.00     0.000 C 
BRANCH   2   3
ATOM      3  C   UNL     1       4.759  44.767  11.701  1.00  0.00     0.000 C 
BRANCH   3   4
ATOM      4  C   UNL     1       4.033  45.864  10.899  1.00  0.00    -0.000 C 
BRANCH   4   5
ATOM      5  C   UNL     1       4.909  46.485   9.798  1.00  0.00    -0.000 C 
BRANCH   5   6
ATOM      6  C   UNL     1       4.093  47.266   8.752  1.00  0.00    -0.000 C 
BRANCH   6   7
ATOM      7  C   UNL     1       2.619  47.528   9.125  1.00  0.00    -0.000 C 
BRANCH   7   8
ATOM      8  C   UNL     1       1.621  47.416   7.960  1.00  0.00    -0.000 C 
BRANCH   8   9
ATOM      9  C   UNL     1       0.191  47.809   8.361  1.00  0.00    -0.000 C 
BRANCH   9  10
ATOM     10  C   UNL     1      -0.780  46.637   8.149  1.00  0.00    -0.000 C 
BRANCH  10  11
ATOM     11  C   UNL     1      -0.801  46.145   6.693  1.00  0.00    -0.003 C 
ATOM     12  C   UNL     1      -0.444  44.664   6.565  1.00  0.00     0.004 C 
ENDBRANCH  10  11
ENDBRANCH   9  10
ENDBRANCH   8   9
ENDBRANCH   7   8
ENDBRANCH   6   7
ENDBRANCH   5   6
ENDBRANCH   4   5
ENDBRANCH   3   4
ENDBRANCH   2   3
ENDBRANCH   1   2
BRANCH   1  13
ATOM     13  C   UNL     1       2.270  42.856   9.948  1.00  0.00     0.000 C 
BRANCH  13  14
ATOM     14  C   UNL     1       1.398  44.111   9.796  1.00  0.00     0.000 C 
BRANCH  14  15
ATOM     15  C   UNL     1       0.640  44.413  11.098  1.00  0.00     0.000 C 
BRANCH  15  16
ATOM     16  C   UNL     1       0.913  43.373  12.196  1.00  0.00     0.000 C 
BRANCH  16  17
ATOM     17  C   UNL     1      -0.377  42.828  12.828  1.00  0.00     0.000 C 
BRANCH  17  18
ATOM     18  C   UNL     1      -0.058  41.894  14.004  1.00  0.00     0.000 C 
BRANCH  18  19
ATOM     19  C   UNL     1      -0.147  40.402  13.631  1.00  0.00     0.000 C 
BRANCH  19  20
ATOM     20  C   UNL     1       1.196  39.650  13.641  1.00  0.00     0.006 C 
BRANCH  20  21
ATOM     21  C   UNL     1       2.296  40.381  12.861  1.00  0.00     0.053 C 
BRANCH  21  22
ATOM     22  C   UNL     1       3.525  39.534  12.770  1.00  0.00     0.041 C 
ATOM     23  O   UNL     1       3.430  38.294  12.567  1.00  0.00    -0.550 OA
ATOM     24  O   UNL     1       4.780  40.108  12.940  1.00  0.00    -0.550 OA
ENDBRANCH  21  22
ENDBRANCH  20  21
ENDBRANCH  19  20
ENDBRANCH  18  19
ENDBRANCH  17  18
ENDBRANCH  16  17
ENDBRANCH  15  16
ENDBRANCH  14  15
ENDBRANCH  13  14
ENDBRANCH   1  13
TORSDOF 20
ENDMDL
