MODEL 1
REMARK VINA RESULT:    -4.906      0.000      0.000
REMARK INTER + INTRA:          -6.142
REMARK INTER:                  -6.053
REMARK INTRA:                  -0.089
REMARK UNBOUND:                -0.089
REMARK SMILES CCCCCC(=O)[O-]
REMARK SMILES IDX 4 1 5 2 6 3 7 4 8 5 3 6 2 7 1 8
REMARK H PARENT
REMARK Flexibility Score: inf
ROOT
ATOM      1  C   UNL     1      -3.278   5.483   5.147  1.00  0.00     0.006 C 
ENDROOT
BRANCH   1   2
ATOM      2  C   UNL     1      -2.075   4.531   5.154  1.00  0.00     0.053 C 
BRANCH   2   3
ATOM      3  C   UNL     1      -2.425   3.254   5.853  1.00  0.00     0.041 C 
ATOM      4  O   UNL     1      -2.555   2.188   5.195  1.00  0.00    -0.550 OA
ATOM      5  O   UNL     1      -2.558   3.232   7.235  1.00  0.00    -0.550 OA
ENDBRANCH   2   3
ENDBRANCH   1   2
BRANCH   1   6
ATOM      6  C   UNL     1      -3.085   6.672   4.192  1.00  0.00     0.000 C 
BRANCH   6   7
ATOM      7  C   UNL     1      -3.812   7.937   4.669  1.00  0.00    -0.003 C 
ATOM      8  C   UNL     1      -4.312   7.777   6.103  1.00  0.00     0.004 C 
ENDBRANCH   6   7
ENDBRANCH   1   6
TORSDOF 4
ENDMDL
MODEL 2
REMARK VINA RESULT:    -4.337      3.442      4.404
REMARK INTER + INTRA:          -5.440
REMARK INTER:                  -5.377
REMARK INTRA:                  -0.064
REMARK UNBOUND:                -0.089
REMARK SMILES CCCCCC(=O)[O-]
REMARK SMILES IDX 4 1 5 2 6 3 7 4 8 5 3 6 2 7 1 8
REMARK H PARENT
REMARK Flexibility Score: inf
ROOT
ATOM      1  C   UNL     1      -4.933   7.185   6.685  1.00  0.00     0.006 C 
ENDROOT
BRANCH   1   2
ATOM      2  C   UNL     1      -4.174   6.322   5.668  1.00  0.00     0.053 C 
BRANCH   2   3
ATOM      3  C   UNL     1      -3.502   7.187   4.649  1.00  0.00     0.041 C 
ATOM      4  O   UNL     1      -3.932   8.348   4.421  1.00  0.00    -0.550 OA
ATOM      5  O   UNL     1      -2.370   6.729   3.987  1.00  0.00    -0.550 OA
ENDBRANCH   2   3
ENDBRANCH   1   2
BRANCH   1   6
ATOM      6  C   UNL     1      -5.743   6.345   7.685  1.00  0.00     0.000 C 
BRANCH   6   7
ATOM      7  C   UNL     1      -6.639   7.204   8.589  1.00  0.00    -0.003 C 
ATOM      8  C   UNL     1      -5.811   7.960   9.625  1.00  0.00     0.004 C 
ENDBRANCH   6   7
ENDBRANCH   1   6
TORSDOF 4
ENDMDL
MODEL 3
REMARK VINA RESULT:    -4.307      3.882      4.839
REMARK INTER + INTRA:          -5.403
REMARK INTER:                  -5.319
REMARK INTRA:                  -0.084
REMARK UNBOUND:                -0.089
REMARK SMILES CCCCCC(=O)[O-]
REMARK SMILES IDX 4 1 5 2 6 3 7 4 8 5 3 6 2 7 1 8
REMARK H PARENT
REMARK Flexibility Score: inf
ROOT
ATOM      1  C   UNL     1      -4.912   7.142   6.672  1.00  0.00     0.006 C 
ENDROOT
BRANCH   1   2
ATOM      2  C   UNL     1      -5.746   6.393   7.720  1.00  0.00     0.053 C 
BRANCH   2   3
ATOM      3  C   UNL     1      -6.302   7.350   8.726  1.00  0.00     0.041 C 
ATOM      4  O   UNL     1      -5.530   8.099   9.381  1.00  0.00    -0.550 OA
ATOM      5  O   UNL     1      -7.675   7.452   8.906  1.00  0.00    -0.550 OA
ENDBRANCH   2   3
ENDBRANCH   1   2
BRANCH   1   6
ATOM      6  C   UNL     1      -4.127   6.193   5.753  1.00  0.00     0.000 C 
BRANCH   6   7
ATOM      7  C   UNL     1      -3.487   6.920   4.562  1.00  0.00    -0.003 C 
ATOM      8  C   UNL     1      -3.847   8.403   4.564  1.00  0.00     0.004 C 
ENDBRANCH   6   7
ENDBRANCH   1   6
TORSDOF 4
ENDMDL
MODEL 4
REMARK VINA RESULT:    -4.085      2.895      4.554
REMARK INTER + INTRA:          -5.128
REMARK INTER:                  -5.063
REMARK INTRA:                  -0.066
REMARK UNBOUND:                -0.089
REMARK SMILES CCCCCC(=O)[O-]
REMARK SMILES IDX 4 1 5 2 6 3 7 4 8 5 3 6 2 7 1 8
REMARK H PARENT
REMARK Flexibility Score: inf
ROOT
ATOM      1  C   UNL     1      -3.622   5.443   5.107  1.00  0.00     0.006 C 
ENDROOT
BRANCH   1   2
ATOM      2  C   UNL     1      -3.489   6.835   4.474  1.00  0.00     0.053 C 
BRANCH   2   3
ATOM      3  C   UNL     1      -3.898   7.893   5.450  1.00  0.00     0.041 C 
ATOM      4  O   UNL     1      -4.679   7.613   6.397  1.00  0.00    -0.550 OA
ATOM      5  O   UNL     1      -3.378   9.176   5.343  1.00  0.00    -0.550 OA
ENDBRANCH   2   3
ENDBRANCH   1   2
BRANCH   1   6
ATOM      6  C   UNL     1      -2.273   4.720   5.233  1.00  0.00     0.000 C 
BRANCH   6   7
ATOM      7  C   UNL     1      -2.423   3.269   5.715  1.00  0.00    -0.003 C 
ATOM      8  C   UNL     1      -1.882   3.103   7.133  1.00  0.00     0.004 C 
ENDBRANCH   6   7
ENDBRANCH   1   6
TORSDOF 4
ENDMDL
MODEL 5
REMARK VINA RESULT:    -3.670     16.757     17.636
REMARK INTER + INTRA:          -4.616
REMARK INTER:                  -4.376
REMARK INTRA:                  -0.240
REMARK UNBOUND:                -0.089
REMARK SMILES CCCCCC(=O)[O-]
REMARK SMILES IDX 4 1 5 2 6 3 7 4 8 5 3 6 2 7 1 8
REMARK H PARENT
REMARK Flexibility Score: inf
ROOT
ATOM      1  C   UNL     1       0.654  -5.252  -6.345  1.00  0.00     0.006 C 
ENDROOT
BRANCH   1   2
ATOM      2  C   UNL     1       2.129  -5.080  -6.733  1.00  0.00     0.053 C 
BRANCH   2   3
ATOM      3  C   UNL     1       2.272  -5.014  -8.221  1.00  0.00     0.041 C 
ATOM      4  O   UNL     1       1.883  -3.994  -8.849  1.00  0.00    -0.550 OA
ATOM      5  O   UNL     1       2.881  -6.055  -8.909  1.00  0.00    -0.550 OA
ENDBRANCH   2   3
ENDBRANCH   1   2
BRANCH   1   6
ATOM      6  C   UNL     1       0.101  -6.634  -6.724  1.00  0.00     0.000 C 
BRANCH   6   7
ATOM      7  C   UNL     1      -0.941  -6.565  -7.851  1.00  0.00    -0.003 C 
ATOM      8  C   UNL     1      -1.571  -5.177  -7.932  1.00  0.00     0.004 C 
ENDBRANCH   6   7
ENDBRANCH   1   6
TORSDOF 4
ENDMDL
MODEL 6
REMARK VINA RESULT:    -3.656     16.038     16.946
REMARK INTER + INTRA:          -4.600
REMARK INTER:                  -4.376
REMARK INTRA:                  -0.224
REMARK UNBOUND:                -0.089
REMARK SMILES CCCCCC(=O)[O-]
REMARK SMILES IDX 4 1 5 2 6 3 7 4 8 5 3 6 2 7 1 8
REMARK H PARENT
REMARK Flexibility Score: inf
ROOT
ATOM      1  C   UNL     1       0.780  -5.493  -6.428  1.00  0.00     0.006 C 
ENDROOT
BRANCH   1   2
ATOM      2  C   UNL     1       2.195  -5.093  -6.866  1.00  0.00     0.053 C 
BRANCH   2   3
ATOM      3  C   UNL     1       2.286  -5.046  -8.359  1.00  0.00     0.041 C 
ATOM      4  O   UNL     1       1.970  -3.997  -8.980  1.00  0.00    -0.550 OA
ATOM      5  O   UNL     1       2.766  -6.144  -9.062  1.00  0.00    -0.550 OA
ENDBRANCH   2   3
ENDBRANCH   1   2
BRANCH   1   6
ATOM      6  C   UNL     1      -0.107  -4.278  -6.117  1.00  0.00     0.000 C 
BRANCH   6   7
ATOM      7  C   UNL     1      -1.167  -4.027  -7.199  1.00  0.00    -0.003 C 
ATOM      8  C   UNL     1      -1.062  -2.608  -7.753  1.00  0.00     0.004 C 
ENDBRANCH   6   7
ENDBRANCH   1   6
TORSDOF 4
ENDMDL
MODEL 7
REMARK VINA RESULT:    -3.649     15.557     16.205
REMARK INTER + INTRA:          -4.591
REMARK INTER:                  -4.355
REMARK INTRA:                  -0.236
REMARK UNBOUND:                -0.089
REMARK SMILES CCCCCC(=O)[O-]
REMARK SMILES IDX 4 1 5 2 6 3 7 4 8 5 3 6 2 7 1 8
REMARK H PARENT
REMARK Flexibility Score: inf
ROOT
ATOM      1  C   UNL     1      -0.790  -4.568  -7.004  1.00  0.00     0.006 C 
ENDROOT
BRANCH   1   2
ATOM      2  C   UNL     1       0.442  -4.806  -6.121  1.00  0.00     0.053 C 
BRANCH   2   3
ATOM      3  C   UNL     1       1.665  -4.977  -6.965  1.00  0.00     0.041 C 
ATOM      4  O   UNL     1       2.762  -5.295  -6.435  1.00  0.00    -0.550 OA
ATOM      5  O   UNL     1       1.584  -4.833  -8.344  1.00  0.00    -0.550 OA
ENDBRANCH   2   3
ENDBRANCH   1   2
BRANCH   1   6
ATOM      6  C   UNL     1      -1.237  -3.099  -7.011  1.00  0.00     0.000 C 
BRANCH   6   7
ATOM      7  C   UNL     1      -1.160  -2.464  -8.407  1.00  0.00    -0.003 C 
ATOM      8  C   UNL     1       0.082  -1.588  -8.546  1.00  0.00     0.004 C 
ENDBRANCH   6   7
ENDBRANCH   1   6
TORSDOF 4
ENDMDL
MODEL 8
REMARK VINA RESULT:    -3.626     15.710     16.233
REMARK INTER + INTRA:          -4.563
REMARK INTER:                  -4.472
REMARK INTRA:                  -0.091
REMARK UNBOUND:                -0.089
REMARK SMILES CCCCCC(=O)[O-]
REMARK SMILES IDX 4 1 5 2 6 3 7 4 8 5 3 6 2 7 1 8
REMARK H PARENT
REMARK Flexibility Score: inf
ROOT
ATOM      1  C   UNL     1      -0.086  -3.809  -7.742  1.00  0.00     0.006 C 
ENDROOT
BRANCH   1   2
ATOM      2  C   UNL     1       0.110  -4.421  -6.349  1.00  0.00     0.053 C 
BRANCH   2   3
ATOM      3  C   UNL     1       1.067  -5.570  -6.414  1.00  0.00     0.041 C 
ATOM      4  O   UNL     1       2.306  -5.358  -6.487  1.00  0.00    -0.550 OA
ATOM      5  O   UNL     1       0.595  -6.874  -6.343  1.00  0.00    -0.550 OA
ENDBRANCH   2   3
ENDBRANCH   1   2
BRANCH   1   6
ATOM      6  C   UNL     1      -0.838  -2.469  -7.698  1.00  0.00     0.000 C 
BRANCH   6   7
ATOM      7  C   UNL     1      -0.235  -1.422  -8.646  1.00  0.00    -0.003 C 
ATOM      8  C   UNL     1       0.873  -2.030  -9.503  1.00  0.00     0.004 C 
ENDBRANCH   6   7
ENDBRANCH   1   6
TORSDOF 4
ENDMDL
MODEL 9
REMARK VINA RESULT:    -3.488     16.075     16.806
REMARK INTER + INTRA:          -4.392
REMARK INTER:                  -4.234
REMARK INTRA:                  -0.157
REMARK UNBOUND:                -0.089
REMARK SMILES CCCCCC(=O)[O-]
REMARK SMILES IDX 4 1 5 2 6 3 7 4 8 5 3 6 2 7 1 8
REMARK H PARENT
REMARK Flexibility Score: inf
ROOT
ATOM      1  C   UNL     1      -0.535  -3.854  -7.920  1.00  0.00     0.006 C 
ENDROOT
BRANCH   1   2
ATOM      2  C   UNL     1      -0.578  -2.334  -8.129  1.00  0.00     0.053 C 
BRANCH   2   3
ATOM      3  C   UNL     1       0.345  -1.933  -9.236  1.00  0.00     0.041 C 
ATOM      4  O   UNL     1       0.077  -0.932  -9.952  1.00  0.00    -0.550 OA
ATOM      5  O   UNL     1       1.525  -2.634  -9.446  1.00  0.00    -0.550 OA
ENDBRANCH   2   3
ENDBRANCH   1   2
BRANCH   1   6
ATOM      6  C   UNL     1      -0.316  -4.242  -6.450  1.00  0.00     0.000 C 
BRANCH   6   7
ATOM      7  C   UNL     1       0.620  -5.449  -6.291  1.00  0.00    -0.003 C 
ATOM      8  C   UNL     1       2.037  -5.109  -6.746  1.00  0.00     0.004 C 
ENDBRANCH   6   7
ENDBRANCH   1   6
TORSDOF 4
ENDMDL
