MODEL 1
REMARK VINA RESULT:    -4.078      0.000      0.000
REMARK INTER + INTRA:         -12.555
REMARK INTER:                  -9.322
REMARK INTRA:                  -3.233
REMARK UNBOUND:                -3.233
REMARK SMILES CCCCCCCCCCCCCCCCCCCCCCCC(=O)[O-]
REMARK SMILES IDX 13 1 14 2 15 3 16 4 17 5 18 6 19 7 20 8 21 9 22 10 23 11
REMARK SMILES IDX 24 12 25 13 26 14 12 15 11 16 10 17 9 18 8 19 7 20 6 21 5 22
REMARK SMILES IDX 4 23 3 24 2 25 1 26
REMARK H PARENT
REMARK Flexibility Score: inf
ROOT
ATOM      1  C   UNL     1       0.090  46.446   7.675  1.00  0.00     0.000 C 
ENDROOT
BRANCH   1   2
ATOM      2  C   UNL     1       0.269  46.427   9.203  1.00  0.00     0.000 C 
BRANCH   2   3
ATOM      3  C   UNL     1       0.862  45.096   9.702  1.00  0.00     0.000 C 
BRANCH   3   4
ATOM      4  C   UNL     1       1.308  44.154   8.569  1.00  0.00     0.000 C 
BRANCH   4   5
ATOM      5  C   UNL     1       2.178  42.990   9.081  1.00  0.00     0.000 C 
BRANCH   5   6
ATOM      6  C   UNL     1       3.680  43.349   9.117  1.00  0.00     0.000 C 
BRANCH   6   7
ATOM      7  C   UNL     1       4.284  43.366  10.535  1.00  0.00     0.000 C 
BRANCH   7   8
ATOM      8  C   UNL     1       3.841  44.547  11.414  1.00  0.00     0.000 C 
BRANCH   8   9
ATOM      9  C   UNL     1       3.144  44.094  12.710  1.00  0.00     0.000 C 
BRANCH   9  10
ATOM     10  C   UNL     1       2.369  42.779  12.529  1.00  0.00     0.006 C 
BRANCH  10  11
ATOM     11  C   UNL     1       0.855  42.966  12.691  1.00  0.00     0.053 C 
BRANCH  11  12
ATOM     12  C   UNL     1       0.304  41.953  13.644  1.00  0.00     0.041 C 
ATOM     13  O   UNL     1       0.895  40.854  13.815  1.00  0.00    -0.550 OA
ATOM     14  O   UNL     1      -0.843  42.236  14.373  1.00  0.00    -0.550 OA
ENDBRANCH  11  12
ENDBRANCH  10  11
ENDBRANCH   9  10
ENDBRANCH   8   9
ENDBRANCH   7   8
ENDBRANCH   6   7
ENDBRANCH   5   6
ENDBRANCH   4   5
ENDBRANCH   3   4
ENDBRANCH   2   3
ENDBRANCH   1   2
BRANCH   1  15
ATOM     15  C   UNL     1      -0.412  47.807   7.147  1.00  0.00     0.000 C 
BRANCH  15  16
ATOM     16  C   UNL     1      -0.203  48.978   8.128  1.00  0.00     0.000 C 
BRANCH  16  17
ATOM     17  C   UNL     1       0.695  50.117   7.611  1.00  0.00     0.000 C 
BRANCH  17  18
ATOM     18  C   UNL     1       2.020  50.308   8.378  1.00  0.00    -0.000 C 
BRANCH  18  19
ATOM     19  C   UNL     1       3.295  50.182   7.525  1.00  0.00    -0.000 C 
BRANCH  19  20
ATOM     20  C   UNL     1       3.778  48.727   7.385  1.00  0.00    -0.000 C 
BRANCH  20  21
ATOM     21  C   UNL     1       3.620  47.929   8.698  1.00  0.00    -0.000 C 
BRANCH  21  22
ATOM     22  C   UNL     1       4.783  46.961   8.973  1.00  0.00    -0.000 C 
BRANCH  22  23
ATOM     23  C   UNL     1       5.824  47.540   9.945  1.00  0.00    -0.000 C 
BRANCH  23  24
ATOM     24  C   UNL     1       7.199  47.737   9.289  1.00  0.00    -0.000 C 
BRANCH  24  25
ATOM     25  C   UNL     1       7.878  49.044   9.728  1.00  0.00    -0.003 C 
ATOM     26  C   UNL     1       7.639  50.156   8.710  1.00  0.00     0.004 C 
ENDBRANCH  24  25
ENDBRANCH  23  24
ENDBRANCH  22  23
ENDBRANCH  21  22
ENDBRANCH  20  21
ENDBRANCH  19  20
ENDBRANCH  18  19
ENDBRANCH  17  18
ENDBRANCH  16  17
ENDBRANCH  15  16
ENDBRANCH   1  15
TORSDOF 22
ENDMDL
MODEL 2
REMARK VINA RESULT:    -3.926      3.510      7.777
REMARK INTER + INTRA:         -12.209
REMARK INTER:                  -9.952
REMARK INTRA:                  -2.256
REMARK UNBOUND:                -3.233
REMARK SMILES CCCCCCCCCCCCCCCCCCCCCCCC(=O)[O-]
REMARK SMILES IDX 13 1 14 2 15 3 16 4 17 5 18 6 19 7 20 8 21 9 22 10 23 11
REMARK SMILES IDX 24 12 25 13 26 14 12 15 11 16 10 17 9 18 8 19 7 20 6 21 5 22
REMARK SMILES IDX 4 23 3 24 2 25 1 26
REMARK H PARENT
REMARK Flexibility Score: inf
ROOT
ATOM      1  C   UNL     1      -0.658  47.020   8.754  1.00  0.00     0.000 C 
ENDROOT
BRANCH   1   2
ATOM      2  C   UNL     1      -0.171  47.857   7.558  1.00  0.00     0.000 C 
BRANCH   2   3
ATOM      3  C   UNL     1      -0.653  49.318   7.635  1.00  0.00     0.000 C 
BRANCH   3   4
ATOM      4  C   UNL     1       0.490  50.349   7.595  1.00  0.00     0.000 C 
BRANCH   4   5
ATOM      5  C   UNL     1       1.720  49.893   8.401  1.00  0.00     0.000 C 
BRANCH   5   6
ATOM      6  C   UNL     1       2.966  49.693   7.512  1.00  0.00     0.000 C 
BRANCH   6   7
ATOM      7  C   UNL     1       3.612  48.300   7.646  1.00  0.00     0.000 C 
BRANCH   7   8
ATOM      8  C   UNL     1       3.593  47.711   9.067  1.00  0.00     0.000 C 
BRANCH   8   9
ATOM      9  C   UNL     1       4.773  46.758   9.330  1.00  0.00     0.000 C 
BRANCH   9  10
ATOM     10  C   UNL     1       6.000  47.488   9.902  1.00  0.00     0.006 C 
BRANCH  10  11
ATOM     11  C   UNL     1       6.906  48.056   8.801  1.00  0.00     0.053 C 
BRANCH  11  12
ATOM     12  C   UNL     1       7.779  49.138   9.352  1.00  0.00     0.041 C 
ATOM     13  O   UNL     1       8.565  48.897  10.307  1.00  0.00    -0.550 OA
ATOM     14  O   UNL     1       7.756  50.406   8.786  1.00  0.00    -0.550 OA
ENDBRANCH  11  12
ENDBRANCH  10  11
ENDBRANCH   9  10
ENDBRANCH   8   9
ENDBRANCH   7   8
ENDBRANCH   6   7
ENDBRANCH   5   6
ENDBRANCH   4   5
ENDBRANCH   3   4
ENDBRANCH   2   3
ENDBRANCH   1   2
BRANCH   1  15
ATOM     15  C   UNL     1       0.325  45.895   9.139  1.00  0.00     0.000 C 
BRANCH  15  16
ATOM     16  C   UNL     1       0.474  44.796   8.068  1.00  0.00     0.000 C 
BRANCH  16  17
ATOM     17  C   UNL     1       1.406  43.630   8.446  1.00  0.00     0.000 C 
BRANCH  17  18
ATOM     18  C   UNL     1       2.684  44.033   9.211  1.00  0.00    -0.000 C 
BRANCH  18  19
ATOM     19  C   UNL     1       3.396  42.884   9.948  1.00  0.00    -0.000 C 
BRANCH  19  20
ATOM     20  C   UNL     1       3.808  43.259  11.383  1.00  0.00    -0.000 C 
BRANCH  20  21
ATOM     21  C   UNL     1       2.834  44.270  12.027  1.00  0.00    -0.000 C 
BRANCH  21  22
ATOM     22  C   UNL     1       1.425  43.701  12.262  1.00  0.00    -0.000 C 
BRANCH  22  23
ATOM     23  C   UNL     1       1.445  42.276  12.841  1.00  0.00    -0.000 C 
BRANCH  23  24
ATOM     24  C   UNL     1       0.170  41.941  13.629  1.00  0.00    -0.000 C 
BRANCH  24  25
ATOM     25  C   UNL     1       0.260  40.583  14.344  1.00  0.00    -0.003 C 
ATOM     26  C   UNL     1      -0.459  40.623  15.690  1.00  0.00     0.004 C 
ENDBRANCH  24  25
ENDBRANCH  23  24
ENDBRANCH  22  23
ENDBRANCH  21  22
ENDBRANCH  20  21
ENDBRANCH  19  20
ENDBRANCH  18  19
ENDBRANCH  17  18
ENDBRANCH  16  17
ENDBRANCH  15  16
ENDBRANCH   1  15
TORSDOF 22
ENDMDL
MODEL 3
REMARK VINA RESULT:    -3.827      1.204      1.756
REMARK INTER + INTRA:         -11.981
REMARK INTER:                  -9.466
REMARK INTRA:                  -2.515
REMARK UNBOUND:                -3.233
REMARK SMILES CCCCCCCCCCCCCCCCCCCCCCCC(=O)[O-]
REMARK SMILES IDX 13 1 14 2 15 3 16 4 17 5 18 6 19 7 20 8 21 9 22 10 23 11
REMARK SMILES IDX 24 12 25 13 26 14 12 15 11 16 10 17 9 18 8 19 7 20 6 21 5 22
REMARK SMILES IDX 4 23 3 24 2 25 1 26
REMARK H PARENT
REMARK Flexibility Score: inf
ROOT
ATOM      1  C   UNL     1      -0.040  45.156   6.912  1.00  0.00     0.000 C 
ENDROOT
BRANCH   1   2
ATOM      2  C   UNL     1       0.314  44.140   8.012  1.00  0.00     0.000 C 
BRANCH   2   3
ATOM      3  C   UNL     1       1.675  44.442   8.667  1.00  0.00     0.000 C 
BRANCH   3   4
ATOM      4  C   UNL     1       2.444  43.182   9.104  1.00  0.00     0.000 C 
BRANCH   4   5
ATOM      5  C   UNL     1       3.940  43.460   9.339  1.00  0.00     0.000 C 
BRANCH   5   6
ATOM      6  C   UNL     1       4.324  43.394  10.834  1.00  0.00     0.000 C 
BRANCH   6   7
ATOM      7  C   UNL     1       3.479  44.315  11.737  1.00  0.00     0.000 C 
BRANCH   7   8
ATOM      8  C   UNL     1       2.698  43.593  12.848  1.00  0.00     0.000 C 
BRANCH   8   9
ATOM      9  C   UNL     1       1.495  42.798  12.307  1.00  0.00     0.000 C 
BRANCH   9  10
ATOM     10  C   UNL     1       0.448  42.509  13.394  1.00  0.00     0.006 C 
BRANCH  10  11
ATOM     11  C   UNL     1       0.581  41.093  13.972  1.00  0.00     0.053 C 
BRANCH  11  12
ATOM     12  C   UNL     1      -0.066  41.016  15.319  1.00  0.00     0.041 C 
ATOM     13  O   UNL     1      -0.413  39.903  15.794  1.00  0.00    -0.550 OA
ATOM     14  O   UNL     1      -0.252  42.171  16.067  1.00  0.00    -0.550 OA
ENDBRANCH  11  12
ENDBRANCH  10  11
ENDBRANCH   9  10
ENDBRANCH   8   9
ENDBRANCH   7   8
ENDBRANCH   6   7
ENDBRANCH   5   6
ENDBRANCH   4   5
ENDBRANCH   3   4
ENDBRANCH   2   3
ENDBRANCH   1   2
BRANCH   1  15
ATOM     15  C   UNL     1      -1.107  46.177   7.359  1.00  0.00     0.000 C 
BRANCH  15  16
ATOM     16  C   UNL     1      -0.621  47.640   7.347  1.00  0.00     0.000 C 
BRANCH  16  17
ATOM     17  C   UNL     1      -0.161  48.191   8.709  1.00  0.00     0.000 C 
BRANCH  17  18
ATOM     18  C   UNL     1       1.319  48.624   8.776  1.00  0.00    -0.000 C 
BRANCH  18  19
ATOM     19  C   UNL     1       2.182  48.194   7.575  1.00  0.00    -0.000 C 
BRANCH  19  20
ATOM     20  C   UNL     1       3.642  47.901   7.964  1.00  0.00    -0.000 C 
BRANCH  20  21
ATOM     21  C   UNL     1       3.756  47.233   9.352  1.00  0.00    -0.000 C 
BRANCH  21  22
ATOM     22  C   UNL     1       5.207  47.024   9.817  1.00  0.00    -0.000 C 
BRANCH  22  23
ATOM     23  C   UNL     1       6.214  47.879   9.030  1.00  0.00    -0.000 C 
BRANCH  23  24
ATOM     24  C   UNL     1       7.595  47.932   9.701  1.00  0.00    -0.000 C 
BRANCH  24  25
ATOM     25  C   UNL     1       8.243  49.322   9.604  1.00  0.00    -0.003 C 
ATOM     26  C   UNL     1       7.401  50.262   8.745  1.00  0.00     0.004 C 
ENDBRANCH  24  25
ENDBRANCH  23  24
ENDBRANCH  22  23
ENDBRANCH  21  22
ENDBRANCH  20  21
ENDBRANCH  19  20
ENDBRANCH  18  19
ENDBRANCH  17  18
ENDBRANCH  16  17
ENDBRANCH  15  16
ENDBRANCH   1  15
TORSDOF 22
ENDMDL
MODEL 4
REMARK VINA RESULT:    -3.756      2.845      7.846
REMARK INTER + INTRA:         -11.820
REMARK INTER:                  -9.055
REMARK INTRA:                  -2.765
REMARK UNBOUND:                -3.233
REMARK SMILES CCCCCCCCCCCCCCCCCCCCCCCC(=O)[O-]
REMARK SMILES IDX 13 1 14 2 15 3 16 4 17 5 18 6 19 7 20 8 21 9 22 10 23 11
REMARK SMILES IDX 24 12 25 13 26 14 12 15 11 16 10 17 9 18 8 19 7 20 6 21 5 22
REMARK SMILES IDX 4 23 3 24 2 25 1 26
REMARK H PARENT
REMARK Flexibility Score: inf
ROOT
ATOM      1  C   UNL     1      -0.047  46.220   9.277  1.00  0.00     0.000 C 
ENDROOT
BRANCH   1   2
ATOM      2  C   UNL     1      -0.364  46.000   7.788  1.00  0.00     0.000 C 
BRANCH   2   3
ATOM      3  C   UNL     1      -0.774  47.306   7.081  1.00  0.00     0.000 C 
BRANCH   3   4
ATOM      4  C   UNL     1      -0.957  48.497   8.040  1.00  0.00     0.000 C 
BRANCH   4   5
ATOM      5  C   UNL     1      -0.088  49.705   7.645  1.00  0.00     0.000 C 
BRANCH   5   6
ATOM      6  C   UNL     1       1.074  49.944   8.634  1.00  0.00     0.000 C 
BRANCH   6   7
ATOM      7  C   UNL     1       2.315  50.597   7.994  1.00  0.00     0.000 C 
BRANCH   7   8
ATOM      8  C   UNL     1       3.235  49.629   7.230  1.00  0.00     0.000 C 
BRANCH   8   9
ATOM      9  C   UNL     1       2.886  48.152   7.488  1.00  0.00     0.000 C 
BRANCH   9  10
ATOM     10  C   UNL     1       3.962  47.432   8.317  1.00  0.00     0.006 C 
BRANCH  10  11
ATOM     11  C   UNL     1       5.190  48.316   8.575  1.00  0.00     0.053 C 
BRANCH  11  12
ATOM     12  C   UNL     1       6.117  47.653   9.543  1.00  0.00     0.041 C 
ATOM     13  O   UNL     1       5.659  46.938  10.473  1.00  0.00    -0.550 OA
ATOM     14  O   UNL     1       7.491  47.792   9.396  1.00  0.00    -0.550 OA
ENDBRANCH  11  12
ENDBRANCH  10  11
ENDBRANCH   9  10
ENDBRANCH   8   9
ENDBRANCH   7   8
ENDBRANCH   6   7
ENDBRANCH   5   6
ENDBRANCH   4   5
ENDBRANCH   3   4
ENDBRANCH   2   3
ENDBRANCH   1   2
BRANCH   1  15
ATOM     15  C   UNL     1       1.261  45.531   9.720  1.00  0.00     0.000 C 
BRANCH  15  16
ATOM     16  C   UNL     1       1.472  44.131   9.110  1.00  0.00     0.000 C 
BRANCH  16  17
ATOM     17  C   UNL     1       2.938  43.669   9.015  1.00  0.00     0.000 C 
BRANCH  17  18
ATOM     18  C   UNL     1       3.426  42.788  10.184  1.00  0.00    -0.000 C 
BRANCH  18  19
ATOM     19  C   UNL     1       3.950  43.559  11.410  1.00  0.00    -0.000 C 
BRANCH  19  20
ATOM     20  C   UNL     1       2.864  43.801  12.473  1.00  0.00    -0.000 C 
BRANCH  20  21
ATOM     21  C   UNL     1       1.792  42.689  12.478  1.00  0.00    -0.000 C 
BRANCH  21  22
ATOM     22  C   UNL     1       0.369  43.208  12.741  1.00  0.00    -0.000 C 
BRANCH  22  23
ATOM     23  C   UNL     1      -0.452  42.268  13.640  1.00  0.00    -0.000 C 
BRANCH  23  24
ATOM     24  C   UNL     1       0.370  41.075  14.152  1.00  0.00    -0.000 C 
BRANCH  24  25
ATOM     25  C   UNL     1      -0.102  40.584  15.530  1.00  0.00    -0.003 C 
ATOM     26  C   UNL     1      -0.684  41.731  16.352  1.00  0.00     0.004 C 
ENDBRANCH  24  25
ENDBRANCH  23  24
ENDBRANCH  22  23
ENDBRANCH  21  22
ENDBRANCH  20  21
ENDBRANCH  19  20
ENDBRANCH  18  19
ENDBRANCH  17  18
ENDBRANCH  16  17
ENDBRANCH  15  16
ENDBRANCH   1  15
TORSDOF 22
ENDMDL
MODEL 5
REMARK VINA RESULT:    -3.616      3.230      6.901
REMARK INTER + INTRA:         -11.498
REMARK INTER:                  -8.437
REMARK INTRA:                  -3.062
REMARK UNBOUND:                -3.233
REMARK SMILES CCCCCCCCCCCCCCCCCCCCCCCC(=O)[O-]
REMARK SMILES IDX 13 1 14 2 15 3 16 4 17 5 18 6 19 7 20 8 21 9 22 10 23 11
REMARK SMILES IDX 24 12 25 13 26 14 12 15 11 16 10 17 9 18 8 19 7 20 6 21 5 22
REMARK SMILES IDX 4 23 3 24 2 25 1 26
REMARK H PARENT
REMARK Flexibility Score: inf
ROOT
ATOM      1  C   UNL     1      -0.814  47.474   8.631  1.00  0.00     0.000 C 
ENDROOT
BRANCH   1   2
ATOM      2  C   UNL     1      -1.123  48.977   8.516  1.00  0.00     0.000 C 
BRANCH   2   3
ATOM      3  C   UNL     1      -0.468  49.612   7.275  1.00  0.00     0.000 C 
BRANCH   3   4
ATOM      4  C   UNL     1       0.451  50.803   7.603  1.00  0.00     0.000 C 
BRANCH   4   5
ATOM      5  C   UNL     1       1.713  50.376   8.375  1.00  0.00     0.000 C 
BRANCH   5   6
ATOM      6  C   UNL     1       2.960  50.297   7.468  1.00  0.00     0.000 C 
BRANCH   6   7
ATOM      7  C   UNL     1       3.575  48.886   7.371  1.00  0.00     0.000 C 
BRANCH   7   8
ATOM      8  C   UNL     1       2.694  47.756   7.930  1.00  0.00     0.000 C 
BRANCH   8   9
ATOM      9  C   UNL     1       3.234  47.181   9.252  1.00  0.00     0.000 C 
BRANCH   9  10
ATOM     10  C   UNL     1       4.660  46.624   9.109  1.00  0.00     0.006 C 
BRANCH  10  11
ATOM     11  C   UNL     1       5.637  47.253  10.111  1.00  0.00     0.053 C 
BRANCH  11  12
ATOM     12  C   UNL     1       6.744  47.954   9.392  1.00  0.00     0.041 C 
ATOM     13  O   UNL     1       6.493  48.680   8.393  1.00  0.00    -0.550 OA
ATOM     14  O   UNL     1       8.051  47.838   9.846  1.00  0.00    -0.550 OA
ENDBRANCH  11  12
ENDBRANCH  10  11
ENDBRANCH   9  10
ENDBRANCH   8   9
ENDBRANCH   7   8
ENDBRANCH   6   7
ENDBRANCH   5   6
ENDBRANCH   4   5
ENDBRANCH   3   4
ENDBRANCH   2   3
ENDBRANCH   1   2
BRANCH   1  15
ATOM     15  C   UNL     1      -0.594  46.800   7.259  1.00  0.00     0.000 C 
BRANCH  15  16
ATOM     16  C   UNL     1      -0.989  45.310   7.221  1.00  0.00     0.000 C 
BRANCH  16  17
ATOM     17  C   UNL     1       0.188  44.317   7.218  1.00  0.00     0.000 C 
BRANCH  17  18
ATOM     18  C   UNL     1       0.999  44.257   8.530  1.00  0.00    -0.000 C 
BRANCH  18  19
ATOM     19  C   UNL     1       2.474  43.846   8.370  1.00  0.00    -0.000 C 
BRANCH  19  20
ATOM     20  C   UNL     1       2.909  42.773   9.383  1.00  0.00    -0.000 C 
BRANCH  20  21
ATOM     21  C   UNL     1       4.111  43.229  10.239  1.00  0.00    -0.000 C 
BRANCH  21  22
ATOM     22  C   UNL     1       3.803  43.298  11.745  1.00  0.00    -0.000 C 
BRANCH  22  23
ATOM     23  C   UNL     1       2.824  44.428  12.102  1.00  0.00    -0.000 C 
BRANCH  23  24
ATOM     24  C   UNL     1       1.371  43.941  12.200  1.00  0.00    -0.000 C 
BRANCH  24  25
ATOM     25  C   UNL     1       1.273  42.428  12.452  1.00  0.00    -0.003 C 
ATOM     26  C   UNL     1       0.552  42.136  13.765  1.00  0.00     0.004 C 
ENDBRANCH  24  25
ENDBRANCH  23  24
ENDBRANCH  22  23
ENDBRANCH  21  22
ENDBRANCH  20  21
ENDBRANCH  19  20
ENDBRANCH  18  19
ENDBRANCH  17  18
ENDBRANCH  16  17
ENDBRANCH  15  16
ENDBRANCH   1  15
TORSDOF 22
ENDMDL
MODEL 6
REMARK VINA RESULT:    -3.433      2.415      4.534
REMARK INTER + INTRA:         -11.082
REMARK INTER:                  -9.065
REMARK INTRA:                  -2.017
REMARK UNBOUND:                -3.233
REMARK SMILES CCCCCCCCCCCCCCCCCCCCCCCC(=O)[O-]
REMARK SMILES IDX 13 1 14 2 15 3 16 4 17 5 18 6 19 7 20 8 21 9 22 10 23 11
REMARK SMILES IDX 24 12 25 13 26 14 12 15 11 16 10 17 9 18 8 19 7 20 6 21 5 22
REMARK SMILES IDX 4 23 3 24 2 25 1 26
REMARK H PARENT
REMARK Flexibility Score: inf
ROOT
ATOM      1  C   UNL     1       3.130  43.339   9.077  1.00  0.00     0.000 C 
ENDROOT
BRANCH   1   2
ATOM      2  C   UNL     1       3.133  42.417  10.308  1.00  0.00     0.000 C 
BRANCH   2   3
ATOM      3  C   UNL     1       3.674  43.126  11.564  1.00  0.00     0.000 C 
BRANCH   3   4
ATOM      4  C   UNL     1       2.662  43.190  12.723  1.00  0.00     0.000 C 
BRANCH   4   5
ATOM      5  C   UNL     1       1.213  42.969  12.249  1.00  0.00     0.000 C 
BRANCH   5   6
ATOM      6  C   UNL     1       0.270  42.566  13.404  1.00  0.00     0.000 C 
BRANCH   6   7
ATOM      7  C   UNL     1       0.664  41.249  14.101  1.00  0.00     0.000 C 
BRANCH   7   8
ATOM      8  C   UNL     1      -0.483  40.541  14.843  1.00  0.00     0.000 C 
BRANCH   8   9
ATOM      9  C   UNL     1      -1.120  39.412  14.012  1.00  0.00     0.000 C 
BRANCH   9  10
ATOM     10  C   UNL     1      -0.079  38.615  13.210  1.00  0.00     0.006 C 
BRANCH  10  11
ATOM     11  C   UNL     1      -0.580  37.216  12.828  1.00  0.00     0.053 C 
BRANCH  11  12
ATOM     12  C   UNL     1       0.479  36.467  12.085  1.00  0.00     0.041 C 
ATOM     13  O   UNL     1       0.187  35.422  11.444  1.00  0.00    -0.550 OA
ATOM     14  O   UNL     1       1.783  36.943  12.065  1.00  0.00    -0.550 OA
ENDBRANCH  11  12
ENDBRANCH  10  11
ENDBRANCH   9  10
ENDBRANCH   8   9
ENDBRANCH   7   8
ENDBRANCH   6   7
ENDBRANCH   5   6
ENDBRANCH   4   5
ENDBRANCH   3   4
ENDBRANCH   2   3
ENDBRANCH   1   2
BRANCH   1  15
ATOM     15  C   UNL     1       2.683  44.779   9.406  1.00  0.00     0.000 C 
BRANCH  15  16
ATOM     16  C   UNL     1       1.158  44.996   9.335  1.00  0.00     0.000 C 
BRANCH  16  17
ATOM     17  C   UNL     1       0.702  46.467   9.346  1.00  0.00     0.000 C 
BRANCH  17  18
ATOM     18  C   UNL     1       0.118  46.983   8.014  1.00  0.00    -0.000 C 
BRANCH  18  19
ATOM     19  C   UNL     1       0.478  48.438   7.661  1.00  0.00    -0.000 C 
BRANCH  19  20
ATOM     20  C   UNL     1       1.520  49.044   8.618  1.00  0.00    -0.000 C 
BRANCH  20  21
ATOM     21  C   UNL     1       2.555  49.919   7.878  1.00  0.00    -0.000 C 
BRANCH  21  22
ATOM     22  C   UNL     1       3.928  49.246   7.716  1.00  0.00    -0.000 C 
BRANCH  22  23
ATOM     23  C   UNL     1       3.925  47.773   8.157  1.00  0.00    -0.000 C 
BRANCH  23  24
ATOM     24  C   UNL     1       5.196  47.385   8.928  1.00  0.00    -0.000 C 
BRANCH  24  25
ATOM     25  C   UNL     1       6.320  48.422   8.769  1.00  0.00    -0.003 C 
ATOM     26  C   UNL     1       7.541  48.041   9.603  1.00  0.00     0.004 C 
ENDBRANCH  24  25
ENDBRANCH  23  24
ENDBRANCH  22  23
ENDBRANCH  21  22
ENDBRANCH  20  21
ENDBRANCH  19  20
ENDBRANCH  18  19
ENDBRANCH  17  18
ENDBRANCH  16  17
ENDBRANCH  15  16
ENDBRANCH   1  15
TORSDOF 22
ENDMDL
MODEL 7
REMARK VINA RESULT:    -3.367      3.324      8.858
REMARK INTER + INTRA:         -10.931
REMARK INTER:                  -8.973
REMARK INTRA:                  -1.958
REMARK UNBOUND:                -3.233
REMARK SMILES CCCCCCCCCCCCCCCCCCCCCCCC(=O)[O-]
REMARK SMILES IDX 13 1 14 2 15 3 16 4 17 5 18 6 19 7 20 8 21 9 22 10 23 11
REMARK SMILES IDX 24 12 25 13 26 14 12 15 11 16 10 17 9 18 8 19 7 20 6 21 5 22
REMARK SMILES IDX 4 23 3 24 2 25 1 26
REMARK H PARENT
REMARK Flexibility Score: inf
ROOT
ATOM      1  C   UNL     1       3.908  43.842   9.445  1.00  0.00     0.000 C 
ENDROOT
BRANCH   1   2
ATOM      2  C   UNL     1       2.974  43.287   8.356  1.00  0.00     0.000 C 
BRANCH   2   3
ATOM      3  C   UNL     1       1.492  43.349   8.773  1.00  0.00     0.000 C 
BRANCH   3   4
ATOM      4  C   UNL     1       0.754  44.595   8.250  1.00  0.00     0.000 C 
BRANCH   4   5
ATOM      5  C   UNL     1       0.646  45.702   9.314  1.00  0.00     0.000 C 
BRANCH   5   6
ATOM      6  C   UNL     1      -0.329  46.826   8.898  1.00  0.00     0.000 C 
BRANCH   6   7
ATOM      7  C   UNL     1       0.119  47.610   7.649  1.00  0.00     0.000 C 
BRANCH   7   8
ATOM      8  C   UNL     1       0.355  49.113   7.877  1.00  0.00     0.000 C 
BRANCH   8   9
ATOM      9  C   UNL     1       1.819  49.439   8.225  1.00  0.00     0.000 C 
BRANCH   9  10
ATOM     10  C   UNL     1       2.810  48.484   7.539  1.00  0.00     0.006 C 
BRANCH  10  11
ATOM     11  C   UNL     1       4.231  48.613   8.103  1.00  0.00     0.053 C 
BRANCH  11  12
ATOM     12  C   UNL     1       4.490  47.541   9.113  1.00  0.00     0.041 C 
ATOM     13  O   UNL     1       5.620  46.988   9.176  1.00  0.00    -0.550 OA
ATOM     14  O   UNL     1       3.497  47.179  10.013  1.00  0.00    -0.550 OA
ENDBRANCH  11  12
ENDBRANCH  10  11
ENDBRANCH   9  10
ENDBRANCH   8   9
ENDBRANCH   7   8
ENDBRANCH   6   7
ENDBRANCH   5   6
ENDBRANCH   4   5
ENDBRANCH   3   4
ENDBRANCH   2   3
ENDBRANCH   1   2
BRANCH   1  15
ATOM     15  C   UNL     1       4.100  42.867  10.626  1.00  0.00     0.000 C 
BRANCH  15  16
ATOM     16  C   UNL     1       3.655  43.435  11.988  1.00  0.00     0.000 C 
BRANCH  16  17
ATOM     17  C   UNL     1       2.390  44.312  11.953  1.00  0.00     0.000 C 
BRANCH  17  18
ATOM     18  C   UNL     1       1.076  43.583  12.306  1.00  0.00    -0.000 C 
BRANCH  18  19
ATOM     19  C   UNL     1       1.247  42.167  12.886  1.00  0.00    -0.000 C 
BRANCH  19  20
ATOM     20  C   UNL     1       0.231  41.850  13.997  1.00  0.00    -0.000 C 
BRANCH  20  21
ATOM     21  C   UNL     1       0.235  40.355  14.386  1.00  0.00    -0.000 C 
BRANCH  21  22
ATOM     22  C   UNL     1      -0.693  39.491  13.515  1.00  0.00    -0.000 C 
BRANCH  22  23
ATOM     23  C   UNL     1      -0.070  38.136  13.144  1.00  0.00    -0.000 C 
BRANCH  23  24
ATOM     24  C   UNL     1      -1.124  37.088  12.755  1.00  0.00    -0.000 C 
BRANCH  24  25
ATOM     25  C   UNL     1      -0.497  35.753  12.324  1.00  0.00    -0.003 C 
ATOM     26  C   UNL     1       0.858  35.974  11.654  1.00  0.00     0.004 C 
ENDBRANCH  24  25
ENDBRANCH  23  24
ENDBRANCH  22  23
ENDBRANCH  21  22
ENDBRANCH  20  21
ENDBRANCH  19  20
ENDBRANCH  18  19
ENDBRANCH  17  18
ENDBRANCH  16  17
ENDBRANCH  15  16
ENDBRANCH   1  15
TORSDOF 22
ENDMDL
MODEL 8
REMARK VINA RESULT:    -3.341      2.658      7.989
REMARK INTER + INTRA:         -10.870
REMARK INTER:                  -8.576
REMARK INTRA:                  -2.294
REMARK UNBOUND:                -3.233
REMARK SMILES CCCCCCCCCCCCCCCCCCCCCCCC(=O)[O-]
REMARK SMILES IDX 13 1 14 2 15 3 16 4 17 5 18 6 19 7 20 8 21 9 22 10 23 11
REMARK SMILES IDX 24 12 25 13 26 14 12 15 11 16 10 17 9 18 8 19 7 20 6 21 5 22
REMARK SMILES IDX 4 23 3 24 2 25 1 26
REMARK H PARENT
REMARK Flexibility Score: inf
ROOT
ATOM      1  C   UNL     1       4.011  46.623   9.282  1.00  0.00     0.000 C 
ENDROOT
BRANCH   1   2
ATOM      2  C   UNL     1       2.841  47.476   8.762  1.00  0.00     0.000 C 
BRANCH   2   3
ATOM      3  C   UNL     1       3.180  48.182   7.436  1.00  0.00     0.000 C 
BRANCH   3   4
ATOM      4  C   UNL     1       3.723  49.612   7.618  1.00  0.00     0.000 C 
BRANCH   4   5
ATOM      5  C   UNL     1       2.645  50.684   7.373  1.00  0.00     0.000 C 
BRANCH   5   6
ATOM      6  C   UNL     1       1.375  50.447   8.220  1.00  0.00     0.000 C 
BRANCH   6   7
ATOM      7  C   UNL     1       0.060  50.598   7.430  1.00  0.00     0.000 C 
BRANCH   7   8
ATOM      8  C   UNL     1      -0.845  49.354   7.434  1.00  0.00     0.000 C 
BRANCH   8   9
ATOM      9  C   UNL     1      -0.594  48.442   8.649  1.00  0.00     0.000 C 
BRANCH   9  10
ATOM     10  C   UNL     1      -0.841  46.959   8.330  1.00  0.00     0.006 C 
BRANCH  10  11
ATOM     11  C   UNL     1      -0.462  46.601   6.886  1.00  0.00     0.053 C 
BRANCH  11  12
ATOM     12  C   UNL     1      -0.461  45.117   6.699  1.00  0.00     0.041 C 
ATOM     13  O   UNL     1      -1.107  44.596   5.752  1.00  0.00    -0.550 OA
ATOM     14  O   UNL     1       0.285  44.310   7.548  1.00  0.00    -0.550 OA
ENDBRANCH  11  12
ENDBRANCH  10  11
ENDBRANCH   9  10
ENDBRANCH   8   9
ENDBRANCH   7   8
ENDBRANCH   6   7
ENDBRANCH   5   6
ENDBRANCH   4   5
ENDBRANCH   3   4
ENDBRANCH   2   3
ENDBRANCH   1   2
BRANCH   1  15
ATOM     15  C   UNL     1       4.130  46.643  10.821  1.00  0.00     0.000 C 
BRANCH  15  16
ATOM     16  C   UNL     1       4.951  45.476  11.404  1.00  0.00     0.000 C 
BRANCH  16  17
ATOM     17  C   UNL     1       4.126  44.267  11.883  1.00  0.00     0.000 C 
BRANCH  17  18
ATOM     18  C   UNL     1       3.806  43.218  10.798  1.00  0.00    -0.000 C 
BRANCH  18  19
ATOM     19  C   UNL     1       2.327  43.140  10.378  1.00  0.00    -0.000 C 
BRANCH  19  20
ATOM     20  C   UNL     1       1.501  44.340  10.875  1.00  0.00    -0.000 C 
BRANCH  20  21
ATOM     21  C   UNL     1       0.531  43.951  12.013  1.00  0.00    -0.000 C 
BRANCH  21  22
ATOM     22  C   UNL     1       1.023  42.768  12.863  1.00  0.00    -0.000 C 
BRANCH  22  23
ATOM     23  C   UNL     1      -0.112  42.079  13.639  1.00  0.00    -0.000 C 
BRANCH  23  24
ATOM     24  C   UNL     1       0.392  41.336  14.885  1.00  0.00    -0.000 C 
BRANCH  24  25
ATOM     25  C   UNL     1      -0.428  40.071  15.188  1.00  0.00    -0.003 C 
ATOM     26  C   UNL     1      -1.112  39.546  13.929  1.00  0.00     0.004 C 
ENDBRANCH  24  25
ENDBRANCH  23  24
ENDBRANCH  22  23
ENDBRANCH  21  22
ENDBRANCH  20  21
ENDBRANCH  19  20
ENDBRANCH  18  19
ENDBRANCH  17  18
ENDBRANCH  16  17
ENDBRANCH  15  16
ENDBRANCH   1  15
TORSDOF 22
ENDMDL
MODEL 9
REMARK VINA RESULT:    -3.329      1.472      3.724
REMARK INTER + INTRA:         -10.843
REMARK INTER:                  -8.401
REMARK INTRA:                  -2.442
REMARK UNBOUND:                -3.233
REMARK SMILES CCCCCCCCCCCCCCCCCCCCCCCC(=O)[O-]
REMARK SMILES IDX 13 1 14 2 15 3 16 4 17 5 18 6 19 7 20 8 21 9 22 10 23 11
REMARK SMILES IDX 24 12 25 13 26 14 12 15 11 16 10 17 9 18 8 19 7 20 6 21 5 22
REMARK SMILES IDX 4 23 3 24 2 25 1 26
REMARK H PARENT
REMARK Flexibility Score: inf
ROOT
ATOM      1  C   UNL     1      -0.471  49.944   7.568  1.00  0.00     0.000 C 
ENDROOT
BRANCH   1   2
ATOM      2  C   UNL     1      -0.085  48.601   8.213  1.00  0.00     0.000 C 
BRANCH   2   3
ATOM      3  C   UNL     1       0.282  47.535   7.164  1.00  0.00     0.000 C 
BRANCH   3   4
ATOM      4  C   UNL     1      -0.895  46.625   6.769  1.00  0.00     0.000 C 
BRANCH   4   5
ATOM      5  C   UNL     1      -0.983  45.365   7.650  1.00  0.00     0.000 C 
BRANCH   5   6
ATOM      6  C   UNL     1       0.382  44.661   7.809  1.00  0.00     0.000 C 
BRANCH   6   7
ATOM      7  C   UNL     1       1.164  45.091   9.066  1.00  0.00     0.000 C 
BRANCH   7   8
ATOM      8  C   UNL     1       0.319  45.208  10.346  1.00  0.00     0.000 C 
BRANCH   8   9
ATOM      9  C   UNL     1       1.033  44.631  11.583  1.00  0.00     0.000 C 
BRANCH   9  10
ATOM     10  C   UNL     1       0.141  43.662  12.375  1.00  0.00     0.006 C 
BRANCH  10  11
ATOM     11  C   UNL     1       0.938  42.505  12.991  1.00  0.00     0.053 C 
BRANCH  11  12
ATOM     12  C   UNL     1       0.051  41.656  13.845  1.00  0.00     0.041 C 
ATOM     13  O   UNL     1      -1.003  42.136  14.340  1.00  0.00    -0.550 OA
ATOM     14  O   UNL     1       0.367  40.322  14.065  1.00  0.00    -0.550 OA
ENDBRANCH  11  12
ENDBRANCH  10  11
ENDBRANCH   9  10
ENDBRANCH   8   9
ENDBRANCH   7   8
ENDBRANCH   6   7
ENDBRANCH   5   6
ENDBRANCH   4   5
ENDBRANCH   3   4
ENDBRANCH   2   3
ENDBRANCH   1   2
BRANCH   1  15
ATOM     15  C   UNL     1       0.692  50.959   7.553  1.00  0.00     0.000 C 
BRANCH  15  16
ATOM     16  C   UNL     1       1.919  50.521   8.377  1.00  0.00     0.000 C 
BRANCH  16  17
ATOM     17  C   UNL     1       3.191  50.230   7.560  1.00  0.00     0.000 C 
BRANCH  17  18
ATOM     18  C   UNL     1       3.539  48.736   7.398  1.00  0.00    -0.000 C 
BRANCH  18  19
ATOM     19  C   UNL     1       4.608  48.203   8.370  1.00  0.00    -0.000 C 
BRANCH  19  20
ATOM     20  C   UNL     1       4.318  46.770   8.851  1.00  0.00    -0.000 C 
BRANCH  20  21
ATOM     21  C   UNL     1       3.845  46.731  10.321  1.00  0.00    -0.000 C 
BRANCH  21  22
ATOM     22  C   UNL     1       4.795  45.958  11.251  1.00  0.00    -0.000 C 
BRANCH  22  23
ATOM     23  C   UNL     1       4.066  44.921  12.120  1.00  0.00    -0.000 C 
BRANCH  23  24
ATOM     24  C   UNL     1       4.345  43.477  11.675  1.00  0.00    -0.000 C 
BRANCH  24  25
ATOM     25  C   UNL     1       4.164  43.283  10.161  1.00  0.00    -0.003 C 
ATOM     26  C   UNL     1       3.044  42.290   9.864  1.00  0.00     0.004 C 
ENDBRANCH  24  25
ENDBRANCH  23  24
ENDBRANCH  22  23
ENDBRANCH  21  22
ENDBRANCH  20  21
ENDBRANCH  19  20
ENDBRANCH  18  19
ENDBRANCH  17  18
ENDBRANCH  16  17
ENDBRANCH  15  16
ENDBRANCH   1  15
TORSDOF 22
ENDMDL
