MODEL 1
REMARK VINA RESULT:    -3.399      0.000      0.000
REMARK INTER + INTRA:          -4.298
REMARK INTER:                  -4.095
REMARK INTRA:                  -0.204
REMARK UNBOUND:                -0.204
REMARK SMILES C=CCc1ccc(O)c(OC)c1
REMARK SMILES IDX 9 1 7 2 6 3 5 4 4 5 12 6 10 7 11 8 8 9 3 11 2 12 1 13
REMARK H PARENT 8 10
REMARK Flexibility Score: inf
ROOT
ATOM      1  C   UNL     1     140.682 144.681 141.482  1.00  0.00     0.160 A 
ATOM      2  C   UNL     1     139.941 145.261 142.522  1.00  0.00     0.157 A 
ATOM      3  C   UNL     1     140.430 145.235 143.834  1.00  0.00     0.050 A 
ATOM      4  C   UNL     1     141.657 144.633 144.116  1.00  0.00     0.008 A 
ATOM      5  C   UNL     1     142.416 144.058 143.086  1.00  0.00    -0.040 A 
ATOM      6  C   UNL     1     141.921 144.075 141.772  1.00  0.00     0.054 A 
ENDROOT
BRANCH   1   7
ATOM      7  O   UNL     1     140.156 144.723 140.181  1.00  0.00    -0.493 OA
ATOM      8  C   UNL     1     140.551 145.657 139.183  1.00  0.00     0.278 C 
ENDBRANCH   1   7
BRANCH   2   9
ATOM      9  O   UNL     1     138.715 145.864 142.241  1.00  0.00    -0.504 OA
ATOM     10  H   UNL     1     137.838 145.407 142.461  1.00  0.00     0.293 HD
ENDBRANCH   2   9
BRANCH   5  11
ATOM     11  C   UNL     1     143.725 143.383 143.399  1.00  0.00     0.062 C 
BRANCH  11  12
ATOM     12  C   UNL     1     144.411 142.938 142.137  1.00  0.00    -0.030 C 
ATOM     13  C   UNL     1     145.620 142.371 142.158  1.00  0.00     0.004 C 
ENDBRANCH  11  12
ENDBRANCH   5  11
TORSDOF 4
ENDMDL
MODEL 2
REMARK VINA RESULT:    -3.383      7.526      8.585
REMARK INTER + INTRA:          -4.279
REMARK INTER:                  -4.075
REMARK INTRA:                  -0.203
REMARK UNBOUND:                -0.204
REMARK SMILES C=CCc1ccc(O)c(OC)c1
REMARK SMILES IDX 9 1 7 2 6 3 5 4 4 5 12 6 10 7 11 8 8 9 3 11 2 12 1 13
REMARK H PARENT 8 10
REMARK Flexibility Score: inf
ROOT
ATOM      1  C   UNL     1     141.035 137.008 141.488  1.00  0.00     0.160 A 
ATOM      2  C   UNL     1     141.750 136.358 142.505  1.00  0.00     0.157 A 
ATOM      3  C   UNL     1     141.231 136.303 143.804  1.00  0.00     0.050 A 
ATOM      4  C   UNL     1     140.000 136.893 144.097  1.00  0.00     0.008 A 
ATOM      5  C   UNL     1     139.268 137.537 143.088  1.00  0.00    -0.040 A 
ATOM      6  C   UNL     1     139.792 137.600 141.788  1.00  0.00     0.054 A 
ENDROOT
BRANCH   1   7
ATOM      7  O   UNL     1     141.590 137.046 140.199  1.00  0.00    -0.493 OA
ATOM      8  C   UNL     1     141.119 136.279 139.096  1.00  0.00     0.278 C 
ENDBRANCH   1   7
BRANCH   2   9
ATOM      9  O   UNL     1     142.979 135.768 142.214  1.00  0.00    -0.504 OA
ATOM     10  H   UNL     1     143.852 136.195 142.500  1.00  0.00     0.293 HD
ENDBRANCH   2   9
BRANCH   5  11
ATOM     11  C   UNL     1     137.954 138.198 143.415  1.00  0.00     0.062 C 
BRANCH  11  12
ATOM     12  C   UNL     1     137.269 138.669 142.162  1.00  0.00    -0.030 C 
ATOM     13  C   UNL     1     136.032 139.175 142.186  1.00  0.00     0.004 C 
ENDBRANCH  11  12
ENDBRANCH   5  11
TORSDOF 4
ENDMDL
MODEL 3
REMARK VINA RESULT:    -3.379      4.902      5.967
REMARK INTER + INTRA:          -4.273
REMARK INTER:                  -4.070
REMARK INTRA:                  -0.203
REMARK UNBOUND:                -0.204
REMARK SMILES C=CCc1ccc(O)c(OC)c1
REMARK SMILES IDX 9 1 7 2 6 3 5 4 4 5 12 6 10 7 11 8 8 9 3 11 2 12 1 13
REMARK H PARENT 8 10
REMARK Flexibility Score: inf
ROOT
ATOM      1  C   UNL     1     144.587 141.135 141.560  1.00  0.00     0.160 A 
ATOM      2  C   UNL     1     145.277 141.810 142.578  1.00  0.00     0.157 A 
ATOM      3  C   UNL     1     145.378 141.244 143.855  1.00  0.00     0.050 A 
ATOM      4  C   UNL     1     144.794 140.005 144.124  1.00  0.00     0.008 A 
ATOM      5  C   UNL     1     144.110 139.311 143.114  1.00  0.00    -0.040 A 
ATOM      6  C   UNL     1     144.001 139.883 141.837  1.00  0.00     0.054 A 
ENDROOT
BRANCH   1   7
ATOM      7  O   UNL     1     144.503 141.737 140.295  1.00  0.00    -0.493 OA
ATOM      8  C   UNL     1     145.324 141.394 139.184  1.00  0.00     0.278 C 
ENDBRANCH   1   7
BRANCH   2   9
ATOM      9  O   UNL     1     145.860 143.048 142.310  1.00  0.00    -0.504 OA
ATOM     10  H   UNL     1     146.849 143.134 142.104  1.00  0.00     0.293 HD
ENDBRANCH   2   9
BRANCH   5  11
ATOM     11  C   UNL     1     143.457 137.989 143.416  1.00  0.00     0.062 C 
BRANCH  11  12
ATOM     12  C   UNL     1     143.082 137.277 142.146  1.00  0.00    -0.030 C 
ATOM     13  C   UNL     1     142.399 136.128 142.160  1.00  0.00     0.004 C 
ENDBRANCH  11  12
ENDBRANCH   5  11
TORSDOF 4
ENDMDL
MODEL 4
REMARK VINA RESULT:    -3.347      7.285      7.504
REMARK INTER + INTRA:          -4.235
REMARK INTER:                  -3.983
REMARK INTRA:                  -0.252
REMARK UNBOUND:                -0.204
REMARK SMILES C=CCc1ccc(O)c(OC)c1
REMARK SMILES IDX 9 1 7 2 6 3 5 4 4 5 12 6 10 7 11 8 8 9 3 11 2 12 1 13
REMARK H PARENT 8 10
REMARK Flexibility Score: inf
ROOT
ATOM      1  C   UNL     1     138.348 138.133 141.921  1.00  0.00     0.160 A 
ATOM      2  C   UNL     1     138.103 137.969 143.292  1.00  0.00     0.157 A 
ATOM      3  C   UNL     1     139.079 137.397 144.117  1.00  0.00     0.050 A 
ATOM      4  C   UNL     1     140.301 136.986 143.583  1.00  0.00     0.008 A 
ATOM      5  C   UNL     1     140.566 137.153 142.215  1.00  0.00    -0.040 A 
ATOM      6  C   UNL     1     139.584 137.719 141.386  1.00  0.00     0.054 A 
ENDROOT
BRANCH   1   7
ATOM      7  O   UNL     1     137.343 138.706 141.125  1.00  0.00    -0.493 OA
ATOM      8  C   UNL     1     137.353 140.052 140.661  1.00  0.00     0.278 C 
ENDBRANCH   1   7
BRANCH   2   9
ATOM      9  O   UNL     1     136.883 138.379 143.827  1.00  0.00    -0.504 OA
ATOM     10  H   UNL     1     136.836 139.041 144.593  1.00  0.00     0.293 HD
ENDBRANCH   2   9
BRANCH   5  11
ATOM     11  C   UNL     1     141.874 136.682 141.637  1.00  0.00     0.062 C 
BRANCH  11  12
ATOM     12  C   UNL     1     141.862 135.193 141.435  1.00  0.00    -0.030 C 
ATOM     13  C   UNL     1     141.657 134.649 140.231  1.00  0.00     0.004 C 
ENDBRANCH  11  12
ENDBRANCH   5  11
TORSDOF 4
ENDMDL
MODEL 5
REMARK VINA RESULT:    -3.320      2.527      4.520
REMARK INTER + INTRA:          -4.202
REMARK INTER:                  -3.940
REMARK INTRA:                  -0.263
REMARK UNBOUND:                -0.204
REMARK SMILES C=CCc1ccc(O)c(OC)c1
REMARK SMILES IDX 9 1 7 2 6 3 5 4 4 5 12 6 10 7 11 8 8 9 3 11 2 12 1 13
REMARK H PARENT 8 10
REMARK Flexibility Score: inf
ROOT
ATOM      1  C   UNL     1     143.247 143.448 141.909  1.00  0.00     0.160 A 
ATOM      2  C   UNL     1     143.496 143.597 143.281  1.00  0.00     0.157 A 
ATOM      3  C   UNL     1     142.503 144.108 144.125  1.00  0.00     0.050 A 
ATOM      4  C   UNL     1     141.259 144.474 143.608  1.00  0.00     0.008 A 
ATOM      5  C   UNL     1     140.990 144.321 142.239  1.00  0.00    -0.040 A 
ATOM      6  C   UNL     1     141.989 143.817 141.392  1.00  0.00     0.054 A 
ENDROOT
BRANCH   1   7
ATOM      7  O   UNL     1     144.270 142.936 141.094  1.00  0.00    -0.493 OA
ATOM      8  C   UNL     1     144.353 141.583 140.662  1.00  0.00     0.278 C 
ENDBRANCH   1   7
BRANCH   2   9
ATOM      9  O   UNL     1     144.738 143.232 143.799  1.00  0.00    -0.504 OA
ATOM     10  H   UNL     1     145.060 142.271 143.777  1.00  0.00     0.293 HD
ENDBRANCH   2   9
BRANCH   5  11
ATOM     11  C   UNL     1     139.657 144.744 141.680  1.00  0.00     0.062 C 
BRANCH  11  12
ATOM     12  C   UNL     1     139.559 146.242 141.612  1.00  0.00    -0.030 C 
ATOM     13  C   UNL     1     139.919 146.921 140.519  1.00  0.00     0.004 C 
ENDBRANCH  11  12
ENDBRANCH   5  11
TORSDOF 4
ENDMDL
MODEL 6
REMARK VINA RESULT:    -3.302      6.656      7.829
REMARK INTER + INTRA:          -4.181
REMARK INTER:                  -3.989
REMARK INTRA:                  -0.191
REMARK UNBOUND:                -0.204
REMARK SMILES C=CCc1ccc(O)c(OC)c1
REMARK SMILES IDX 9 1 7 2 6 3 5 4 4 5 12 6 10 7 11 8 8 9 3 11 2 12 1 13
REMARK H PARENT 8 10
REMARK Flexibility Score: inf
ROOT
ATOM      1  C   UNL     1     141.966 138.916 144.019  1.00  0.00     0.160 A 
ATOM      2  C   UNL     1     142.660 137.698 144.055  1.00  0.00     0.157 A 
ATOM      3  C   UNL     1     141.956 136.489 144.109  1.00  0.00     0.050 A 
ATOM      4  C   UNL     1     140.561 136.486 144.125  1.00  0.00     0.008 A 
ATOM      5  C   UNL     1     139.851 137.696 144.077  1.00  0.00    -0.040 A 
ATOM      6  C   UNL     1     140.557 138.909 144.033  1.00  0.00     0.054 A 
ENDROOT
BRANCH   1   7
ATOM      7  O   UNL     1     142.707 140.108 143.971  1.00  0.00    -0.493 OA
ATOM      8  C   UNL     1     142.199 141.355 143.511  1.00  0.00     0.278 C 
ENDBRANCH   1   7
BRANCH   2   9
ATOM      9  O   UNL     1     144.054 137.699 144.039  1.00  0.00    -0.504 OA
ATOM     10  H   UNL     1     144.579 138.475 143.653  1.00  0.00     0.293 HD
ENDBRANCH   2   9
BRANCH   5  11
ATOM     11  C   UNL     1     138.346 137.691 144.124  1.00  0.00     0.062 C 
BRANCH  11  12
ATOM     12  C   UNL     1     137.770 138.203 142.834  1.00  0.00    -0.030 C 
ATOM     13  C   UNL     1     136.762 139.080 142.813  1.00  0.00     0.004 C 
ENDBRANCH  11  12
ENDBRANCH   5  11
TORSDOF 4
ENDMDL
MODEL 7
REMARK VINA RESULT:    -3.302      5.058      6.031
REMARK INTER + INTRA:          -4.181
REMARK INTER:                  -3.977
REMARK INTRA:                  -0.204
REMARK UNBOUND:                -0.204
REMARK SMILES C=CCc1ccc(O)c(OC)c1
REMARK SMILES IDX 9 1 7 2 6 3 5 4 4 5 12 6 10 7 11 8 8 9 3 11 2 12 1 13
REMARK H PARENT 8 10
REMARK Flexibility Score: inf
ROOT
ATOM      1  C   UNL     1     136.990 140.666 141.500  1.00  0.00     0.160 A 
ATOM      2  C   UNL     1     136.368 139.950 142.533  1.00  0.00     0.157 A 
ATOM      3  C   UNL     1     136.377 140.452 143.840  1.00  0.00     0.050 A 
ATOM      4  C   UNL     1     137.004 141.666 144.125  1.00  0.00     0.008 A 
ATOM      5  C   UNL     1     137.621 142.399 143.100  1.00  0.00    -0.040 A 
ATOM      6  C   UNL     1     137.620 141.892 141.791  1.00  0.00     0.054 A 
ENDROOT
BRANCH   1   7
ATOM      7  O   UNL     1     136.963 140.128 140.203  1.00  0.00    -0.493 OA
ATOM      8  C   UNL     1     136.048 140.522 139.186  1.00  0.00     0.278 C 
ENDBRANCH   1   7
BRANCH   2   9
ATOM      9  O   UNL     1     135.741 138.737 142.250  1.00  0.00    -0.504 OA
ATOM     10  H   UNL     1     134.997 138.673 141.565  1.00  0.00     0.293 HD
ENDBRANCH   2   9
BRANCH   5  11
ATOM     11  C   UNL     1     138.322 143.694 143.416  1.00  0.00     0.062 C 
BRANCH  11  12
ATOM     12  C   UNL     1     138.733 144.400 142.154  1.00  0.00    -0.030 C 
ATOM     13  C   UNL     1     139.583 145.431 142.170  1.00  0.00     0.004 C 
ENDBRANCH  11  12
ENDBRANCH   5  11
TORSDOF 4
ENDMDL
MODEL 8
REMARK VINA RESULT:    -3.291      6.882      7.335
REMARK INTER + INTRA:          -4.168
REMARK INTER:                  -3.953
REMARK INTRA:                  -0.215
REMARK UNBOUND:                -0.204
REMARK SMILES C=CCc1ccc(O)c(OC)c1
REMARK SMILES IDX 9 1 7 2 6 3 5 4 4 5 12 6 10 7 11 8 8 9 3 11 2 12 1 13
REMARK H PARENT 8 10
REMARK Flexibility Score: inf
ROOT
ATOM      1  C   UNL     1     137.214 138.865 142.723  1.00  0.00     0.160 A 
ATOM      2  C   UNL     1     137.222 138.746 141.325  1.00  0.00     0.157 A 
ATOM      3  C   UNL     1     138.297 138.122 140.679  1.00  0.00     0.050 A 
ATOM      4  C   UNL     1     139.366 137.616 141.419  1.00  0.00     0.008 A 
ATOM      5  C   UNL     1     139.368 137.717 142.819  1.00  0.00    -0.040 A 
ATOM      6  C   UNL     1     138.295 138.350 143.466  1.00  0.00     0.054 A 
ENDROOT
BRANCH   1   7
ATOM      7  O   UNL     1     136.122 139.501 143.334  1.00  0.00    -0.493 OA
ATOM      8  C   UNL     1     136.215 140.680 144.125  1.00  0.00     0.278 C 
ENDBRANCH   1   7
BRANCH   2   9
ATOM      9  O   UNL     1     136.155 139.252 140.584  1.00  0.00    -0.504 OA
ATOM     10  H   UNL     1     136.226 140.131 140.087  1.00  0.00     0.293 HD
ENDBRANCH   2   9
BRANCH   5  11
ATOM     11  C   UNL     1     140.537 137.195 143.612  1.00  0.00     0.062 C 
BRANCH  11  12
ATOM     12  C   UNL     1     141.348 136.230 142.794  1.00  0.00    -0.030 C 
ATOM     13  C   UNL     1     142.626 136.471 142.485  1.00  0.00     0.004 C 
ENDBRANCH  11  12
ENDBRANCH   5  11
TORSDOF 4
ENDMDL
MODEL 9
REMARK VINA RESULT:    -3.290      3.048      5.317
REMARK INTER + INTRA:          -4.166
REMARK INTER:                  -3.927
REMARK INTRA:                  -0.239
REMARK UNBOUND:                -0.204
REMARK SMILES C=CCc1ccc(O)c(OC)c1
REMARK SMILES IDX 9 1 7 2 6 3 5 4 4 5 12 6 10 7 11 8 8 9 3 11 2 12 1 13
REMARK H PARENT 8 10
REMARK Flexibility Score: inf
ROOT
ATOM      1  C   UNL     1     144.372 142.819 142.805  1.00  0.00     0.160 A 
ATOM      2  C   UNL     1     144.390 142.892 141.405  1.00  0.00     0.157 A 
ATOM      3  C   UNL     1     143.340 143.515 140.720  1.00  0.00     0.050 A 
ATOM      4  C   UNL     1     142.269 144.068 141.424  1.00  0.00     0.008 A 
ATOM      5  C   UNL     1     142.242 144.014 142.826  1.00  0.00    -0.040 A 
ATOM      6  C   UNL     1     143.290 143.381 143.512  1.00  0.00     0.054 A 
ENDROOT
BRANCH   1   7
ATOM      7  O   UNL     1     145.441 142.182 143.456  1.00  0.00    -0.493 OA
ATOM      8  C   UNL     1     145.345 140.929 144.124  1.00  0.00     0.278 C 
ENDBRANCH   1   7
BRANCH   2   9
ATOM      9  O   UNL     1     145.459 142.340 140.700  1.00  0.00    -0.504 OA
ATOM     10  H   UNL     1     146.061 141.639 141.115  1.00  0.00     0.293 HD
ENDBRANCH   2   9
BRANCH   5  11
ATOM     11  C   UNL     1     141.071 144.585 143.580  1.00  0.00     0.062 C 
BRANCH  11  12
ATOM     12  C   UNL     1     140.038 145.126 142.632  1.00  0.00    -0.030 C 
ATOM     13  C   UNL     1     138.816 144.591 142.544  1.00  0.00     0.004 C 
ENDBRANCH  11  12
ENDBRANCH   5  11
TORSDOF 4
ENDMDL
