MODEL 1
REMARK VINA RESULT:    -5.258      0.000      0.000
REMARK INTER + INTRA:          -5.258
REMARK INTER:                  -5.258
REMARK INTRA:                   0.000
REMARK UNBOUND:                 0.000
REMARK SMILES CC1=CC=CC(C)(C)[C@H]1C
REMARK SMILES IDX 10 1 9 2 2 3 3 4 4 5 5 6 6 7 7 8 8 9 1 10
REMARK H PARENT
REMARK Flexibility Score: inf
ROOT
ATOM      1  C   UNL     1       6.870   4.875  13.380  1.00  0.00     0.013 C 
ATOM      2  C   UNL     1       6.458   6.091  12.519  1.00  0.00     0.021 C 
ATOM      3  C   UNL     1       4.934   6.203  12.358  1.00  0.00    -0.070 C 
ATOM      4  C   UNL     1       4.393   7.381  12.009  1.00  0.00    -0.001 C 
ATOM      5  C   UNL     1       5.214   8.588  11.856  1.00  0.00    -0.004 C 
ATOM      6  C   UNL     1       6.479   8.612  12.274  1.00  0.00    -0.020 C 
ATOM      7  C   UNL     1       7.087   7.444  13.031  1.00  0.00    -0.011 C 
ATOM      8  C   UNL     1       8.613   7.473  12.784  1.00  0.00     0.016 C 
ATOM      9  C   UNL     1       6.813   7.666  14.535  1.00  0.00     0.016 C 
ATOM     10  C   UNL     1       4.009   5.012  12.430  1.00  0.00     0.040 C 
ENDROOT
TORSDOF 0
ENDMDL
MODEL 2
REMARK VINA RESULT:    -4.593      1.182      2.752
REMARK INTER + INTRA:          -4.593
REMARK INTER:                  -4.593
REMARK INTRA:                   0.000
REMARK UNBOUND:                 0.000
REMARK SMILES CC1=CC=CC(C)(C)[C@H]1C
REMARK SMILES IDX 10 1 9 2 2 3 3 4 4 5 5 6 6 7 7 8 8 9 1 10
REMARK H PARENT
REMARK Flexibility Score: inf
ROOT
ATOM      1  C   UNL     1       4.001   7.124  13.500  1.00  0.00     0.013 C 
ATOM      2  C   UNL     1       5.160   6.890  12.504  1.00  0.00     0.021 C 
ATOM      3  C   UNL     1       5.465   8.136  11.659  1.00  0.00    -0.070 C 
ATOM      4  C   UNL     1       6.661   8.250  11.059  1.00  0.00    -0.001 C 
ATOM      5  C   UNL     1       7.717   7.250  11.259  1.00  0.00    -0.004 C 
ATOM      6  C   UNL     1       7.611   6.322  12.209  1.00  0.00    -0.020 C 
ATOM      7  C   UNL     1       6.461   6.330  13.200  1.00  0.00    -0.011 C 
ATOM      8  C   UNL     1       6.249   4.875  13.679  1.00  0.00     0.016 C 
ATOM      9  C   UNL     1       6.883   7.203  14.402  1.00  0.00     0.016 C 
ATOM     10  C   UNL     1       4.429   9.187  11.339  1.00  0.00     0.040 C 
ENDROOT
TORSDOF 0
ENDMDL
MODEL 3
REMARK VINA RESULT:    -4.566      0.978      2.977
REMARK INTER + INTRA:          -4.566
REMARK INTER:                  -4.566
REMARK INTRA:                   0.000
REMARK UNBOUND:                 0.000
REMARK SMILES CC1=CC=CC(C)(C)[C@H]1C
REMARK SMILES IDX 10 1 9 2 2 3 3 4 4 5 5 6 6 7 7 8 8 9 1 10
REMARK H PARENT
REMARK Flexibility Score: inf
ROOT
ATOM      1  C   UNL     1       7.595   7.899  13.555  1.00  0.00     0.013 C 
ATOM      2  C   UNL     1       6.264   7.119  13.453  1.00  0.00     0.021 C 
ATOM      3  C   UNL     1       5.374   7.628  12.309  1.00  0.00    -0.070 C 
ATOM      4  C   UNL     1       4.406   6.835  11.824  1.00  0.00    -0.001 C 
ATOM      5  C   UNL     1       4.229   5.458  12.303  1.00  0.00    -0.004 C 
ATOM      6  C   UNL     1       5.153   4.875  13.066  1.00  0.00    -0.020 C 
ATOM      7  C   UNL     1       6.475   5.557  13.371  1.00  0.00    -0.011 C 
ATOM      8  C   UNL     1       6.988   4.997  14.718  1.00  0.00     0.016 C 
ATOM      9  C   UNL     1       7.469   5.176  12.253  1.00  0.00     0.016 C 
ATOM     10  C   UNL     1       5.431   9.045  11.791  1.00  0.00     0.040 C 
ENDROOT
TORSDOF 0
ENDMDL
MODEL 4
REMARK VINA RESULT:    -4.171      1.126      2.938
REMARK INTER + INTRA:          -4.171
REMARK INTER:                  -4.171
REMARK INTRA:                   0.000
REMARK UNBOUND:                 0.000
REMARK SMILES CC1=CC=CC(C)(C)[C@H]1C
REMARK SMILES IDX 10 1 9 2 2 3 3 4 4 5 5 6 6 7 7 8 8 9 1 10
REMARK H PARENT
REMARK Flexibility Score: inf
ROOT
ATOM      1  C   UNL     1       4.545   6.042  12.340  1.00  0.00     0.013 C 
ATOM      2  C   UNL     1       5.472   7.024  13.093  1.00  0.00     0.021 C 
ATOM      3  C   UNL     1       6.629   6.306  13.804  1.00  0.00    -0.070 C 
ATOM      4  C   UNL     1       7.726   7.001  14.145  1.00  0.00    -0.001 C 
ATOM      5  C   UNL     1       7.881   8.415  13.782  1.00  0.00    -0.004 C 
ATOM      6  C   UNL     1       7.053   8.995  12.915  1.00  0.00    -0.020 C 
ATOM      7  C   UNL     1       5.994   8.197  12.175  1.00  0.00    -0.011 C 
ATOM      8  C   UNL     1       4.847   9.168  11.813  1.00  0.00     0.016 C 
ATOM      9  C   UNL     1       6.633   7.660  10.875  1.00  0.00     0.016 C 
ATOM     10  C   UNL     1       6.543   4.875  14.278  1.00  0.00     0.040 C 
ENDROOT
TORSDOF 0
ENDMDL
MODEL 5
REMARK VINA RESULT:    -3.507      1.170      3.075
REMARK INTER + INTRA:          -3.507
REMARK INTER:                  -3.507
REMARK INTRA:                   0.000
REMARK UNBOUND:                 0.000
REMARK SMILES CC1=CC=CC(C)(C)[C@H]1C
REMARK SMILES IDX 10 1 9 2 2 3 3 4 4 5 5 6 6 7 7 8 8 9 1 10
REMARK H PARENT
REMARK Flexibility Score: inf
ROOT
ATOM      1  C   UNL     1       6.425   5.964  14.274  1.00  0.00     0.013 C 
ATOM      2  C   UNL     1       6.089   7.195  13.401  1.00  0.00     0.021 C 
ATOM      3  C   UNL     1       7.087   7.385  12.249  1.00  0.00    -0.070 C 
ATOM      4  C   UNL     1       6.733   8.123  11.185  1.00  0.00    -0.001 C 
ATOM      5  C   UNL     1       5.383   8.687  11.057  1.00  0.00    -0.004 C 
ATOM      6  C   UNL     1       4.401   8.304  11.871  1.00  0.00    -0.020 C 
ATOM      7  C   UNL     1       4.599   7.187  12.882  1.00  0.00    -0.011 C 
ATOM      8  C   UNL     1       3.606   7.429  14.042  1.00  0.00     0.016 C 
ATOM      9  C   UNL     1       4.247   5.855  12.183  1.00  0.00     0.016 C 
ATOM     10  C   UNL     1       8.516   6.903  12.311  1.00  0.00     0.040 C 
ENDROOT
TORSDOF 0
ENDMDL
MODEL 6
REMARK VINA RESULT:    -3.432      1.175      3.103
REMARK INTER + INTRA:          -3.432
REMARK INTER:                  -3.432
REMARK INTRA:                   0.000
REMARK UNBOUND:                 0.000
REMARK SMILES CC1=CC=CC(C)(C)[C@H]1C
REMARK SMILES IDX 10 1 9 2 2 3 3 4 4 5 5 6 6 7 7 8 8 9 1 10
REMARK H PARENT
REMARK Flexibility Score: inf
ROOT
ATOM      1  C   UNL     1       7.403   8.261  12.459  1.00  0.00     0.013 C 
ATOM      2  C   UNL     1       6.313   7.243  12.052  1.00  0.00     0.021 C 
ATOM      3  C   UNL     1       6.686   5.803  12.434  1.00  0.00    -0.070 C 
ATOM      4  C   UNL     1       5.720   4.876  12.533  1.00  0.00    -0.001 C 
ATOM      5  C   UNL     1       4.303   5.223  12.367  1.00  0.00    -0.004 C 
ATOM      6  C   UNL     1       3.909   6.495  12.336  1.00  0.00    -0.020 C 
ATOM      7  C   UNL     1       4.882   7.633  12.592  1.00  0.00    -0.011 C 
ATOM      8  C   UNL     1       4.337   8.883  11.863  1.00  0.00     0.016 C 
ATOM      9  C   UNL     1       4.901   7.901  14.113  1.00  0.00     0.016 C 
ATOM     10  C   UNL     1       8.114   5.329  12.562  1.00  0.00     0.040 C 
ENDROOT
TORSDOF 0
ENDMDL
MODEL 7
REMARK VINA RESULT:    -3.234      1.034      3.742
REMARK INTER + INTRA:          -3.234
REMARK INTER:                  -3.234
REMARK INTRA:                   0.000
REMARK UNBOUND:                 0.000
REMARK SMILES CC1=CC=CC(C)(C)[C@H]1C
REMARK SMILES IDX 10 1 9 2 2 3 3 4 4 5 5 6 6 7 7 8 8 9 1 10
REMARK H PARENT
REMARK Flexibility Score: inf
ROOT
ATOM      1  C   UNL     1       6.257   9.049  12.228  1.00  0.00     0.013 C 
ATOM      2  C   UNL     1       6.379   7.510  12.314  1.00  0.00     0.021 C 
ATOM      3  C   UNL     1       7.355   7.063  13.413  1.00  0.00    -0.070 C 
ATOM      4  C   UNL     1       7.277   5.812  13.895  1.00  0.00    -0.001 C 
ATOM      5  C   UNL     1       6.226   4.885  13.457  1.00  0.00    -0.004 C 
ATOM      6  C   UNL     1       5.187   5.316  12.742  1.00  0.00    -0.020 C 
ATOM      7  C   UNL     1       4.980   6.794  12.455  1.00  0.00    -0.011 C 
ATOM      8  C   UNL     1       4.168   6.903  11.144  1.00  0.00     0.016 C 
ATOM      9  C   UNL     1       4.152   7.386  13.616  1.00  0.00     0.016 C 
ATOM     10  C   UNL     1       8.509   7.914  13.885  1.00  0.00     0.040 C 
ENDROOT
TORSDOF 0
ENDMDL
MODEL 8
REMARK VINA RESULT:    -3.116      4.927      7.031
REMARK INTER + INTRA:          -3.116
REMARK INTER:                  -3.116
REMARK INTRA:                   0.000
REMARK UNBOUND:                 0.000
REMARK SMILES CC1=CC=CC(C)(C)[C@H]1C
REMARK SMILES IDX 10 1 9 2 2 3 3 4 4 5 5 6 6 7 7 8 8 9 1 10
REMARK H PARENT
REMARK Flexibility Score: inf
ROOT
ATOM      1  C   UNL     1       1.610  11.236  14.056  1.00  0.00     0.013 C 
ATOM      2  C   UNL     1       2.130  12.305  13.067  1.00  0.00     0.021 C 
ATOM      3  C   UNL     1       3.193  13.217  13.699  1.00  0.00    -0.070 C 
ATOM      4  C   UNL     1       4.027  13.906  12.904  1.00  0.00    -0.001 C 
ATOM      5  C   UNL     1       4.003  13.747  11.445  1.00  0.00    -0.004 C 
ATOM      6  C   UNL     1       3.317  12.758  10.875  1.00  0.00    -0.020 C 
ATOM      7  C   UNL     1       2.634  11.685  11.706  1.00  0.00    -0.011 C 
ATOM      8  C   UNL     1       1.450  11.137  10.876  1.00  0.00     0.016 C 
ATOM      9  C   UNL     1       3.655  10.551  11.941  1.00  0.00     0.016 C 
ATOM     10  C   UNL     1       3.260  13.499  15.181  1.00  0.00     0.040 C 
ENDROOT
TORSDOF 0
ENDMDL
