MODEL 1
REMARK VINA RESULT:    -3.868      0.000      0.000
REMARK INTER + INTRA:          -4.207
REMARK INTER:                  -4.207
REMARK INTRA:                   0.000
REMARK UNBOUND:                 0.000
REMARK SMILES Oc1cccc(O)c1O
REMARK SMILES IDX 4 1 5 2 6 3 8 4 2 5 3 6 7 7 1 9 9 11
REMARK H PARENT 7 8 1 10 9 12
REMARK Flexibility Score: inf
ROOT
ATOM      1  C   UNL     1       7.141  22.465  -7.110  1.00  0.00     0.008 A 
ATOM      2  C   UNL     1       7.468  23.587  -6.347  1.00  0.00     0.050 A 
ATOM      3  C   UNL     1       8.575  23.561  -5.491  1.00  0.00     0.161 A 
ATOM      4  C   UNL     1       9.363  22.399  -5.400  1.00  0.00     0.200 A 
ATOM      5  C   UNL     1       9.032  21.269  -6.172  1.00  0.00     0.161 A 
ATOM      6  C   UNL     1       7.919  21.309  -7.025  1.00  0.00     0.050 A 
ENDROOT
BRANCH   3   7
ATOM      7  O   UNL     1       8.876  24.698  -4.741  1.00  0.00    -0.504 OA
ATOM      8  H   UNL     1       8.275  25.024  -3.995  1.00  0.00     0.293 HD
ENDBRANCH   3   7
BRANCH   5   9
ATOM      9  O   UNL     1       9.807  20.114  -6.088  1.00  0.00    -0.504 OA
ATOM     10  H   UNL     1       9.710  19.466  -5.315  1.00  0.00     0.293 HD
ENDBRANCH   5   9
BRANCH   4  11
ATOM     11  O   UNL     1      10.467  22.379  -4.546  1.00  0.00    -0.502 OA
ATOM     12  H   UNL     1      11.393  22.124  -4.867  1.00  0.00     0.293 HD
ENDBRANCH   4  11
TORSDOF 3
ENDMDL
MODEL 2
REMARK VINA RESULT:    -3.864      1.142      2.032
REMARK INTER + INTRA:          -4.202
REMARK INTER:                  -4.202
REMARK INTRA:                   0.000
REMARK UNBOUND:                 0.000
REMARK SMILES Oc1cccc(O)c1O
REMARK SMILES IDX 4 1 5 2 6 3 8 4 2 5 3 6 7 7 1 9 9 11
REMARK H PARENT 7 8 1 10 9 12
REMARK Flexibility Score: inf
ROOT
ATOM      1  C   UNL     1       7.415  23.277  -6.845  1.00  0.00     0.008 A 
ATOM      2  C   UNL     1       8.685  23.433  -6.286  1.00  0.00     0.050 A 
ATOM      3  C   UNL     1       9.474  22.313  -6.003  1.00  0.00     0.161 A 
ATOM      4  C   UNL     1       8.986  21.023  -6.282  1.00  0.00     0.200 A 
ATOM      5  C   UNL     1       7.705  20.869  -6.846  1.00  0.00     0.161 A 
ATOM      6  C   UNL     1       6.925  22.000  -7.124  1.00  0.00     0.050 A 
ENDROOT
BRANCH   3   7
ATOM      7  O   UNL     1      10.738  22.501  -5.445  1.00  0.00    -0.504 OA
ATOM      8  H   UNL     1      11.406  21.745  -5.356  1.00  0.00     0.293 HD
ENDBRANCH   3   7
BRANCH   5   9
ATOM      9  O   UNL     1       7.214  19.594  -7.125  1.00  0.00    -0.504 OA
ATOM     10  H   UNL     1       7.299  19.184  -8.047  1.00  0.00     0.293 HD
ENDBRANCH   5   9
BRANCH   4  11
ATOM     11  O   UNL     1       9.778  19.909  -5.998  1.00  0.00    -0.502 OA
ATOM     12  H   UNL     1      10.662  19.986  -5.510  1.00  0.00     0.293 HD
ENDBRANCH   4  11
TORSDOF 3
ENDMDL
MODEL 3
REMARK VINA RESULT:    -3.863      0.033      2.808
REMARK INTER + INTRA:          -4.202
REMARK INTER:                  -4.202
REMARK INTRA:                   0.000
REMARK UNBOUND:                 0.000
REMARK SMILES Oc1cccc(O)c1O
REMARK SMILES IDX 4 1 5 2 6 3 8 4 2 5 3 6 7 7 1 9 9 11
REMARK H PARENT 7 8 1 10 9 12
REMARK Flexibility Score: inf
ROOT
ATOM      1  C   UNL     1       7.125  22.487  -7.096  1.00  0.00     0.008 A 
ATOM      2  C   UNL     1       7.897  21.327  -6.998  1.00  0.00     0.050 A 
ATOM      3  C   UNL     1       9.009  21.289  -6.150  1.00  0.00     0.161 A 
ATOM      4  C   UNL     1       9.351  22.423  -5.391  1.00  0.00     0.200 A 
ATOM      5  C   UNL     1       8.570  23.591  -5.490  1.00  0.00     0.161 A 
ATOM      6  C   UNL     1       7.459  23.616  -6.345  1.00  0.00     0.050 A 
ENDROOT
BRANCH   3   7
ATOM      7  O   UNL     1       9.761  20.117  -6.075  1.00  0.00    -0.504 OA
ATOM      8  H   UNL     1       9.499  19.276  -6.575  1.00  0.00     0.293 HD
ENDBRANCH   3   7
BRANCH   5   9
ATOM      9  O   UNL     1       8.902  24.719  -4.742  1.00  0.00    -0.504 OA
ATOM     10  H   UNL     1       8.253  25.125  -4.078  1.00  0.00     0.293 HD
ENDBRANCH   5   9
BRANCH   4  11
ATOM     11  O   UNL     1      10.460  22.379  -4.545  1.00  0.00    -0.502 OA
ATOM     12  H   UNL     1      11.355  22.014  -4.848  1.00  0.00     0.293 HD
ENDBRANCH   4  11
TORSDOF 3
ENDMDL
MODEL 4
REMARK VINA RESULT:    -3.742      2.810      4.108
REMARK INTER + INTRA:          -4.071
REMARK INTER:                  -4.071
REMARK INTRA:                   0.000
REMARK UNBOUND:                 0.000
REMARK SMILES Oc1cccc(O)c1O
REMARK SMILES IDX 4 1 5 2 6 3 8 4 2 5 3 6 7 7 1 9 9 11
REMARK H PARENT 7 8 1 10 9 12
REMARK Flexibility Score: inf
ROOT
ATOM      1  C   UNL     1      12.386  25.027  -4.427  1.00  0.00     0.008 A 
ATOM      2  C   UNL     1      12.022  24.216  -3.351  1.00  0.00     0.050 A 
ATOM      3  C   UNL     1      11.043  23.229  -3.510  1.00  0.00     0.161 A 
ATOM      4  C   UNL     1      10.424  23.051  -4.761  1.00  0.00     0.200 A 
ATOM      5  C   UNL     1      10.795  23.869  -5.845  1.00  0.00     0.161 A 
ATOM      6  C   UNL     1      11.776  24.856  -5.671  1.00  0.00     0.050 A 
ENDROOT
BRANCH   3   7
ATOM      7  O   UNL     1      10.700  22.436  -2.415  1.00  0.00    -0.504 OA
ATOM      8  H   UNL     1       9.857  22.597  -1.877  1.00  0.00     0.293 HD
ENDBRANCH   3   7
BRANCH   5   9
ATOM      9  O   UNL     1      10.186  23.700  -7.088  1.00  0.00    -0.504 OA
ATOM     10  H   UNL     1       9.239  23.348  -7.171  1.00  0.00     0.293 HD
ENDBRANCH   5   9
BRANCH   4  11
ATOM     11  O   UNL     1       9.449  22.064  -4.914  1.00  0.00    -0.502 OA
ATOM     12  H   UNL     1       9.368  21.282  -4.276  1.00  0.00     0.293 HD
ENDBRANCH   4  11
TORSDOF 3
ENDMDL
MODEL 5
REMARK VINA RESULT:    -3.731      2.797      4.115
REMARK INTER + INTRA:          -4.058
REMARK INTER:                  -4.058
REMARK INTRA:                   0.000
REMARK UNBOUND:                 0.000
REMARK SMILES Oc1cccc(O)c1O
REMARK SMILES IDX 4 1 5 2 6 3 8 4 2 5 3 6 7 7 1 9 9 11
REMARK H PARENT 7 8 1 10 9 12
REMARK Flexibility Score: inf
ROOT
ATOM      1  C   UNL     1      12.350  25.034  -4.429  1.00  0.00     0.008 A 
ATOM      2  C   UNL     1      11.769  24.804  -5.677  1.00  0.00     0.050 A 
ATOM      3  C   UNL     1      10.809  23.798  -5.836  1.00  0.00     0.161 A 
ATOM      4  C   UNL     1      10.427  23.015  -4.731  1.00  0.00     0.200 A 
ATOM      5  C   UNL     1      11.013  23.249  -3.472  1.00  0.00     0.161 A 
ATOM      6  C   UNL     1      11.974  24.260  -3.329  1.00  0.00     0.050 A 
ENDROOT
BRANCH   3   7
ATOM      7  O   UNL     1      10.248  23.592  -7.096  1.00  0.00    -0.504 OA
ATOM      8  H   UNL     1      10.701  23.907  -7.944  1.00  0.00     0.293 HD
ENDBRANCH   3   7
BRANCH   5   9
ATOM      9  O   UNL     1      10.639  22.477  -2.373  1.00  0.00    -0.504 OA
ATOM     10  H   UNL     1      11.248  21.759  -1.999  1.00  0.00     0.293 HD
ENDBRANCH   5   9
BRANCH   4  11
ATOM     11  O   UNL     1       9.468  22.013  -4.894  1.00  0.00    -0.502 OA
ATOM     12  H   UNL     1       9.355  21.261  -4.226  1.00  0.00     0.293 HD
ENDBRANCH   4  11
TORSDOF 3
ENDMDL
MODEL 6
REMARK VINA RESULT:    -3.537      2.647      3.774
REMARK INTER + INTRA:          -3.847
REMARK INTER:                  -3.847
REMARK INTRA:                   0.000
REMARK UNBOUND:                 0.000
REMARK SMILES Oc1cccc(O)c1O
REMARK SMILES IDX 4 1 5 2 6 3 8 4 2 5 3 6 7 7 1 9 9 11
REMARK H PARENT 7 8 1 10 9 12
REMARK Flexibility Score: inf
ROOT
ATOM      1  C   UNL     1      11.477  24.158  -6.793  1.00  0.00     0.008 A 
ATOM      2  C   UNL     1      12.498  23.673  -5.973  1.00  0.00     0.050 A 
ATOM      3  C   UNL     1      12.203  23.158  -4.706  1.00  0.00     0.161 A 
ATOM      4  C   UNL     1      10.871  23.128  -4.255  1.00  0.00     0.200 A 
ATOM      5  C   UNL     1       9.842  23.615  -5.084  1.00  0.00     0.161 A 
ATOM      6  C   UNL     1      10.152  24.130  -6.351  1.00  0.00     0.050 A 
ENDROOT
BRANCH   3   7
ATOM      7  O   UNL     1      13.246  22.683  -3.911  1.00  0.00    -0.504 OA
ATOM      8  H   UNL     1      14.214  22.738  -4.203  1.00  0.00     0.293 HD
ENDBRANCH   3   7
BRANCH   5   9
ATOM      9  O   UNL     1       8.519  23.589  -4.644  1.00  0.00    -0.504 OA
ATOM     10  H   UNL     1       7.822  23.009  -5.096  1.00  0.00     0.293 HD
ENDBRANCH   5   9
BRANCH   4  11
ATOM     11  O   UNL     1      10.582  22.612  -2.991  1.00  0.00    -0.502 OA
ATOM     12  H   UNL     1      10.664  21.625  -2.779  1.00  0.00     0.293 HD
ENDBRANCH   4  11
TORSDOF 3
ENDMDL
MODEL 7
REMARK VINA RESULT:    -3.515      2.705      4.157
REMARK INTER + INTRA:          -3.824
REMARK INTER:                  -3.824
REMARK INTRA:                   0.000
REMARK UNBOUND:                 0.000
REMARK SMILES Oc1cccc(O)c1O
REMARK SMILES IDX 4 1 5 2 6 3 8 4 2 5 3 6 7 7 1 9 9 11
REMARK H PARENT 7 8 1 10 9 12
REMARK Flexibility Score: inf
ROOT
ATOM      1  C   UNL     1      11.478  24.593  -6.308  1.00  0.00     0.008 A 
ATOM      2  C   UNL     1      10.653  23.467  -6.277  1.00  0.00     0.050 A 
ATOM      3  C   UNL     1      10.357  22.842  -5.060  1.00  0.00     0.161 A 
ATOM      4  C   UNL     1      10.893  23.351  -3.862  1.00  0.00     0.200 A 
ATOM      5  C   UNL     1      11.723  24.487  -3.897  1.00  0.00     0.161 A 
ATOM      6  C   UNL     1      12.012  25.103  -5.123  1.00  0.00     0.050 A 
ENDROOT
BRANCH   3   7
ATOM      7  O   UNL     1       9.531  21.719  -5.061  1.00  0.00    -0.504 OA
ATOM      8  H   UNL     1       8.560  21.764  -4.777  1.00  0.00     0.293 HD
ENDBRANCH   3   7
BRANCH   5   9
ATOM      9  O   UNL     1      12.258  24.997  -2.714  1.00  0.00    -0.504 OA
ATOM     10  H   UNL     1      12.167  25.976  -2.471  1.00  0.00     0.293 HD
ENDBRANCH   5   9
BRANCH   4  11
ATOM     11  O   UNL     1      10.593  22.724  -2.652  1.00  0.00    -0.502 OA
ATOM     12  H   UNL     1      11.077  22.952  -1.792  1.00  0.00     0.293 HD
ENDBRANCH   4  11
TORSDOF 3
ENDMDL
MODEL 8
REMARK VINA RESULT:    -3.426      2.689      3.386
REMARK INTER + INTRA:          -3.727
REMARK INTER:                  -3.727
REMARK INTRA:                   0.000
REMARK UNBOUND:                 0.000
REMARK SMILES Oc1cccc(O)c1O
REMARK SMILES IDX 4 1 5 2 6 3 8 4 2 5 3 6 7 7 1 9 9 11
REMARK H PARENT 7 8 1 10 9 12
REMARK Flexibility Score: inf
ROOT
ATOM      1  C   UNL     1       9.632  22.772  -5.896  1.00  0.00     0.008 A 
ATOM      2  C   UNL     1       9.721  22.818  -4.504  1.00  0.00     0.050 A 
ATOM      3  C   UNL     1      10.943  23.100  -3.883  1.00  0.00     0.161 A 
ATOM      4  C   UNL     1      12.088  23.338  -4.666  1.00  0.00     0.200 A 
ATOM      5  C   UNL     1      11.995  23.292  -6.070  1.00  0.00     0.161 A 
ATOM      6  C   UNL     1      10.764  23.008  -6.679  1.00  0.00     0.050 A 
ENDROOT
BRANCH   3   7
ATOM      7  O   UNL     1      11.001  23.138  -2.490  1.00  0.00    -0.504 OA
ATOM      8  H   UNL     1      11.599  22.517  -1.959  1.00  0.00     0.293 HD
ENDBRANCH   3   7
BRANCH   5   9
ATOM      9  O   UNL     1      13.125  23.526  -6.853  1.00  0.00    -0.504 OA
ATOM     10  H   UNL     1      14.021  23.750  -6.437  1.00  0.00     0.293 HD
ENDBRANCH   5   9
BRANCH   4  11
ATOM     11  O   UNL     1      13.305  23.619  -4.042  1.00  0.00    -0.502 OA
ATOM     12  H   UNL     1      13.556  23.220  -3.146  1.00  0.00     0.293 HD
ENDBRANCH   4  11
TORSDOF 3
ENDMDL
MODEL 9
REMARK VINA RESULT:    -2.961      1.840      3.294
REMARK INTER + INTRA:          -3.220
REMARK INTER:                  -3.220
REMARK INTRA:                   0.000
REMARK UNBOUND:                 0.000
REMARK SMILES Oc1cccc(O)c1O
REMARK SMILES IDX 4 1 5 2 6 3 8 4 2 5 3 6 7 7 1 9 9 11
REMARK H PARENT 7 8 1 10 9 12
REMARK Flexibility Score: inf
ROOT
ATOM      1  C   UNL     1      11.031  21.356  -7.104  1.00  0.00     0.008 A 
ATOM      2  C   UNL     1       9.677  21.046  -6.959  1.00  0.00     0.050 A 
ATOM      3  C   UNL     1       8.821  21.922  -6.281  1.00  0.00     0.161 A 
ATOM      4  C   UNL     1       9.327  23.120  -5.743  1.00  0.00     0.200 A 
ATOM      5  C   UNL     1      10.693  23.429  -5.891  1.00  0.00     0.161 A 
ATOM      6  C   UNL     1      11.539  22.543  -6.572  1.00  0.00     0.050 A 
ENDROOT
BRANCH   3   7
ATOM      7  O   UNL     1       7.474  21.585  -6.152  1.00  0.00    -0.504 OA
ATOM      8  H   UNL     1       7.161  20.846  -5.534  1.00  0.00     0.293 HD
ENDBRANCH   3   7
BRANCH   5   9
ATOM      9  O   UNL     1      11.202  24.614  -5.361  1.00  0.00    -0.504 OA
ATOM     10  H   UNL     1      11.789  24.616  -4.535  1.00  0.00     0.293 HD
ENDBRANCH   5   9
BRANCH   4  11
ATOM     11  O   UNL     1       8.469  23.990  -5.068  1.00  0.00    -0.502 OA
ATOM     12  H   UNL     1       8.519  24.994  -5.185  1.00  0.00     0.293 HD
ENDBRANCH   4  11
TORSDOF 3
ENDMDL
