MODEL 1
REMARK VINA RESULT:    -5.165      0.000      0.000
REMARK INTER + INTRA:          -5.618
REMARK INTER:                  -5.618
REMARK INTRA:                   0.000
REMARK UNBOUND:                 0.000
REMARK SMILES Oc1cccc(O)c1O
REMARK SMILES IDX 4 1 5 2 6 3 8 4 2 5 3 6 7 7 1 9 9 11
REMARK H PARENT 7 8 1 10 9 12
REMARK Flexibility Score: inf
ROOT
ATOM      1  C   UNL     1     -25.498  59.516  12.467  1.00  0.00     0.008 A 
ATOM      2  C   UNL     1     -25.851  60.550  11.597  1.00  0.00     0.050 A 
ATOM      3  C   UNL     1     -26.830  60.343  10.616  1.00  0.00     0.161 A 
ATOM      4  C   UNL     1     -27.459  59.089  10.510  1.00  0.00     0.200 A 
ATOM      5  C   UNL     1     -27.102  58.053  11.385  1.00  0.00     0.161 A 
ATOM      6  C   UNL     1     -26.120  58.270  12.363  1.00  0.00     0.050 A 
ENDROOT
BRANCH   3   7
ATOM      7  O   UNL     1     -27.181  61.377   9.749  1.00  0.00    -0.504 OA
ATOM      8  H   UNL     1     -27.483  62.280  10.093  1.00  0.00     0.293 HD
ENDBRANCH   3   7
BRANCH   5   9
ATOM      9  O   UNL     1     -27.726  56.811  11.277  1.00  0.00    -0.504 OA
ATOM     10  H   UNL     1     -27.206  55.975  11.038  1.00  0.00     0.293 HD
ENDBRANCH   5   9
BRANCH   4  11
ATOM     11  O   UNL     1     -28.436  58.857   9.542  1.00  0.00    -0.502 OA
ATOM     12  H   UNL     1     -28.391  58.069   8.907  1.00  0.00     0.293 HD
ENDBRANCH   4  11
TORSDOF 3
ENDMDL
MODEL 2
REMARK VINA RESULT:    -5.119      0.725      2.837
REMARK INTER + INTRA:          -5.567
REMARK INTER:                  -5.567
REMARK INTRA:                   0.000
REMARK UNBOUND:                 0.000
REMARK SMILES Oc1cccc(O)c1O
REMARK SMILES IDX 4 1 5 2 6 3 8 4 2 5 3 6 7 7 1 9 9 11
REMARK H PARENT 7 8 1 10 9 12
REMARK Flexibility Score: inf
ROOT
ATOM      1  C   UNL     1     -25.329  60.211  12.703  1.00  0.00     0.008 A 
ATOM      2  C   UNL     1     -25.652  58.866  12.897  1.00  0.00     0.050 A 
ATOM      3  C   UNL     1     -26.532  58.219  12.020  1.00  0.00     0.161 A 
ATOM      4  C   UNL     1     -27.093  58.929  10.941  1.00  0.00     0.200 A 
ATOM      5  C   UNL     1     -26.766  60.279  10.750  1.00  0.00     0.161 A 
ATOM      6  C   UNL     1     -25.884  60.918  11.633  1.00  0.00     0.050 A 
ENDROOT
BRANCH   3   7
ATOM      7  O   UNL     1     -26.853  56.876  12.215  1.00  0.00    -0.504 OA
ATOM      8  H   UNL     1     -27.493  56.584  12.944  1.00  0.00     0.293 HD
ENDBRANCH   3   7
BRANCH   5   9
ATOM      9  O   UNL     1     -27.322  60.979   9.681  1.00  0.00    -0.504 OA
ATOM     10  H   UNL     1     -27.169  60.692   8.722  1.00  0.00     0.293 HD
ENDBRANCH   5   9
BRANCH   4  11
ATOM     11  O   UNL     1     -27.972  58.307  10.054  1.00  0.00    -0.502 OA
ATOM     12  H   UNL     1     -28.592  58.835   9.451  1.00  0.00     0.293 HD
ENDBRANCH   4  11
TORSDOF 3
ENDMDL
MODEL 3
REMARK VINA RESULT:    -5.116      6.931      8.429
REMARK INTER + INTRA:          -5.565
REMARK INTER:                  -5.565
REMARK INTRA:                   0.000
REMARK UNBOUND:                 0.000
REMARK SMILES Oc1cccc(O)c1O
REMARK SMILES IDX 4 1 5 2 6 3 8 4 2 5 3 6 7 7 1 9 9 11
REMARK H PARENT 7 8 1 10 9 12
REMARK Flexibility Score: inf
ROOT
ATOM      1  C   UNL     1     -29.871  57.286   2.049  1.00  0.00     0.008 A 
ATOM      2  C   UNL     1     -30.780  56.911   3.040  1.00  0.00     0.050 A 
ATOM      3  C   UNL     1     -30.552  57.265   4.377  1.00  0.00     0.161 A 
ATOM      4  C   UNL     1     -29.403  58.001   4.719  1.00  0.00     0.200 A 
ATOM      5  C   UNL     1     -28.492  58.376   3.721  1.00  0.00     0.161 A 
ATOM      6  C   UNL     1     -28.729  58.017   2.386  1.00  0.00     0.050 A 
ENDROOT
BRANCH   3   7
ATOM      7  O   UNL     1     -31.461  56.889   5.365  1.00  0.00    -0.504 OA
ATOM      8  H   UNL     1     -32.417  56.639   5.140  1.00  0.00     0.293 HD
ENDBRANCH   3   7
BRANCH   5   9
ATOM      9  O   UNL     1     -27.354  59.105   4.062  1.00  0.00    -0.504 OA
ATOM     10  H   UNL     1     -26.989  59.832   3.458  1.00  0.00     0.293 HD
ENDBRANCH   5   9
BRANCH   4  11
ATOM     11  O   UNL     1     -29.152  58.366   6.042  1.00  0.00    -0.502 OA
ATOM     12  H   UNL     1     -29.869  58.326   6.757  1.00  0.00     0.293 HD
ENDBRANCH   4  11
TORSDOF 3
ENDMDL
MODEL 4
REMARK VINA RESULT:    -5.115      6.940      8.145
REMARK INTER + INTRA:          -5.564
REMARK INTER:                  -5.564
REMARK INTRA:                   0.000
REMARK UNBOUND:                 0.000
REMARK SMILES Oc1cccc(O)c1O
REMARK SMILES IDX 4 1 5 2 6 3 8 4 2 5 3 6 7 7 1 9 9 11
REMARK H PARENT 7 8 1 10 9 12
REMARK Flexibility Score: inf
ROOT
ATOM      1  C   UNL     1     -29.818  57.260   2.034  1.00  0.00     0.008 A 
ATOM      2  C   UNL     1     -28.698  58.013   2.390  1.00  0.00     0.050 A 
ATOM      3  C   UNL     1     -28.491  58.381   3.727  1.00  0.00     0.161 A 
ATOM      4  C   UNL     1     -29.417  57.988   4.711  1.00  0.00     0.200 A 
ATOM      5  C   UNL     1     -30.541  57.232   4.350  1.00  0.00     0.161 A 
ATOM      6  C   UNL     1     -30.739  56.870   3.010  1.00  0.00     0.050 A 
ENDROOT
BRANCH   3   7
ATOM      7  O   UNL     1     -27.371  59.133   4.080  1.00  0.00    -0.504 OA
ATOM      8  H   UNL     1     -26.670  59.394   3.398  1.00  0.00     0.293 HD
ENDBRANCH   3   7
BRANCH   5   9
ATOM      9  O   UNL     1     -31.457  56.845   5.326  1.00  0.00    -0.504 OA
ATOM     10  H   UNL     1     -31.522  55.884   5.641  1.00  0.00     0.293 HD
ENDBRANCH   5   9
BRANCH   4  11
ATOM     11  O   UNL     1     -29.234  58.342   6.048  1.00  0.00    -0.502 OA
ATOM     12  H   UNL     1     -29.387  57.686   6.805  1.00  0.00     0.293 HD
ENDBRANCH   4  11
TORSDOF 3
ENDMDL
MODEL 5
REMARK VINA RESULT:    -5.107     16.704     17.161
REMARK INTER + INTRA:          -5.554
REMARK INTER:                  -5.554
REMARK INTRA:                   0.000
REMARK UNBOUND:                 0.000
REMARK SMILES Oc1cccc(O)c1O
REMARK SMILES IDX 4 1 5 2 6 3 8 4 2 5 3 6 7 7 1 9 9 11
REMARK H PARENT 7 8 1 10 9 12
REMARK Flexibility Score: inf
ROOT
ATOM      1  C   UNL     1     -19.390  58.596  -5.212  1.00  0.00     0.008 A 
ATOM      2  C   UNL     1     -20.728  58.658  -5.606  1.00  0.00     0.050 A 
ATOM      3  C   UNL     1     -21.621  57.645  -5.233  1.00  0.00     0.161 A 
ATOM      4  C   UNL     1     -21.165  56.561  -4.459  1.00  0.00     0.200 A 
ATOM      5  C   UNL     1     -19.820  56.502  -4.066  1.00  0.00     0.161 A 
ATOM      6  C   UNL     1     -18.935  57.521  -4.444  1.00  0.00     0.050 A 
ENDROOT
BRANCH   3   7
ATOM      7  O   UNL     1     -22.957  57.709  -5.628  1.00  0.00    -0.504 OA
ATOM      8  H   UNL     1     -23.483  58.573  -5.582  1.00  0.00     0.293 HD
ENDBRANCH   3   7
BRANCH   5   9
ATOM      9  O   UNL     1     -19.371  55.428  -3.300  1.00  0.00    -0.504 OA
ATOM     10  H   UNL     1     -19.804  54.514  -3.361  1.00  0.00     0.293 HD
ENDBRANCH   5   9
BRANCH   4  11
ATOM     11  O   UNL     1     -22.033  55.539  -4.076  1.00  0.00    -0.502 OA
ATOM     12  H   UNL     1     -22.710  55.657  -3.332  1.00  0.00     0.293 HD
ENDBRANCH   4  11
TORSDOF 3
ENDMDL
MODEL 6
REMARK VINA RESULT:    -5.077     16.713     17.281
REMARK INTER + INTRA:          -5.523
REMARK INTER:                  -5.523
REMARK INTRA:                   0.000
REMARK UNBOUND:                 0.000
REMARK SMILES Oc1cccc(O)c1O
REMARK SMILES IDX 4 1 5 2 6 3 8 4 2 5 3 6 7 7 1 9 9 11
REMARK H PARENT 7 8 1 10 9 12
REMARK Flexibility Score: inf
ROOT
ATOM      1  C   UNL     1     -19.397  58.601  -5.213  1.00  0.00     0.008 A 
ATOM      2  C   UNL     1     -18.939  57.522  -4.454  1.00  0.00     0.050 A 
ATOM      3  C   UNL     1     -19.820  56.499  -4.079  1.00  0.00     0.161 A 
ATOM      4  C   UNL     1     -21.170  56.561  -4.469  1.00  0.00     0.200 A 
ATOM      5  C   UNL     1     -21.627  57.646  -5.231  1.00  0.00     0.161 A 
ATOM      6  C   UNL     1     -20.737  58.665  -5.602  1.00  0.00     0.050 A 
ENDROOT
BRANCH   3   7
ATOM      7  O   UNL     1     -19.360  55.423  -3.320  1.00  0.00    -0.504 OA
ATOM      8  H   UNL     1     -18.735  54.728  -3.710  1.00  0.00     0.293 HD
ENDBRANCH   3   7
BRANCH   5   9
ATOM      9  O   UNL     1     -22.965  57.705  -5.617  1.00  0.00    -0.504 OA
ATOM     10  H   UNL     1     -23.363  58.543  -6.025  1.00  0.00     0.293 HD
ENDBRANCH   5   9
BRANCH   4  11
ATOM     11  O   UNL     1     -22.068  55.556  -4.108  1.00  0.00    -0.502 OA
ATOM     12  H   UNL     1     -22.555  54.995  -4.796  1.00  0.00     0.293 HD
ENDBRANCH   4  11
TORSDOF 3
ENDMDL
MODEL 7
REMARK VINA RESULT:    -5.075     11.408     12.516
REMARK INTER + INTRA:          -5.520
REMARK INTER:                  -5.520
REMARK INTRA:                   0.000
REMARK UNBOUND:                 0.000
REMARK SMILES Oc1cccc(O)c1O
REMARK SMILES IDX 4 1 5 2 6 3 8 4 2 5 3 6 7 7 1 9 9 11
REMARK H PARENT 7 8 1 10 9 12
REMARK Flexibility Score: inf
ROOT
ATOM      1  C   UNL     1     -29.301  57.333   0.380  1.00  0.00     0.008 A 
ATOM      2  C   UNL     1     -28.053  56.922   0.854  1.00  0.00     0.050 A 
ATOM      3  C   UNL     1     -26.964  56.822  -0.023  1.00  0.00     0.161 A 
ATOM      4  C   UNL     1     -27.131  57.136  -1.384  1.00  0.00     0.200 A 
ATOM      5  C   UNL     1     -28.386  57.548  -1.857  1.00  0.00     0.161 A 
ATOM      6  C   UNL     1     -29.469  57.645  -0.971  1.00  0.00     0.050 A 
ENDROOT
BRANCH   3   7
ATOM      7  O   UNL     1     -25.719  56.411   0.452  1.00  0.00    -0.504 OA
ATOM      8  H   UNL     1     -25.477  56.477   1.433  1.00  0.00     0.293 HD
ENDBRANCH   3   7
BRANCH   5   9
ATOM      9  O   UNL     1     -28.549  57.859  -3.205  1.00  0.00    -0.504 OA
ATOM     10  H   UNL     1     -28.915  57.182  -3.865  1.00  0.00     0.293 HD
ENDBRANCH   5   9
BRANCH   4  11
ATOM     11  O   UNL     1     -26.064  57.043  -2.278  1.00  0.00    -0.502 OA
ATOM     12  H   UNL     1     -25.151  57.430  -2.069  1.00  0.00     0.293 HD
ENDBRANCH   4  11
TORSDOF 3
ENDMDL
MODEL 8
REMARK VINA RESULT:    -4.992     17.770     18.334
REMARK INTER + INTRA:          -5.430
REMARK INTER:                  -5.430
REMARK INTRA:                   0.000
REMARK UNBOUND:                 0.000
REMARK SMILES Oc1cccc(O)c1O
REMARK SMILES IDX 4 1 5 2 6 3 8 4 2 5 3 6 7 7 1 9 9 11
REMARK H PARENT 7 8 1 10 9 12
REMARK Flexibility Score: inf
ROOT
ATOM      1  C   UNL     1     -19.451  56.476  -4.191  1.00  0.00     0.008 A 
ATOM      2  C   UNL     1     -20.626  57.229  -4.200  1.00  0.00     0.050 A 
ATOM      3  C   UNL     1     -20.817  58.228  -5.165  1.00  0.00     0.161 A 
ATOM      4  C   UNL     1     -19.818  58.470  -6.127  1.00  0.00     0.200 A 
ATOM      5  C   UNL     1     -18.639  57.712  -6.114  1.00  0.00     0.161 A 
ATOM      6  C   UNL     1     -18.458  56.715  -5.145  1.00  0.00     0.050 A 
ENDROOT
BRANCH   3   7
ATOM      7  O   UNL     1     -21.991  58.980  -5.172  1.00  0.00    -0.504 OA
ATOM      8  H   UNL     1     -22.853  58.614  -5.557  1.00  0.00     0.293 HD
ENDBRANCH   3   7
BRANCH   5   9
ATOM      9  O   UNL     1     -17.652  57.954  -7.068  1.00  0.00    -0.504 OA
ATOM     10  H   UNL     1     -17.809  58.583  -7.846  1.00  0.00     0.293 HD
ENDBRANCH   5   9
BRANCH   4  11
ATOM     11  O   UNL     1     -19.983  59.459  -7.097  1.00  0.00    -0.502 OA
ATOM     12  H   UNL     1     -19.229  60.081  -7.367  1.00  0.00     0.293 HD
ENDBRANCH   4  11
TORSDOF 3
ENDMDL
MODEL 9
REMARK VINA RESULT:    -4.988     17.715     18.276
REMARK INTER + INTRA:          -5.426
REMARK INTER:                  -5.426
REMARK INTRA:                   0.000
REMARK UNBOUND:                 0.000
REMARK SMILES Oc1cccc(O)c1O
REMARK SMILES IDX 4 1 5 2 6 3 8 4 2 5 3 6 7 7 1 9 9 11
REMARK H PARENT 7 8 1 10 9 12
REMARK Flexibility Score: inf
ROOT
ATOM      1  C   UNL     1     -19.535  56.453  -4.124  1.00  0.00     0.008 A 
ATOM      2  C   UNL     1     -18.496  56.692  -5.026  1.00  0.00     0.050 A 
ATOM      3  C   UNL     1     -18.624  57.688  -6.003  1.00  0.00     0.161 A 
ATOM      4  C   UNL     1     -19.806  58.448  -6.075  1.00  0.00     0.200 A 
ATOM      5  C   UNL     1     -20.849  58.205  -5.168  1.00  0.00     0.161 A 
ATOM      6  C   UNL     1     -20.710  57.206  -4.194  1.00  0.00     0.050 A 
ENDROOT
BRANCH   3   7
ATOM      7  O   UNL     1     -17.585  57.924  -6.902  1.00  0.00    -0.504 OA
ATOM      8  H   UNL     1     -16.986  57.177  -7.230  1.00  0.00     0.293 HD
ENDBRANCH   3   7
BRANCH   5   9
ATOM      9  O   UNL     1     -22.018  58.960  -5.241  1.00  0.00    -0.504 OA
ATOM     10  H   UNL     1     -21.995  59.972  -5.265  1.00  0.00     0.293 HD
ENDBRANCH   5   9
BRANCH   4  11
ATOM     11  O   UNL     1     -19.960  59.445  -7.039  1.00  0.00    -0.502 OA
ATOM     12  H   UNL     1     -20.800  59.528  -7.600  1.00  0.00     0.293 HD
ENDBRANCH   4  11
TORSDOF 3
ENDMDL
