MODEL 1
REMARK VINA RESULT:    -5.306      0.000      0.000
REMARK INTER + INTRA:          -7.828
REMARK INTER:                  -7.322
REMARK INTRA:                  -0.506
REMARK UNBOUND:                -0.506
REMARK SMILES O=C([O-])[C@H]1O[C@H](Oc2cc3oc(-c4ccccc4)cc(=O)c3c(O)c2O)[C@@H](O)[C@H](O)[C@H]1O
REMARK SMILES IDX 7 1 6 2 4 3 31 4 5 5 29 6 27 7 2 8 1 9 3 10 32 11 30 13
REMARK SMILES IDX 28 15 8 17 25 18 9 19 23 20 10 21 22 22 11 23 20 24 12 25
REMARK SMILES IDX 19 26 21 27 26 28 24 30 13 32 14 33 18 34 15 35 17 36 16 37
REMARK H PARENT 32 12 30 14 28 16 26 29 24 31
REMARK Flexibility Score: inf
ROOT
ATOM      1  O   UNL     1      62.608 153.457   6.220  1.00  0.00    -0.458 OA
ENDROOT
BRANCH   1   2
ATOM      2  C   UNL     1      61.490 154.341   6.351  1.00  0.00     0.339 C 
ATOM      3  C   UNL     1      59.109 154.346   6.203  1.00  0.00     0.199 C 
ATOM      4  C   UNL     1      58.993 155.156   7.529  1.00  0.00     0.180 C 
ATOM      5  O   UNL     1      60.310 153.582   6.121  1.00  0.00    -0.328 OA
ATOM      6  C   UNL     1      60.290 155.922   7.850  1.00  0.00     0.181 C 
ATOM      7  C   UNL     1      61.474 154.954   7.765  1.00  0.00     0.214 C 
BRANCH   3   8
ATOM      8  C   UNL     1      58.828 155.135   4.940  1.00  0.00     0.073 C 
ATOM      9  O   UNL     1      58.457 156.337   5.027  1.00  0.00    -0.547 OA
ATOM     10  O   UNL     1      58.902 154.548   3.683  1.00  0.00    -0.547 OA
ENDBRANCH   3   8
BRANCH   4  11
ATOM     11  O   UNL     1      57.875 156.012   7.540  1.00  0.00    -0.387 OA
ATOM     12  H   UNL     1      58.214 156.947   7.513  1.00  0.00     0.211 HD
ENDBRANCH   4  11
BRANCH   6  13
ATOM     13  O   UNL     1      60.226 156.524   9.122  1.00  0.00    -0.387 OA
ATOM     14  H   UNL     1      61.135 156.841   9.356  1.00  0.00     0.211 HD
ENDBRANCH   6  13
BRANCH   7  15
ATOM     15  O   UNL     1      62.665 155.649   8.030  1.00  0.00    -0.384 OA
ATOM     16  H   UNL     1      63.353 154.971   8.269  1.00  0.00     0.211 HD
ENDBRANCH   7  15
ENDBRANCH   1   2
BRANCH   1  17
ATOM     17  C   UNL     1      62.564 152.078   5.942  1.00  0.00     0.172 A 
ATOM     18  C   UNL     1      63.462 151.574   4.988  1.00  0.00     0.201 A 
ATOM     19  C   UNL     1      61.676 151.203   6.590  1.00  0.00     0.098 A 
ATOM     20  C   UNL     1      63.489 150.186   4.691  1.00  0.00     0.176 A 
ATOM     21  C   UNL     1      61.691 149.838   6.311  1.00  0.00     0.146 A 
ATOM     22  C   UNL     1      62.600 149.310   5.365  1.00  0.00     0.111 A 
ATOM     23  O   UNL     1      60.843 149.040   6.955  1.00  0.00    -0.456 OA
ATOM     24  C   UNL     1      62.573 147.917   5.145  1.00  0.00     0.197 A 
ATOM     25  C   UNL     1      60.800 147.723   6.778  1.00  0.00     0.138 A 
ATOM     26  C   UNL     1      61.671 147.123   5.854  1.00  0.00     0.100 A 
ATOM     27  O   UNL     1      63.350 147.363   4.320  1.00  0.00    -0.289 OA
BRANCH  18  28
ATOM     28  O   UNL     1      64.315 152.490   4.364  1.00  0.00    -0.502 OA
ATOM     29  H   UNL     1      65.104 152.934   4.810  1.00  0.00     0.293 HD
ENDBRANCH  18  28
BRANCH  20  30
ATOM     30  O   UNL     1      64.381 149.658   3.750  1.00  0.00    -0.504 OA
ATOM     31  H   UNL     1      64.154 149.468   2.785  1.00  0.00     0.293 HD
ENDBRANCH  20  30
BRANCH  25  32
ATOM     32  C   UNL     1      59.822 146.931   7.564  1.00  0.00     0.017 A 
ATOM     33  C   UNL     1      58.847 147.596   8.330  1.00  0.00     0.012 A 
ATOM     34  C   UNL     1      59.866 145.522   7.597  1.00  0.00     0.012 A 
ATOM     35  C   UNL     1      57.934 146.872   9.102  1.00  0.00     0.001 A 
ATOM     36  C   UNL     1      58.952 144.804   8.373  1.00  0.00     0.001 A 
ATOM     37  C   UNL     1      57.987 145.477   9.124  1.00  0.00     0.000 A 
ENDBRANCH  25  32
ENDBRANCH   1  17
TORSDOF 9
ENDMDL
