MODEL 1
REMARK VINA RESULT:     5.559      0.000      0.000
REMARK INTER + INTRA:           6.288
REMARK INTER:                   6.859
REMARK INTRA:                  -0.570
REMARK UNBOUND:                -0.570
REMARK SMILES CC(C)=CCC[C@@H](C)c1ccc(C)cc1
REMARK SMILES IDX 6 1 7 2 8 3 9 4 13 5 12 6 11 7 14 8 10 9 15 10 5 11 4 12
REMARK SMILES IDX 2 13 1 14 3 15
REMARK H PARENT
REMARK Flexibility Score: inf
ROOT
ATOM      1  C   UNL     1      38.363  -9.763 -20.235  1.00  0.00     0.012 C 
ENDROOT
BRANCH   1   2
ATOM      2  C   UNL     1      37.038 -10.515 -19.965  1.00  0.00     0.016 C 
ATOM      3  C   UNL     1      35.849  -9.905 -20.723  1.00  0.00     0.013 C 
BRANCH   2   4
ATOM      4  C   UNL     1      37.191 -11.985 -20.316  1.00  0.00    -0.045 A 
ATOM      5  C   UNL     1      37.588 -16.155 -21.370  1.00  0.00     0.044 C 
ATOM      6  C   UNL     1      37.477 -14.708 -20.990  1.00  0.00    -0.051 A 
ATOM      7  C   UNL     1      37.933 -13.710 -21.864  1.00  0.00     0.004 A 
ATOM      8  C   UNL     1      36.852 -14.339 -19.790  1.00  0.00     0.004 A 
ATOM      9  C   UNL     1      37.797 -12.360 -21.528  1.00  0.00     0.004 A 
ATOM     10  C   UNL     1      36.714 -12.989 -19.453  1.00  0.00     0.004 A 
ENDBRANCH   2   4
ENDBRANCH   1   2
BRANCH   1  11
ATOM     11  C   UNL     1      38.944  -9.057 -18.992  1.00  0.00     0.028 C 
BRANCH  11  12
ATOM     12  C   UNL     1      40.196  -9.731 -18.482  1.00  0.00    -0.028 C 
ATOM     13  C   UNL     1      41.320  -9.077 -18.113  1.00  0.00    -0.080 C 
ATOM     14  C   UNL     1      41.449  -7.574 -18.227  1.00  0.00     0.039 C 
ATOM     15  C   UNL     1      42.486  -9.885 -17.605  1.00  0.00     0.039 C 
ENDBRANCH  11  12
ENDBRANCH   1  11
TORSDOF 4
ENDMDL
MODEL 2
REMARK VINA RESULT:     5.617      0.023      1.251
REMARK INTER + INTRA:           6.360
REMARK INTER:                   6.928
REMARK INTRA:                  -0.568
REMARK UNBOUND:                -0.570
REMARK SMILES CC(C)=CCC[C@@H](C)c1ccc(C)cc1
REMARK SMILES IDX 6 1 7 2 8 3 9 4 13 5 12 6 11 7 14 8 10 9 15 10 5 11 4 12
REMARK SMILES IDX 2 13 1 14 3 15
REMARK H PARENT
REMARK Flexibility Score: inf
ROOT
ATOM      1  C   UNL     1      38.355  -9.760 -20.228  1.00  0.00     0.012 C 
ENDROOT
BRANCH   1   2
ATOM      2  C   UNL     1      37.028 -10.511 -19.966  1.00  0.00     0.016 C 
ATOM      3  C   UNL     1      35.839  -9.887 -20.713  1.00  0.00     0.013 C 
BRANCH   2   4
ATOM      4  C   UNL     1      37.175 -11.977 -20.337  1.00  0.00    -0.045 A 
ATOM      5  C   UNL     1      37.629 -16.154 -21.336  1.00  0.00     0.044 C 
ATOM      6  C   UNL     1      37.444 -14.703 -21.004  1.00  0.00    -0.051 A 
ATOM      7  C   UNL     1      36.851 -14.326 -19.790  1.00  0.00     0.004 A 
ATOM      8  C   UNL     1      37.928 -13.712 -21.871  1.00  0.00     0.004 A 
ATOM      9  C   UNL     1      36.712 -12.975 -19.462  1.00  0.00     0.004 A 
ATOM     10  C   UNL     1      37.790 -12.360 -21.543  1.00  0.00     0.004 A 
ENDBRANCH   2   4
ENDBRANCH   1   2
BRANCH   1  11
ATOM     11  C   UNL     1      38.936  -9.066 -18.979  1.00  0.00     0.028 C 
BRANCH  11  12
ATOM     12  C   UNL     1      40.190  -9.741 -18.477  1.00  0.00    -0.028 C 
ATOM     13  C   UNL     1      41.316  -9.089 -18.111  1.00  0.00    -0.080 C 
ATOM     14  C   UNL     1      41.445  -7.587 -18.221  1.00  0.00     0.039 C 
ATOM     15  C   UNL     1      42.484  -9.900 -17.611  1.00  0.00     0.039 C 
ENDBRANCH  11  12
ENDBRANCH   1  11
TORSDOF 4
ENDMDL
