MODEL 1
REMARK VINA RESULT:    -2.342      0.000      0.000
REMARK INTER + INTRA:          -2.342
REMARK INTER:                  -2.342
REMARK INTRA:                   0.000
REMARK UNBOUND:                 0.000
REMARK SMILES CC(=O)[O-]
REMARK SMILES IDX 1 1 2 2 3 3 4 4
REMARK H PARENT
REMARK Flexibility Score: inf
ROOT
ATOM      1  C   UNL     1     -30.621   6.646  -0.797  1.00  0.00     0.063 C 
ATOM      2  C   UNL     1     -31.269   7.234   0.411  1.00  0.00     0.038 C 
ATOM      3  O   UNL     1     -30.794   7.011   1.554  1.00  0.00    -0.550 OA
ATOM      4  O   UNL     1     -32.429   7.988   0.282  1.00  0.00    -0.550 OA
ENDROOT
TORSDOF 0
ENDMDL
MODEL 2
REMARK VINA RESULT:    -2.270      1.390      1.688
REMARK INTER + INTRA:          -2.270
REMARK INTER:                  -2.270
REMARK INTRA:                   0.000
REMARK UNBOUND:                 0.000
REMARK SMILES CC(=O)[O-]
REMARK SMILES IDX 1 1 2 2 3 3 4 4
REMARK H PARENT
REMARK Flexibility Score: inf
ROOT
ATOM      1  C   UNL     1     -30.482   7.117   1.489  1.00  0.00     0.063 C 
ATOM      2  C   UNL     1     -31.207   7.184   0.188  1.00  0.00     0.038 C 
ATOM      3  O   UNL     1     -30.751   6.587  -0.821  1.00  0.00    -0.550 OA
ATOM      4  O   UNL     1     -32.362   7.948   0.073  1.00  0.00    -0.550 OA
ENDROOT
TORSDOF 0
ENDMDL
MODEL 3
REMARK VINA RESULT:    -2.147      8.418      8.829
REMARK INTER + INTRA:          -2.147
REMARK INTER:                  -2.147
REMARK INTRA:                   0.000
REMARK UNBOUND:                 0.000
REMARK SMILES CC(=O)[O-]
REMARK SMILES IDX 1 1 2 2 3 3 4 4
REMARK H PARENT
REMARK Flexibility Score: inf
ROOT
ATOM      1  C   UNL     1     -27.062   8.244  -5.267  1.00  0.00     0.063 C 
ATOM      2  C   UNL     1     -26.289   8.786  -6.422  1.00  0.00     0.038 C 
ATOM      3  O   UNL     1     -26.770   9.712  -7.125  1.00  0.00    -0.550 OA
ATOM      4  O   UNL     1     -25.058   8.235  -6.756  1.00  0.00    -0.550 OA
ENDROOT
TORSDOF 0
ENDMDL
MODEL 4
REMARK VINA RESULT:    -2.145      1.951      2.172
REMARK INTER + INTRA:          -2.145
REMARK INTER:                  -2.145
REMARK INTRA:                   0.000
REMARK UNBOUND:                 0.000
REMARK SMILES CC(=O)[O-]
REMARK SMILES IDX 1 1 2 2 3 3 4 4
REMARK H PARENT
REMARK Flexibility Score: inf
ROOT
ATOM      1  C   UNL     1     -31.341   7.095   0.795  1.00  0.00     0.063 C 
ATOM      2  C   UNL     1     -30.103   7.072  -0.036  1.00  0.00     0.038 C 
ATOM      3  O   UNL     1     -29.001   7.417   0.463  1.00  0.00    -0.550 OA
ATOM      4  O   UNL     1     -30.171   6.719  -1.378  1.00  0.00    -0.550 OA
ENDROOT
TORSDOF 0
ENDMDL
MODEL 5
REMARK VINA RESULT:    -1.388     13.286     13.712
REMARK INTER + INTRA:          -1.388
REMARK INTER:                  -1.388
REMARK INTRA:                   0.000
REMARK UNBOUND:                 0.000
REMARK SMILES CC(=O)[O-]
REMARK SMILES IDX 1 1 2 2 3 3 4 4
REMARK H PARENT
REMARK Flexibility Score: inf
ROOT
ATOM      1  C   UNL     1     -26.334  -3.400  -4.887  1.00  0.00     0.063 C 
ATOM      2  C   UNL     1     -26.164  -3.336  -6.367  1.00  0.00     0.038 C 
ATOM      3  O   UNL     1     -27.173  -3.302  -7.118  1.00  0.00    -0.550 OA
ATOM      4  O   UNL     1     -24.891  -3.365  -6.923  1.00  0.00    -0.550 OA
ENDROOT
TORSDOF 0
ENDMDL
MODEL 6
REMARK VINA RESULT:    -1.257      6.490      6.763
REMARK INTER + INTRA:          -1.257
REMARK INTER:                  -1.257
REMARK INTRA:                   0.000
REMARK UNBOUND:                 0.000
REMARK SMILES CC(=O)[O-]
REMARK SMILES IDX 1 1 2 2 3 3 4 4
REMARK H PARENT
REMARK Flexibility Score: inf
ROOT
ATOM      1  C   UNL     1     -26.630   8.581  -6.223  1.00  0.00     0.063 C 
ATOM      2  C   UNL     1     -27.282   8.327  -4.906  1.00  0.00     0.038 C 
ATOM      3  O   UNL     1     -26.719   7.590  -4.055  1.00  0.00    -0.550 OA
ATOM      4  O   UNL     1     -28.535   8.860  -4.635  1.00  0.00    -0.550 OA
ENDROOT
TORSDOF 0
ENDMDL
MODEL 7
REMARK VINA RESULT:    -1.107      3.045      3.296
REMARK INTER + INTRA:          -1.107
REMARK INTER:                  -1.107
REMARK INTRA:                   0.000
REMARK UNBOUND:                 0.000
REMARK SMILES CC(=O)[O-]
REMARK SMILES IDX 1 1 2 2 3 3 4 4
REMARK H PARENT
REMARK Flexibility Score: inf
ROOT
ATOM      1  C   UNL     1     -30.167   6.869  -1.209  1.00  0.00     0.063 C 
ATOM      2  C   UNL     1     -28.821   7.511  -1.184  1.00  0.00     0.038 C 
ATOM      3  O   UNL     1     -28.246   7.729  -0.086  1.00  0.00    -0.550 OA
ATOM      4  O   UNL     1     -28.220   7.916  -2.368  1.00  0.00    -0.550 OA
ENDROOT
TORSDOF 0
ENDMDL
