MODEL 1
REMARK VINA RESULT:    -4.376      0.000      0.000
REMARK INTER + INTRA:          -5.237
REMARK INTER:                  -5.144
REMARK INTRA:                  -0.094
REMARK UNBOUND:                -0.094
REMARK SMILES O=C([O-])CCC(=O)[O-]
REMARK SMILES IDX 4 1 2 2 1 3 3 4 5 5 6 6 7 7 8 8
REMARK H PARENT
REMARK Flexibility Score: inf
ROOT
ATOM      1  C   UNL     1      95.953 124.062 124.090  1.00  0.00     0.059 C 
ENDROOT
BRANCH   1   2
ATOM      2  C   UNL     1      97.014 123.531 125.005  1.00  0.00     0.042 C 
ATOM      3  O   UNL     1      97.467 124.248 125.936  1.00  0.00    -0.550 OA
ATOM      4  O   UNL     1      97.474 122.229 124.854  1.00  0.00    -0.550 OA
ENDBRANCH   1   2
BRANCH   1   5
ATOM      5  C   UNL     1      95.475 122.995 123.100  1.00  0.00     0.059 C 
BRANCH   5   6
ATOM      6  C   UNL     1      94.116 122.479 123.458  1.00  0.00     0.042 C 
ATOM      7  O   UNL     1      93.634 122.698 124.601  1.00  0.00    -0.550 OA
ATOM      8  O   UNL     1      93.363 121.791 122.515  1.00  0.00    -0.550 OA
ENDBRANCH   5   6
ENDBRANCH   1   5
TORSDOF 3
ENDMDL
MODEL 2
REMARK VINA RESULT:    -4.346      0.072      3.742
REMARK INTER + INTRA:          -5.201
REMARK INTER:                  -5.106
REMARK INTRA:                  -0.095
REMARK UNBOUND:                -0.094
REMARK SMILES O=C([O-])CCC(=O)[O-]
REMARK SMILES IDX 4 1 2 2 1 3 3 4 5 5 6 6 7 7 8 8
REMARK H PARENT
REMARK Flexibility Score: inf
ROOT
ATOM      1  C   UNL     1      95.531 122.976 123.156  1.00  0.00     0.059 C 
ENDROOT
BRANCH   1   2
ATOM      2  C   UNL     1      94.142 122.514 123.478  1.00  0.00     0.042 C 
ATOM      3  O   UNL     1      93.630 122.778 124.598  1.00  0.00    -0.550 OA
ATOM      4  O   UNL     1      93.400 121.827 122.527  1.00  0.00    -0.550 OA
ENDBRANCH   1   2
BRANCH   1   5
ATOM      5  C   UNL     1      96.009 124.053 124.135  1.00  0.00     0.059 C 
BRANCH   5   6
ATOM      6  C   UNL     1      97.056 123.527 125.067  1.00  0.00     0.042 C 
ATOM      7  O   UNL     1      97.495 124.248 126.001  1.00  0.00    -0.550 OA
ATOM      8  O   UNL     1      97.519 122.224 124.927  1.00  0.00    -0.550 OA
ENDBRANCH   5   6
ENDBRANCH   1   5
TORSDOF 3
ENDMDL
MODEL 3
REMARK VINA RESULT:    -3.870      4.074      5.840
REMARK INTER + INTRA:          -4.642
REMARK INTER:                  -4.565
REMARK INTRA:                  -0.077
REMARK UNBOUND:                -0.094
REMARK SMILES O=C([O-])CCC(=O)[O-]
REMARK SMILES IDX 4 1 2 2 1 3 3 4 5 5 6 6 7 7 8 8
REMARK H PARENT
REMARK Flexibility Score: inf
ROOT
ATOM      1  C   UNL     1      98.809 121.428 126.028  1.00  0.00     0.059 C 
ENDROOT
BRANCH   1   2
ATOM      2  C   UNL     1      98.887 122.901 126.299  1.00  0.00     0.042 C 
ATOM      3  O   UNL     1      99.979 123.426 126.642  1.00  0.00    -0.550 OA
ATOM      4  O   UNL     1      97.762 123.698 126.133  1.00  0.00    -0.550 OA
ENDBRANCH   1   2
BRANCH   1   5
ATOM      5  C   UNL     1      99.918 120.662 126.757  1.00  0.00     0.059 C 
BRANCH   5   6
ATOM      6  C   UNL     1     100.902 120.069 125.797  1.00  0.00     0.042 C 
ATOM      7  O   UNL     1     102.102 119.901 126.141  1.00  0.00    -0.550 OA
ATOM      8  O   UNL     1     100.485 119.664 124.536  1.00  0.00    -0.550 OA
ENDBRANCH   5   6
ENDBRANCH   1   5
TORSDOF 3
ENDMDL
MODEL 4
REMARK VINA RESULT:    -3.857      1.677      4.192
REMARK INTER + INTRA:          -4.628
REMARK INTER:                  -4.543
REMARK INTRA:                  -0.084
REMARK UNBOUND:                -0.094
REMARK SMILES O=C([O-])CCC(=O)[O-]
REMARK SMILES IDX 4 1 2 2 1 3 3 4 5 5 6 6 7 7 8 8
REMARK H PARENT
REMARK Flexibility Score: inf
ROOT
ATOM      1  C   UNL     1      94.006 121.984 123.373  1.00  0.00     0.059 C 
ENDROOT
BRANCH   1   2
ATOM      2  C   UNL     1      93.512 121.904 121.959  1.00  0.00     0.042 C 
ATOM      3  O   UNL     1      92.276 121.894 121.719  1.00  0.00    -0.550 OA
ATOM      4  O   UNL     1      94.418 121.881 120.907  1.00  0.00    -0.550 OA
ENDBRANCH   1   2
BRANCH   1   5
ATOM      5  C   UNL     1      94.330 123.426 123.775  1.00  0.00     0.059 C 
BRANCH   5   6
ATOM      6  C   UNL     1      95.804 123.635 123.938  1.00  0.00     0.042 C 
ATOM      7  O   UNL     1      96.291 124.795 123.884  1.00  0.00    -0.550 OA
ATOM      8  O   UNL     1      96.635 122.551 124.191  1.00  0.00    -0.550 OA
ENDBRANCH   5   6
ENDBRANCH   1   5
TORSDOF 3
ENDMDL
MODEL 5
REMARK VINA RESULT:    -3.798      3.842      4.885
REMARK INTER + INTRA:          -4.558
REMARK INTER:                  -4.527
REMARK INTRA:                  -0.031
REMARK UNBOUND:                -0.094
REMARK SMILES O=C([O-])CCC(=O)[O-]
REMARK SMILES IDX 4 1 2 2 1 3 3 4 5 5 6 6 7 7 8 8
REMARK H PARENT
REMARK Flexibility Score: inf
ROOT
ATOM      1  C   UNL     1      98.125 123.882 126.129  1.00  0.00     0.059 C 
ENDROOT
BRANCH   1   2
ATOM      2  C   UNL     1      98.367 125.351 126.303  1.00  0.00     0.042 C 
ATOM      3  O   UNL     1      98.287 126.128 125.316  1.00  0.00    -0.550 OA
ATOM      4  O   UNL     1      98.640 125.865 127.564  1.00  0.00    -0.550 OA
ENDBRANCH   1   2
BRANCH   1   5
ATOM      5  C   UNL     1      99.402 123.069 126.365  1.00  0.00     0.059 C 
BRANCH   5   6
ATOM      6  C   UNL     1      99.149 121.597 126.249  1.00  0.00     0.042 C 
ATOM      7  O   UNL     1      98.270 121.165 125.458  1.00  0.00    -0.550 OA
ATOM      8  O   UNL     1      99.913 120.701 126.986  1.00  0.00    -0.550 OA
ENDBRANCH   5   6
ENDBRANCH   1   5
TORSDOF 3
ENDMDL
MODEL 6
REMARK VINA RESULT:    -3.756      4.302      5.833
REMARK INTER + INTRA:          -4.509
REMARK INTER:                  -4.468
REMARK INTRA:                  -0.041
REMARK UNBOUND:                -0.094
REMARK SMILES O=C([O-])CCC(=O)[O-]
REMARK SMILES IDX 4 1 2 2 1 3 3 4 5 5 6 6 7 7 8 8
REMARK H PARENT
REMARK Flexibility Score: inf
ROOT
ATOM      1  C   UNL     1     100.545 119.954 126.843  1.00  0.00     0.059 C 
ENDROOT
BRANCH   1   2
ATOM      2  C   UNL     1     101.605 120.125 125.796  1.00  0.00     0.042 C 
ATOM      3  O   UNL     1     102.000 119.135 125.126  1.00  0.00    -0.550 OA
ATOM      4  O   UNL     1     102.125 121.385 125.533  1.00  0.00    -0.550 OA
ENDBRANCH   1   2
BRANCH   1   5
ATOM      5  C   UNL     1      99.139 120.059 126.244  1.00  0.00     0.059 C 
BRANCH   5   6
ATOM      6  C   UNL     1      98.748 121.484 126.001  1.00  0.00     0.042 C 
ATOM      7  O   UNL     1      99.261 122.409 126.685  1.00  0.00    -0.550 OA
ATOM      8  O   UNL     1      97.845 121.794 124.992  1.00  0.00    -0.550 OA
ENDBRANCH   5   6
ENDBRANCH   1   5
TORSDOF 3
ENDMDL
MODEL 7
REMARK VINA RESULT:    -3.637      9.508     10.144
REMARK INTER + INTRA:          -4.369
REMARK INTER:                  -4.216
REMARK INTRA:                  -0.153
REMARK UNBOUND:                -0.094
REMARK SMILES O=C([O-])CCC(=O)[O-]
REMARK SMILES IDX 4 1 2 2 1 3 3 4 5 5 6 6 7 7 8 8
REMARK H PARENT
REMARK Flexibility Score: inf
ROOT
ATOM      1  C   UNL     1      87.099 121.227 131.009  1.00  0.00     0.059 C 
ENDROOT
BRANCH   1   2
ATOM      2  C   UNL     1      88.457 121.718 130.605  1.00  0.00     0.042 C 
ATOM      3  O   UNL     1      89.490 121.247 131.151  1.00  0.00    -0.550 OA
ATOM      4  O   UNL     1      88.582 122.665 129.597  1.00  0.00    -0.550 OA
ENDBRANCH   1   2
BRANCH   1   5
ATOM      5  C   UNL     1      86.845 119.800 130.514  1.00  0.00     0.059 C 
BRANCH   5   6
ATOM      6  C   UNL     1      86.966 119.703 129.024  1.00  0.00     0.042 C 
ATOM      7  O   UNL     1      87.899 119.035 128.505  1.00  0.00    -0.550 OA
ATOM      8  O   UNL     1      86.024 120.318 128.210  1.00  0.00    -0.550 OA
ENDBRANCH   5   6
ENDBRANCH   1   5
TORSDOF 3
ENDMDL
MODEL 8
REMARK VINA RESULT:    -3.635      2.252      3.594
REMARK INTER + INTRA:          -4.366
REMARK INTER:                  -4.328
REMARK INTRA:                  -0.038
REMARK UNBOUND:                -0.094
REMARK SMILES O=C([O-])CCC(=O)[O-]
REMARK SMILES IDX 4 1 2 2 1 3 3 4 5 5 6 6 7 7 8 8
REMARK H PARENT
REMARK Flexibility Score: inf
ROOT
ATOM      1  C   UNL     1      93.890 121.861 122.714  1.00  0.00     0.059 C 
ENDROOT
BRANCH   1   2
ATOM      2  C   UNL     1      94.172 122.762 123.879  1.00  0.00     0.042 C 
ATOM      3  O   UNL     1      93.382 122.796 124.859  1.00  0.00    -0.550 OA
ATOM      4  O   UNL     1      95.327 123.531 123.898  1.00  0.00    -0.550 OA
ENDBRANCH   1   2
BRANCH   1   5
ATOM      5  C   UNL     1      92.860 122.477 121.762  1.00  0.00     0.059 C 
BRANCH   5   6
ATOM      6  C   UNL     1      93.183 122.178 120.330  1.00  0.00     0.042 C 
ATOM      7  O   UNL     1      92.471 122.652 119.406  1.00  0.00    -0.550 OA
ATOM      8  O   UNL     1      94.296 121.410 120.016  1.00  0.00    -0.550 OA
ENDBRANCH   5   6
ENDBRANCH   1   5
TORSDOF 3
ENDMDL
MODEL 9
REMARK VINA RESULT:    -3.602      3.714      5.000
REMARK INTER + INTRA:          -4.327
REMARK INTER:                  -4.296
REMARK INTRA:                  -0.031
REMARK UNBOUND:                -0.094
REMARK SMILES O=C([O-])CCC(=O)[O-]
REMARK SMILES IDX 4 1 2 2 1 3 3 4 5 5 6 6 7 7 8 8
REMARK H PARENT
REMARK Flexibility Score: inf
ROOT
ATOM      1  C   UNL     1      98.701 121.760 126.278  1.00  0.00     0.059 C 
ENDROOT
BRANCH   1   2
ATOM      2  C   UNL     1      99.745 120.689 126.374  1.00  0.00     0.042 C 
ATOM      3  O   UNL     1     100.246 120.391 127.490  1.00  0.00    -0.550 OA
ATOM      4  O   UNL     1     100.134 119.993 125.237  1.00  0.00    -0.550 OA
ENDBRANCH   1   2
BRANCH   1   5
ATOM      5  C   UNL     1      99.323 123.159 126.324  1.00  0.00     0.059 C 
BRANCH   5   6
ATOM      6  C   UNL     1      98.278 124.230 126.252  1.00  0.00     0.042 C 
ATOM      7  O   UNL     1      97.205 124.029 125.625  1.00  0.00    -0.550 OA
ATOM      8  O   UNL     1      98.473 125.437 126.912  1.00  0.00    -0.550 OA
ENDBRANCH   5   6
ENDBRANCH   1   5
TORSDOF 3
ENDMDL
