MODEL 1
REMARK VINA RESULT:    -4.063      0.000      0.000
REMARK INTER + INTRA:          -5.212
REMARK INTER:                  -5.132
REMARK INTRA:                  -0.079
REMARK UNBOUND:                -0.079
REMARK SMILES CCCCCCO
REMARK SMILES IDX 4 1 3 2 2 3 1 4 5 5 6 6 7 7
REMARK H PARENT 7 8
REMARK Flexibility Score: inf
ROOT
ATOM      1  C   UNL     1       1.930  -7.059  -0.304  1.00  0.00     0.002 C 
ENDROOT
BRANCH   1   2
ATOM      2  C   UNL     1       1.457  -6.014  -1.320  1.00  0.00    -0.000 C 
BRANCH   2   3
ATOM      3  C   UNL     1       2.648  -5.332  -2.003  1.00  0.00    -0.003 C 
ATOM      4  C   UNL     1       3.252  -6.227  -3.081  1.00  0.00     0.004 C 
ENDBRANCH   2   3
ENDBRANCH   1   2
BRANCH   1   5
ATOM      5  C   UNL     1       1.032  -8.302  -0.333  1.00  0.00     0.028 C 
BRANCH   5   6
ATOM      6  C   UNL     1       1.864  -9.586  -0.278  1.00  0.00     0.156 C 
BRANCH   6   7
ATOM      7  O   UNL     1       1.068 -10.693  -0.604  1.00  0.00    -0.396 OA
ATOM      8  H   UNL     1       0.193 -10.335  -0.906  1.00  0.00     0.210 HD
ENDBRANCH   6   7
ENDBRANCH   5   6
ENDBRANCH   1   5
TORSDOF 5
ENDMDL
MODEL 2
REMARK VINA RESULT:    -4.034      7.507      8.557
REMARK INTER + INTRA:          -5.175
REMARK INTER:                  -5.086
REMARK INTRA:                  -0.089
REMARK UNBOUND:                -0.079
REMARK SMILES CCCCCCO
REMARK SMILES IDX 4 1 3 2 2 3 1 4 5 5 6 6 7 7
REMARK H PARENT 7 8
REMARK Flexibility Score: inf
ROOT
ATOM      1  C   UNL     1      -3.517  -5.294   3.513  1.00  0.00     0.002 C 
ENDROOT
BRANCH   1   2
ATOM      2  C   UNL     1      -3.983  -6.250   2.409  1.00  0.00    -0.000 C 
BRANCH   2   3
ATOM      3  C   UNL     1      -3.209  -7.572   2.464  1.00  0.00    -0.003 C 
ATOM      4  C   UNL     1      -4.126  -8.760   2.193  1.00  0.00     0.004 C 
ENDBRANCH   2   3
ENDBRANCH   1   2
BRANCH   1   5
ATOM      5  C   UNL     1      -4.699  -4.515   4.103  1.00  0.00     0.028 C 
BRANCH   5   6
ATOM      6  C   UNL     1      -5.592  -5.424   4.951  1.00  0.00     0.156 C 
BRANCH   6   7
ATOM      7  O   UNL     1      -4.956  -5.736   6.160  1.00  0.00    -0.396 OA
ATOM      8  H   UNL     1      -4.025  -5.398   6.088  1.00  0.00     0.210 HD
ENDBRANCH   6   7
ENDBRANCH   5   6
ENDBRANCH   1   5
TORSDOF 5
ENDMDL
MODEL 3
REMARK VINA RESULT:    -3.992      6.583      7.642
REMARK INTER + INTRA:          -5.121
REMARK INTER:                  -5.034
REMARK INTRA:                  -0.087
REMARK UNBOUND:                -0.079
REMARK SMILES CCCCCCO
REMARK SMILES IDX 4 1 3 2 2 3 1 4 5 5 6 6 7 7
REMARK H PARENT 7 8
REMARK Flexibility Score: inf
ROOT
ATOM      1  C   UNL     1      -4.068  -6.358   2.470  1.00  0.00     0.002 C 
ENDROOT
BRANCH   1   2
ATOM      2  C   UNL     1      -3.561  -5.141   3.251  1.00  0.00    -0.000 C 
BRANCH   2   3
ATOM      3  C   UNL     1      -4.694  -4.492   4.055  1.00  0.00    -0.003 C 
ATOM      4  C   UNL     1      -5.436  -5.526   4.896  1.00  0.00     0.004 C 
ENDBRANCH   2   3
ENDBRANCH   1   2
BRANCH   1   5
ATOM      5  C   UNL     1      -3.051  -7.505   2.513  1.00  0.00     0.028 C 
BRANCH   5   6
ATOM      6  C   UNL     1      -3.709  -8.841   2.163  1.00  0.00     0.156 C 
BRANCH   6   7
ATOM      7  O   UNL     1      -2.784  -9.886   2.295  1.00  0.00    -0.396 OA
ATOM      8  H   UNL     1      -3.311 -10.717   2.431  1.00  0.00     0.210 HD
ENDBRANCH   6   7
ENDBRANCH   5   6
ENDBRANCH   1   5
TORSDOF 5
ENDMDL
MODEL 4
REMARK VINA RESULT:    -3.987      2.304      3.985
REMARK INTER + INTRA:          -5.115
REMARK INTER:                  -4.985
REMARK INTRA:                  -0.129
REMARK UNBOUND:                -0.079
REMARK SMILES CCCCCCO
REMARK SMILES IDX 4 1 3 2 2 3 1 4 5 5 6 6 7 7
REMARK H PARENT 7 8
REMARK Flexibility Score: inf
ROOT
ATOM      1  C   UNL     1       1.434  -6.437  -0.998  1.00  0.00     0.002 C 
ENDROOT
BRANCH   1   2
ATOM      2  C   UNL     1       2.223  -7.747  -0.897  1.00  0.00    -0.000 C 
BRANCH   2   3
ATOM      3  C   UNL     1       1.360  -8.863  -0.297  1.00  0.00    -0.003 C 
ATOM      4  C   UNL     1      -0.124  -8.528  -0.397  1.00  0.00     0.004 C 
ENDBRANCH   2   3
ENDBRANCH   1   2
BRANCH   1   5
ATOM      5  C   UNL     1       2.085  -5.478  -2.003  1.00  0.00     0.028 C 
BRANCH   5   6
ATOM      6  C   UNL     1       3.154  -6.190  -2.834  1.00  0.00     0.156 C 
BRANCH   6   7
ATOM      7  O   UNL     1       2.697  -6.385  -4.145  1.00  0.00    -0.396 OA
ATOM      8  H   UNL     1       2.851  -7.342  -4.360  1.00  0.00     0.210 HD
ENDBRANCH   6   7
ENDBRANCH   5   6
ENDBRANCH   1   5
TORSDOF 5
ENDMDL
MODEL 5
REMARK VINA RESULT:    -3.980      1.039      1.244
REMARK INTER + INTRA:          -5.107
REMARK INTER:                  -5.034
REMARK INTRA:                  -0.073
REMARK UNBOUND:                -0.079
REMARK SMILES CCCCCCO
REMARK SMILES IDX 4 1 3 2 2 3 1 4 5 5 6 6 7 7
REMARK H PARENT 7 8
REMARK Flexibility Score: inf
ROOT
ATOM      1  C   UNL     1       1.881  -7.535  -0.910  1.00  0.00     0.002 C 
ENDROOT
BRANCH   1   2
ATOM      2  C   UNL     1       1.893  -6.031  -0.616  1.00  0.00    -0.000 C 
BRANCH   2   3
ATOM      3  C   UNL     1       2.101  -5.221  -1.901  1.00  0.00    -0.003 C 
ATOM      4  C   UNL     1       2.949  -5.992  -2.908  1.00  0.00     0.004 C 
ENDBRANCH   2   3
ENDBRANCH   1   2
BRANCH   1   5
ATOM      5  C   UNL     1       1.047  -8.293   0.130  1.00  0.00     0.028 C 
BRANCH   5   6
ATOM      6  C   UNL     1      -0.340  -8.636  -0.417  1.00  0.00     0.156 C 
BRANCH   6   7
ATOM      7  O   UNL     1      -0.537 -10.023  -0.405  1.00  0.00    -0.396 OA
ATOM      8  H   UNL     1       0.292 -10.431  -0.769  1.00  0.00     0.210 HD
ENDBRANCH   6   7
ENDBRANCH   5   6
ENDBRANCH   1   5
TORSDOF 5
ENDMDL
MODEL 6
REMARK VINA RESULT:    -3.928      2.359      3.760
REMARK INTER + INTRA:          -5.041
REMARK INTER:                  -4.876
REMARK INTRA:                  -0.165
REMARK UNBOUND:                -0.079
REMARK SMILES CCCCCCO
REMARK SMILES IDX 4 1 3 2 2 3 1 4 5 5 6 6 7 7
REMARK H PARENT 7 8
REMARK Flexibility Score: inf
ROOT
ATOM      1  C   UNL     1       2.032  -6.276  -0.582  1.00  0.00     0.002 C 
ENDROOT
BRANCH   1   2
ATOM      2  C   UNL     1       1.052  -7.454  -0.548  1.00  0.00    -0.000 C 
BRANCH   2   3
ATOM      3  C   UNL     1       1.796  -8.786  -0.402  1.00  0.00    -0.003 C 
ATOM      4  C   UNL     1       3.243  -8.565   0.027  1.00  0.00     0.004 C 
ENDBRANCH   2   3
ENDBRANCH   1   2
BRANCH   1   5
ATOM      5  C   UNL     1       1.981  -5.553  -1.933  1.00  0.00     0.028 C 
BRANCH   5   6
ATOM      6  C   UNL     1       3.104  -6.027  -2.857  1.00  0.00     0.156 C 
BRANCH   6   7
ATOM      7  O   UNL     1       2.585  -6.379  -4.110  1.00  0.00    -0.396 OA
ATOM      8  H   UNL     1       1.596  -6.383  -4.018  1.00  0.00     0.210 HD
ENDBRANCH   6   7
ENDBRANCH   5   6
ENDBRANCH   1   5
TORSDOF 5
ENDMDL
MODEL 7
REMARK VINA RESULT:    -3.879      1.725      2.197
REMARK INTER + INTRA:          -4.979
REMARK INTER:                  -4.905
REMARK INTRA:                  -0.074
REMARK UNBOUND:                -0.079
REMARK SMILES CCCCCCO
REMARK SMILES IDX 4 1 3 2 2 3 1 4 5 5 6 6 7 7
REMARK H PARENT 7 8
REMARK Flexibility Score: inf
ROOT
ATOM      1  C   UNL     1       1.216  -8.462   0.270  1.00  0.00     0.002 C 
ENDROOT
BRANCH   1   2
ATOM      2  C   UNL     1       1.192  -7.413  -0.848  1.00  0.00    -0.000 C 
BRANCH   2   3
ATOM      3  C   UNL     1       2.117  -6.236  -0.517  1.00  0.00    -0.003 C 
ATOM      4  C   UNL     1       1.847  -5.048  -1.435  1.00  0.00     0.004 C 
ENDBRANCH   2   3
ENDBRANCH   1   2
BRANCH   1   5
ATOM      5  C   UNL     1       2.529  -9.253   0.256  1.00  0.00     0.028 C 
BRANCH   5   6
ATOM      6  C   UNL     1       3.061  -9.467   1.675  1.00  0.00     0.156 C 
BRANCH   6   7
ATOM      7  O   UNL     1       2.998 -10.825   2.016  1.00  0.00    -0.396 OA
ATOM      8  H   UNL     1       3.190 -11.336   1.187  1.00  0.00     0.210 HD
ENDBRANCH   6   7
ENDBRANCH   5   6
ENDBRANCH   1   5
TORSDOF 5
ENDMDL
MODEL 8
REMARK VINA RESULT:    -3.729      6.880      7.595
REMARK INTER + INTRA:          -4.790
REMARK INTER:                  -4.684
REMARK INTRA:                  -0.105
REMARK UNBOUND:                -0.079
REMARK SMILES CCCCCCO
REMARK SMILES IDX 4 1 3 2 2 3 1 4 5 5 6 6 7 7
REMARK H PARENT 7 8
REMARK Flexibility Score: inf
ROOT
ATOM      1  C   UNL     1      -3.887  -7.981   1.657  1.00  0.00     0.002 C 
ENDROOT
BRANCH   1   2
ATOM      2  C   UNL     1      -3.436  -6.959   2.707  1.00  0.00    -0.000 C 
BRANCH   2   3
ATOM      3  C   UNL     1      -4.224  -5.651   2.575  1.00  0.00    -0.003 C 
ATOM      4  C   UNL     1      -3.810  -4.646   3.645  1.00  0.00     0.004 C 
ENDBRANCH   2   3
ENDBRANCH   1   2
BRANCH   1   5
ATOM      5  C   UNL     1      -5.287  -8.519   1.977  1.00  0.00     0.028 C 
BRANCH   5   6
ATOM      6  C   UNL     1      -6.167  -8.549   0.725  1.00  0.00     0.156 C 
BRANCH   6   7
ATOM      7  O   UNL     1      -5.372  -8.472  -0.427  1.00  0.00    -0.396 OA
ATOM      8  H   UNL     1      -5.826  -9.016  -1.122  1.00  0.00     0.210 HD
ENDBRANCH   6   7
ENDBRANCH   5   6
ENDBRANCH   1   5
TORSDOF 5
ENDMDL
MODEL 9
REMARK VINA RESULT:    -3.644      5.875      7.061
REMARK INTER + INTRA:          -4.682
REMARK INTER:                  -4.477
REMARK INTRA:                  -0.205
REMARK UNBOUND:                -0.079
REMARK SMILES CCCCCCO
REMARK SMILES IDX 4 1 3 2 2 3 1 4 5 5 6 6 7 7
REMARK H PARENT 7 8
REMARK Flexibility Score: inf
ROOT
ATOM      1  C   UNL     1      -4.891  -7.489   2.472  1.00  0.00     0.002 C 
ENDROOT
BRANCH   1   2
ATOM      2  C   UNL     1      -3.380  -7.237   2.409  1.00  0.00    -0.000 C 
BRANCH   2   3
ATOM      3  C   UNL     1      -2.610  -8.551   2.235  1.00  0.00    -0.003 C 
ATOM      4  C   UNL     1      -1.652  -8.477   1.051  1.00  0.00     0.004 C 
ENDBRANCH   2   3
ENDBRANCH   1   2
BRANCH   1   5
ATOM      5  C   UNL     1      -5.244  -8.870   1.907  1.00  0.00     0.028 C 
BRANCH   5   6
ATOM      6  C   UNL     1      -6.061  -8.748   0.619  1.00  0.00     0.156 C 
BRANCH   6   7
ATOM      7  O   UNL     1      -5.221  -8.443  -0.460  1.00  0.00    -0.396 OA
ATOM      8  H   UNL     1      -4.352  -8.888  -0.279  1.00  0.00     0.210 HD
ENDBRANCH   6   7
ENDBRANCH   5   6
ENDBRANCH   1   5
TORSDOF 5
ENDMDL
