MODEL 1
REMARK VINA RESULT:    -6.672      0.000      0.000
REMARK INTER + INTRA:          -8.002
REMARK INTER:                  -8.037
REMARK INTRA:                   0.035
REMARK UNBOUND:                 0.035
REMARK SMILES Oc1cc(O)c2cc(O)c(-c3ccc(O)c(O)c3)[o+]c2c1
REMARK SMILES IDX 10 1 19 2 20 3 21 4 2 5 3 6 4 7 6 8 7 9 8 10 11 11 12 12
REMARK SMILES IDX 13 13 14 14 18 15 16 16 15 17 17 19 9 21 1 23 5 25
REMARK H PARENT 15 18 17 20 9 22 1 24 5 26
REMARK Flexibility Score: inf
ROOT
ATOM      1  C   UNL     1      20.756  49.505  45.799  1.00  0.00     0.402 A 
ATOM      2  O   UNL     1      21.247  48.271  45.688  1.00  0.00    -0.202 OA
ATOM      3  C   UNL     1      20.859  47.416  44.747  1.00  0.00     0.368 A 
ATOM      4  C   UNL     1      21.420  46.136  44.701  1.00  0.00     0.162 A 
ATOM      5  C   UNL     1      21.017  45.224  43.716  1.00  0.00     0.128 A 
ATOM      6  C   UNL     1      20.051  45.596  42.776  1.00  0.00     0.093 A 
ATOM      7  C   UNL     1      19.480  46.877  42.808  1.00  0.00     0.136 A 
ATOM      8  C   UNL     1      19.885  47.793  43.797  1.00  0.00     0.125 A 
ATOM      9  C   UNL     1      19.356  49.087  43.873  1.00  0.00     0.078 A 
ATOM     10  C   UNL     1      19.797  49.960  44.872  1.00  0.00     0.223 A 
ENDROOT
BRANCH   1  11
ATOM     11  C   UNL     1      21.260  50.363  46.895  1.00  0.00     0.087 A 
ATOM     12  C   UNL     1      22.637  50.496  47.148  1.00  0.00     0.022 A 
ATOM     13  C   UNL     1      23.089  51.330  48.174  1.00  0.00     0.051 A 
ATOM     14  C   UNL     1      22.175  52.053  48.952  1.00  0.00     0.157 A 
ATOM     15  C   UNL     1      20.350  51.107  47.665  1.00  0.00     0.068 A 
ATOM     16  C   UNL     1      20.804  51.944  48.694  1.00  0.00     0.158 A 
BRANCH  14  17
ATOM     17  O   UNL     1      22.624  52.885  49.976  1.00  0.00    -0.504 OA
ATOM     18  H   UNL     1      22.334  52.747  50.936  1.00  0.00     0.293 HD
ENDBRANCH  14  17
BRANCH  16  19
ATOM     19  O   UNL     1      19.896  52.670  49.465  1.00  0.00    -0.504 OA
ATOM     20  H   UNL     1      19.315  53.392  49.058  1.00  0.00     0.293 HD
ENDBRANCH  16  19
ENDBRANCH   1  11
BRANCH  10  21
ATOM     21  O   UNL     1      19.310  51.266  44.922  1.00  0.00    -0.500 OA
ATOM     22  H   UNL     1      19.404  51.900  44.137  1.00  0.00     0.294 HD
ENDBRANCH  10  21
BRANCH   5  23
ATOM     23  O   UNL     1      21.571  43.947  43.664  1.00  0.00    -0.507 OA
ATOM     24  H   UNL     1      21.944  43.496  44.491  1.00  0.00     0.293 HD
ENDBRANCH   5  23
BRANCH   7  25
ATOM     25  O   UNL     1      18.519  47.235  41.863  1.00  0.00    -0.507 OA
ATOM     26  H   UNL     1      17.771  47.883  42.083  1.00  0.00     0.293 HD
ENDBRANCH   7  25
TORSDOF 6
ENDMDL
MODEL 2
REMARK VINA RESULT:    -6.663      2.369      4.017
REMARK INTER + INTRA:          -7.991
REMARK INTER:                  -7.643
REMARK INTRA:                  -0.348
REMARK UNBOUND:                 0.035
REMARK SMILES Oc1cc(O)c2cc(O)c(-c3ccc(O)c(O)c3)[o+]c2c1
REMARK SMILES IDX 10 1 19 2 20 3 21 4 2 5 3 6 4 7 6 8 7 9 8 10 11 11 12 12
REMARK SMILES IDX 13 13 14 14 18 15 16 16 15 17 17 19 9 21 1 23 5 25
REMARK H PARENT 15 18 17 20 9 22 1 24 5 26
REMARK Flexibility Score: inf
ROOT
ATOM      1  C   UNL     1      19.632  47.505  44.372  1.00  0.00     0.402 A 
ATOM      2  O   UNL     1      18.487  47.833  43.775  1.00  0.00    -0.202 OA
ATOM      3  C   UNL     1      18.038  47.228  42.680  1.00  0.00     0.368 A 
ATOM      4  C   UNL     1      16.827  47.635  42.110  1.00  0.00     0.162 A 
ATOM      5  C   UNL     1      16.346  47.008  40.953  1.00  0.00     0.128 A 
ATOM      6  C   UNL     1      17.078  45.971  40.366  1.00  0.00     0.093 A 
ATOM      7  C   UNL     1      18.294  45.550  40.928  1.00  0.00     0.136 A 
ATOM      8  C   UNL     1      18.778  46.181  42.089  1.00  0.00     0.125 A 
ATOM      9  C   UNL     1      19.979  45.798  42.696  1.00  0.00     0.078 A 
ATOM     10  C   UNL     1      20.413  46.452  43.853  1.00  0.00     0.223 A 
ENDROOT
BRANCH   1  11
ATOM     11  C   UNL     1      20.031  48.258  45.582  1.00  0.00     0.087 A 
ATOM     12  C   UNL     1      20.918  49.346  45.509  1.00  0.00     0.022 A 
ATOM     13  C   UNL     1      21.262  50.056  46.663  1.00  0.00     0.051 A 
ATOM     14  C   UNL     1      20.715  49.698  47.902  1.00  0.00     0.157 A 
ATOM     15  C   UNL     1      19.469  47.917  46.825  1.00  0.00     0.068 A 
ATOM     16  C   UNL     1      19.814  48.630  47.982  1.00  0.00     0.158 A 
BRANCH  14  17
ATOM     17  O   UNL     1      21.056  50.404  49.055  1.00  0.00    -0.504 OA
ATOM     18  H   UNL     1      21.719  51.170  49.031  1.00  0.00     0.293 HD
ENDBRANCH  14  17
BRANCH  16  19
ATOM     19  O   UNL     1      19.265  48.280  49.215  1.00  0.00    -0.504 OA
ATOM     20  H   UNL     1      18.638  48.902  49.712  1.00  0.00     0.293 HD
ENDBRANCH  16  19
ENDBRANCH   1  11
BRANCH  10  21
ATOM     21  O   UNL     1      21.583  46.042  44.490  1.00  0.00    -0.500 OA
ATOM     22  H   UNL     1      21.567  45.605  45.404  1.00  0.00     0.294 HD
ENDBRANCH  10  21
BRANCH   5  23
ATOM     23  O   UNL     1      15.141  47.408  40.380  1.00  0.00    -0.507 OA
ATOM     24  H   UNL     1      14.540  46.751  39.895  1.00  0.00     0.293 HD
ENDBRANCH   5  23
BRANCH   7  25
ATOM     25  O   UNL     1      19.012  44.514  40.333  1.00  0.00    -0.507 OA
ATOM     26  H   UNL     1      19.989  44.618  40.082  1.00  0.00     0.293 HD
ENDBRANCH   7  25
TORSDOF 6
ENDMDL
MODEL 3
REMARK VINA RESULT:    -6.630      5.079     10.285
REMARK INTER + INTRA:          -7.952
REMARK INTER:                  -7.683
REMARK INTRA:                  -0.269
REMARK UNBOUND:                 0.035
REMARK SMILES Oc1cc(O)c2cc(O)c(-c3ccc(O)c(O)c3)[o+]c2c1
REMARK SMILES IDX 10 1 19 2 20 3 21 4 2 5 3 6 4 7 6 8 7 9 8 10 11 11 12 12
REMARK SMILES IDX 13 13 14 14 18 15 16 16 15 17 17 19 9 21 1 23 5 25
REMARK H PARENT 15 18 17 20 9 22 1 24 5 26
REMARK Flexibility Score: inf
ROOT
ATOM      1  C   UNL     1      17.529  45.830  39.593  1.00  0.00     0.402 A 
ATOM      2  O   UNL     1      16.932  46.937  40.031  1.00  0.00    -0.202 OA
ATOM      3  C   UNL     1      17.064  47.393  41.273  1.00  0.00     0.368 A 
ATOM      4  C   UNL     1      16.399  48.562  41.656  1.00  0.00     0.162 A 
ATOM      5  C   UNL     1      16.527  49.050  42.963  1.00  0.00     0.128 A 
ATOM      6  C   UNL     1      17.322  48.366  43.888  1.00  0.00     0.093 A 
ATOM      7  C   UNL     1      17.997  47.192  43.518  1.00  0.00     0.136 A 
ATOM      8  C   UNL     1      17.868  46.702  42.205  1.00  0.00     0.125 A 
ATOM      9  C   UNL     1      18.523  45.541  41.778  1.00  0.00     0.078 A 
ATOM     10  C   UNL     1      18.367  45.100  40.461  1.00  0.00     0.223 A 
ENDROOT
BRANCH   1  11
ATOM     11  C   UNL     1      17.298  45.418  38.190  1.00  0.00     0.087 A 
ATOM     12  C   UNL     1      16.064  44.889  37.775  1.00  0.00     0.022 A 
ATOM     13  C   UNL     1      15.863  44.529  36.439  1.00  0.00     0.051 A 
ATOM     14  C   UNL     1      16.886  44.704  35.499  1.00  0.00     0.157 A 
ATOM     15  C   UNL     1      18.314  45.611  37.238  1.00  0.00     0.068 A 
ATOM     16  C   UNL     1      18.112  45.250  35.898  1.00  0.00     0.158 A 
BRANCH  14  17
ATOM     17  O   UNL     1      16.689  44.346  34.166  1.00  0.00    -0.504 OA
ATOM     18  H   UNL     1      15.775  44.086  33.817  1.00  0.00     0.293 HD
ENDBRANCH  14  17
BRANCH  16  19
ATOM     19  O   UNL     1      19.127  45.431  34.959  1.00  0.00    -0.504 OA
ATOM     20  H   UNL     1      19.504  46.348  34.756  1.00  0.00     0.293 HD
ENDBRANCH  16  19
ENDBRANCH   1  11
BRANCH  10  21
ATOM     21  O   UNL     1      19.056  43.972  40.015  1.00  0.00    -0.500 OA
ATOM     22  H   UNL     1      19.819  44.042  39.352  1.00  0.00     0.294 HD
ENDBRANCH  10  21
BRANCH   5  23
ATOM     23  O   UNL     1      15.868  50.214  43.352  1.00  0.00    -0.507 OA
ATOM     24  H   UNL     1      15.105  50.194  44.018  1.00  0.00     0.293 HD
ENDBRANCH   5  23
BRANCH   7  25
ATOM     25  O   UNL     1      18.788  46.521  44.450  1.00  0.00    -0.507 OA
ATOM     26  H   UNL     1      18.817  45.509  44.493  1.00  0.00     0.293 HD
ENDBRANCH   7  25
TORSDOF 6
ENDMDL
MODEL 4
REMARK VINA RESULT:    -6.594      2.301      3.897
REMARK INTER + INTRA:          -7.909
REMARK INTER:                  -7.601
REMARK INTRA:                  -0.307
REMARK UNBOUND:                 0.035
REMARK SMILES Oc1cc(O)c2cc(O)c(-c3ccc(O)c(O)c3)[o+]c2c1
REMARK SMILES IDX 10 1 19 2 20 3 21 4 2 5 3 6 4 7 6 8 7 9 8 10 11 11 12 12
REMARK SMILES IDX 13 13 14 14 18 15 16 16 15 17 17 19 9 21 1 23 5 25
REMARK H PARENT 15 18 17 20 9 22 1 24 5 26
REMARK Flexibility Score: inf
ROOT
ATOM      1  C   UNL     1      20.139  48.295  44.241  1.00  0.00     0.402 A 
ATOM      2  O   UNL     1      19.097  48.961  43.746  1.00  0.00    -0.202 OA
ATOM      3  C   UNL     1      18.162  48.392  42.991  1.00  0.00     0.368 A 
ATOM      4  C   UNL     1      17.100  49.163  42.506  1.00  0.00     0.162 A 
ATOM      5  C   UNL     1      16.111  48.576  41.706  1.00  0.00     0.128 A 
ATOM      6  C   UNL     1      16.185  47.215  41.392  1.00  0.00     0.093 A 
ATOM      7  C   UNL     1      17.243  46.429  41.873  1.00  0.00     0.136 A 
ATOM      8  C   UNL     1      18.237  47.018  42.676  1.00  0.00     0.125 A 
ATOM      9  C   UNL     1      19.311  46.281  43.190  1.00  0.00     0.078 A 
ATOM     10  C   UNL     1      20.268  46.913  43.988  1.00  0.00     0.223 A 
ENDROOT
BRANCH   1  11
ATOM     11  C   UNL     1      21.120  49.039  45.062  1.00  0.00     0.087 A 
ATOM     12  C   UNL     1      22.390  49.376  44.561  1.00  0.00     0.022 A 
ATOM     13  C   UNL     1      23.290  50.100  45.347  1.00  0.00     0.051 A 
ATOM     14  C   UNL     1      22.931  50.509  46.638  1.00  0.00     0.157 A 
ATOM     15  C   UNL     1      20.758  49.470  46.350  1.00  0.00     0.068 A 
ATOM     16  C   UNL     1      21.661  50.197  47.138  1.00  0.00     0.158 A 
BRANCH  14  17
ATOM     17  O   UNL     1      23.828  51.231  47.424  1.00  0.00    -0.504 OA
ATOM     18  H   UNL     1      23.561  51.600  48.329  1.00  0.00     0.293 HD
ENDBRANCH  14  17
BRANCH  16  19
ATOM     19  O   UNL     1      21.303  50.611  48.420  1.00  0.00    -0.504 OA
ATOM     20  H   UNL     1      21.776  50.257  49.243  1.00  0.00     0.293 HD
ENDBRANCH  16  19
ENDBRANCH   1  11
BRANCH  10  21
ATOM     21  O   UNL     1      21.312  46.175  44.544  1.00  0.00    -0.500 OA
ATOM     22  H   UNL     1      21.278  45.841  45.500  1.00  0.00     0.294 HD
ENDBRANCH  10  21
BRANCH   5  23
ATOM     23  O   UNL     1      15.051  49.337  41.218  1.00  0.00    -0.507 OA
ATOM     24  H   UNL     1      15.158  49.942  40.412  1.00  0.00     0.293 HD
ENDBRANCH   5  23
BRANCH   7  25
ATOM     25  O   UNL     1      17.303  45.072  41.553  1.00  0.00    -0.507 OA
ATOM     26  H   UNL     1      16.916  44.363  42.165  1.00  0.00     0.293 HD
ENDBRANCH   7  25
TORSDOF 6
ENDMDL
MODEL 5
REMARK VINA RESULT:    -6.557      2.579      3.633
REMARK INTER + INTRA:          -7.864
REMARK INTER:                  -7.590
REMARK INTRA:                  -0.273
REMARK UNBOUND:                 0.035
REMARK SMILES Oc1cc(O)c2cc(O)c(-c3ccc(O)c(O)c3)[o+]c2c1
REMARK SMILES IDX 10 1 19 2 20 3 21 4 2 5 3 6 4 7 6 8 7 9 8 10 11 11 12 12
REMARK SMILES IDX 13 13 14 14 18 15 16 16 15 17 17 19 9 21 1 23 5 25
REMARK H PARENT 15 18 17 20 9 22 1 24 5 26
REMARK Flexibility Score: inf
ROOT
ATOM      1  C   UNL     1      19.134  49.380  43.803  1.00  0.00     0.402 A 
ATOM      2  O   UNL     1      18.931  48.150  43.334  1.00  0.00    -0.202 OA
ATOM      3  C   UNL     1      17.879  47.819  42.592  1.00  0.00     0.368 A 
ATOM      4  C   UNL     1      17.736  46.502  42.142  1.00  0.00     0.162 A 
ATOM      5  C   UNL     1      16.628  46.140  41.363  1.00  0.00     0.128 A 
ATOM      6  C   UNL     1      15.664  47.098  41.033  1.00  0.00     0.093 A 
ATOM      7  C   UNL     1      15.795  48.423  41.477  1.00  0.00     0.136 A 
ATOM      8  C   UNL     1      16.906  48.787  42.260  1.00  0.00     0.125 A 
ATOM      9  C   UNL     1      17.093  50.095  42.723  1.00  0.00     0.078 A 
ATOM     10  C   UNL     1      18.218  50.406  43.492  1.00  0.00     0.223 A 
ENDROOT
BRANCH   1  11
ATOM     11  C   UNL     1      20.339  49.625  44.627  1.00  0.00     0.087 A 
ATOM     12  C   UNL     1      21.620  49.688  44.051  1.00  0.00     0.022 A 
ATOM     13  C   UNL     1      22.741  49.944  44.846  1.00  0.00     0.051 A 
ATOM     14  C   UNL     1      22.597  50.154  46.224  1.00  0.00     0.157 A 
ATOM     15  C   UNL     1      20.199  49.857  46.006  1.00  0.00     0.068 A 
ATOM     16  C   UNL     1      21.323  50.114  46.804  1.00  0.00     0.158 A 
BRANCH  14  17
ATOM     17  O   UNL     1      23.712  50.408  47.019  1.00  0.00    -0.504 OA
ATOM     18  H   UNL     1      24.654  50.313  46.658  1.00  0.00     0.293 HD
ENDBRANCH  14  17
BRANCH  16  19
ATOM     19  O   UNL     1      21.181  50.330  48.174  1.00  0.00    -0.504 OA
ATOM     20  H   UNL     1      21.120  49.559  48.828  1.00  0.00     0.293 HD
ENDBRANCH  16  19
ENDBRANCH   1  11
BRANCH  10  21
ATOM     21  O   UNL     1      18.434  51.717  43.914  1.00  0.00    -0.500 OA
ATOM     22  H   UNL     1      18.942  51.925  44.766  1.00  0.00     0.294 HD
ENDBRANCH  10  21
BRANCH   5  23
ATOM     23  O   UNL     1      16.479  44.831  40.910  1.00  0.00    -0.507 OA
ATOM     24  H   UNL     1      17.276  44.216  40.792  1.00  0.00     0.293 HD
ENDBRANCH   5  23
BRANCH   7  25
ATOM     25  O   UNL     1      14.826  49.368  41.139  1.00  0.00    -0.507 OA
ATOM     26  H   UNL     1      13.945  49.429  41.637  1.00  0.00     0.293 HD
ENDBRANCH   7  25
TORSDOF 6
ENDMDL
MODEL 6
REMARK VINA RESULT:    -6.495      1.338      6.967
REMARK INTER + INTRA:          -7.789
REMARK INTER:                  -7.657
REMARK INTRA:                  -0.133
REMARK UNBOUND:                 0.035
REMARK SMILES Oc1cc(O)c2cc(O)c(-c3ccc(O)c(O)c3)[o+]c2c1
REMARK SMILES IDX 10 1 19 2 20 3 21 4 2 5 3 6 4 7 6 8 7 9 8 10 11 11 12 12
REMARK SMILES IDX 13 13 14 14 18 15 16 16 15 17 17 19 9 21 1 23 5 25
REMARK H PARENT 15 18 17 20 9 22 1 24 5 26
REMARK Flexibility Score: inf
ROOT
ATOM      1  C   UNL     1      20.172  48.769  45.821  1.00  0.00     0.402 A 
ATOM      2  O   UNL     1      21.402  49.236  46.026  1.00  0.00    -0.202 OA
ATOM      3  C   UNL     1      21.689  50.148  46.950  1.00  0.00     0.368 A 
ATOM      4  C   UNL     1      23.007  50.592  47.100  1.00  0.00     0.162 A 
ATOM      5  C   UNL     1      23.321  51.556  48.067  1.00  0.00     0.128 A 
ATOM      6  C   UNL     1      22.313  52.076  48.885  1.00  0.00     0.093 A 
ATOM      7  C   UNL     1      20.987  51.640  48.748  1.00  0.00     0.136 A 
ATOM      8  C   UNL     1      20.671  50.672  47.776  1.00  0.00     0.125 A 
ATOM      9  C   UNL     1      19.367  50.194  47.599  1.00  0.00     0.078 A 
ATOM     10  C   UNL     1      19.108  49.227  46.624  1.00  0.00     0.223 A 
ENDROOT
BRANCH   1  11
ATOM     11  C   UNL     1      19.976  47.759  44.756  1.00  0.00     0.087 A 
ATOM     12  C   UNL     1      19.040  47.954  43.725  1.00  0.00     0.022 A 
ATOM     13  C   UNL     1      18.889  46.998  42.717  1.00  0.00     0.051 A 
ATOM     14  C   UNL     1      19.679  45.840  42.718  1.00  0.00     0.157 A 
ATOM     15  C   UNL     1      20.779  46.606  44.739  1.00  0.00     0.068 A 
ATOM     16  C   UNL     1      20.628  45.647  43.729  1.00  0.00     0.158 A 
BRANCH  14  17
ATOM     17  O   UNL     1      19.530  44.884  41.715  1.00  0.00    -0.504 OA
ATOM     18  H   UNL     1      18.687  44.329  41.632  1.00  0.00     0.293 HD
ENDBRANCH  14  17
BRANCH  16  19
ATOM     19  O   UNL     1      21.418  44.498  43.723  1.00  0.00    -0.504 OA
ATOM     20  H   UNL     1      21.308  43.776  44.425  1.00  0.00     0.293 HD
ENDBRANCH  16  19
ENDBRANCH   1  11
BRANCH  10  21
ATOM     21  O   UNL     1      17.821  48.711  46.477  1.00  0.00    -0.500 OA
ATOM     22  H   UNL     1      17.232  48.964  45.692  1.00  0.00     0.294 HD
ENDBRANCH  10  21
BRANCH   5  23
ATOM     23  O   UNL     1      24.631  52.003  48.222  1.00  0.00    -0.507 OA
ATOM     24  H   UNL     1      25.146  51.849  49.082  1.00  0.00     0.293 HD
ENDBRANCH   5  23
BRANCH   7  25
ATOM     25  O   UNL     1      19.992  52.166  49.572  1.00  0.00    -0.507 OA
ATOM     26  H   UNL     1      19.678  53.126  49.482  1.00  0.00     0.293 HD
ENDBRANCH   7  25
TORSDOF 6
ENDMDL
MODEL 7
REMARK VINA RESULT:    -6.456      3.910      5.769
REMARK INTER + INTRA:          -7.742
REMARK INTER:                  -7.418
REMARK INTRA:                  -0.324
REMARK UNBOUND:                 0.035
REMARK SMILES Oc1cc(O)c2cc(O)c(-c3ccc(O)c(O)c3)[o+]c2c1
REMARK SMILES IDX 10 1 19 2 20 3 21 4 2 5 3 6 4 7 6 8 7 9 8 10 11 11 12 12
REMARK SMILES IDX 13 13 14 14 18 15 16 16 15 17 17 19 9 21 1 23 5 25
REMARK H PARENT 15 18 17 20 9 22 1 24 5 26
REMARK Flexibility Score: inf
ROOT
ATOM      1  C   UNL     1      18.333  48.186  45.313  1.00  0.00     0.402 A 
ATOM      2  O   UNL     1      17.324  48.867  44.772  1.00  0.00    -0.202 OA
ATOM      3  C   UNL     1      16.055  48.483  44.865  1.00  0.00     0.368 A 
ATOM      4  C   UNL     1      15.053  49.253  44.264  1.00  0.00     0.162 A 
ATOM      5  C   UNL     1      13.712  48.856  44.351  1.00  0.00     0.128 A 
ATOM      6  C   UNL     1      13.373  47.688  45.041  1.00  0.00     0.093 A 
ATOM      7  C   UNL     1      14.368  46.907  45.651  1.00  0.00     0.136 A 
ATOM      8  C   UNL     1      15.715  47.304  45.563  1.00  0.00     0.125 A 
ATOM      9  C   UNL     1      16.747  46.569  46.157  1.00  0.00     0.078 A 
ATOM     10  C   UNL     1      18.068  47.011  46.046  1.00  0.00     0.223 A 
ENDROOT
BRANCH   1  11
ATOM     11  C   UNL     1      19.706  48.710  45.135  1.00  0.00     0.087 A 
ATOM     12  C   UNL     1      20.342  49.458  46.141  1.00  0.00     0.022 A 
ATOM     13  C   UNL     1      21.648  49.921  45.959  1.00  0.00     0.051 A 
ATOM     14  C   UNL     1      22.341  49.634  44.776  1.00  0.00     0.157 A 
ATOM     15  C   UNL     1      20.414  48.407  43.959  1.00  0.00     0.068 A 
ATOM     16  C   UNL     1      21.724  48.872  43.776  1.00  0.00     0.158 A 
BRANCH  14  17
ATOM     17  O   UNL     1      23.643  50.095  44.591  1.00  0.00    -0.504 OA
ATOM     18  H   UNL     1      24.446  49.505  44.773  1.00  0.00     0.293 HD
ENDBRANCH  14  17
BRANCH  16  19
ATOM     19  O   UNL     1      22.418  48.580  42.602  1.00  0.00    -0.504 OA
ATOM     20  H   UNL     1      21.940  48.473  41.716  1.00  0.00     0.293 HD
ENDBRANCH  16  19
ENDBRANCH   1  11
BRANCH  10  21
ATOM     21  O   UNL     1      19.095  46.311  46.678  1.00  0.00    -0.500 OA
ATOM     22  H   UNL     1      18.934  45.779  47.525  1.00  0.00     0.294 HD
ENDBRANCH  10  21
BRANCH   5  23
ATOM     23  O   UNL     1      12.708  49.616  43.755  1.00  0.00    -0.507 OA
ATOM     24  H   UNL     1      12.033  49.202  43.123  1.00  0.00     0.293 HD
ENDBRANCH   5  23
BRANCH   7  25
ATOM     25  O   UNL     1      14.016  45.745  46.338  1.00  0.00    -0.507 OA
ATOM     26  H   UNL     1      13.299  45.746  47.054  1.00  0.00     0.293 HD
ENDBRANCH   7  25
TORSDOF 6
ENDMDL
MODEL 8
REMARK VINA RESULT:    -6.438      1.716      2.206
REMARK INTER + INTRA:          -7.720
REMARK INTER:                  -7.371
REMARK INTRA:                  -0.349
REMARK UNBOUND:                 0.035
REMARK SMILES Oc1cc(O)c2cc(O)c(-c3ccc(O)c(O)c3)[o+]c2c1
REMARK SMILES IDX 10 1 19 2 20 3 21 4 2 5 3 6 4 7 6 8 7 9 8 10 11 11 12 12
REMARK SMILES IDX 13 13 14 14 18 15 16 16 15 17 17 19 9 21 1 23 5 25
REMARK H PARENT 15 18 17 20 9 22 1 24 5 26
REMARK Flexibility Score: inf
ROOT
ATOM      1  C   UNL     1      19.923  49.480  45.638  1.00  0.00     0.402 A 
ATOM      2  O   UNL     1      20.079  48.252  45.145  1.00  0.00    -0.202 OA
ATOM      3  C   UNL     1      19.402  47.800  44.094  1.00  0.00     0.368 A 
ATOM      4  C   UNL     1      19.620  46.494  43.640  1.00  0.00     0.162 A 
ATOM      5  C   UNL     1      18.909  46.004  42.536  1.00  0.00     0.128 A 
ATOM      6  C   UNL     1      17.979  46.822  41.886  1.00  0.00     0.093 A 
ATOM      7  C   UNL     1      17.752  48.134  42.329  1.00  0.00     0.136 A 
ATOM      8  C   UNL     1      18.465  48.627  43.438  1.00  0.00     0.125 A 
ATOM      9  C   UNL     1      18.284  49.929  43.919  1.00  0.00     0.078 A 
ATOM     10  C   UNL     1      19.023  50.371  45.021  1.00  0.00     0.223 A 
ENDROOT
BRANCH   1  11
ATOM     11  C   UNL     1      20.729  49.867  46.819  1.00  0.00     0.087 A 
ATOM     12  C   UNL     1      20.288  49.599  48.126  1.00  0.00     0.022 A 
ATOM     13  C   UNL     1      21.077  49.953  49.224  1.00  0.00     0.051 A 
ATOM     14  C   UNL     1      22.321  50.567  49.032  1.00  0.00     0.157 A 
ATOM     15  C   UNL     1      21.987  50.464  46.631  1.00  0.00     0.068 A 
ATOM     16  C   UNL     1      22.779  50.819  47.733  1.00  0.00     0.158 A 
BRANCH  14  17
ATOM     17  O   UNL     1      23.110  50.922  50.125  1.00  0.00    -0.504 OA
ATOM     18  H   UNL     1      23.461  51.865  50.241  1.00  0.00     0.293 HD
ENDBRANCH  14  17
BRANCH  16  19
ATOM     19  O   UNL     1      24.020  51.424  47.543  1.00  0.00    -0.504 OA
ATOM     20  H   UNL     1      24.827  51.162  48.096  1.00  0.00     0.293 HD
ENDBRANCH  16  19
ENDBRANCH   1  11
BRANCH  10  21
ATOM     21  O   UNL     1      18.884  51.683  45.473  1.00  0.00    -0.500 OA
ATOM     22  H   UNL     1      19.346  52.007  46.314  1.00  0.00     0.294 HD
ENDBRANCH  10  21
BRANCH   5  23
ATOM     23  O   UNL     1      19.120  44.706  42.078  1.00  0.00    -0.507 OA
ATOM     24  H   UNL     1      18.379  44.171  41.639  1.00  0.00     0.293 HD
ENDBRANCH   5  23
BRANCH   7  25
ATOM     25  O   UNL     1      16.823  48.940  41.670  1.00  0.00    -0.507 OA
ATOM     26  H   UNL     1      15.873  49.044  42.010  1.00  0.00     0.293 HD
ENDBRANCH   7  25
TORSDOF 6
ENDMDL
MODEL 9
REMARK VINA RESULT:    -6.388      2.818      7.710
REMARK INTER + INTRA:          -7.660
REMARK INTER:                  -7.330
REMARK INTRA:                  -0.330
REMARK UNBOUND:                 0.035
REMARK SMILES Oc1cc(O)c2cc(O)c(-c3ccc(O)c(O)c3)[o+]c2c1
REMARK SMILES IDX 10 1 19 2 20 3 21 4 2 5 3 6 4 7 6 8 7 9 8 10 11 11 12 12
REMARK SMILES IDX 13 13 14 14 18 15 16 16 15 17 17 19 9 21 1 23 5 25
REMARK H PARENT 15 18 17 20 9 22 1 24 5 26
REMARK Flexibility Score: inf
ROOT
ATOM      1  C   UNL     1      18.050  47.732  43.355  1.00  0.00     0.402 A 
ATOM      2  O   UNL     1      18.398  47.344  44.580  1.00  0.00    -0.202 OA
ATOM      3  C   UNL     1      18.831  48.185  45.515  1.00  0.00     0.368 A 
ATOM      4  C   UNL     1      19.183  47.696  46.777  1.00  0.00     0.162 A 
ATOM      5  C   UNL     1      19.645  48.572  47.769  1.00  0.00     0.128 A 
ATOM      6  C   UNL     1      19.753  49.940  47.496  1.00  0.00     0.093 A 
ATOM      7  C   UNL     1      19.402  50.444  46.234  1.00  0.00     0.136 A 
ATOM      8  C   UNL     1      18.939  49.565  45.238  1.00  0.00     0.125 A 
ATOM      9  C   UNL     1      18.568  50.013  43.965  1.00  0.00     0.078 A 
ATOM     10  C   UNL     1      18.108  49.099  43.013  1.00  0.00     0.223 A 
ENDROOT
BRANCH   1  11
ATOM     11  C   UNL     1      17.591  46.700  42.398  1.00  0.00     0.087 A 
ATOM     12  C   UNL     1      16.223  46.462  42.177  1.00  0.00     0.022 A 
ATOM     13  C   UNL     1      15.814  45.498  41.251  1.00  0.00     0.051 A 
ATOM     14  C   UNL     1      16.765  44.770  40.523  1.00  0.00     0.157 A 
ATOM     15  C   UNL     1      18.539  45.981  41.650  1.00  0.00     0.068 A 
ATOM     16  C   UNL     1      18.129  45.015  40.720  1.00  0.00     0.158 A 
BRANCH  14  17
ATOM     17  O   UNL     1      16.360  43.808  39.599  1.00  0.00    -0.504 OA
ATOM     18  H   UNL     1      16.372  43.991  38.603  1.00  0.00     0.293 HD
ENDBRANCH  14  17
BRANCH  16  19
ATOM     19  O   UNL     1      19.073  44.294  39.990  1.00  0.00    -0.504 OA
ATOM     20  H   UNL     1      19.581  44.714  39.221  1.00  0.00     0.293 HD
ENDBRANCH  16  19
ENDBRANCH   1  11
BRANCH  10  21
ATOM     21  O   UNL     1      17.690  49.545  41.760  1.00  0.00    -0.500 OA
ATOM     22  H   UNL     1      18.273  49.446  40.938  1.00  0.00     0.294 HD
ENDBRANCH  10  21
BRANCH   5  23
ATOM     23  O   UNL     1      19.997  48.094  49.028  1.00  0.00    -0.507 OA
ATOM     24  H   UNL     1      20.512  48.665  49.688  1.00  0.00     0.293 HD
ENDBRANCH   5  23
BRANCH   7  25
ATOM     25  O   UNL     1      19.514  51.811  45.976  1.00  0.00    -0.507 OA
ATOM     26  H   UNL     1      20.404  52.293  46.035  1.00  0.00     0.293 HD
ENDBRANCH   7  25
TORSDOF 6
ENDMDL
