MODEL 1
REMARK VINA RESULT:    -3.281      0.000      0.000
REMARK INTER + INTRA:          -6.951
REMARK INTER:                  -6.349
REMARK INTRA:                  -0.602
REMARK UNBOUND:                -0.602
REMARK SMILES CCCCCCCCCCCCCCCCCC(=O)[O-]
REMARK SMILES IDX 10 1 11 2 12 3 13 4 14 5 15 6 16 7 17 8 18 9 19 10 20 11
REMARK SMILES IDX 9 12 8 13 7 14 6 15 5 16 4 17 3 18 2 19 1 20
REMARK H PARENT
REMARK Flexibility Score: inf
ROOT
ATOM      1  C   UNL     1      -9.254  16.079 -12.667  1.00  0.00     0.000 C 
ENDROOT
BRANCH   1   2
ATOM      2  C   UNL     1      -8.556  17.214 -13.436  1.00  0.00     0.000 C 
BRANCH   2   3
ATOM      3  C   UNL     1      -8.638  17.039 -14.963  1.00  0.00     0.000 C 
BRANCH   3   4
ATOM      4  C   UNL     1      -7.292  17.141 -15.709  1.00  0.00     0.000 C 
BRANCH   4   5
ATOM      5  C   UNL     1      -6.576  18.502 -15.587  1.00  0.00     0.000 C 
BRANCH   5   6
ATOM      6  C   UNL     1      -7.414  19.717 -16.020  1.00  0.00     0.000 C 
BRANCH   6   7
ATOM      7  C   UNL     1      -6.760  21.058 -15.643  1.00  0.00     0.006 C 
BRANCH   7   8
ATOM      8  C   UNL     1      -5.875  20.940 -14.396  1.00  0.00     0.053 C 
BRANCH   8   9
ATOM      9  C   UNL     1      -6.690  20.819 -13.144  1.00  0.00     0.041 C 
ATOM     10  O   UNL     1      -6.130  20.834 -12.017  1.00  0.00    -0.550 OA
ATOM     11  O   UNL     1      -8.073  20.715 -13.223  1.00  0.00    -0.550 OA
ENDBRANCH   8   9
ENDBRANCH   7   8
ENDBRANCH   6   7
ENDBRANCH   5   6
ENDBRANCH   4   5
ENDBRANCH   3   4
ENDBRANCH   2   3
ENDBRANCH   1   2
BRANCH   1  12
ATOM     12  C   UNL     1      -8.274  15.009 -12.152  1.00  0.00     0.000 C 
BRANCH  12  13
ATOM     13  C   UNL     1      -7.122  14.653 -13.111  1.00  0.00    -0.000 C 
BRANCH  13  14
ATOM     14  C   UNL     1      -7.146  13.183 -13.561  1.00  0.00    -0.000 C 
BRANCH  14  15
ATOM     15  C   UNL     1      -6.071  12.871 -14.614  1.00  0.00    -0.000 C 
BRANCH  15  16
ATOM     16  C   UNL     1      -6.619  12.912 -16.049  1.00  0.00    -0.000 C 
BRANCH  16  17
ATOM     17  C   UNL     1      -8.008  12.268 -16.124  1.00  0.00    -0.000 C 
BRANCH  17  18
ATOM     18  C   UNL     1      -9.104  13.271 -15.744  1.00  0.00    -0.000 C 
BRANCH  18  19
ATOM     19  C   UNL     1     -10.493  12.635 -15.851  1.00  0.00    -0.003 C 
ATOM     20  C   UNL     1     -10.395  11.136 -16.116  1.00  0.00     0.004 C 
ENDBRANCH  18  19
ENDBRANCH  17  18
ENDBRANCH  16  17
ENDBRANCH  15  16
ENDBRANCH  14  15
ENDBRANCH  13  14
ENDBRANCH  12  13
ENDBRANCH   1  12
TORSDOF 16
ENDMDL
MODEL 2
REMARK VINA RESULT:    -2.673      2.581      6.920
REMARK INTER + INTRA:          -5.776
REMARK INTER:                  -5.320
REMARK INTRA:                  -0.456
REMARK UNBOUND:                -0.602
REMARK SMILES CCCCCCCCCCCCCCCCCC(=O)[O-]
REMARK SMILES IDX 10 1 11 2 12 3 13 4 14 5 15 6 16 7 17 8 18 9 19 10 20 11
REMARK SMILES IDX 9 12 8 13 7 14 6 15 5 16 4 17 3 18 2 19 1 20
REMARK H PARENT
REMARK Flexibility Score: inf
ROOT
ATOM      1  C   UNL     1      -9.556  16.292 -11.960  1.00  0.00     0.000 C 
ENDROOT
BRANCH   1   2
ATOM      2  C   UNL     1      -8.968  15.336 -13.012  1.00  0.00     0.000 C 
BRANCH   2   3
ATOM      3  C   UNL     1      -7.942  14.353 -12.420  1.00  0.00     0.000 C 
BRANCH   3   4
ATOM      4  C   UNL     1      -6.795  13.949 -13.369  1.00  0.00     0.000 C 
BRANCH   4   5
ATOM      5  C   UNL     1      -6.608  12.430 -13.562  1.00  0.00     0.000 C 
BRANCH   5   6
ATOM      6  C   UNL     1      -5.877  12.025 -14.853  1.00  0.00     0.000 C 
BRANCH   6   7
ATOM      7  C   UNL     1      -6.642  12.430 -16.125  1.00  0.00     0.006 C 
BRANCH   7   8
ATOM      8  C   UNL     1      -8.091  11.928 -16.114  1.00  0.00     0.053 C 
BRANCH   8   9
ATOM      9  C   UNL     1      -9.064  13.040 -15.867  1.00  0.00     0.041 C 
ATOM     10  O   UNL     1      -8.726  14.236 -16.068  1.00  0.00    -0.550 OA
ATOM     11  O   UNL     1     -10.354  12.753 -15.440  1.00  0.00    -0.550 OA
ENDBRANCH   8   9
ENDBRANCH   7   8
ENDBRANCH   6   7
ENDBRANCH   5   6
ENDBRANCH   4   5
ENDBRANCH   3   4
ENDBRANCH   2   3
ENDBRANCH   1   2
BRANCH   1  12
ATOM     12  C   UNL     1      -9.345  17.776 -12.310  1.00  0.00     0.000 C 
BRANCH  12  13
ATOM     13  C   UNL     1      -8.290  18.053 -13.399  1.00  0.00    -0.000 C 
BRANCH  13  14
ATOM     14  C   UNL     1      -8.651  17.429 -14.758  1.00  0.00    -0.000 C 
BRANCH  14  15
ATOM     15  C   UNL     1      -7.466  17.423 -15.736  1.00  0.00    -0.000 C 
BRANCH  15  16
ATOM     16  C   UNL     1      -6.577  18.669 -15.598  1.00  0.00    -0.000 C 
BRANCH  16  17
ATOM     17  C   UNL     1      -7.349  19.937 -15.984  1.00  0.00    -0.000 C 
BRANCH  17  18
ATOM     18  C   UNL     1      -6.979  21.109 -15.067  1.00  0.00    -0.000 C 
BRANCH  18  19
ATOM     19  C   UNL     1      -5.980  20.670 -13.991  1.00  0.00    -0.003 C 
ATOM     20  C   UNL     1      -6.450  21.085 -12.600  1.00  0.00     0.004 C 
ENDBRANCH  18  19
ENDBRANCH  17  18
ENDBRANCH  16  17
ENDBRANCH  15  16
ENDBRANCH  14  15
ENDBRANCH  13  14
ENDBRANCH  12  13
ENDBRANCH   1  12
TORSDOF 16
ENDMDL
MODEL 3
REMARK VINA RESULT:    -2.582      2.745      6.651
REMARK INTER + INTRA:          -5.600
REMARK INTER:                  -4.609
REMARK INTRA:                  -0.990
REMARK UNBOUND:                -0.602
REMARK SMILES CCCCCCCCCCCCCCCCCC(=O)[O-]
REMARK SMILES IDX 10 1 11 2 12 3 13 4 14 5 15 6 16 7 17 8 18 9 19 10 20 11
REMARK SMILES IDX 9 12 8 13 7 14 6 15 5 16 4 17 3 18 2 19 1 20
REMARK H PARENT
REMARK Flexibility Score: inf
ROOT
ATOM      1  C   UNL     1      -9.223  16.157 -13.218  1.00  0.00     0.000 C 
ENDROOT
BRANCH   1   2
ATOM      2  C   UNL     1      -8.254  15.818 -12.072  1.00  0.00     0.000 C 
BRANCH   2   3
ATOM      3  C   UNL     1      -7.867  14.329 -12.038  1.00  0.00     0.000 C 
BRANCH   3   4
ATOM      4  C   UNL     1      -7.697  13.661 -13.418  1.00  0.00     0.000 C 
BRANCH   4   5
ATOM      5  C   UNL     1      -6.243  13.328 -13.810  1.00  0.00     0.000 C 
BRANCH   5   6
ATOM      6  C   UNL     1      -6.089  12.163 -14.803  1.00  0.00     0.000 C 
BRANCH   6   7
ATOM      7  C   UNL     1      -6.840  12.402 -16.124  1.00  0.00     0.006 C 
BRANCH   7   8
ATOM      8  C   UNL     1      -8.285  11.888 -16.070  1.00  0.00     0.053 C 
BRANCH   8   9
ATOM      9  C   UNL     1      -9.272  13.012 -15.973  1.00  0.00     0.041 C 
ATOM     10  O   UNL     1      -8.893  14.203 -16.118  1.00  0.00    -0.550 OA
ATOM     11  O   UNL     1     -10.615  12.739 -15.747  1.00  0.00    -0.550 OA
ENDBRANCH   8   9
ENDBRANCH   7   8
ENDBRANCH   6   7
ENDBRANCH   5   6
ENDBRANCH   4   5
ENDBRANCH   3   4
ENDBRANCH   2   3
ENDBRANCH   1   2
BRANCH   1  12
ATOM     12  C   UNL     1      -9.526  17.662 -13.325  1.00  0.00     0.000 C 
BRANCH  12  13
ATOM     13  C   UNL     1      -8.747  18.563 -12.348  1.00  0.00    -0.000 C 
BRANCH  13  14
ATOM     14  C   UNL     1      -7.676  19.420 -13.044  1.00  0.00    -0.000 C 
BRANCH  14  15
ATOM     15  C   UNL     1      -8.267  20.333 -14.130  1.00  0.00    -0.000 C 
BRANCH  15  16
ATOM     16  C   UNL     1      -7.281  20.604 -15.277  1.00  0.00    -0.000 C 
BRANCH  16  17
ATOM     17  C   UNL     1      -6.020  19.743 -15.130  1.00  0.00    -0.000 C 
BRANCH  17  18
ATOM     18  C   UNL     1      -6.065  18.534 -16.071  1.00  0.00    -0.000 C 
BRANCH  18  19
ATOM     19  C   UNL     1      -6.282  17.235 -15.289  1.00  0.00    -0.003 C 
ATOM     20  C   UNL     1      -5.898  16.018 -16.122  1.00  0.00     0.004 C 
ENDBRANCH  18  19
ENDBRANCH  17  18
ENDBRANCH  16  17
ENDBRANCH  15  16
ENDBRANCH  14  15
ENDBRANCH  13  14
ENDBRANCH  12  13
ENDBRANCH   1  12
TORSDOF 16
ENDMDL
MODEL 4
REMARK VINA RESULT:    -2.036      1.623      6.176
REMARK INTER + INTRA:          -4.543
REMARK INTER:                  -3.999
REMARK INTRA:                  -0.544
REMARK UNBOUND:                -0.602
REMARK SMILES CCCCCCCCCCCCCCCCCC(=O)[O-]
REMARK SMILES IDX 10 1 11 2 12 3 13 4 14 5 15 6 16 7 17 8 18 9 19 10 20 11
REMARK SMILES IDX 9 12 8 13 7 14 6 15 5 16 4 17 3 18 2 19 1 20
REMARK H PARENT
REMARK Flexibility Score: inf
ROOT
ATOM      1  C   UNL     1      -8.763  14.177 -14.854  1.00  0.00     0.000 C 
ENDROOT
BRANCH   1   2
ATOM      2  C   UNL     1      -8.316  12.747 -15.203  1.00  0.00     0.000 C 
BRANCH   2   3
ATOM      3  C   UNL     1      -6.816  12.512 -14.949  1.00  0.00     0.000 C 
BRANCH   3   4
ATOM      4  C   UNL     1      -6.317  12.906 -13.544  1.00  0.00     0.000 C 
BRANCH   4   5
ATOM      5  C   UNL     1      -7.395  12.906 -12.441  1.00  0.00     0.000 C 
BRANCH   5   6
ATOM      6  C   UNL     1      -7.501  14.214 -11.637  1.00  0.00     0.000 C 
BRANCH   6   7
ATOM      7  C   UNL     1      -8.821  14.963 -11.887  1.00  0.00     0.006 C 
BRANCH   7   8
ATOM      8  C   UNL     1      -8.687  16.471 -11.641  1.00  0.00     0.053 C 
BRANCH   8   9
ATOM      9  C   UNL     1      -9.216  17.272 -12.791  1.00  0.00     0.041 C 
ATOM     10  O   UNL     1      -8.721  18.397 -13.062  1.00  0.00    -0.550 OA
ATOM     11  O   UNL     1     -10.241  16.763 -13.578  1.00  0.00    -0.550 OA
ENDBRANCH   8   9
ENDBRANCH   7   8
ENDBRANCH   6   7
ENDBRANCH   5   6
ENDBRANCH   4   5
ENDBRANCH   3   4
ENDBRANCH   2   3
ENDBRANCH   1   2
BRANCH   1  12
ATOM     12  C   UNL     1      -8.435  15.197 -15.959  1.00  0.00     0.000 C 
BRANCH  12  13
ATOM     13  C   UNL     1      -6.940  15.531 -16.125  1.00  0.00    -0.000 C 
BRANCH  13  14
ATOM     14  C   UNL     1      -6.383  16.384 -14.973  1.00  0.00    -0.000 C 
BRANCH  14  15
ATOM     15  C   UNL     1      -5.875  17.755 -15.447  1.00  0.00    -0.000 C 
BRANCH  15  16
ATOM     16  C   UNL     1      -7.000  18.797 -15.557  1.00  0.00    -0.000 C 
BRANCH  16  17
ATOM     17  C   UNL     1      -6.468  20.118 -16.124  1.00  0.00    -0.000 C 
BRANCH  17  18
ATOM     18  C   UNL     1      -6.004  21.054 -15.002  1.00  0.00    -0.000 C 
BRANCH  18  19
ATOM     19  C   UNL     1      -6.983  21.026 -13.823  1.00  0.00    -0.003 C 
ATOM     20  C   UNL     1      -6.244  21.095 -12.491  1.00  0.00     0.004 C 
ENDBRANCH  18  19
ENDBRANCH  17  18
ENDBRANCH  16  17
ENDBRANCH  15  16
ENDBRANCH  14  15
ENDBRANCH  13  14
ENDBRANCH  12  13
ENDBRANCH   1  12
TORSDOF 16
ENDMDL
MODEL 5
REMARK VINA RESULT:    -1.671      3.320      7.219
REMARK INTER + INTRA:          -3.836
REMARK INTER:                  -3.686
REMARK INTRA:                  -0.150
REMARK UNBOUND:                -0.602
REMARK SMILES CCCCCCCCCCCCCCCCCC(=O)[O-]
REMARK SMILES IDX 10 1 11 2 12 3 13 4 14 5 15 6 16 7 17 8 18 9 19 10 20 11
REMARK SMILES IDX 9 12 8 13 7 14 6 15 5 16 4 17 3 18 2 19 1 20
REMARK H PARENT
REMARK Flexibility Score: inf
ROOT
ATOM      1  C   UNL     1      -8.788  14.647 -12.423  1.00  0.00     0.000 C 
ENDROOT
BRANCH   1   2
ATOM      2  C   UNL     1      -7.841  13.490 -12.062  1.00  0.00     0.000 C 
BRANCH   2   3
ATOM      3  C   UNL     1      -7.551  12.561 -13.255  1.00  0.00     0.000 C 
BRANCH   3   4
ATOM      4  C   UNL     1      -6.201  12.799 -13.961  1.00  0.00     0.000 C 
BRANCH   4   5
ATOM      5  C   UNL     1      -6.273  12.899 -15.499  1.00  0.00     0.000 C 
BRANCH   5   6
ATOM      6  C   UNL     1      -7.145  14.049 -16.034  1.00  0.00     0.000 C 
BRANCH   6   7
ATOM      7  C   UNL     1      -8.647  13.716 -16.018  1.00  0.00     0.006 C 
BRANCH   7   8
ATOM      8  C   UNL     1      -8.907  12.208 -16.124  1.00  0.00     0.053 C 
BRANCH   8   9
ATOM      9  C   UNL     1     -10.371  11.892 -16.089  1.00  0.00     0.041 C 
ATOM     10  O   UNL     1     -11.222  12.819 -16.125  1.00  0.00    -0.550 OA
ATOM     11  O   UNL     1     -10.796  10.570 -16.041  1.00  0.00    -0.550 OA
ENDBRANCH   8   9
ENDBRANCH   7   8
ENDBRANCH   6   7
ENDBRANCH   5   6
ENDBRANCH   4   5
ENDBRANCH   3   4
ENDBRANCH   2   3
ENDBRANCH   1   2
BRANCH   1  12
ATOM     12  C   UNL     1      -8.099  16.024 -12.384  1.00  0.00     0.000 C 
BRANCH  12  13
ATOM     13  C   UNL     1      -6.866  16.171 -13.295  1.00  0.00    -0.000 C 
BRANCH  13  14
ATOM     14  C   UNL     1      -6.787  17.544 -13.983  1.00  0.00    -0.000 C 
BRANCH  14  15
ATOM     15  C   UNL     1      -8.079  17.902 -14.735  1.00  0.00    -0.000 C 
BRANCH  15  16
ATOM     16  C   UNL     1      -8.325  19.417 -14.801  1.00  0.00    -0.000 C 
BRANCH  16  17
ATOM     17  C   UNL     1      -8.023  20.080 -13.452  1.00  0.00    -0.000 C 
BRANCH  17  18
ATOM     18  C   UNL     1      -6.904  21.119 -13.585  1.00  0.00    -0.000 C 
BRANCH  18  19
ATOM     19  C   UNL     1      -5.985  20.789 -14.767  1.00  0.00    -0.003 C 
ATOM     20  C   UNL     1      -6.660  21.108 -16.097  1.00  0.00     0.004 C 
ENDBRANCH  18  19
ENDBRANCH  17  18
ENDBRANCH  16  17
ENDBRANCH  15  16
ENDBRANCH  14  15
ENDBRANCH  13  14
ENDBRANCH  12  13
ENDBRANCH   1  12
TORSDOF 16
ENDMDL
