MODEL 1
REMARK VINA RESULT:    -4.473      0.000      0.000
REMARK INTER + INTRA:         -14.107
REMARK INTER:                 -10.225
REMARK INTRA:                  -3.882
REMARK UNBOUND:                -3.882
REMARK SMILES CCCCCCCCCCCCCCCCCCCCCCCC(=O)[O-]
REMARK SMILES IDX 13 1 14 2 15 3 16 4 17 5 18 6 19 7 20 8 21 9 22 10 23 11
REMARK SMILES IDX 24 12 25 13 26 14 12 15 11 16 10 17 9 18 8 19 7 20 6 21 5 22
REMARK SMILES IDX 4 23 3 24 2 25 1 26
REMARK H PARENT
REMARK Flexibility Score: inf
ROOT
ATOM      1  C   UNL     1      -8.972   2.013  19.605  1.00  0.00     0.000 C 
ENDROOT
BRANCH   1   2
ATOM      2  C   UNL     1      -8.083   2.936  18.756  1.00  0.00     0.000 C 
BRANCH   2   3
ATOM      3  C   UNL     1      -8.541   4.403  18.804  1.00  0.00     0.000 C 
BRANCH   3   4
ATOM      4  C   UNL     1      -9.951   4.571  19.401  1.00  0.00     0.000 C 
BRANCH   4   5
ATOM      5  C   UNL     1     -11.045   4.993  18.397  1.00  0.00     0.000 C 
BRANCH   5   6
ATOM      6  C   UNL     1     -12.183   3.973  18.200  1.00  0.00     0.000 C 
BRANCH   6   7
ATOM      7  C   UNL     1     -11.853   2.801  17.255  1.00  0.00     0.000 C 
BRANCH   7   8
ATOM      8  C   UNL     1     -11.250   3.238  15.902  1.00  0.00     0.000 C 
BRANCH   8   9
ATOM      9  C   UNL     1      -9.937   2.504  15.574  1.00  0.00     0.000 C 
BRANCH   9  10
ATOM     10  C   UNL     1     -10.124   0.983  15.454  1.00  0.00     0.006 C 
BRANCH  10  11
ATOM     11  C   UNL     1     -10.437   0.537  14.020  1.00  0.00     0.053 C 
BRANCH  11  12
ATOM     12  C   UNL     1     -11.783  -0.115  13.961  1.00  0.00     0.041 C 
ATOM     13  O   UNL     1     -12.805   0.501  14.361  1.00  0.00    -0.550 OA
ATOM     14  O   UNL     1     -11.916  -1.386  13.414  1.00  0.00    -0.550 OA
ENDBRANCH  11  12
ENDBRANCH  10  11
ENDBRANCH   9  10
ENDBRANCH   8   9
ENDBRANCH   7   8
ENDBRANCH   6   7
ENDBRANCH   5   6
ENDBRANCH   4   5
ENDBRANCH   3   4
ENDBRANCH   2   3
ENDBRANCH   1   2
BRANCH   1  15
ATOM     15  C   UNL     1      -9.233   0.653  18.931  1.00  0.00     0.000 C 
BRANCH  15  16
ATOM     16  C   UNL     1      -8.913  -0.536  19.853  1.00  0.00     0.000 C 
BRANCH  16  17
ATOM     17  C   UNL     1      -9.719  -0.499  21.163  1.00  0.00     0.000 C 
BRANCH  17  18
ATOM     18  C   UNL     1      -8.847  -0.787  22.397  1.00  0.00    -0.000 C 
BRANCH  18  19
ATOM     19  C   UNL     1      -9.107   0.200  23.549  1.00  0.00    -0.000 C 
BRANCH  19  20
ATOM     20  C   UNL     1      -9.680  -0.487  24.802  1.00  0.00    -0.000 C 
BRANCH  20  21
ATOM     21  C   UNL     1     -11.180  -0.234  25.057  1.00  0.00    -0.000 C 
BRANCH  21  22
ATOM     22  C   UNL     1     -11.757   1.008  24.354  1.00  0.00    -0.000 C 
BRANCH  22  23
ATOM     23  C   UNL     1     -12.785   0.653  23.267  1.00  0.00    -0.000 C 
BRANCH  23  24
ATOM     24  C   UNL     1     -12.571   1.448  21.970  1.00  0.00    -0.000 C 
BRANCH  24  25
ATOM     25  C   UNL     1     -11.733   2.717  22.187  1.00  0.00    -0.003 C 
ATOM     26  C   UNL     1     -12.575   3.973  21.981  1.00  0.00     0.004 C 
ENDBRANCH  24  25
ENDBRANCH  23  24
ENDBRANCH  22  23
ENDBRANCH  21  22
ENDBRANCH  20  21
ENDBRANCH  19  20
ENDBRANCH  18  19
ENDBRANCH  17  18
ENDBRANCH  16  17
ENDBRANCH  15  16
ENDBRANCH   1  15
TORSDOF 22
ENDMDL
MODEL 2
REMARK VINA RESULT:    -4.418      1.280      2.277
REMARK INTER + INTRA:         -13.982
REMARK INTER:                 -10.054
REMARK INTRA:                  -3.928
REMARK UNBOUND:                -3.882
REMARK SMILES CCCCCCCCCCCCCCCCCCCCCCCC(=O)[O-]
REMARK SMILES IDX 13 1 14 2 15 3 16 4 17 5 18 6 19 7 20 8 21 9 22 10 23 11
REMARK SMILES IDX 24 12 25 13 26 14 12 15 11 16 10 17 9 18 8 19 7 20 6 21 5 22
REMARK SMILES IDX 4 23 3 24 2 25 1 26
REMARK H PARENT
REMARK Flexibility Score: inf
ROOT
ATOM      1  C   UNL     1     -11.082  -0.497  20.139  1.00  0.00     0.000 C 
ENDROOT
BRANCH   1   2
ATOM      2  C   UNL     1     -10.961   0.637  19.108  1.00  0.00     0.000 C 
BRANCH   2   3
ATOM      3  C   UNL     1      -9.537   0.768  18.540  1.00  0.00     0.000 C 
BRANCH   3   4
ATOM      4  C   UNL     1      -8.829   2.058  18.991  1.00  0.00     0.000 C 
BRANCH   4   5
ATOM      5  C   UNL     1      -9.764   3.202  19.437  1.00  0.00     0.000 C 
BRANCH   5   6
ATOM      6  C   UNL     1      -9.756   4.448  18.530  1.00  0.00     0.000 C 
BRANCH   6   7
ATOM      7  C   UNL     1     -11.102   4.770  17.852  1.00  0.00     0.000 C 
BRANCH   7   8
ATOM      8  C   UNL     1     -11.315   4.044  16.506  1.00  0.00     0.000 C 
BRANCH   8   9
ATOM      9  C   UNL     1     -12.469   3.025  16.558  1.00  0.00     0.000 C 
BRANCH   9  10
ATOM     10  C   UNL     1     -12.108   1.691  15.885  1.00  0.00     0.006 C 
BRANCH  10  11
ATOM     11  C   UNL     1     -10.713   1.707  15.249  1.00  0.00     0.053 C 
BRANCH  11  12
ATOM     12  C   UNL     1     -10.604   0.642  14.204  1.00  0.00     0.041 C 
ATOM     13  O   UNL     1     -11.642   0.106  13.733  1.00  0.00    -0.550 OA
ATOM     14  O   UNL     1      -9.358   0.277  13.710  1.00  0.00    -0.550 OA
ENDBRANCH  11  12
ENDBRANCH  10  11
ENDBRANCH   9  10
ENDBRANCH   8   9
ENDBRANCH   7   8
ENDBRANCH   6   7
ENDBRANCH   5   6
ENDBRANCH   4   5
ENDBRANCH   3   4
ENDBRANCH   2   3
ENDBRANCH   1   2
BRANCH   1  15
ATOM     15  C   UNL     1      -9.743  -1.214  20.395  1.00  0.00     0.000 C 
BRANCH  15  16
ATOM     16  C   UNL     1      -9.184  -0.941  21.801  1.00  0.00     0.000 C 
BRANCH  16  17
ATOM     17  C   UNL     1      -9.800   0.313  22.446  1.00  0.00     0.000 C 
BRANCH  17  18
ATOM     18  C   UNL     1      -9.241   0.584  23.853  1.00  0.00    -0.000 C 
BRANCH  18  19
ATOM     19  C   UNL     1     -10.193   0.116  24.968  1.00  0.00    -0.000 C 
BRANCH  19  20
ATOM     20  C   UNL     1     -11.639  -0.076  24.473  1.00  0.00    -0.000 C 
BRANCH  20  21
ATOM     21  C   UNL     1     -12.685   0.838  25.144  1.00  0.00    -0.000 C 
BRANCH  21  22
ATOM     22  C   UNL     1     -13.592   1.609  24.170  1.00  0.00    -0.000 C 
BRANCH  22  23
ATOM     23  C   UNL     1     -13.093   1.549  22.717  1.00  0.00    -0.000 C 
BRANCH  23  24
ATOM     24  C   UNL     1     -12.602   2.911  22.203  1.00  0.00    -0.000 C 
BRANCH  24  25
ATOM     25  C   UNL     1     -13.151   3.249  20.808  1.00  0.00    -0.003 C 
ATOM     26  C   UNL     1     -13.499   4.730  20.699  1.00  0.00     0.004 C 
ENDBRANCH  24  25
ENDBRANCH  23  24
ENDBRANCH  22  23
ENDBRANCH  21  22
ENDBRANCH  20  21
ENDBRANCH  19  20
ENDBRANCH  18  19
ENDBRANCH  17  18
ENDBRANCH  16  17
ENDBRANCH  15  16
ENDBRANCH   1  15
TORSDOF 22
ENDMDL
MODEL 3
REMARK VINA RESULT:    -4.395      1.522      3.869
REMARK INTER + INTRA:         -13.929
REMARK INTER:                  -9.565
REMARK INTRA:                  -4.363
REMARK UNBOUND:                -3.882
REMARK SMILES CCCCCCCCCCCCCCCCCCCCCCCC(=O)[O-]
REMARK SMILES IDX 13 1 14 2 15 3 16 4 17 5 18 6 19 7 20 8 21 9 22 10 23 11
REMARK SMILES IDX 24 12 25 13 26 14 12 15 11 16 10 17 9 18 8 19 7 20 6 21 5 22
REMARK SMILES IDX 4 23 3 24 2 25 1 26
REMARK H PARENT
REMARK Flexibility Score: inf
ROOT
ATOM      1  C   UNL     1     -13.016   1.477  22.294  1.00  0.00     0.000 C 
ENDROOT
BRANCH   1   2
ATOM      2  C   UNL     1     -13.396   2.866  21.757  1.00  0.00     0.000 C 
BRANCH   2   3
ATOM      3  C   UNL     1     -12.478   3.326  20.611  1.00  0.00     0.000 C 
BRANCH   3   4
ATOM      4  C   UNL     1     -12.906   4.676  20.006  1.00  0.00     0.000 C 
BRANCH   4   5
ATOM      5  C   UNL     1     -11.749   5.589  19.549  1.00  0.00     0.000 C 
BRANCH   5   6
ATOM      6  C   UNL     1     -11.733   5.926  18.046  1.00  0.00     0.000 C 
BRANCH   6   7
ATOM      7  C   UNL     1     -10.825   5.026  17.185  1.00  0.00     0.000 C 
BRANCH   7   8
ATOM      8  C   UNL     1     -11.585   4.198  16.128  1.00  0.00     0.000 C 
BRANCH   8   9
ATOM      9  C   UNL     1     -12.281   2.963  16.729  1.00  0.00     0.000 C 
BRANCH   9  10
ATOM     10  C   UNL     1     -12.057   1.693  15.893  1.00  0.00     0.006 C 
BRANCH  10  11
ATOM     11  C   UNL     1     -10.626   1.587  15.351  1.00  0.00     0.053 C 
BRANCH  11  12
ATOM     12  C   UNL     1     -10.563   0.588  14.239  1.00  0.00     0.041 C 
ATOM     13  O   UNL     1      -9.452   0.243  13.758  1.00  0.00    -0.550 OA
ATOM     14  O   UNL     1     -11.729  -0.003  13.768  1.00  0.00    -0.550 OA
ENDBRANCH  11  12
ENDBRANCH  10  11
ENDBRANCH   9  10
ENDBRANCH   8   9
ENDBRANCH   7   8
ENDBRANCH   6   7
ENDBRANCH   5   6
ENDBRANCH   4   5
ENDBRANCH   3   4
ENDBRANCH   2   3
ENDBRANCH   1   2
BRANCH   1  15
ATOM     15  C   UNL     1     -11.739   0.915  21.642  1.00  0.00     0.000 C 
BRANCH  15  16
ATOM     16  C   UNL     1     -10.626   0.633  22.665  1.00  0.00     0.000 C 
BRANCH  16  17
ATOM     17  C   UNL     1      -9.562  -0.338  22.124  1.00  0.00     0.000 C 
BRANCH  17  18
ATOM     18  C   UNL     1      -9.893  -0.845  20.711  1.00  0.00    -0.000 C 
BRANCH  18  19
ATOM     19  C   UNL     1      -8.801  -0.494  19.685  1.00  0.00    -0.000 C 
BRANCH  19  20
ATOM     20  C   UNL     1      -9.315   0.421  18.558  1.00  0.00    -0.000 C 
BRANCH  20  21
ATOM     21  C   UNL     1      -9.597   1.878  18.979  1.00  0.00    -0.000 C 
BRANCH  21  22
ATOM     22  C   UNL     1      -8.440   2.861  18.731  1.00  0.00    -0.000 C 
BRANCH  22  23
ATOM     23  C   UNL     1      -8.245   3.856  19.887  1.00  0.00    -0.000 C 
BRANCH  23  24
ATOM     24  C   UNL     1      -8.943   3.405  21.179  1.00  0.00    -0.000 C 
BRANCH  24  25
ATOM     25  C   UNL     1      -8.769   4.412  22.326  1.00  0.00    -0.003 C 
ATOM     26  C   UNL     1     -10.118   4.933  22.810  1.00  0.00     0.004 C 
ENDBRANCH  24  25
ENDBRANCH  23  24
ENDBRANCH  22  23
ENDBRANCH  21  22
ENDBRANCH  20  21
ENDBRANCH  19  20
ENDBRANCH  18  19
ENDBRANCH  17  18
ENDBRANCH  16  17
ENDBRANCH  15  16
ENDBRANCH   1  15
TORSDOF 22
ENDMDL
MODEL 4
REMARK VINA RESULT:    -4.376      1.922      4.519
REMARK INTER + INTRA:         -13.886
REMARK INTER:                 -10.369
REMARK INTRA:                  -3.518
REMARK UNBOUND:                -3.882
REMARK SMILES CCCCCCCCCCCCCCCCCCCCCCCC(=O)[O-]
REMARK SMILES IDX 13 1 14 2 15 3 16 4 17 5 18 6 19 7 20 8 21 9 22 10 23 11
REMARK SMILES IDX 24 12 25 13 26 14 12 15 11 16 10 17 9 18 8 19 7 20 6 21 5 22
REMARK SMILES IDX 4 23 3 24 2 25 1 26
REMARK H PARENT
REMARK Flexibility Score: inf
ROOT
ATOM      1  C   UNL     1      -9.543  -1.228  20.918  1.00  0.00     0.000 C 
ENDROOT
BRANCH   1   2
ATOM      2  C   UNL     1      -8.910  -0.485  19.731  1.00  0.00     0.000 C 
BRANCH   2   3
ATOM      3  C   UNL     1      -9.382   0.975  19.630  1.00  0.00     0.000 C 
BRANCH   3   4
ATOM      4  C   UNL     1     -10.843   1.102  19.160  1.00  0.00     0.000 C 
BRANCH   4   5
ATOM      5  C   UNL     1     -11.698   2.126  19.934  1.00  0.00     0.000 C 
BRANCH   5   6
ATOM      6  C   UNL     1     -12.090   3.388  19.141  1.00  0.00     0.000 C 
BRANCH   6   7
ATOM      7  C   UNL     1     -10.917   4.121  18.461  1.00  0.00     0.000 C 
BRANCH   7   8
ATOM      8  C   UNL     1     -10.866   3.934  16.929  1.00  0.00     0.000 C 
BRANCH   8   9
ATOM      9  C   UNL     1      -9.462   3.550  16.425  1.00  0.00     0.000 C 
BRANCH   9  10
ATOM     10  C   UNL     1      -9.400   2.109  15.891  1.00  0.00     0.006 C 
BRANCH  10  11
ATOM     11  C   UNL     1     -10.771   1.583  15.449  1.00  0.00     0.053 C 
BRANCH  11  12
ATOM     12  C   UNL     1     -10.622   0.662  14.279  1.00  0.00     0.041 C 
ATOM     13  O   UNL     1     -11.640   0.170  13.726  1.00  0.00    -0.550 OA
ATOM     14  O   UNL     1      -9.360   0.387  13.767  1.00  0.00    -0.550 OA
ENDBRANCH  11  12
ENDBRANCH  10  11
ENDBRANCH   9  10
ENDBRANCH   8   9
ENDBRANCH   7   8
ENDBRANCH   6   7
ENDBRANCH   5   6
ENDBRANCH   4   5
ENDBRANCH   3   4
ENDBRANCH   2   3
ENDBRANCH   1   2
BRANCH   1  15
ATOM     15  C   UNL     1      -8.902  -0.850  22.267  1.00  0.00     0.000 C 
BRANCH  15  16
ATOM     16  C   UNL     1      -9.862  -0.071  23.182  1.00  0.00     0.000 C 
BRANCH  16  17
ATOM     17  C   UNL     1      -9.372   1.359  23.468  1.00  0.00     0.000 C 
BRANCH  17  18
ATOM     18  C   UNL     1     -10.502   2.397  23.374  1.00  0.00    -0.000 C 
BRANCH  18  19
ATOM     19  C   UNL     1      -9.989   3.800  23.005  1.00  0.00    -0.000 C 
BRANCH  19  20
ATOM     20  C   UNL     1      -9.064   3.789  21.774  1.00  0.00    -0.000 C 
BRANCH  20  21
ATOM     21  C   UNL     1      -8.651   5.182  21.255  1.00  0.00    -0.000 C 
BRANCH  21  22
ATOM     22  C   UNL     1      -7.265   5.663  21.720  1.00  0.00    -0.000 C 
BRANCH  22  23
ATOM     23  C   UNL     1      -6.180   5.482  20.644  1.00  0.00    -0.000 C 
BRANCH  23  24
ATOM     24  C   UNL     1      -6.742   4.931  19.325  1.00  0.00    -0.000 C 
BRANCH  24  25
ATOM     25  C   UNL     1      -5.939   3.733  18.796  1.00  0.00    -0.003 C 
ATOM     26  C   UNL     1      -4.534   4.156  18.377  1.00  0.00     0.004 C 
ENDBRANCH  24  25
ENDBRANCH  23  24
ENDBRANCH  22  23
ENDBRANCH  21  22
ENDBRANCH  20  21
ENDBRANCH  19  20
ENDBRANCH  18  19
ENDBRANCH  17  18
ENDBRANCH  16  17
ENDBRANCH  15  16
ENDBRANCH   1  15
TORSDOF 22
ENDMDL
MODEL 5
REMARK VINA RESULT:    -4.362      1.381      2.194
REMARK INTER + INTRA:         -13.854
REMARK INTER:                 -10.037
REMARK INTRA:                  -3.817
REMARK UNBOUND:                -3.882
REMARK SMILES CCCCCCCCCCCCCCCCCCCCCCCC(=O)[O-]
REMARK SMILES IDX 13 1 14 2 15 3 16 4 17 5 18 6 19 7 20 8 21 9 22 10 23 11
REMARK SMILES IDX 24 12 25 13 26 14 12 15 11 16 10 17 9 18 8 19 7 20 6 21 5 22
REMARK SMILES IDX 4 23 3 24 2 25 1 26
REMARK H PARENT
REMARK Flexibility Score: inf
ROOT
ATOM      1  C   UNL     1      -9.582   0.860  18.961  1.00  0.00     0.000 C 
ENDROOT
BRANCH   1   2
ATOM      2  C   UNL     1      -8.738   2.130  19.159  1.00  0.00     0.000 C 
BRANCH   2   3
ATOM      3  C   UNL     1      -9.571   3.317  19.671  1.00  0.00     0.000 C 
BRANCH   3   4
ATOM      4  C   UNL     1     -11.088   3.081  19.552  1.00  0.00     0.000 C 
BRANCH   4   5
ATOM      5  C   UNL     1     -11.865   4.166  18.776  1.00  0.00     0.000 C 
BRANCH   5   6
ATOM      6  C   UNL     1     -12.674   3.657  17.569  1.00  0.00     0.000 C 
BRANCH   6   7
ATOM      7  C   UNL     1     -11.941   2.639  16.673  1.00  0.00     0.000 C 
BRANCH   7   8
ATOM      8  C   UNL     1     -10.860   3.267  15.768  1.00  0.00     0.000 C 
BRANCH   8   9
ATOM      9  C   UNL     1      -9.632   2.355  15.589  1.00  0.00     0.000 C 
BRANCH   9  10
ATOM     10  C   UNL     1     -10.017   0.881  15.379  1.00  0.00     0.006 C 
BRANCH  10  11
ATOM     11  C   UNL     1     -10.440   0.581  13.936  1.00  0.00     0.053 C 
BRANCH  11  12
ATOM     12  C   UNL     1     -11.744  -0.153  13.917  1.00  0.00     0.041 C 
ATOM     13  O   UNL     1     -11.808  -1.322  13.452  1.00  0.00    -0.550 OA
ATOM     14  O   UNL     1     -12.880   0.434  14.461  1.00  0.00    -0.550 OA
ENDBRANCH  11  12
ENDBRANCH  10  11
ENDBRANCH   9  10
ENDBRANCH   8   9
ENDBRANCH   7   8
ENDBRANCH   6   7
ENDBRANCH   5   6
ENDBRANCH   4   5
ENDBRANCH   3   4
ENDBRANCH   2   3
ENDBRANCH   1   2
BRANCH   1  15
ATOM     15  C   UNL     1      -8.838  -0.421  19.383  1.00  0.00     0.000 C 
BRANCH  15  16
ATOM     16  C   UNL     1      -9.583  -1.208  20.472  1.00  0.00     0.000 C 
BRANCH  16  17
ATOM     17  C   UNL     1      -9.137  -0.816  21.892  1.00  0.00     0.000 C 
BRANCH  17  18
ATOM     18  C   UNL     1     -10.099   0.185  22.554  1.00  0.00    -0.000 C 
BRANCH  18  19
ATOM     19  C   UNL     1     -11.491   0.189  21.900  1.00  0.00    -0.000 C 
BRANCH  19  20
ATOM     20  C   UNL     1     -12.580   0.767  22.824  1.00  0.00    -0.000 C 
BRANCH  20  21
ATOM     21  C   UNL     1     -13.130   2.145  22.402  1.00  0.00    -0.000 C 
BRANCH  21  22
ATOM     22  C   UNL     1     -13.116   3.215  23.507  1.00  0.00    -0.000 C 
BRANCH  22  23
ATOM     23  C   UNL     1     -11.743   3.353  24.186  1.00  0.00    -0.000 C 
BRANCH  23  24
ATOM     24  C   UNL     1     -10.791   4.277  23.412  1.00  0.00    -0.000 C 
BRANCH  24  25
ATOM     25  C   UNL     1      -9.357   3.729  23.351  1.00  0.00    -0.003 C 
ATOM     26  C   UNL     1      -8.395   4.770  22.785  1.00  0.00     0.004 C 
ENDBRANCH  24  25
ENDBRANCH  23  24
ENDBRANCH  22  23
ENDBRANCH  21  22
ENDBRANCH  20  21
ENDBRANCH  19  20
ENDBRANCH  18  19
ENDBRANCH  17  18
ENDBRANCH  16  17
ENDBRANCH  15  16
ENDBRANCH   1  15
TORSDOF 22
ENDMDL
MODEL 6
REMARK VINA RESULT:    -4.359      3.044      7.551
REMARK INTER + INTRA:         -13.846
REMARK INTER:                  -9.765
REMARK INTRA:                  -4.081
REMARK UNBOUND:                -3.882
REMARK SMILES CCCCCCCCCCCCCCCCCCCCCCCC(=O)[O-]
REMARK SMILES IDX 13 1 14 2 15 3 16 4 17 5 18 6 19 7 20 8 21 9 22 10 23 11
REMARK SMILES IDX 24 12 25 13 26 14 12 15 11 16 10 17 9 18 8 19 7 20 6 21 5 22
REMARK SMILES IDX 4 23 3 24 2 25 1 26
REMARK H PARENT
REMARK Flexibility Score: inf
ROOT
ATOM      1  C   UNL     1      -9.639   0.606  18.482  1.00  0.00     0.000 C 
ENDROOT
BRANCH   1   2
ATOM      2  C   UNL     1     -10.977   0.518  19.234  1.00  0.00     0.000 C 
BRANCH   2   3
ATOM      3  C   UNL     1     -11.070  -0.731  20.126  1.00  0.00     0.000 C 
BRANCH   3   4
ATOM      4  C   UNL     1      -9.691  -1.295  20.515  1.00  0.00     0.000 C 
BRANCH   4   5
ATOM      5  C   UNL     1      -9.117  -0.772  21.848  1.00  0.00     0.000 C 
BRANCH   5   6
ATOM      6  C   UNL     1     -10.146  -0.134  22.801  1.00  0.00     0.000 C 
BRANCH   6   7
ATOM      7  C   UNL     1      -9.770   1.265  23.327  1.00  0.00     0.000 C 
BRANCH   7   8
ATOM      8  C   UNL     1     -10.747   2.379  22.894  1.00  0.00     0.000 C 
BRANCH   8   9
ATOM      9  C   UNL     1     -12.127   1.833  22.486  1.00  0.00     0.000 C 
BRANCH   9  10
ATOM     10  C   UNL     1     -13.118   2.949  22.116  1.00  0.00     0.006 C 
BRANCH  10  11
ATOM     11  C   UNL     1     -12.931   4.211  22.967  1.00  0.00     0.053 C 
BRANCH  11  12
ATOM     12  C   UNL     1     -12.771   5.412  22.088  1.00  0.00     0.041 C 
ATOM     13  O   UNL     1     -11.625   5.872  21.845  1.00  0.00    -0.550 OA
ATOM     14  O   UNL     1     -13.886   5.993  21.495  1.00  0.00    -0.550 OA
ENDBRANCH  11  12
ENDBRANCH  10  11
ENDBRANCH   9  10
ENDBRANCH   8   9
ENDBRANCH   7   8
ENDBRANCH   6   7
ENDBRANCH   5   6
ENDBRANCH   4   5
ENDBRANCH   3   4
ENDBRANCH   2   3
ENDBRANCH   1   2
BRANCH   1  15
ATOM     15  C   UNL     1      -8.876   1.911  18.775  1.00  0.00     0.000 C 
BRANCH  15  16
ATOM     16  C   UNL     1      -9.593   2.798  19.806  1.00  0.00     0.000 C 
BRANCH  16  17
ATOM     17  C   UNL     1      -9.528   4.293  19.444  1.00  0.00     0.000 C 
BRANCH  17  18
ATOM     18  C   UNL     1     -10.600   4.696  18.419  1.00  0.00    -0.000 C 
BRANCH  18  19
ATOM     19  C   UNL     1     -11.988   4.123  18.758  1.00  0.00    -0.000 C 
BRANCH  19  20
ATOM     20  C   UNL     1     -12.645   3.411  17.561  1.00  0.00    -0.000 C 
BRANCH  20  21
ATOM     21  C   UNL     1     -11.693   3.088  16.391  1.00  0.00    -0.000 C 
BRANCH  21  22
ATOM     22  C   UNL     1     -11.990   1.768  15.658  1.00  0.00    -0.000 C 
BRANCH  22  23
ATOM     23  C   UNL     1     -10.713   1.014  15.249  1.00  0.00    -0.000 C 
BRANCH  23  24
ATOM     24  C   UNL     1     -10.883   0.233  13.936  1.00  0.00    -0.000 C 
BRANCH  24  25
ATOM     25  C   UNL     1     -12.355   0.099  13.516  1.00  0.00    -0.003 C 
ATOM     26  C   UNL     1     -12.826  -1.349  13.617  1.00  0.00     0.004 C 
ENDBRANCH  24  25
ENDBRANCH  23  24
ENDBRANCH  22  23
ENDBRANCH  21  22
ENDBRANCH  20  21
ENDBRANCH  19  20
ENDBRANCH  18  19
ENDBRANCH  17  18
ENDBRANCH  16  17
ENDBRANCH  15  16
ENDBRANCH   1  15
TORSDOF 22
ENDMDL
MODEL 7
REMARK VINA RESULT:    -4.316      1.359      4.755
REMARK INTER + INTRA:         -13.748
REMARK INTER:                  -9.929
REMARK INTRA:                  -3.819
REMARK UNBOUND:                -3.882
REMARK SMILES CCCCCCCCCCCCCCCCCCCCCCCC(=O)[O-]
REMARK SMILES IDX 13 1 14 2 15 3 16 4 17 5 18 6 19 7 20 8 21 9 22 10 23 11
REMARK SMILES IDX 24 12 25 13 26 14 12 15 11 16 10 17 9 18 8 19 7 20 6 21 5 22
REMARK SMILES IDX 4 23 3 24 2 25 1 26
REMARK H PARENT
REMARK Flexibility Score: inf
ROOT
ATOM      1  C   UNL     1      -9.777   1.063  24.388  1.00  0.00     0.000 C 
ENDROOT
BRANCH   1   2
ATOM      2  C   UNL     1      -9.168   0.885  22.988  1.00  0.00     0.000 C 
BRANCH   2   3
ATOM      3  C   UNL     1      -9.184  -0.580  22.520  1.00  0.00     0.000 C 
BRANCH   3   4
ATOM      4  C   UNL     1      -9.480  -0.725  21.015  1.00  0.00     0.000 C 
BRANCH   4   5
ATOM      5  C   UNL     1     -10.948  -0.481  20.607  1.00  0.00     0.000 C 
BRANCH   5   6
ATOM      6  C   UNL     1     -11.146   0.425  19.376  1.00  0.00     0.000 C 
BRANCH   6   7
ATOM      7  C   UNL     1      -9.936   0.505  18.424  1.00  0.00     0.000 C 
BRANCH   7   8
ATOM      8  C   UNL     1      -9.989   1.698  17.445  1.00  0.00     0.000 C 
BRANCH   8   9
ATOM      9  C   UNL     1     -11.382   2.351  17.380  1.00  0.00     0.000 C 
BRANCH   9  10
ATOM     10  C   UNL     1     -12.066   2.147  16.018  1.00  0.00     0.006 C 
BRANCH  10  11
ATOM     11  C   UNL     1     -12.232   0.666  15.657  1.00  0.00     0.053 C 
BRANCH  11  12
ATOM     12  C   UNL     1     -11.777   0.419  14.253  1.00  0.00     0.041 C 
ATOM     13  O   UNL     1     -12.614   0.147  13.352  1.00  0.00    -0.550 OA
ATOM     14  O   UNL     1     -10.431   0.540  13.926  1.00  0.00    -0.550 OA
ENDBRANCH  11  12
ENDBRANCH  10  11
ENDBRANCH   9  10
ENDBRANCH   8   9
ENDBRANCH   7   8
ENDBRANCH   6   7
ENDBRANCH   5   6
ENDBRANCH   4   5
ENDBRANCH   3   4
ENDBRANCH   2   3
ENDBRANCH   1   2
BRANCH   1  15
ATOM     15  C   UNL     1     -10.568  -0.174  24.854  1.00  0.00     0.000 C 
BRANCH  15  16
ATOM     16  C   UNL     1     -12.059   0.126  25.080  1.00  0.00     0.000 C 
BRANCH  16  17
ATOM     17  C   UNL     1     -12.830   0.305  23.760  1.00  0.00     0.000 C 
BRANCH  17  18
ATOM     18  C   UNL     1     -13.498   1.686  23.654  1.00  0.00    -0.000 C 
BRANCH  18  19
ATOM     19  C   UNL     1     -13.354   2.307  22.253  1.00  0.00    -0.000 C 
BRANCH  19  20
ATOM     20  C   UNL     1     -11.938   2.848  21.987  1.00  0.00    -0.000 C 
BRANCH  20  21
ATOM     21  C   UNL     1     -11.824   3.820  20.794  1.00  0.00    -0.000 C 
BRANCH  21  22
ATOM     22  C   UNL     1     -10.459   4.515  20.650  1.00  0.00    -0.000 C 
BRANCH  22  23
ATOM     23  C   UNL     1      -9.295   3.519  20.515  1.00  0.00    -0.000 C 
BRANCH  23  24
ATOM     24  C   UNL     1      -7.964   4.208  20.180  1.00  0.00    -0.000 C 
BRANCH  24  25
ATOM     25  C   UNL     1      -7.270   3.588  18.957  1.00  0.00    -0.003 C 
ATOM     26  C   UNL     1      -5.797   3.982  18.903  1.00  0.00     0.004 C 
ENDBRANCH  24  25
ENDBRANCH  23  24
ENDBRANCH  22  23
ENDBRANCH  21  22
ENDBRANCH  20  21
ENDBRANCH  19  20
ENDBRANCH  18  19
ENDBRANCH  17  18
ENDBRANCH  16  17
ENDBRANCH  15  16
ENDBRANCH   1  15
TORSDOF 22
ENDMDL
MODEL 8
REMARK VINA RESULT:    -4.308      1.258      2.528
REMARK INTER + INTRA:         -13.730
REMARK INTER:                  -9.264
REMARK INTRA:                  -4.466
REMARK UNBOUND:                -3.882
REMARK SMILES CCCCCCCCCCCCCCCCCCCCCCCC(=O)[O-]
REMARK SMILES IDX 13 1 14 2 15 3 16 4 17 5 18 6 19 7 20 8 21 9 22 10 23 11
REMARK SMILES IDX 24 12 25 13 26 14 12 15 11 16 10 17 9 18 8 19 7 20 6 21 5 22
REMARK SMILES IDX 4 23 3 24 2 25 1 26
REMARK H PARENT
REMARK Flexibility Score: inf
ROOT
ATOM      1  C   UNL     1     -10.385  -0.334  19.733  1.00  0.00     0.000 C 
ENDROOT
BRANCH   1   2
ATOM      2  C   UNL     1      -9.220   0.469  19.132  1.00  0.00     0.000 C 
BRANCH   2   3
ATOM      3  C   UNL     1      -9.244   1.948  19.555  1.00  0.00     0.000 C 
BRANCH   3   4
ATOM      4  C   UNL     1      -8.252   2.815  18.758  1.00  0.00     0.000 C 
BRANCH   4   5
ATOM      5  C   UNL     1      -8.787   4.195  18.321  1.00  0.00     0.000 C 
BRANCH   5   6
ATOM      6  C   UNL     1     -10.247   4.488  18.714  1.00  0.00     0.000 C 
BRANCH   6   7
ATOM      7  C   UNL     1     -11.154   4.951  17.557  1.00  0.00     0.000 C 
BRANCH   7   8
ATOM      8  C   UNL     1     -11.395   3.871  16.480  1.00  0.00     0.000 C 
BRANCH   8   9
ATOM      9  C   UNL     1     -12.037   2.594  17.054  1.00  0.00     0.000 C 
BRANCH   9  10
ATOM     10  C   UNL     1     -11.647   1.332  16.267  1.00  0.00     0.006 C 
BRANCH  10  11
ATOM     11  C   UNL     1     -10.302   1.478  15.546  1.00  0.00     0.053 C 
BRANCH  11  12
ATOM     12  C   UNL     1     -10.283   0.641  14.305  1.00  0.00     0.041 C 
ATOM     13  O   UNL     1      -9.202   0.442  13.691  1.00  0.00    -0.550 OA
ATOM     14  O   UNL     1     -11.451   0.036  13.856  1.00  0.00    -0.550 OA
ENDBRANCH  11  12
ENDBRANCH  10  11
ENDBRANCH   9  10
ENDBRANCH   8   9
ENDBRANCH   7   8
ENDBRANCH   6   7
ENDBRANCH   5   6
ENDBRANCH   4   5
ENDBRANCH   3   4
ENDBRANCH   2   3
ENDBRANCH   1   2
BRANCH   1  15
ATOM     15  C   UNL     1      -9.918  -1.379  20.763  1.00  0.00     0.000 C 
BRANCH  15  16
ATOM     16  C   UNL     1      -8.786  -0.858  21.665  1.00  0.00     0.000 C 
BRANCH  16  17
ATOM     17  C   UNL     1      -9.278  -0.498  23.078  1.00  0.00     0.000 C 
BRANCH  17  18
ATOM     18  C   UNL     1      -9.106   0.996  23.397  1.00  0.00    -0.000 C 
BRANCH  18  19
ATOM     19  C   UNL     1     -10.445   1.754  23.421  1.00  0.00    -0.000 C 
BRANCH  19  20
ATOM     20  C   UNL     1     -11.662   0.810  23.376  1.00  0.00    -0.000 C 
BRANCH  20  21
ATOM     21  C   UNL     1     -12.736   1.180  22.333  1.00  0.00    -0.000 C 
BRANCH  21  22
ATOM     22  C   UNL     1     -12.336   2.302  21.359  1.00  0.00    -0.000 C 
BRANCH  22  23
ATOM     23  C   UNL     1     -13.440   3.358  21.181  1.00  0.00    -0.000 C 
BRANCH  23  24
ATOM     24  C   UNL     1     -12.909   4.795  21.296  1.00  0.00    -0.000 C 
BRANCH  24  25
ATOM     25  C   UNL     1     -12.036   5.003  22.544  1.00  0.00    -0.003 C 
ATOM     26  C   UNL     1     -10.743   5.733  22.194  1.00  0.00     0.004 C 
ENDBRANCH  24  25
ENDBRANCH  23  24
ENDBRANCH  22  23
ENDBRANCH  21  22
ENDBRANCH  20  21
ENDBRANCH  19  20
ENDBRANCH  18  19
ENDBRANCH  17  18
ENDBRANCH  16  17
ENDBRANCH  15  16
ENDBRANCH   1  15
TORSDOF 22
ENDMDL
MODEL 9
REMARK VINA RESULT:    -4.289      2.847      6.978
REMARK INTER + INTRA:         -13.688
REMARK INTER:                  -9.518
REMARK INTRA:                  -4.170
REMARK UNBOUND:                -3.882
REMARK SMILES CCCCCCCCCCCCCCCCCCCCCCCC(=O)[O-]
REMARK SMILES IDX 13 1 14 2 15 3 16 4 17 5 18 6 19 7 20 8 21 9 22 10 23 11
REMARK SMILES IDX 24 12 25 13 26 14 12 15 11 16 10 17 9 18 8 19 7 20 6 21 5 22
REMARK SMILES IDX 4 23 3 24 2 25 1 26
REMARK H PARENT
REMARK Flexibility Score: inf
ROOT
ATOM      1  C   UNL     1      -6.992   4.005  19.372  1.00  0.00     0.000 C 
ENDROOT
BRANCH   1   2
ATOM      2  C   UNL     1      -7.742   2.964  18.525  1.00  0.00     0.000 C 
BRANCH   2   3
ATOM      3  C   UNL     1      -8.757   2.154  19.350  1.00  0.00     0.000 C 
BRANCH   3   4
ATOM      4  C   UNL     1      -8.747   0.653  19.006  1.00  0.00     0.000 C 
BRANCH   4   5
ATOM      5  C   UNL     1     -10.034  -0.115  19.374  1.00  0.00     0.000 C 
BRANCH   5   6
ATOM      6  C   UNL     1      -9.855  -1.235  20.416  1.00  0.00     0.000 C 
BRANCH   6   7
ATOM      7  C   UNL     1      -9.207  -0.794  21.743  1.00  0.00     0.000 C 
BRANCH   7   8
ATOM      8  C   UNL     1     -10.141   0.034  22.651  1.00  0.00     0.000 C 
BRANCH   8   9
ATOM      9  C   UNL     1      -9.619   1.463  22.892  1.00  0.00     0.000 C 
BRANCH   9  10
ATOM     10  C   UNL     1     -10.681   2.536  22.598  1.00  0.00     0.006 C 
BRANCH  10  11
ATOM     11  C   UNL     1     -11.796   2.027  21.678  1.00  0.00     0.053 C 
BRANCH  11  12
ATOM     12  C   UNL     1     -13.120   2.571  22.115  1.00  0.00     0.041 C 
ATOM     13  O   UNL     1     -13.482   3.724  21.759  1.00  0.00    -0.550 OA
ATOM     14  O   UNL     1     -13.980   1.784  22.872  1.00  0.00    -0.550 OA
ENDBRANCH  11  12
ENDBRANCH  10  11
ENDBRANCH   9  10
ENDBRANCH   8   9
ENDBRANCH   7   8
ENDBRANCH   6   7
ENDBRANCH   5   6
ENDBRANCH   4   5
ENDBRANCH   3   4
ENDBRANCH   2   3
ENDBRANCH   1   2
BRANCH   1  15
ATOM     15  C   UNL     1      -7.828   4.524  20.556  1.00  0.00     0.000 C 
BRANCH  15  16
ATOM     16  C   UNL     1      -8.234   5.998  20.394  1.00  0.00     0.000 C 
BRANCH  16  17
ATOM     17  C   UNL     1      -9.757   6.179  20.265  1.00  0.00     0.000 C 
BRANCH  17  18
ATOM     18  C   UNL     1     -10.183   6.579  18.843  1.00  0.00    -0.000 C 
BRANCH  18  19
ATOM     19  C   UNL     1     -10.718   5.388  18.028  1.00  0.00    -0.000 C 
BRANCH  19  20
ATOM     20  C   UNL     1     -11.277   4.262  18.919  1.00  0.00    -0.000 C 
BRANCH  20  21
ATOM     21  C   UNL     1     -12.338   3.366  18.249  1.00  0.00    -0.000 C 
BRANCH  21  22
ATOM     22  C   UNL     1     -12.454   3.527  16.723  1.00  0.00    -0.000 C 
BRANCH  22  23
ATOM     23  C   UNL     1     -11.926   2.304  15.954  1.00  0.00    -0.000 C 
BRANCH  23  24
ATOM     24  C   UNL     1     -10.408   2.359  15.726  1.00  0.00    -0.000 C 
BRANCH  24  25
ATOM     25  C   UNL     1      -9.785   0.964  15.563  1.00  0.00    -0.003 C 
ATOM     26  C   UNL     1      -9.697   0.570  14.091  1.00  0.00     0.004 C 
ENDBRANCH  24  25
ENDBRANCH  23  24
ENDBRANCH  22  23
ENDBRANCH  21  22
ENDBRANCH  20  21
ENDBRANCH  19  20
ENDBRANCH  18  19
ENDBRANCH  17  18
ENDBRANCH  16  17
ENDBRANCH  15  16
ENDBRANCH   1  15
TORSDOF 22
ENDMDL
