MODEL 1
REMARK VINA RESULT:    -4.726      0.000      0.000
REMARK INTER + INTRA:          -7.236
REMARK INTER:                  -6.936
REMARK INTRA:                  -0.300
REMARK UNBOUND:                -0.300
REMARK SMILES O=C([O-])CCCCCCCC(=O)[O-]
REMARK SMILES IDX 7 1 6 2 5 3 4 4 2 5 1 6 3 7 8 8 9 9 10 10 11 11 12 12 13 13
REMARK H PARENT
REMARK Flexibility Score: inf
ROOT
ATOM      1  C   UNL     1      -4.129  37.427  19.912  1.00  0.00     0.000 C 
ENDROOT
BRANCH   1   2
ATOM      2  C   UNL     1      -2.665  37.868  19.725  1.00  0.00     0.000 C 
BRANCH   2   3
ATOM      3  C   UNL     1      -2.186  37.913  18.264  1.00  0.00     0.006 C 
BRANCH   3   4
ATOM      4  C   UNL     1      -3.176  37.254  17.294  1.00  0.00     0.053 C 
BRANCH   4   5
ATOM      5  C   UNL     1      -2.751  37.487  15.878  1.00  0.00     0.041 C 
ATOM      6  O   UNL     1      -3.439  38.226  15.124  1.00  0.00    -0.550 OA
ATOM      7  O   UNL     1      -1.624  36.849  15.377  1.00  0.00    -0.550 OA
ENDBRANCH   4   5
ENDBRANCH   3   4
ENDBRANCH   2   3
ENDBRANCH   1   2
BRANCH   1   8
ATOM      8  C   UNL     1      -4.287  36.126  20.729  1.00  0.00     0.000 C 
BRANCH   8   9
ATOM      9  C   UNL     1      -5.676  36.009  21.375  1.00  0.00     0.006 C 
BRANCH   9  10
ATOM     10  C   UNL     1      -5.750  36.819  22.671  1.00  0.00     0.053 C 
BRANCH  10  11
ATOM     11  C   UNL     1      -5.499  35.940  23.854  1.00  0.00     0.041 C 
ATOM     12  O   UNL     1      -5.162  36.443  24.958  1.00  0.00    -0.550 OA
ATOM     13  O   UNL     1      -5.687  34.567  23.753  1.00  0.00    -0.550 OA
ENDBRANCH  10  11
ENDBRANCH   9  10
ENDBRANCH   8   9
ENDBRANCH   1   8
TORSDOF 8
ENDMDL
MODEL 2
REMARK VINA RESULT:    -4.695      0.609      7.182
REMARK INTER + INTRA:          -7.191
REMARK INTER:                  -6.968
REMARK INTRA:                  -0.223
REMARK UNBOUND:                -0.300
REMARK SMILES O=C([O-])CCCCCCCC(=O)[O-]
REMARK SMILES IDX 7 1 6 2 5 3 4 4 2 5 1 6 3 7 8 8 9 9 10 10 11 11 12 12 13 13
REMARK H PARENT
REMARK Flexibility Score: inf
ROOT
ATOM      1  C   UNL     1      -3.554  36.751  20.111  1.00  0.00     0.000 C 
ENDROOT
BRANCH   1   2
ATOM      2  C   UNL     1      -4.995  37.216  20.396  1.00  0.00     0.000 C 
BRANCH   2   3
ATOM      3  C   UNL     1      -5.749  36.379  21.444  1.00  0.00     0.006 C 
BRANCH   3   4
ATOM      4  C   UNL     1      -4.805  35.627  22.392  1.00  0.00     0.053 C 
BRANCH   4   5
ATOM      5  C   UNL     1      -5.458  35.427  23.724  1.00  0.00     0.041 C 
ATOM      6  O   UNL     1      -6.124  34.382  23.952  1.00  0.00    -0.550 OA
ATOM      7  O   UNL     1      -5.372  36.415  24.696  1.00  0.00    -0.550 OA
ENDBRANCH   4   5
ENDBRANCH   3   4
ENDBRANCH   2   3
ENDBRANCH   1   2
BRANCH   1   8
ATOM      8  C   UNL     1      -2.573  37.908  19.825  1.00  0.00     0.000 C 
BRANCH   8   9
ATOM      9  C   UNL     1      -2.057  37.891  18.378  1.00  0.00     0.006 C 
BRANCH   9  10
ATOM     10  C   UNL     1      -3.127  37.364  17.419  1.00  0.00     0.053 C 
BRANCH  10  11
ATOM     11  C   UNL     1      -2.675  37.505  16.001  1.00  0.00     0.041 C 
ATOM     12  O   UNL     1      -1.614  36.946  15.614  1.00  0.00    -0.550 OA
ATOM     13  O   UNL     1      -3.451  38.212  15.090  1.00  0.00    -0.550 OA
ENDBRANCH  10  11
ENDBRANCH   9  10
ENDBRANCH   8   9
ENDBRANCH   1   8
TORSDOF 8
ENDMDL
MODEL 3
REMARK VINA RESULT:    -4.627      0.656      7.294
REMARK INTER + INTRA:          -7.091
REMARK INTER:                  -6.770
REMARK INTRA:                  -0.321
REMARK UNBOUND:                -0.300
REMARK SMILES O=C([O-])CCCCCCCC(=O)[O-]
REMARK SMILES IDX 7 1 6 2 5 3 4 4 2 5 1 6 3 7 8 8 9 9 10 10 11 11 12 12 13 13
REMARK H PARENT
REMARK Flexibility Score: inf
ROOT
ATOM      1  C   UNL     1      -3.283  37.187  20.238  1.00  0.00     0.000 C 
ENDROOT
BRANCH   1   2
ATOM      2  C   UNL     1      -3.953  35.968  20.900  1.00  0.00     0.000 C 
BRANCH   2   3
ATOM      3  C   UNL     1      -5.450  36.142  21.209  1.00  0.00     0.006 C 
BRANCH   3   4
ATOM      4  C   UNL     1      -5.700  36.911  22.513  1.00  0.00     0.053 C 
BRANCH   4   5
ATOM      5  C   UNL     1      -5.665  35.979  23.683  1.00  0.00     0.041 C 
ATOM      6  O   UNL     1      -5.240  36.379  24.799  1.00  0.00    -0.550 OA
ATOM      7  O   UNL     1      -6.052  34.653  23.527  1.00  0.00    -0.550 OA
ENDBRANCH   4   5
ENDBRANCH   3   4
ENDBRANCH   2   3
ENDBRANCH   1   2
BRANCH   1   8
ATOM      8  C   UNL     1      -3.898  37.573  18.876  1.00  0.00     0.000 C 
BRANCH   8   9
ATOM      9  C   UNL     1      -2.830  37.794  17.795  1.00  0.00     0.006 C 
BRANCH   9  10
ATOM     10  C   UNL     1      -2.938  36.741  16.690  1.00  0.00     0.053 C 
BRANCH  10  11
ATOM     11  C   UNL     1      -2.882  37.387  15.343  1.00  0.00     0.041 C 
ATOM     12  O   UNL     1      -3.517  38.451  15.123  1.00  0.00    -0.550 OA
ATOM     13  O   UNL     1      -2.087  36.841  14.342  1.00  0.00    -0.550 OA
ENDBRANCH  10  11
ENDBRANCH   9  10
ENDBRANCH   8   9
ENDBRANCH   1   8
TORSDOF 8
ENDMDL
MODEL 4
REMARK VINA RESULT:    -4.114      1.970      6.732
REMARK INTER + INTRA:          -6.338
REMARK INTER:                  -6.088
REMARK INTRA:                  -0.250
REMARK UNBOUND:                -0.300
REMARK SMILES O=C([O-])CCCCCCCC(=O)[O-]
REMARK SMILES IDX 7 1 6 2 5 3 4 4 2 5 1 6 3 7 8 8 9 9 10 10 11 11 12 12 13 13
REMARK H PARENT
REMARK Flexibility Score: inf
ROOT
ATOM      1  C   UNL     1      -5.029  37.698  20.290  1.00  0.00     0.000 C 
ENDROOT
BRANCH   1   2
ATOM      2  C   UNL     1      -5.371  36.196  20.268  1.00  0.00     0.000 C 
BRANCH   2   3
ATOM      3  C   UNL     1      -6.120  35.685  21.510  1.00  0.00     0.006 C 
BRANCH   3   4
ATOM      4  C   UNL     1      -5.887  36.563  22.746  1.00  0.00     0.053 C 
BRANCH   4   5
ATOM      5  C   UNL     1      -5.748  35.714  23.970  1.00  0.00     0.041 C 
ATOM      6  O   UNL     1      -5.822  34.459  23.881  1.00  0.00    -0.550 OA
ATOM      7  O   UNL     1      -5.585  36.308  25.215  1.00  0.00    -0.550 OA
ENDBRANCH   4   5
ENDBRANCH   3   4
ENDBRANCH   2   3
ENDBRANCH   1   2
BRANCH   1   8
ATOM      8  C   UNL     1      -4.349  38.200  18.998  1.00  0.00     0.000 C 
BRANCH   8   9
ATOM      9  C   UNL     1      -3.414  37.148  18.384  1.00  0.00     0.006 C 
BRANCH   9  10
ATOM     10  C   UNL     1      -2.168  37.802  17.783  1.00  0.00     0.053 C 
BRANCH  10  11
ATOM     11  C   UNL     1      -1.125  38.010  18.834  1.00  0.00     0.041 C 
ATOM     12  O   UNL     1      -0.008  38.504  18.531  1.00  0.00    -0.550 OA
ATOM     13  O   UNL     1      -1.405  37.704  20.161  1.00  0.00    -0.550 OA
ENDBRANCH  10  11
ENDBRANCH   9  10
ENDBRANCH   8   9
ENDBRANCH   1   8
TORSDOF 8
ENDMDL
MODEL 5
REMARK VINA RESULT:    -3.950      1.671      2.281
REMARK INTER + INTRA:          -6.098
REMARK INTER:                  -5.788
REMARK INTRA:                  -0.309
REMARK UNBOUND:                -0.300
REMARK SMILES O=C([O-])CCCCCCCC(=O)[O-]
REMARK SMILES IDX 7 1 6 2 5 3 4 4 2 5 1 6 3 7 8 8 9 9 10 10 11 11 12 12 13 13
REMARK H PARENT
REMARK Flexibility Score: inf
ROOT
ATOM      1  C   UNL     1      -4.533  36.022  20.972  1.00  0.00     0.000 C 
ENDROOT
BRANCH   1   2
ATOM      2  C   UNL     1      -4.441  36.433  19.490  1.00  0.00     0.000 C 
BRANCH   2   3
ATOM      3  C   UNL     1      -3.864  37.837  19.242  1.00  0.00     0.006 C 
BRANCH   3   4
ATOM      4  C   UNL     1      -2.406  37.968  19.701  1.00  0.00     0.053 C 
BRANCH   4   5
ATOM      5  C   UNL     1      -1.491  38.017  18.518  1.00  0.00     0.041 C 
ATOM      6  O   UNL     1      -1.959  37.935  17.352  1.00  0.00    -0.550 OA
ATOM      7  O   UNL     1      -0.116  38.101  18.705  1.00  0.00    -0.550 OA
ENDBRANCH   4   5
ENDBRANCH   3   4
ENDBRANCH   2   3
ENDBRANCH   1   2
BRANCH   1   8
ATOM      8  C   UNL     1      -5.949  35.592  21.411  1.00  0.00     0.000 C 
BRANCH   8   9
ATOM      9  C   UNL     1      -6.125  35.639  22.937  1.00  0.00     0.006 C 
BRANCH   9  10
ATOM     10  C   UNL     1      -5.834  37.040  23.481  1.00  0.00     0.053 C 
BRANCH  10  11
ATOM     11  C   UNL     1      -5.593  36.989  24.956  1.00  0.00     0.041 C 
ATOM     12  O   UNL     1      -5.178  38.010  25.567  1.00  0.00    -0.550 OA
ATOM     13  O   UNL     1      -5.873  35.829  25.667  1.00  0.00    -0.550 OA
ENDBRANCH  10  11
ENDBRANCH   9  10
ENDBRANCH   8   9
ENDBRANCH   1   8
TORSDOF 8
ENDMDL
MODEL 6
REMARK VINA RESULT:    -3.799      1.935      2.558
REMARK INTER + INTRA:          -5.875
REMARK INTER:                  -5.857
REMARK INTRA:                  -0.018
REMARK UNBOUND:                -0.300
REMARK SMILES O=C([O-])CCCCCCCC(=O)[O-]
REMARK SMILES IDX 7 1 6 2 5 3 4 4 2 5 1 6 3 7 8 8 9 9 10 10 11 11 12 12 13 13
REMARK H PARENT
REMARK Flexibility Score: inf
ROOT
ATOM      1  C   UNL     1      -5.093  35.642  18.864  1.00  0.00     0.000 C 
ENDROOT
BRANCH   1   2
ATOM      2  C   UNL     1      -4.318  36.942  18.574  1.00  0.00     0.000 C 
BRANCH   2   3
ATOM      3  C   UNL     1      -3.137  36.787  17.601  1.00  0.00     0.006 C 
BRANCH   3   4
ATOM      4  C   UNL     1      -2.245  38.035  17.548  1.00  0.00     0.053 C 
BRANCH   4   5
ATOM      5  C   UNL     1      -1.377  38.106  18.765  1.00  0.00     0.041 C 
ATOM      6  O   UNL     1      -0.133  38.266  18.646  1.00  0.00    -0.550 OA
ATOM      7  O   UNL     1      -1.934  37.943  20.027  1.00  0.00    -0.550 OA
ENDBRANCH   4   5
ENDBRANCH   3   4
ENDBRANCH   2   3
ENDBRANCH   1   2
BRANCH   1   8
ATOM      8  C   UNL     1      -5.819  35.640  20.226  1.00  0.00     0.000 C 
BRANCH   8   9
ATOM      9  C   UNL     1      -4.918  36.134  21.368  1.00  0.00     0.006 C 
BRANCH   9  10
ATOM     10  C   UNL     1      -5.750  36.685  22.528  1.00  0.00     0.053 C 
BRANCH  10  11
ATOM     11  C   UNL     1      -5.562  35.849  23.752  1.00  0.00     0.041 C 
ATOM     12  O   UNL     1      -5.528  34.593  23.664  1.00  0.00    -0.550 OA
ATOM     13  O   UNL     1      -5.373  36.457  24.988  1.00  0.00    -0.550 OA
ENDBRANCH  10  11
ENDBRANCH   9  10
ENDBRANCH   8   9
ENDBRANCH   1   8
TORSDOF 8
ENDMDL
MODEL 7
REMARK VINA RESULT:    -3.760      2.359      5.906
REMARK INTER + INTRA:          -5.818
REMARK INTER:                  -5.395
REMARK INTRA:                  -0.423
REMARK UNBOUND:                -0.300
REMARK SMILES O=C([O-])CCCCCCCC(=O)[O-]
REMARK SMILES IDX 7 1 6 2 5 3 4 4 2 5 1 6 3 7 8 8 9 9 10 10 11 11 12 12 13 13
REMARK H PARENT
REMARK Flexibility Score: inf
ROOT
ATOM      1  C   UNL     1      -4.109  36.336  17.455  1.00  0.00     0.000 C 
ENDROOT
BRANCH   1   2
ATOM      2  C   UNL     1      -4.517  35.188  18.398  1.00  0.00     0.000 C 
BRANCH   2   3
ATOM      3  C   UNL     1      -5.667  35.523  19.363  1.00  0.00     0.006 C 
BRANCH   3   4
ATOM      4  C   UNL     1      -5.279  36.582  20.404  1.00  0.00     0.053 C 
BRANCH   4   5
ATOM      5  C   UNL     1      -4.694  35.929  21.617  1.00  0.00     0.041 C 
ATOM      6  O   UNL     1      -5.365  35.853  22.680  1.00  0.00    -0.550 OA
ATOM      7  O   UNL     1      -3.390  35.450  21.589  1.00  0.00    -0.550 OA
ENDBRANCH   4   5
ENDBRANCH   3   4
ENDBRANCH   2   3
ENDBRANCH   1   2
BRANCH   1   8
ATOM      8  C   UNL     1      -2.905  35.998  16.549  1.00  0.00     0.000 C 
BRANCH   8   9
ATOM      9  C   UNL     1      -1.816  37.081  16.600  1.00  0.00     0.006 C 
BRANCH   9  10
ATOM     10  C   UNL     1      -2.187  38.189  17.589  1.00  0.00     0.053 C 
BRANCH  10  11
ATOM     11  C   UNL     1      -1.357  38.084  18.829  1.00  0.00     0.041 C 
ATOM     12  O   UNL     1      -0.108  38.236  18.771  1.00  0.00    -0.550 OA
ATOM     13  O   UNL     1      -1.968  37.868  20.058  1.00  0.00    -0.550 OA
ENDBRANCH  10  11
ENDBRANCH   9  10
ENDBRANCH   8   9
ENDBRANCH   1   8
TORSDOF 8
ENDMDL
MODEL 8
REMARK VINA RESULT:    -3.752      2.990      3.499
REMARK INTER + INTRA:          -5.807
REMARK INTER:                  -5.586
REMARK INTRA:                  -0.222
REMARK UNBOUND:                -0.300
REMARK SMILES O=C([O-])CCCCCCCC(=O)[O-]
REMARK SMILES IDX 7 1 6 2 5 3 4 4 2 5 1 6 3 7 8 8 9 9 10 10 11 11 12 12 13 13
REMARK H PARENT
REMARK Flexibility Score: inf
ROOT
ATOM      1  C   UNL     1      -4.850  36.920  20.682  1.00  0.00     0.000 C 
ENDROOT
BRANCH   1   2
ATOM      2  C   UNL     1      -4.379  36.190  19.410  1.00  0.00     0.000 C 
BRANCH   2   3
ATOM      3  C   UNL     1      -3.644  37.077  18.390  1.00  0.00     0.006 C 
BRANCH   3   4
ATOM      4  C   UNL     1      -3.500  36.408  17.017  1.00  0.00     0.053 C 
BRANCH   4   5
ATOM      5  C   UNL     1      -2.644  37.244  16.118  1.00  0.00     0.041 C 
ATOM      6  O   UNL     1      -3.117  38.278  15.576  1.00  0.00    -0.550 OA
ATOM      7  O   UNL     1      -1.341  36.854  15.838  1.00  0.00    -0.550 OA
ENDBRANCH   4   5
ENDBRANCH   3   4
ENDBRANCH   2   3
ENDBRANCH   1   2
BRANCH   1   8
ATOM      8  C   UNL     1      -4.992  38.447  20.507  1.00  0.00     0.000 C 
BRANCH   8   9
ATOM      9  C   UNL     1      -5.425  39.145  21.805  1.00  0.00     0.006 C 
BRANCH   9  10
ATOM     10  C   UNL     1      -5.969  40.547  21.521  1.00  0.00     0.053 C 
BRANCH  10  11
ATOM     11  C   UNL     1      -5.804  41.426  22.720  1.00  0.00     0.041 C 
ATOM     12  O   UNL     1      -6.040  42.660  22.639  1.00  0.00    -0.550 OA
ATOM     13  O   UNL     1      -5.437  40.874  23.942  1.00  0.00    -0.550 OA
ENDBRANCH  10  11
ENDBRANCH   9  10
ENDBRANCH   8   9
ENDBRANCH   1   8
TORSDOF 8
ENDMDL
MODEL 9
REMARK VINA RESULT:    -3.586      2.630      6.553
REMARK INTER + INTRA:          -5.563
REMARK INTER:                  -5.107
REMARK INTRA:                  -0.457
REMARK UNBOUND:                -0.300
REMARK SMILES O=C([O-])CCCCCCCC(=O)[O-]
REMARK SMILES IDX 7 1 6 2 5 3 4 4 2 5 1 6 3 7 8 8 9 9 10 10 11 11 12 12 13 13
REMARK H PARENT
REMARK Flexibility Score: inf
ROOT
ATOM      1  C   UNL     1      -4.098  36.120  21.171  1.00  0.00     0.000 C 
ENDROOT
BRANCH   1   2
ATOM      2  C   UNL     1      -5.461  36.831  21.264  1.00  0.00     0.000 C 
BRANCH   2   3
ATOM      3  C   UNL     1      -5.462  38.120  22.103  1.00  0.00     0.006 C 
BRANCH   3   4
ATOM      4  C   UNL     1      -5.676  39.381  21.255  1.00  0.00     0.053 C 
BRANCH   4   5
ATOM      5  C   UNL     1      -5.743  40.592  22.130  1.00  0.00     0.041 C 
ATOM      6  O   UNL     1      -6.077  41.706  21.646  1.00  0.00    -0.550 OA
ATOM      7  O   UNL     1      -5.387  40.502  23.470  1.00  0.00    -0.550 OA
ENDBRANCH   4   5
ENDBRANCH   3   4
ENDBRANCH   2   3
ENDBRANCH   1   2
BRANCH   1   8
ATOM      8  C   UNL     1      -3.119  36.779  20.176  1.00  0.00     0.000 C 
BRANCH   8   9
ATOM      9  C   UNL     1      -3.744  36.975  18.786  1.00  0.00     0.006 C 
BRANCH   9  10
ATOM     10  C   UNL     1      -2.910  37.938  17.938  1.00  0.00     0.053 C 
BRANCH  10  11
ATOM     11  C   UNL     1      -2.843  37.465  16.521  1.00  0.00     0.041 C 
ATOM     12  O   UNL     1      -2.438  36.302  16.259  1.00  0.00    -0.550 OA
ATOM     13  O   UNL     1      -3.274  38.292  15.491  1.00  0.00    -0.550 OA
ENDBRANCH  10  11
ENDBRANCH   9  10
ENDBRANCH   8   9
ENDBRANCH   1   8
TORSDOF 8
ENDMDL
