MODEL 1
REMARK VINA RESULT:    -5.984      0.000      0.000
REMARK INTER + INTRA:          -7.973
REMARK INTER:                  -7.733
REMARK INTRA:                  -0.240
REMARK UNBOUND:                -0.240
REMARK SMILES CCO[C@H]1O[C@@H](CO)[C@H](O)[C@@H](O)[C@@H]1O
REMARK SMILES IDX 4 1 13 2 11 3 9 4 6 5 5 6 3 7 2 8 1 9 14 10 12 12 7 14 8 15
REMARK SMILES IDX 10 17
REMARK H PARENT 14 11 12 13 8 16 10 18
REMARK Flexibility Score: inf
ROOT
ATOM      1  C   UNL     1      22.617  -4.410  16.824  1.00  0.00     0.281 C 
ATOM      2  C   UNL     1      22.563  -5.900  16.425  1.00  0.00     0.202 C 
ATOM      3  C   UNL     1      21.161  -6.480  16.698  1.00  0.00     0.179 C 
ATOM      4  C   UNL     1      20.037  -5.433  16.494  1.00  0.00     0.177 C 
ATOM      5  C   UNL     1      20.491  -4.179  15.690  1.00  0.00     0.178 C 
ATOM      6  O   UNL     1      21.699  -3.566  16.131  1.00  0.00    -0.341 OA
ENDROOT
BRANCH   1   7
ATOM      7  O   UNL     1      23.947  -3.919  16.720  1.00  0.00    -0.350 OA
BRANCH   7   8
ATOM      8  C   UNL     1      24.022  -2.519  16.921  1.00  0.00     0.160 C 
ATOM      9  C   UNL     1      25.475  -2.081  16.825  1.00  0.00     0.035 C 
ENDBRANCH   7   8
ENDBRANCH   1   7
BRANCH   2  10
ATOM     10  O   UNL     1      23.523  -6.608  17.169  1.00  0.00    -0.385 OA
ATOM     11  H   UNL     1      23.802  -6.018  17.918  1.00  0.00     0.211 HD
ENDBRANCH   2  10
BRANCH   3  12
ATOM     12  O   UNL     1      20.935  -7.578  15.848  1.00  0.00    -0.387 OA
ATOM     13  H   UNL     1      20.993  -8.396  16.406  1.00  0.00     0.211 HD
ENDBRANCH   3  12
BRANCH   5  14
ATOM     14  C   UNL     1      20.559  -4.439  14.174  1.00  0.00     0.191 C 
BRANCH  14  15
ATOM     15  O   UNL     1      20.011  -5.694  13.877  1.00  0.00    -0.394 OA
ATOM     16  H   UNL     1      19.729  -6.085  14.745  1.00  0.00     0.210 HD
ENDBRANCH  14  15
ENDBRANCH   5  14
BRANCH   4  17
ATOM     17  O   UNL     1      19.472  -5.054  17.726  1.00  0.00    -0.387 OA
ATOM     18  H   UNL     1      19.791  -5.685  18.421  1.00  0.00     0.211 HD
ENDBRANCH   4  17
TORSDOF 7
ENDMDL
MODEL 2
REMARK VINA RESULT:    -5.901      1.469      1.976
REMARK INTER + INTRA:          -7.866
REMARK INTER:                  -7.498
REMARK INTRA:                  -0.368
REMARK UNBOUND:                -0.240
REMARK SMILES CCO[C@H]1O[C@@H](CO)[C@H](O)[C@@H](O)[C@@H]1O
REMARK SMILES IDX 4 1 13 2 11 3 9 4 6 5 5 6 3 7 2 8 1 9 14 10 12 12 7 14 8 15
REMARK SMILES IDX 10 17
REMARK H PARENT 14 11 12 13 8 16 10 18
REMARK Flexibility Score: inf
ROOT
ATOM      1  C   UNL     1      22.618  -4.999  16.234  1.00  0.00     0.281 C 
ATOM      2  C   UNL     1      22.002  -5.193  14.833  1.00  0.00     0.202 C 
ATOM      3  C   UNL     1      20.820  -6.181  14.895  1.00  0.00     0.179 C 
ATOM      4  C   UNL     1      20.046  -6.094  16.235  1.00  0.00     0.177 C 
ATOM      5  C   UNL     1      20.345  -4.798  17.046  1.00  0.00     0.178 C 
ATOM      6  O   UNL     1      21.724  -4.483  17.220  1.00  0.00    -0.341 OA
ENDROOT
BRANCH   1   7
ATOM      7  O   UNL     1      23.800  -4.213  16.151  1.00  0.00    -0.350 OA
BRANCH   7   8
ATOM      8  C   UNL     1      23.717  -3.030  16.924  1.00  0.00     0.160 C 
ATOM      9  C   UNL     1      25.080  -2.358  16.951  1.00  0.00     0.035 C 
ENDBRANCH   7   8
ENDBRANCH   1   7
BRANCH   2  10
ATOM     10  O   UNL     1      22.991  -5.688  13.964  1.00  0.00    -0.385 OA
ATOM     11  H   UNL     1      22.822  -6.661  13.858  1.00  0.00     0.211 HD
ENDBRANCH   2  10
BRANCH   3  12
ATOM     12  O   UNL     1      19.939  -5.925  13.830  1.00  0.00    -0.387 OA
ATOM     13  H   UNL     1      19.019  -6.075  14.169  1.00  0.00     0.211 HD
ENDBRANCH   3  12
BRANCH   5  14
ATOM     14  C   UNL     1      19.593  -3.571  16.500  1.00  0.00     0.191 C 
BRANCH  14  15
ATOM     15  O   UNL     1      18.444  -3.979  15.811  1.00  0.00    -0.394 OA
ATOM     16  H   UNL     1      18.488  -4.970  15.762  1.00  0.00     0.210 HD
ENDBRANCH  14  15
ENDBRANCH   5  14
BRANCH   4  17
ATOM     17  O   UNL     1      20.275  -7.237  17.024  1.00  0.00    -0.387 OA
ATOM     18  H   UNL     1      21.252  -7.327  17.162  1.00  0.00     0.211 HD
ENDBRANCH   4  17
TORSDOF 7
ENDMDL
MODEL 3
REMARK VINA RESULT:    -5.682      2.046      4.712
REMARK INTER + INTRA:          -7.583
REMARK INTER:                  -7.263
REMARK INTRA:                  -0.319
REMARK UNBOUND:                -0.240
REMARK SMILES CCO[C@H]1O[C@@H](CO)[C@H](O)[C@@H](O)[C@@H]1O
REMARK SMILES IDX 4 1 13 2 11 3 9 4 6 5 5 6 3 7 2 8 1 9 14 10 12 12 7 14 8 15
REMARK SMILES IDX 10 17
REMARK H PARENT 14 11 12 13 8 16 10 18
REMARK Flexibility Score: inf
ROOT
ATOM      1  C   UNL     1      19.937  -6.433  16.123  1.00  0.00     0.281 C 
ATOM      2  C   UNL     1      20.988  -5.825  17.076  1.00  0.00     0.202 C 
ATOM      3  C   UNL     1      22.025  -5.005  16.282  1.00  0.00     0.179 C 
ATOM      4  C   UNL     1      21.410  -4.320  15.035  1.00  0.00     0.177 C 
ATOM      5  C   UNL     1      19.854  -4.258  15.062  1.00  0.00     0.178 C 
ATOM      6  O   UNL     1      19.192  -5.483  15.362  1.00  0.00    -0.341 OA
ENDROOT
BRANCH   1   7
ATOM      7  O   UNL     1      19.076  -7.313  16.833  1.00  0.00    -0.350 OA
BRANCH   7   8
ATOM      8  C   UNL     1      18.455  -8.261  15.984  1.00  0.00     0.160 C 
ATOM      9  C   UNL     1      17.966  -9.432  16.822  1.00  0.00     0.035 C 
ENDBRANCH   7   8
ENDBRANCH   1   7
BRANCH   2  10
ATOM     10  O   UNL     1      21.633  -6.865  17.768  1.00  0.00    -0.385 OA
ATOM     11  H   UNL     1      22.569  -6.895  17.439  1.00  0.00     0.211 HD
ENDBRANCH   2  10
BRANCH   3  12
ATOM     12  O   UNL     1      22.590  -4.027  17.120  1.00  0.00    -0.387 OA
ATOM     13  H   UNL     1      22.119  -4.082  17.992  1.00  0.00     0.211 HD
ENDBRANCH   3  12
BRANCH   5  14
ATOM     14  C   UNL     1      19.321  -3.138  15.973  1.00  0.00     0.191 C 
BRANCH  14  15
ATOM     15  O   UNL     1      20.276  -2.120  16.093  1.00  0.00    -0.394 OA
ATOM     16  H   UNL     1      20.563  -1.900  15.168  1.00  0.00     0.210 HD
ENDBRANCH  14  15
ENDBRANCH   5  14
BRANCH   4  17
ATOM     17  O   UNL     1      21.862  -4.931  13.851  1.00  0.00    -0.387 OA
ATOM     18  H   UNL     1      22.837  -5.087  13.935  1.00  0.00     0.211 HD
ENDBRANCH   4  17
TORSDOF 7
ENDMDL
MODEL 4
REMARK VINA RESULT:    -5.529      1.601      3.217
REMARK INTER + INTRA:          -7.386
REMARK INTER:                  -7.262
REMARK INTRA:                  -0.124
REMARK UNBOUND:                -0.240
REMARK SMILES CCO[C@H]1O[C@@H](CO)[C@H](O)[C@@H](O)[C@@H]1O
REMARK SMILES IDX 4 1 13 2 11 3 9 4 6 5 5 6 3 7 2 8 1 9 14 10 12 12 7 14 8 15
REMARK SMILES IDX 10 17
REMARK H PARENT 14 11 12 13 8 16 10 18
REMARK Flexibility Score: inf
ROOT
ATOM      1  C   UNL     1      21.750  -4.150  16.065  1.00  0.00     0.281 C 
ATOM      2  C   UNL     1      20.421  -3.367  16.096  1.00  0.00     0.202 C 
ATOM      3  C   UNL     1      19.392  -4.014  15.148  1.00  0.00     0.179 C 
ATOM      4  C   UNL     1      19.550  -5.554  15.065  1.00  0.00     0.177 C 
ATOM      5  C   UNL     1      20.405  -6.157  16.219  1.00  0.00     0.178 C 
ATOM      6  O   UNL     1      21.655  -5.517  16.461  1.00  0.00    -0.341 OA
ENDROOT
BRANCH   1   7
ATOM      7  O   UNL     1      22.744  -3.465  16.816  1.00  0.00    -0.350 OA
BRANCH   7   8
ATOM      8  C   UNL     1      24.054  -3.901  16.501  1.00  0.00     0.160 C 
ATOM      9  C   UNL     1      25.060  -2.967  17.155  1.00  0.00     0.035 C 
ENDBRANCH   7   8
ENDBRANCH   1   7
BRANCH   2  10
ATOM     10  O   UNL     1      20.662  -2.039  15.701  1.00  0.00    -0.385 OA
ATOM     11  H   UNL     1      20.440  -1.461  16.477  1.00  0.00     0.211 HD
ENDBRANCH   2  10
BRANCH   3  12
ATOM     12  O   UNL     1      18.092  -3.702  15.584  1.00  0.00    -0.387 OA
ATOM     13  H   UNL     1      17.493  -4.422  15.257  1.00  0.00     0.211 HD
ENDBRANCH   3  12
BRANCH   5  14
ATOM     14  C   UNL     1      19.618  -6.282  17.536  1.00  0.00     0.191 C 
BRANCH  14  15
ATOM     15  O   UNL     1      19.205  -7.607  17.726  1.00  0.00    -0.394 OA
ATOM     16  H   UNL     1      18.922  -7.938  16.834  1.00  0.00     0.210 HD
ENDBRANCH  14  15
ENDBRANCH   5  14
BRANCH   4  17
ATOM     17  O   UNL     1      20.064  -5.941  13.813  1.00  0.00    -0.387 OA
ATOM     18  H   UNL     1      19.763  -5.282  13.137  1.00  0.00     0.211 HD
ENDBRANCH   4  17
TORSDOF 7
ENDMDL
MODEL 5
REMARK VINA RESULT:    -5.511      1.869      4.640
REMARK INTER + INTRA:          -7.361
REMARK INTER:                  -7.165
REMARK INTRA:                  -0.196
REMARK UNBOUND:                -0.240
REMARK SMILES CCO[C@H]1O[C@@H](CO)[C@H](O)[C@@H](O)[C@@H]1O
REMARK SMILES IDX 4 1 13 2 11 3 9 4 6 5 5 6 3 7 2 8 1 9 14 10 12 12 7 14 8 15
REMARK SMILES IDX 10 17
REMARK H PARENT 14 11 12 13 8 16 10 18
REMARK Flexibility Score: inf
ROOT
ATOM      1  C   UNL     1      20.532  -5.727  17.179  1.00  0.00     0.281 C 
ATOM      2  C   UNL     1      20.000  -4.418  16.558  1.00  0.00     0.202 C 
ATOM      3  C   UNL     1      21.081  -3.320  16.608  1.00  0.00     0.179 C 
ATOM      4  C   UNL     1      22.514  -3.892  16.458  1.00  0.00     0.177 C 
ATOM      5  C   UNL     1      22.550  -5.345  15.897  1.00  0.00     0.178 C 
ATOM      6  O   UNL     1      21.682  -6.276  16.536  1.00  0.00    -0.341 OA
ENDROOT
BRANCH   1   7
ATOM      7  O   UNL     1      19.489  -6.688  17.274  1.00  0.00    -0.350 OA
BRANCH   7   8
ATOM      8  C   UNL     1      19.170  -7.265  16.021  1.00  0.00     0.160 C 
ATOM      9  C   UNL     1      18.394  -8.552  16.250  1.00  0.00     0.035 C 
ENDBRANCH   7   8
ENDBRANCH   1   7
BRANCH   2  10
ATOM     10  O   UNL     1      18.865  -4.001  17.275  1.00  0.00    -0.385 OA
ATOM     11  H   UNL     1      18.142  -3.853  16.611  1.00  0.00     0.211 HD
ENDBRANCH   2  10
BRANCH   3  12
ATOM     12  O   UNL     1      20.845  -2.383  15.587  1.00  0.00    -0.387 OA
ATOM     13  H   UNL     1      20.410  -1.596  16.007  1.00  0.00     0.211 HD
ENDBRANCH   3  12
BRANCH   5  14
ATOM     14  C   UNL     1      22.341  -5.396  14.373  1.00  0.00     0.191 C 
BRANCH  14  15
ATOM     15  O   UNL     1      23.526  -5.792  13.738  1.00  0.00    -0.394 OA
ATOM     16  H   UNL     1      24.131  -6.114  14.458  1.00  0.00     0.210 HD
ENDBRANCH  14  15
ENDBRANCH   5  14
BRANCH   4  17
ATOM     17  O   UNL     1      23.218  -3.814  17.675  1.00  0.00    -0.387 OA
ATOM     18  H   UNL     1      22.644  -3.348  18.335  1.00  0.00     0.211 HD
ENDBRANCH   4  17
TORSDOF 7
ENDMDL
MODEL 6
REMARK VINA RESULT:    -5.508      2.685      5.330
REMARK INTER + INTRA:          -7.358
REMARK INTER:                  -7.119
REMARK INTRA:                  -0.240
REMARK UNBOUND:                -0.240
REMARK SMILES CCO[C@H]1O[C@@H](CO)[C@H](O)[C@@H](O)[C@@H]1O
REMARK SMILES IDX 4 1 13 2 11 3 9 4 6 5 5 6 3 7 2 8 1 9 14 10 12 12 7 14 8 15
REMARK SMILES IDX 10 17
REMARK H PARENT 14 11 12 13 8 16 10 18
REMARK Flexibility Score: inf
ROOT
ATOM      1  C   UNL     1      18.899  -7.186  15.629  1.00  0.00     0.281 C 
ATOM      2  C   UNL     1      19.370  -6.699  17.015  1.00  0.00     0.202 C 
ATOM      3  C   UNL     1      20.800  -6.128  16.929  1.00  0.00     0.179 C 
ATOM      4  C   UNL     1      21.081  -5.441  15.568  1.00  0.00     0.177 C 
ATOM      5  C   UNL     1      19.794  -5.113  14.756  1.00  0.00     0.178 C 
ATOM      6  O   UNL     1      18.862  -6.182  14.616  1.00  0.00    -0.341 OA
ENDROOT
BRANCH   1   7
ATOM      7  O   UNL     1      17.648  -7.853  15.738  1.00  0.00    -0.350 OA
BRANCH   7   8
ATOM      8  C   UNL     1      16.815  -7.624  14.616  1.00  0.00     0.160 C 
ATOM      9  C   UNL     1      15.811  -8.760  14.503  1.00  0.00     0.035 C 
ENDBRANCH   7   8
ENDBRANCH   1   7
BRANCH   2  10
ATOM     10  O   UNL     1      19.343  -7.780  17.914  1.00  0.00    -0.385 OA
ATOM     11  H   UNL     1      20.284  -8.067  18.049  1.00  0.00     0.211 HD
ENDBRANCH   2  10
BRANCH   3  12
ATOM     12  O   UNL     1      20.998  -5.202  17.968  1.00  0.00    -0.387 OA
ATOM     13  H   UNL     1      20.456  -5.510  18.741  1.00  0.00     0.211 HD
ENDBRANCH   3  12
BRANCH   5  14
ATOM     14  C   UNL     1      19.072  -3.855  15.272  1.00  0.00     0.191 C 
BRANCH  14  15
ATOM     15  O   UNL     1      17.702  -3.937  14.991  1.00  0.00    -0.394 OA
ATOM     16  H   UNL     1      17.259  -3.267  15.575  1.00  0.00     0.210 HD
ENDBRANCH  14  15
ENDBRANCH   5  14
BRANCH   4  17
ATOM     17  O   UNL     1      21.975  -6.205  14.794  1.00  0.00    -0.387 OA
ATOM     18  H   UNL     1      22.831  -5.709  14.729  1.00  0.00     0.211 HD
ENDBRANCH   4  17
TORSDOF 7
ENDMDL
MODEL 7
REMARK VINA RESULT:    -5.389      1.538      4.133
REMARK INTER + INTRA:          -7.205
REMARK INTER:                  -6.994
REMARK INTRA:                  -0.210
REMARK UNBOUND:                -0.240
REMARK SMILES CCO[C@H]1O[C@@H](CO)[C@H](O)[C@@H](O)[C@@H]1O
REMARK SMILES IDX 4 1 13 2 11 3 9 4 6 5 5 6 3 7 2 8 1 9 14 10 12 12 7 14 8 15
REMARK SMILES IDX 10 17
REMARK H PARENT 14 11 12 13 8 16 10 18
REMARK Flexibility Score: inf
ROOT
ATOM      1  C   UNL     1      20.485  -4.516  16.392  1.00  0.00     0.281 C 
ATOM      2  C   UNL     1      21.105  -5.666  17.213  1.00  0.00     0.202 C 
ATOM      3  C   UNL     1      22.221  -6.362  16.408  1.00  0.00     0.179 C 
ATOM      4  C   UNL     1      22.983  -5.380  15.482  1.00  0.00     0.177 C 
ATOM      5  C   UNL     1      22.756  -3.881  15.840  1.00  0.00     0.178 C 
ATOM      6  O   UNL     1      21.398  -3.486  16.012  1.00  0.00    -0.341 OA
ENDROOT
BRANCH   1   7
ATOM      7  O   UNL     1      19.356  -3.979  17.069  1.00  0.00    -0.350 OA
BRANCH   7   8
ATOM      8  C   UNL     1      18.308  -3.637  16.180  1.00  0.00     0.160 C 
ATOM      9  C   UNL     1      18.273  -4.644  15.042  1.00  0.00     0.035 C 
ENDBRANCH   7   8
ENDBRANCH   1   7
BRANCH   2  10
ATOM     10  O   UNL     1      20.098  -6.596  17.530  1.00  0.00    -0.385 OA
ATOM     11  H   UNL     1      19.725  -6.923  16.670  1.00  0.00     0.211 HD
ENDBRANCH   2  10
BRANCH   3  12
ATOM     12  O   UNL     1      23.130  -6.966  17.295  1.00  0.00    -0.387 OA
ATOM     13  H   UNL     1      23.401  -7.831  16.891  1.00  0.00     0.211 HD
ENDBRANCH   3  12
BRANCH   5  14
ATOM     14  C   UNL     1      23.590  -3.428  17.052  1.00  0.00     0.191 C 
BRANCH  14  15
ATOM     15  O   UNL     1      23.595  -2.029  17.135  1.00  0.00    -0.394 OA
ATOM     16  H   UNL     1      24.438  -1.730  16.702  1.00  0.00     0.210 HD
ENDBRANCH  14  15
ENDBRANCH   5  14
BRANCH   4  17
ATOM     17  O   UNL     1      22.673  -5.619  14.130  1.00  0.00    -0.387 OA
ATOM     18  H   UNL     1      23.510  -5.866  13.660  1.00  0.00     0.211 HD
ENDBRANCH   4  17
TORSDOF 7
ENDMDL
MODEL 8
REMARK VINA RESULT:    -5.317      1.229      1.363
REMARK INTER + INTRA:          -7.112
REMARK INTER:                  -7.243
REMARK INTRA:                   0.132
REMARK UNBOUND:                -0.240
REMARK SMILES CCO[C@H]1O[C@@H](CO)[C@H](O)[C@@H](O)[C@@H]1O
REMARK SMILES IDX 4 1 13 2 11 3 9 4 6 5 5 6 3 7 2 8 1 9 14 10 12 12 7 14 8 15
REMARK SMILES IDX 10 17
REMARK H PARENT 14 11 12 13 8 16 10 18
REMARK Flexibility Score: inf
ROOT
ATOM      1  C   UNL     1      21.857  -4.862  16.806  1.00  0.00     0.281 C 
ATOM      2  C   UNL     1      21.236  -6.154  16.234  1.00  0.00     0.202 C 
ATOM      3  C   UNL     1      19.705  -6.145  16.420  1.00  0.00     0.179 C 
ATOM      4  C   UNL     1      19.106  -4.718  16.327  1.00  0.00     0.177 C 
ATOM      5  C   UNL     1      20.069  -3.678  15.682  1.00  0.00     0.178 C 
ATOM      6  O   UNL     1      21.394  -3.653  16.206  1.00  0.00    -0.341 OA
ENDROOT
BRANCH   1   7
ATOM      7  O   UNL     1      23.276  -4.941  16.776  1.00  0.00    -0.350 OA
BRANCH   7   8
ATOM      8  C   UNL     1      23.887  -3.663  16.771  1.00  0.00     0.160 C 
ATOM      9  C   UNL     1      25.205  -3.741  17.525  1.00  0.00     0.035 C 
ENDBRANCH   7   8
ENDBRANCH   1   7
BRANCH   2  10
ATOM     10  O   UNL     1      21.789  -7.262  16.901  1.00  0.00    -0.385 OA
ATOM     11  H   UNL     1      22.601  -7.528  16.395  1.00  0.00     0.211 HD
ENDBRANCH   2  10
BRANCH   3  12
ATOM     12  O   UNL     1      19.110  -6.964  15.444  1.00  0.00    -0.387 OA
ATOM     13  H   UNL     1      18.393  -7.482  15.895  1.00  0.00     0.211 HD
ENDBRANCH   3  12
BRANCH   5  14
ATOM     14  C   UNL     1      20.116  -3.787  14.147  1.00  0.00     0.191 C 
BRANCH  14  15
ATOM     15  O   UNL     1      21.345  -4.323  13.741  1.00  0.00    -0.394 OA
ATOM     16  H   UNL     1      21.206  -5.303  13.663  1.00  0.00     0.210 HD
ENDBRANCH  14  15
ENDBRANCH   5  14
BRANCH   4  17
ATOM     17  O   UNL     1      18.669  -4.273  17.589  1.00  0.00    -0.387 OA
ATOM     18  H   UNL     1      17.792  -4.693  17.780  1.00  0.00     0.211 HD
ENDBRANCH   4  17
TORSDOF 7
ENDMDL
MODEL 9
REMARK VINA RESULT:    -5.159      2.088      4.674
REMARK INTER + INTRA:          -6.908
REMARK INTER:                  -6.652
REMARK INTRA:                  -0.255
REMARK UNBOUND:                -0.240
REMARK SMILES CCO[C@H]1O[C@@H](CO)[C@H](O)[C@@H](O)[C@@H]1O
REMARK SMILES IDX 4 1 13 2 11 3 9 4 6 5 5 6 3 7 2 8 1 9 14 10 12 12 7 14 8 15
REMARK SMILES IDX 10 17
REMARK H PARENT 14 11 12 13 8 16 10 18
REMARK Flexibility Score: inf
ROOT
ATOM      1  C   UNL     1      23.028  -3.961  16.795  1.00  0.00     0.281 C 
ATOM      2  C   UNL     1      24.125  -2.898  16.579  1.00  0.00     0.202 C 
ATOM      3  C   UNL     1      25.457  -3.364  17.201  1.00  0.00     0.179 C 
ATOM      4  C   UNL     1      25.640  -4.901  17.125  1.00  0.00     0.177 C 
ATOM      5  C   UNL     1      24.680  -5.595  16.114  1.00  0.00     0.178 C 
ATOM      6  O   UNL     1      23.304  -5.239  16.223  1.00  0.00    -0.341 OA
ENDROOT
BRANCH   1   7
ATOM      7  O   UNL     1      21.768  -3.465  16.362  1.00  0.00    -0.350 OA
BRANCH   7   8
ATOM      8  C   UNL     1      21.056  -4.409  15.582  1.00  0.00     0.160 C 
ATOM      9  C   UNL     1      20.558  -3.731  14.316  1.00  0.00     0.035 C 
ENDBRANCH   7   8
ENDBRANCH   1   7
BRANCH   2  10
ATOM     10  O   UNL     1      23.718  -1.692  17.177  1.00  0.00    -0.385 OA
ATOM     11  H   UNL     1      22.746  -1.595  17.001  1.00  0.00     0.211 HD
ENDBRANCH   2  10
BRANCH   3  12
ATOM     12  O   UNL     1      26.528  -2.735  16.540  1.00  0.00    -0.387 OA
ATOM     13  H   UNL     1      26.138  -2.180  15.815  1.00  0.00     0.211 HD
ENDBRANCH   3  12
BRANCH   5  14
ATOM     14  C   UNL     1      25.145  -5.441  14.655  1.00  0.00     0.191 C 
BRANCH  14  15
ATOM     15  O   UNL     1      24.133  -5.857  13.781  1.00  0.00    -0.394 OA
ATOM     16  H   UNL     1      23.277  -5.732  14.269  1.00  0.00     0.210 HD
ENDBRANCH  14  15
ENDBRANCH   5  14
BRANCH   4  17
ATOM     17  O   UNL     1      25.522  -5.485  18.401  1.00  0.00    -0.387 OA
ATOM     18  H   UNL     1      24.558  -5.592  18.605  1.00  0.00     0.211 HD
ENDBRANCH   4  17
TORSDOF 7
ENDMDL
