MODEL 1
REMARK VINA RESULT:    29.352      0.000      0.000
REMARK INTER + INTRA:          49.012
REMARK INTER:                  43.079
REMARK INTRA:                   5.933
REMARK UNBOUND:                 5.933
REMARK SMILES Cc1cc2c(C(C)C)c(O)c(O)c(C=O)c2c(O)c1-c1c(C)cc2c(C(C)C)c(O)c(O)c(C=O)c2c1O
REMARK SMILES IDX 1 1 2 2 3 3 4 4 16 5 13 6 11 7 9 8 5 9 17 10 19 11 20 12
REMARK SMILES IDX 37 13 21 14 36 15 23 16 22 17 24 18 33 19 25 20 31 21 29 22
REMARK SMILES IDX 38 23 34 25 35 26 26 27 27 28 28 29 32 30 30 32 18 34 6 36
REMARK SMILES IDX 7 37 8 38 14 39 15 40 10 41 12 43
REMARK H PARENT 38 24 32 31 30 33 18 35 10 42 12 44
REMARK Flexibility Score: inf
ROOT
ATOM      1  C   UNL     1      74.394  36.125  52.214  1.00  0.00     0.045 C 
ATOM      2  C   UNL     1      75.351  34.958  52.268  1.00  0.00    -0.039 A 
ATOM      3  C   UNL     1      76.551  35.020  51.557  1.00  0.00     0.013 A 
ATOM      4  C   UNL     1      77.485  33.960  51.576  1.00  0.00    -0.006 A 
ATOM      5  C   UNL     1      77.123  32.742  52.223  1.00  0.00     0.039 A 
ATOM      6  C   UNL     1      77.972  31.606  52.076  1.00  0.00     0.072 A 
ATOM      7  C   UNL     1      79.162  31.703  51.335  1.00  0.00     0.169 A 
ATOM      8  C   UNL     1      79.529  32.921  50.731  1.00  0.00     0.162 A 
ATOM      9  C   UNL     1      78.756  34.084  50.937  1.00  0.00     0.008 A 
ATOM     10  C   UNL     1      75.939  32.713  53.020  1.00  0.00     0.132 A 
ATOM     11  C   UNL     1      75.056  33.813  53.028  1.00  0.00     0.031 A 
ENDROOT
BRANCH  11  12
ATOM     12  C   UNL     1      73.809  33.765  53.838  1.00  0.00     0.031 A 
ATOM     13  C   UNL     1      73.834  33.229  55.145  1.00  0.00     0.132 A 
ATOM     14  C   UNL     1      72.609  34.261  53.304  1.00  0.00    -0.039 A 
ATOM     15  C   UNL     1      72.636  33.152  55.921  1.00  0.00     0.039 A 
ATOM     16  C   UNL     1      71.435  34.171  54.051  1.00  0.00     0.013 A 
ATOM     17  C   UNL     1      72.549  34.829  51.906  1.00  0.00     0.045 C 
ATOM     18  C   UNL     1      71.405  33.587  55.338  1.00  0.00    -0.006 A 
ATOM     19  C   UNL     1      72.630  32.690  57.272  1.00  0.00     0.072 A 
ATOM     20  C   UNL     1      70.180  33.466  56.064  1.00  0.00     0.008 A 
ATOM     21  C   UNL     1      71.439  32.730  58.025  1.00  0.00     0.169 A 
ATOM     22  C   UNL     1      70.240  33.147  57.437  1.00  0.00     0.162 A 
BRANCH  13  23
ATOM     23  O   UNL     1      75.053  32.783  55.673  1.00  0.00    -0.507 OA
ATOM     24  H   UNL     1      75.599  33.298  56.351  1.00  0.00     0.293 HD
ENDBRANCH  13  23
BRANCH  19  25
ATOM     25  C   UNL     1      73.850  32.181  57.930  1.00  0.00     0.264 C 
ATOM     26  O   UNL     1      74.222  32.648  59.041  1.00  0.00    -0.298 OA
ENDBRANCH  19  25
BRANCH  20  27
ATOM     27  C   UNL     1      68.813  33.710  55.398  1.00  0.00     0.017 C 
ATOM     28  C   UNL     1      68.991  34.227  53.967  1.00  0.00     0.012 C 
ATOM     29  C   UNL     1      67.875  34.625  56.211  1.00  0.00     0.012 C 
ENDBRANCH  20  27
BRANCH  21  30
ATOM     30  O   UNL     1      71.405  32.332  59.367  1.00  0.00    -0.504 OA
ATOM     31  H   UNL     1      72.192  31.932  59.860  1.00  0.00     0.293 HD
ENDBRANCH  21  30
BRANCH  22  32
ATOM     32  O   UNL     1      69.092  33.245  58.227  1.00  0.00    -0.504 OA
ATOM     33  H   UNL     1      68.440  32.480  58.353  1.00  0.00     0.293 HD
ENDBRANCH  22  32
ENDBRANCH  11  12
BRANCH  10  34
ATOM     34  O   UNL     1      75.659  31.605  53.829  1.00  0.00    -0.507 OA
ATOM     35  H   UNL     1      76.360  30.955  54.159  1.00  0.00     0.293 HD
ENDBRANCH  10  34
BRANCH   9  36
ATOM     36  C   UNL     1      79.278  35.446  50.444  1.00  0.00     0.017 C 
ATOM     37  C   UNL     1      79.873  35.326  49.037  1.00  0.00     0.012 C 
ATOM     38  C   UNL     1      80.264  36.125  51.414  1.00  0.00     0.012 C 
ENDBRANCH   9  36
BRANCH   6  39
ATOM     39  C   UNL     1      77.593  30.266  52.581  1.00  0.00     0.264 C 
ATOM     40  O   UNL     1      76.579  29.666  52.131  1.00  0.00    -0.298 OA
ENDBRANCH   6  39
BRANCH   8  41
ATOM     41  O   UNL     1      80.638  32.989  49.882  1.00  0.00    -0.504 OA
ATOM     42  H   UNL     1      80.757  33.672  49.147  1.00  0.00     0.293 HD
ENDBRANCH   8  41
BRANCH   7  43
ATOM     43  O   UNL     1      79.966  30.562  51.212  1.00  0.00    -0.504 OA
ATOM     44  H   UNL     1      79.630  29.658  50.913  1.00  0.00     0.293 HD
ENDBRANCH   7  43
TORSDOF 11
ENDMDL
MODEL 2
REMARK VINA RESULT:    31.119      0.902      8.716
REMARK INTER + INTRA:          51.606
REMARK INTER:                  39.702
REMARK INTRA:                  11.904
REMARK UNBOUND:                 5.933
REMARK SMILES Cc1cc2c(C(C)C)c(O)c(O)c(C=O)c2c(O)c1-c1c(C)cc2c(C(C)C)c(O)c(O)c(C=O)c2c1O
REMARK SMILES IDX 1 1 2 2 3 3 4 4 16 5 13 6 11 7 9 8 5 9 17 10 19 11 20 12
REMARK SMILES IDX 37 13 21 14 36 15 23 16 22 17 24 18 33 19 25 20 31 21 29 22
REMARK SMILES IDX 38 23 34 25 35 26 26 27 27 28 28 29 32 30 30 32 18 34 6 36
REMARK SMILES IDX 7 37 8 38 14 39 15 40 10 41 12 43
REMARK H PARENT 38 24 32 31 30 33 18 35 10 42 12 44
REMARK Flexibility Score: inf
ROOT
ATOM      1  C   UNL     1      72.803  35.765  52.374  1.00  0.00     0.045 C 
ATOM      2  C   UNL     1      72.803  34.818  53.550  1.00  0.00    -0.039 A 
ATOM      3  C   UNL     1      71.664  34.718  54.352  1.00  0.00     0.013 A 
ATOM      4  C   UNL     1      71.607  33.845  55.461  1.00  0.00    -0.006 A 
ATOM      5  C   UNL     1      72.794  33.158  55.852  1.00  0.00     0.039 A 
ATOM      6  C   UNL     1      72.798  32.436  57.081  1.00  0.00     0.072 A 
ATOM      7  C   UNL     1      71.636  32.375  57.870  1.00  0.00     0.169 A 
ATOM      8  C   UNL     1      70.458  33.026  57.457  1.00  0.00     0.162 A 
ATOM      9  C   UNL     1      70.398  33.670  56.202  1.00  0.00     0.008 A 
ATOM     10  C   UNL     1      73.926  33.194  54.983  1.00  0.00     0.132 A 
ATOM     11  C   UNL     1      73.928  34.031  53.847  1.00  0.00     0.031 A 
ENDROOT
BRANCH  11  12
ATOM     12  C   UNL     1      75.123  34.085  52.961  1.00  0.00     0.031 A 
ATOM     13  C   UNL     1      76.154  33.131  53.104  1.00  0.00     0.132 A 
ATOM     14  C   UNL     1      75.219  35.083  51.979  1.00  0.00    -0.039 A 
ATOM     15  C   UNL     1      77.318  33.190  52.277  1.00  0.00     0.039 A 
ATOM     16  C   UNL     1      76.361  35.156  51.182  1.00  0.00     0.013 A 
ATOM     17  C   UNL     1      74.138  36.124  51.810  1.00  0.00     0.045 C 
ATOM     18  C   UNL     1      77.441  34.258  51.333  1.00  0.00    -0.006 A 
ATOM     19  C   UNL     1      78.348  32.202  52.334  1.00  0.00     0.072 A 
ATOM     20  C   UNL     1      78.621  34.382  50.535  1.00  0.00     0.008 A 
ATOM     21  C   UNL     1      79.425  32.254  51.426  1.00  0.00     0.169 A 
ATOM     22  C   UNL     1      79.538  33.310  50.517  1.00  0.00     0.162 A 
BRANCH  13  23
ATOM     23  O   UNL     1      76.014  32.117  54.061  1.00  0.00    -0.507 OA
ATOM     24  H   UNL     1      75.129  31.699  54.319  1.00  0.00     0.293 HD
ENDBRANCH  13  23
BRANCH  19  25
ATOM     25  C   UNL     1      78.316  31.096  53.312  1.00  0.00     0.264 C 
ATOM     26  O   UNL     1      79.386  30.554  53.701  1.00  0.00    -0.298 OA
ENDBRANCH  19  25
BRANCH  20  27
ATOM     27  C   UNL     1      78.892  35.630  49.674  1.00  0.00     0.017 C 
ATOM     28  C   UNL     1      77.601  36.125  49.014  1.00  0.00     0.012 C 
ATOM     29  C   UNL     1      80.016  35.444  48.636  1.00  0.00     0.012 C 
ENDBRANCH  20  27
BRANCH  21  30
ATOM     30  O   UNL     1      80.426  31.275  51.420  1.00  0.00    -0.504 OA
ATOM     31  H   UNL     1      80.546  30.592  50.684  1.00  0.00     0.293 HD
ENDBRANCH  21  30
BRANCH  22  32
ATOM     32  O   UNL     1      80.576  33.295  49.582  1.00  0.00    -0.504 OA
ATOM     33  H   UNL     1      80.988  32.442  49.226  1.00  0.00     0.293 HD
ENDBRANCH  22  32
ENDBRANCH  11  12
BRANCH  10  34
ATOM     34  O   UNL     1      75.033  32.372  55.229  1.00  0.00    -0.507 OA
ATOM     35  H   UNL     1      75.013  31.568  55.843  1.00  0.00     0.293 HD
ENDBRANCH  10  34
BRANCH   9  36
ATOM     36  C   UNL     1      69.051  34.197  55.677  1.00  0.00     0.017 C 
ATOM     37  C   UNL     1      68.580  35.404  56.495  1.00  0.00     0.012 C 
ATOM     38  C   UNL     1      67.953  33.119  55.584  1.00  0.00     0.012 C 
ENDBRANCH   9  36
BRANCH   6  39
ATOM     39  C   UNL     1      74.029  31.827  57.636  1.00  0.00     0.264 C 
ATOM     40  O   UNL     1      74.596  32.320  58.650  1.00  0.00    -0.298 OA
ENDBRANCH   6  39
BRANCH   8  41
ATOM     41  O   UNL     1      69.344  33.085  58.299  1.00  0.00    -0.504 OA
ATOM     42  H   UNL     1      68.446  33.466  58.037  1.00  0.00     0.293 HD
ENDBRANCH   8  41
BRANCH   7  43
ATOM     43  O   UNL     1      71.684  31.657  59.072  1.00  0.00    -0.504 OA
ATOM     44  H   UNL     1      72.068  30.727  59.166  1.00  0.00     0.293 HD
ENDBRANCH   7  43
TORSDOF 11
ENDMDL
