MODEL 1
REMARK VINA RESULT:    -7.090      0.000      0.000
REMARK INTER + INTRA:          -9.020
REMARK INTER:                  -8.748
REMARK INTRA:                  -0.271
REMARK UNBOUND:                -0.271
REMARK SMILES COc1cc(-c2oc3cc(O)cc(O)c3c(=O)c2O)ccc1O
REMARK SMILES IDX 6 1 18 2 16 3 17 4 15 5 13 6 12 7 10 8 9 9 8 10 7 11 5 12
REMARK SMILES IDX 3 13 22 14 4 15 21 16 20 17 2 18 1 19 23 20 19 22 14 24
REMARK SMILES IDX 11 26
REMARK H PARENT 23 21 19 23 14 25 11 27
REMARK Flexibility Score: inf
ROOT
ATOM      1  C   UNL     1      19.798  -5.137  32.163  1.00  0.00     0.180 A 
ATOM      2  C   UNL     1      19.648  -6.379  32.811  1.00  0.00     0.208 A 
ATOM      3  C   UNL     1      18.483  -7.127  32.583  1.00  0.00     0.238 A 
ATOM      4  O   UNL     1      18.333  -8.235  33.165  1.00  0.00    -0.285 OA
ATOM      5  C   UNL     1      17.501  -6.635  31.699  1.00  0.00     0.111 A 
ATOM      6  C   UNL     1      16.301  -7.329  31.411  1.00  0.00     0.134 A 
ATOM      7  C   UNL     1      15.375  -6.776  30.513  1.00  0.00     0.093 A 
ATOM      8  C   UNL     1      15.629  -5.545  29.897  1.00  0.00     0.123 A 
ATOM      9  C   UNL     1      16.811  -4.858  30.178  1.00  0.00     0.094 A 
ATOM     10  C   UNL     1      17.744  -5.390  31.072  1.00  0.00     0.146 A 
ATOM     11  O   UNL     1      18.857  -4.712  31.325  1.00  0.00    -0.452 OA
ENDROOT
BRANCH   1  12
ATOM     12  C   UNL     1      20.989  -4.282  32.368  1.00  0.00     0.025 A 
ATOM     13  C   UNL     1      22.038  -2.239  33.210  1.00  0.00     0.161 A 
ATOM     14  C   UNL     1      23.267  -2.663  32.686  1.00  0.00     0.157 A 
ATOM     15  C   UNL     1      20.898  -3.050  33.041  1.00  0.00     0.062 A 
ATOM     16  C   UNL     1      23.355  -3.877  31.995  1.00  0.00     0.051 A 
ATOM     17  C   UNL     1      22.223  -4.678  31.832  1.00  0.00     0.016 A 
BRANCH  13  18
ATOM     18  O   UNL     1      21.988  -1.009  33.886  1.00  0.00    -0.493 OA
ATOM     19  C   UNL     1      21.629   0.229  33.281  1.00  0.00     0.278 C 
ENDBRANCH  13  18
BRANCH  14  20
ATOM     20  O   UNL     1      24.399  -1.865  32.852  1.00  0.00    -0.504 OA
ATOM     21  H   UNL     1      24.362  -0.860  32.725  1.00  0.00     0.293 HD
ENDBRANCH  14  20
ENDBRANCH   1  12
BRANCH   2  22
ATOM     22  O   UNL     1      20.660  -6.867  33.644  1.00  0.00    -0.502 OA
ATOM     23  H   UNL     1      21.301  -7.593  33.349  1.00  0.00     0.293 HD
ENDBRANCH   2  22
BRANCH   6  24
ATOM     24  O   UNL     1      16.020  -8.558  32.009  1.00  0.00    -0.507 OA
ATOM     25  H   UNL     1      15.148  -9.046  31.843  1.00  0.00     0.293 HD
ENDBRANCH   6  24
BRANCH   8  26
ATOM     26  O   UNL     1      14.711  -4.996  29.004  1.00  0.00    -0.508 OA
ATOM     27  H   UNL     1      14.871  -4.097  28.566  1.00  0.00     0.293 HD
ENDBRANCH   8  26
TORSDOF 6
ENDMDL
MODEL 2
REMARK VINA RESULT:    -7.038      0.785      1.982
REMARK INTER + INTRA:          -8.956
REMARK INTER:                  -8.616
REMARK INTRA:                  -0.339
REMARK UNBOUND:                -0.271
REMARK SMILES COc1cc(-c2oc3cc(O)cc(O)c3c(=O)c2O)ccc1O
REMARK SMILES IDX 6 1 18 2 16 3 17 4 15 5 13 6 12 7 10 8 9 9 8 10 7 11 5 12
REMARK SMILES IDX 3 13 22 14 4 15 21 16 20 17 2 18 1 19 23 20 19 22 14 24
REMARK SMILES IDX 11 26
REMARK H PARENT 23 21 19 23 14 25 11 27
REMARK Flexibility Score: inf
ROOT
ATOM      1  C   UNL     1      19.778  -5.115  32.233  1.00  0.00     0.180 A 
ATOM      2  C   UNL     1      19.623  -6.372  32.849  1.00  0.00     0.208 A 
ATOM      3  C   UNL     1      18.462  -7.117  32.590  1.00  0.00     0.238 A 
ATOM      4  O   UNL     1      18.308  -8.239  33.143  1.00  0.00    -0.285 OA
ATOM      5  C   UNL     1      17.488  -6.604  31.708  1.00  0.00     0.111 A 
ATOM      6  C   UNL     1      16.292  -7.292  31.391  1.00  0.00     0.134 A 
ATOM      7  C   UNL     1      15.375  -6.718  30.497  1.00  0.00     0.093 A 
ATOM      8  C   UNL     1      15.633  -5.472  29.914  1.00  0.00     0.123 A 
ATOM      9  C   UNL     1      16.811  -4.791  30.224  1.00  0.00     0.094 A 
ATOM     10  C   UNL     1      17.735  -5.344  31.114  1.00  0.00     0.146 A 
ATOM     11  O   UNL     1      18.845  -4.671  31.396  1.00  0.00    -0.452 OA
ENDROOT
BRANCH   1  12
ATOM     12  C   UNL     1      20.965  -4.263  32.471  1.00  0.00     0.025 A 
ATOM     13  C   UNL     1      23.332  -3.747  32.133  1.00  0.00     0.161 A 
ATOM     14  C   UNL     1      23.208  -2.648  32.995  1.00  0.00     0.157 A 
ATOM     15  C   UNL     1      22.207  -4.558  31.880  1.00  0.00     0.062 A 
ATOM     16  C   UNL     1      21.978  -2.368  33.602  1.00  0.00     0.051 A 
ATOM     17  C   UNL     1      20.867  -3.173  33.348  1.00  0.00     0.016 A 
BRANCH  13  18
ATOM     18  O   UNL     1      24.585  -4.003  31.553  1.00  0.00    -0.493 OA
ATOM     19  C   UNL     1      25.367  -5.166  31.804  1.00  0.00     0.278 C 
ENDBRANCH  13  18
BRANCH  14  20
ATOM     20  O   UNL     1      24.317  -1.842  33.247  1.00  0.00    -0.504 OA
ATOM     21  H   UNL     1      25.260  -2.212  33.215  1.00  0.00     0.293 HD
ENDBRANCH  14  20
ENDBRANCH   1  12
BRANCH   2  22
ATOM     22  O   UNL     1      20.627  -6.879  33.680  1.00  0.00    -0.502 OA
ATOM     23  H   UNL     1      20.424  -7.475  34.473  1.00  0.00     0.293 HD
ENDBRANCH   2  22
BRANCH   6  24
ATOM     24  O   UNL     1      16.007  -8.537  31.955  1.00  0.00    -0.507 OA
ATOM     25  H   UNL     1      15.218  -9.093  31.649  1.00  0.00     0.293 HD
ENDBRANCH   6  24
BRANCH   8  26
ATOM     26  O   UNL     1      14.724  -4.903  29.025  1.00  0.00    -0.508 OA
ATOM     27  H   UNL     1      13.742  -5.151  29.040  1.00  0.00     0.293 HD
ENDBRANCH   8  26
TORSDOF 6
ENDMDL
MODEL 3
REMARK VINA RESULT:    -6.512      2.113      3.778
REMARK INTER + INTRA:          -8.307
REMARK INTER:                  -7.925
REMARK INTRA:                  -0.382
REMARK UNBOUND:                -0.271
REMARK SMILES COc1cc(-c2oc3cc(O)cc(O)c3c(=O)c2O)ccc1O
REMARK SMILES IDX 6 1 18 2 16 3 17 4 15 5 13 6 12 7 10 8 9 9 8 10 7 11 5 12
REMARK SMILES IDX 3 13 22 14 4 15 21 16 20 17 2 18 1 19 23 20 19 22 14 24
REMARK SMILES IDX 11 26
REMARK H PARENT 23 21 19 23 14 25 11 27
REMARK Flexibility Score: inf
ROOT
ATOM      1  C   UNL     1      21.168  -3.633  33.177  1.00  0.00     0.180 A 
ATOM      2  C   UNL     1      20.435  -2.805  32.304  1.00  0.00     0.208 A 
ATOM      3  C   UNL     1      19.338  -3.347  31.616  1.00  0.00     0.238 A 
ATOM      4  O   UNL     1      18.681  -2.618  30.824  1.00  0.00    -0.285 OA
ATOM      5  C   UNL     1      18.981  -4.695  31.824  1.00  0.00     0.111 A 
ATOM      6  C   UNL     1      17.889  -5.316  31.173  1.00  0.00     0.134 A 
ATOM      7  C   UNL     1      17.592  -6.661  31.441  1.00  0.00     0.093 A 
ATOM      8  C   UNL     1      18.366  -7.395  32.348  1.00  0.00     0.123 A 
ATOM      9  C   UNL     1      19.443  -6.786  32.992  1.00  0.00     0.094 A 
ATOM     10  C   UNL     1      19.757  -5.448  32.737  1.00  0.00     0.146 A 
ATOM     11  O   UNL     1      20.792  -4.896  33.360  1.00  0.00    -0.452 OA
ENDROOT
BRANCH   1  12
ATOM     12  C   UNL     1      22.348  -3.141  33.924  1.00  0.00     0.025 A 
ATOM     13  C   UNL     1      23.357  -2.152  35.920  1.00  0.00     0.161 A 
ATOM     14  C   UNL     1      24.607  -2.165  35.285  1.00  0.00     0.157 A 
ATOM     15  C   UNL     1      22.227  -2.635  35.231  1.00  0.00     0.062 A 
ATOM     16  C   UNL     1      24.725  -2.646  33.976  1.00  0.00     0.051 A 
ATOM     17  C   UNL     1      23.602  -3.125  33.298  1.00  0.00     0.016 A 
BRANCH  13  18
ATOM     18  O   UNL     1      23.277  -1.650  37.229  1.00  0.00    -0.493 OA
ATOM     19  C   UNL     1      22.293  -2.037  38.182  1.00  0.00     0.278 C 
ENDBRANCH  13  18
BRANCH  14  20
ATOM     20  O   UNL     1      25.729  -1.690  35.963  1.00  0.00    -0.504 OA
ATOM     21  H   UNL     1      26.599  -2.210  35.977  1.00  0.00     0.293 HD
ENDBRANCH  14  20
ENDBRANCH   1  12
BRANCH   2  22
ATOM     22  O   UNL     1      20.780  -1.459  32.153  1.00  0.00    -0.502 OA
ATOM     23  H   UNL     1      21.097  -1.076  31.271  1.00  0.00     0.293 HD
ENDBRANCH   2  22
BRANCH   6  24
ATOM     24  O   UNL     1      17.098  -4.611  30.264  1.00  0.00    -0.507 OA
ATOM     25  H   UNL     1      16.324  -5.048  29.779  1.00  0.00     0.293 HD
ENDBRANCH   6  24
BRANCH   8  26
ATOM     26  O   UNL     1      18.070  -8.729  32.616  1.00  0.00    -0.508 OA
ATOM     27  H   UNL     1      18.647  -9.482  32.259  1.00  0.00     0.293 HD
ENDBRANCH   8  26
TORSDOF 6
ENDMDL
MODEL 4
REMARK VINA RESULT:    -6.358      3.384      4.982
REMARK INTER + INTRA:          -8.117
REMARK INTER:                  -7.780
REMARK INTRA:                  -0.336
REMARK UNBOUND:                -0.271
REMARK SMILES COc1cc(-c2oc3cc(O)cc(O)c3c(=O)c2O)ccc1O
REMARK SMILES IDX 6 1 18 2 16 3 17 4 15 5 13 6 12 7 10 8 9 9 8 10 7 11 5 12
REMARK SMILES IDX 3 13 22 14 4 15 21 16 20 17 2 18 1 19 23 20 19 22 14 24
REMARK SMILES IDX 11 26
REMARK H PARENT 23 21 19 23 14 25 11 27
REMARK Flexibility Score: inf
ROOT
ATOM      1  C   UNL     1      22.152  -2.745  34.628  1.00  0.00     0.180 A 
ATOM      2  C   UNL     1      22.186  -4.097  34.235  1.00  0.00     0.208 A 
ATOM      3  C   UNL     1      21.412  -4.504  33.137  1.00  0.00     0.238 A 
ATOM      4  O   UNL     1      21.427  -5.714  32.782  1.00  0.00    -0.285 OA
ATOM      5  C   UNL     1      20.637  -3.555  32.440  1.00  0.00     0.111 A 
ATOM      6  C   UNL     1      19.833  -3.882  31.322  1.00  0.00     0.134 A 
ATOM      7  C   UNL     1      19.096  -2.878  30.677  1.00  0.00     0.093 A 
ATOM      8  C   UNL     1      19.149  -1.554  31.128  1.00  0.00     0.123 A 
ATOM      9  C   UNL     1      19.940  -1.227  32.230  1.00  0.00     0.094 A 
ATOM     10  C   UNL     1      20.680  -2.213  32.888  1.00  0.00     0.146 A 
ATOM     11  O   UNL     1      21.420  -1.875  33.937  1.00  0.00    -0.452 OA
ENDROOT
BRANCH   1  12
ATOM     12  C   UNL     1      22.925  -2.242  35.787  1.00  0.00     0.025 A 
ATOM     13  C   UNL     1      24.858  -1.075  36.726  1.00  0.00     0.161 A 
ATOM     14  C   UNL     1      24.388  -1.353  38.018  1.00  0.00     0.157 A 
ATOM     15  C   UNL     1      24.125  -1.529  35.612  1.00  0.00     0.062 A 
ATOM     16  C   UNL     1      23.206  -2.083  38.194  1.00  0.00     0.051 A 
ATOM     17  C   UNL     1      22.483  -2.529  37.087  1.00  0.00     0.016 A 
BRANCH  13  18
ATOM     18  O   UNL     1      26.053  -0.352  36.592  1.00  0.00    -0.493 OA
ATOM     19  C   UNL     1      26.125   1.053  36.370  1.00  0.00     0.278 C 
ENDBRANCH  13  18
BRANCH  14  20
ATOM     20  O   UNL     1      25.108  -0.905  39.124  1.00  0.00    -0.504 OA
ATOM     21  H   UNL     1      24.860  -0.048  39.607  1.00  0.00     0.293 HD
ENDBRANCH  14  20
ENDBRANCH   1  12
BRANCH   2  22
ATOM     22  O   UNL     1      23.002  -5.007  34.912  1.00  0.00    -0.502 OA
ATOM     23  H   UNL     1      22.697  -5.492  35.747  1.00  0.00     0.293 HD
ENDBRANCH   2  22
BRANCH   6  24
ATOM     24  O   UNL     1      19.760  -5.193  30.848  1.00  0.00    -0.507 OA
ATOM     25  H   UNL     1      20.134  -5.972  31.376  1.00  0.00     0.293 HD
ENDBRANCH   6  24
BRANCH   8  26
ATOM     26  O   UNL     1      18.419  -0.556  30.486  1.00  0.00    -0.508 OA
ATOM     27  H   UNL     1      18.738  -0.140  29.619  1.00  0.00     0.293 HD
ENDBRANCH   8  26
TORSDOF 6
ENDMDL
MODEL 5
REMARK VINA RESULT:    -6.188      1.732      7.506
REMARK INTER + INTRA:          -7.906
REMARK INTER:                  -8.303
REMARK INTRA:                   0.397
REMARK UNBOUND:                -0.271
REMARK SMILES COc1cc(-c2oc3cc(O)cc(O)c3c(=O)c2O)ccc1O
REMARK SMILES IDX 6 1 18 2 16 3 17 4 15 5 13 6 12 7 10 8 9 9 8 10 7 11 5 12
REMARK SMILES IDX 3 13 22 14 4 15 21 16 20 17 2 18 1 19 23 20 19 22 14 24
REMARK SMILES IDX 11 26
REMARK H PARENT 23 21 19 23 14 25 11 27
REMARK Flexibility Score: inf
ROOT
ATOM      1  C   UNL     1      20.106  -3.883  32.839  1.00  0.00     0.180 A 
ATOM      2  C   UNL     1      19.705  -2.662  32.262  1.00  0.00     0.208 A 
ATOM      3  C   UNL     1      20.450  -1.505  32.537  1.00  0.00     0.238 A 
ATOM      4  O   UNL     1      20.095  -0.404  32.034  1.00  0.00    -0.285 OA
ATOM      5  C   UNL     1      21.589  -1.589  33.364  1.00  0.00     0.111 A 
ATOM      6  C   UNL     1      22.395  -0.472  33.687  1.00  0.00     0.134 A 
ATOM      7  C   UNL     1      23.519  -0.639  34.511  1.00  0.00     0.093 A 
ATOM      8  C   UNL     1      23.851  -1.901  35.015  1.00  0.00     0.123 A 
ATOM      9  C   UNL     1      23.059  -3.006  34.698  1.00  0.00     0.094 A 
ATOM     10  C   UNL     1      21.934  -2.860  33.882  1.00  0.00     0.146 A 
ATOM     11  O   UNL     1      21.195  -3.927  33.602  1.00  0.00    -0.452 OA
ENDROOT
BRANCH   1  12
ATOM     12  C   UNL     1      19.362  -5.143  32.612  1.00  0.00     0.025 A 
ATOM     13  C   UNL     1      17.476  -6.372  31.656  1.00  0.00     0.161 A 
ATOM     14  C   UNL     1      17.950  -7.549  32.251  1.00  0.00     0.157 A 
ATOM     15  C   UNL     1      18.182  -5.167  31.846  1.00  0.00     0.062 A 
ATOM     16  C   UNL     1      19.112  -7.521  33.033  1.00  0.00     0.051 A 
ATOM     17  C   UNL     1      19.809  -6.326  33.217  1.00  0.00     0.016 A 
BRANCH  13  18
ATOM     18  O   UNL     1      16.301  -6.437  30.889  1.00  0.00    -0.493 OA
ATOM     19  C   UNL     1      15.811  -5.379  30.073  1.00  0.00     0.278 C 
ENDBRANCH  13  18
BRANCH  14  20
ATOM     20  O   UNL     1      17.257  -8.744  32.065  1.00  0.00    -0.504 OA
ATOM     21  H   UNL     1      16.267  -8.754  31.845  1.00  0.00     0.293 HD
ENDBRANCH  14  20
ENDBRANCH   1  12
BRANCH   2  22
ATOM     22  O   UNL     1      18.601  -2.616  31.406  1.00  0.00    -0.502 OA
ATOM     23  H   UNL     1      17.650  -2.707  31.742  1.00  0.00     0.293 HD
ENDBRANCH   2  22
BRANCH   6  24
ATOM     24  O   UNL     1      22.090   0.800  33.199  1.00  0.00    -0.507 OA
ATOM     25  H   UNL     1      22.810   1.490  33.022  1.00  0.00     0.293 HD
ENDBRANCH   6  24
BRANCH   8  26
ATOM     26  O   UNL     1      24.967  -2.069  35.831  1.00  0.00    -0.508 OA
ATOM     27  H   UNL     1      25.907  -2.065  35.451  1.00  0.00     0.293 HD
ENDBRANCH   8  26
TORSDOF 6
ENDMDL
MODEL 6
REMARK VINA RESULT:    -6.077      2.501      7.953
REMARK INTER + INTRA:          -7.770
REMARK INTER:                  -7.415
REMARK INTRA:                  -0.354
REMARK UNBOUND:                -0.271
REMARK SMILES COc1cc(-c2oc3cc(O)cc(O)c3c(=O)c2O)ccc1O
REMARK SMILES IDX 6 1 18 2 16 3 17 4 15 5 13 6 12 7 10 8 9 9 8 10 7 11 5 12
REMARK SMILES IDX 3 13 22 14 4 15 21 16 20 17 2 18 1 19 23 20 19 22 14 24
REMARK SMILES IDX 11 26
REMARK H PARENT 23 21 19 23 14 25 11 27
REMARK Flexibility Score: inf
ROOT
ATOM      1  C   UNL     1      21.793  -3.357  33.362  1.00  0.00     0.180 A 
ATOM      2  C   UNL     1      23.031  -3.102  32.741  1.00  0.00     0.208 A 
ATOM      3  C   UNL     1      24.060  -2.516  33.494  1.00  0.00     0.238 A 
ATOM      4  O   UNL     1      25.170  -2.274  32.945  1.00  0.00    -0.285 OA
ATOM      5  C   UNL     1      23.844  -2.214  34.854  1.00  0.00     0.111 A 
ATOM      6  C   UNL     1      24.829  -1.627  35.683  1.00  0.00     0.134 A 
ATOM      7  C   UNL     1      24.539  -1.365  37.031  1.00  0.00     0.093 A 
ATOM      8  C   UNL     1      23.284  -1.679  37.563  1.00  0.00     0.123 A 
ATOM      9  C   UNL     1      22.309  -2.259  36.749  1.00  0.00     0.094 A 
ATOM     10  C   UNL     1      22.578  -2.526  35.404  1.00  0.00     0.146 A 
ATOM     11  O   UNL     1      21.630  -3.072  34.651  1.00  0.00    -0.452 OA
ENDROOT
BRANCH   1  12
ATOM     12  C   UNL     1      20.653  -3.954  32.630  1.00  0.00     0.025 A 
ATOM     13  C   UNL     1      19.382  -5.900  31.870  1.00  0.00     0.161 A 
ATOM     14  C   UNL     1      18.505  -5.050  31.181  1.00  0.00     0.157 A 
ATOM     15  C   UNL     1      20.460  -5.347  32.588  1.00  0.00     0.062 A 
ATOM     16  C   UNL     1      18.709  -3.665  31.203  1.00  0.00     0.051 A 
ATOM     17  C   UNL     1      19.779  -3.121  31.917  1.00  0.00     0.016 A 
BRANCH  13  18
ATOM     18  O   UNL     1      19.151  -7.284  31.814  1.00  0.00    -0.493 OA
ATOM     19  C   UNL     1      18.292  -7.995  32.700  1.00  0.00     0.278 C 
ENDBRANCH  13  18
BRANCH  14  20
ATOM     20  O   UNL     1      17.435  -5.591  30.471  1.00  0.00    -0.504 OA
ATOM     21  H   UNL     1      17.236  -6.585  30.488  1.00  0.00     0.293 HD
ENDBRANCH  14  20
ENDBRANCH   1  12
BRANCH   2  22
ATOM     22  O   UNL     1      23.236  -3.457  31.404  1.00  0.00    -0.502 OA
ATOM     23  H   UNL     1      23.076  -2.810  30.641  1.00  0.00     0.293 HD
ENDBRANCH   2  22
BRANCH   6  24
ATOM     24  O   UNL     1      26.091  -1.302  35.181  1.00  0.00    -0.507 OA
ATOM     25  H   UNL     1      26.457  -1.732  34.340  1.00  0.00     0.293 HD
ENDBRANCH   6  24
BRANCH   8  26
ATOM     26  O   UNL     1      22.996  -1.421  38.901  1.00  0.00    -0.508 OA
ATOM     27  H   UNL     1      22.662  -2.149  39.522  1.00  0.00     0.293 HD
ENDBRANCH   8  26
TORSDOF 6
ENDMDL
MODEL 7
REMARK VINA RESULT:    -6.025      3.295      5.124
REMARK INTER + INTRA:          -7.705
REMARK INTER:                  -7.443
REMARK INTRA:                  -0.262
REMARK UNBOUND:                -0.271
REMARK SMILES COc1cc(-c2oc3cc(O)cc(O)c3c(=O)c2O)ccc1O
REMARK SMILES IDX 6 1 18 2 16 3 17 4 15 5 13 6 12 7 10 8 9 9 8 10 7 11 5 12
REMARK SMILES IDX 3 13 22 14 4 15 21 16 20 17 2 18 1 19 23 20 19 22 14 24
REMARK SMILES IDX 11 26
REMARK H PARENT 23 21 19 23 14 25 11 27
REMARK Flexibility Score: inf
ROOT
ATOM      1  C   UNL     1      22.700  -3.279  34.874  1.00  0.00     0.180 A 
ATOM      2  C   UNL     1      23.573  -4.307  34.471  1.00  0.00     0.208 A 
ATOM      3  C   UNL     1      23.171  -5.176  33.445  1.00  0.00     0.238 A 
ATOM      4  O   UNL     1      23.941  -6.107  33.082  1.00  0.00    -0.285 OA
ATOM      5  C   UNL     1      21.917  -4.991  32.827  1.00  0.00     0.111 A 
ATOM      6  C   UNL     1      21.438  -5.820  31.784  1.00  0.00     0.134 A 
ATOM      7  C   UNL     1      20.181  -5.566  31.214  1.00  0.00     0.093 A 
ATOM      8  C   UNL     1      19.396  -4.499  31.667  1.00  0.00     0.123 A 
ATOM      9  C   UNL     1      19.865  -3.680  32.696  1.00  0.00     0.094 A 
ATOM     10  C   UNL     1      21.113  -3.918  33.278  1.00  0.00     0.146 A 
ATOM     11  O   UNL     1      21.531  -3.126  34.258  1.00  0.00    -0.452 OA
ENDROOT
BRANCH   1  12
ATOM     12  C   UNL     1      23.044  -2.335  35.962  1.00  0.00     0.025 A 
ATOM     13  C   UNL     1      24.396  -0.504  36.859  1.00  0.00     0.161 A 
ATOM     14  C   UNL     1      23.702  -0.597  38.074  1.00  0.00     0.157 A 
ATOM     15  C   UNL     1      24.068  -1.382  35.807  1.00  0.00     0.062 A 
ATOM     16  C   UNL     1      22.699  -1.560  38.238  1.00  0.00     0.051 A 
ATOM     17  C   UNL     1      22.377  -2.427  37.192  1.00  0.00     0.016 A 
BRANCH  13  18
ATOM     18  O   UNL     1      25.403   0.466  36.738  1.00  0.00    -0.493 OA
ATOM     19  C   UNL     1      26.100   0.758  35.530  1.00  0.00     0.278 C 
ENDBRANCH  13  18
BRANCH  14  20
ATOM     20  O   UNL     1      24.021   0.270  39.118  1.00  0.00    -0.504 OA
ATOM     21  H   UNL     1      23.436   1.066  39.343  1.00  0.00     0.293 HD
ENDBRANCH  14  20
ENDBRANCH   1  12
BRANCH   2  22
ATOM     22  O   UNL     1      24.832  -4.437  35.066  1.00  0.00    -0.502 OA
ATOM     23  H   UNL     1      25.686  -4.477  34.523  1.00  0.00     0.293 HD
ENDBRANCH   2  22
BRANCH   6  24
ATOM     24  O   UNL     1      22.198  -6.890  31.310  1.00  0.00    -0.507 OA
ATOM     25  H   UNL     1      22.756  -6.817  30.468  1.00  0.00     0.293 HD
ENDBRANCH   6  24
BRANCH   8  26
ATOM     26  O   UNL     1      18.149  -4.245  31.101  1.00  0.00    -0.508 OA
ATOM     27  H   UNL     1      17.920  -3.340  30.709  1.00  0.00     0.293 HD
ENDBRANCH   8  26
TORSDOF 6
ENDMDL
MODEL 8
REMARK VINA RESULT:    -5.931      3.417      5.664
REMARK INTER + INTRA:          -7.589
REMARK INTER:                  -7.318
REMARK INTRA:                  -0.272
REMARK UNBOUND:                -0.271
REMARK SMILES COc1cc(-c2oc3cc(O)cc(O)c3c(=O)c2O)ccc1O
REMARK SMILES IDX 6 1 18 2 16 3 17 4 15 5 13 6 12 7 10 8 9 9 8 10 7 11 5 12
REMARK SMILES IDX 3 13 22 14 4 15 21 16 20 17 2 18 1 19 23 20 19 22 14 24
REMARK SMILES IDX 11 26
REMARK H PARENT 23 21 19 23 14 25 11 27
REMARK Flexibility Score: inf
ROOT
ATOM      1  C   UNL     1      22.127  -3.259  34.568  1.00  0.00     0.180 A 
ATOM      2  C   UNL     1      22.028  -1.911  34.171  1.00  0.00     0.208 A 
ATOM      3  C   UNL     1      21.158  -1.574  33.123  1.00  0.00     0.238 A 
ATOM      4  O   UNL     1      21.069  -0.372  32.753  1.00  0.00    -0.285 OA
ATOM      5  C   UNL     1      20.390  -2.581  32.504  1.00  0.00     0.111 A 
ATOM      6  C   UNL     1      19.487  -2.325  31.444  1.00  0.00     0.134 A 
ATOM      7  C   UNL     1      18.751  -3.381  30.885  1.00  0.00     0.093 A 
ATOM      8  C   UNL     1      18.901  -4.687  31.368  1.00  0.00     0.123 A 
ATOM      9  C   UNL     1      19.789  -4.943  32.413  1.00  0.00     0.094 A 
ATOM     10  C   UNL     1      20.533  -3.906  32.981  1.00  0.00     0.146 A 
ATOM     11  O   UNL     1      21.375  -4.180  33.970  1.00  0.00    -0.452 OA
ENDROOT
BRANCH   1  12
ATOM     12  C   UNL     1      23.036  -3.696  35.652  1.00  0.00     0.025 A 
ATOM     13  C   UNL     1      24.996  -4.932  36.433  1.00  0.00     0.161 A 
ATOM     14  C   UNL     1      24.705  -4.547  37.750  1.00  0.00     0.157 A 
ATOM     15  C   UNL     1      24.152  -4.509  35.387  1.00  0.00     0.062 A 
ATOM     16  C   UNL     1      23.581  -3.757  38.018  1.00  0.00     0.051 A 
ATOM     17  C   UNL     1      22.749  -3.339  36.977  1.00  0.00     0.016 A 
BRANCH  13  18
ATOM     18  O   UNL     1      26.125  -5.735  36.207  1.00  0.00    -0.493 OA
ATOM     19  C   UNL     1      26.106  -6.973  35.502  1.00  0.00     0.278 C 
ENDBRANCH  13  18
BRANCH  14  20
ATOM     20  O   UNL     1      25.537  -4.961  38.789  1.00  0.00    -0.504 OA
ATOM     21  H   UNL     1      25.945  -5.889  38.804  1.00  0.00     0.293 HD
ENDBRANCH  14  20
ENDBRANCH   1  12
BRANCH   2  22
ATOM     22  O   UNL     1      22.764  -0.925  34.835  1.00  0.00    -0.502 OA
ATOM     23  H   UNL     1      22.644  -0.731  35.822  1.00  0.00     0.293 HD
ENDBRANCH   2  22
BRANCH   6  24
ATOM     24  O   UNL     1      19.316  -1.034  30.942  1.00  0.00    -0.507 OA
ATOM     25  H   UNL     1      18.401  -0.672  30.702  1.00  0.00     0.293 HD
ENDBRANCH   6  24
BRANCH   8  26
ATOM     26  O   UNL     1      18.169  -5.735  30.815  1.00  0.00    -0.508 OA
ATOM     27  H   UNL     1      18.625  -6.528  30.378  1.00  0.00     0.293 HD
ENDBRANCH   8  26
TORSDOF 6
ENDMDL
