MODEL 1
REMARK VINA RESULT:    -3.382      0.000      0.000
REMARK INTER + INTRA:          -5.051
REMARK INTER:                  -4.765
REMARK INTRA:                  -0.286
REMARK UNBOUND:                -0.286
REMARK SMILES CCCCCCCCC(=O)[O-]
REMARK SMILES IDX 6 1 7 2 8 3 9 4 10 5 11 6 5 7 4 8 3 9 2 10 1 11
REMARK H PARENT
REMARK Flexibility Score: inf
ROOT
ATOM      1  C   UNL     1      -2.628   5.820   8.074  1.00  0.00     0.000 C 
ENDROOT
BRANCH   1   2
ATOM      2  C   UNL     1      -3.937   5.043   7.848  1.00  0.00     0.006 C 
BRANCH   2   3
ATOM      3  C   UNL     1      -4.856   5.087   9.075  1.00  0.00     0.053 C 
BRANCH   3   4
ATOM      4  C   UNL     1      -5.501   3.760   9.335  1.00  0.00     0.041 C 
ATOM      5  O   UNL     1      -4.818   2.703   9.283  1.00  0.00    -0.550 OA
ATOM      6  O   UNL     1      -6.863   3.687   9.596  1.00  0.00    -0.550 OA
ENDBRANCH   3   4
ENDBRANCH   2   3
ENDBRANCH   1   2
BRANCH   1   7
ATOM      7  C   UNL     1      -2.537   6.428   9.482  1.00  0.00     0.000 C 
BRANCH   7   8
ATOM      8  C   UNL     1      -1.169   7.070   9.761  1.00  0.00    -0.000 C 
BRANCH   8   9
ATOM      9  C   UNL     1      -1.300   8.587   9.932  1.00  0.00    -0.000 C 
BRANCH   9  10
ATOM     10  C   UNL     1       0.073   9.240  10.125  1.00  0.00    -0.003 C 
ATOM     11  C   UNL     1       1.198   8.225   9.946  1.00  0.00     0.004 C 
ENDBRANCH   9  10
ENDBRANCH   8   9
ENDBRANCH   7   8
ENDBRANCH   1   7
TORSDOF 7
ENDMDL
MODEL 2
REMARK VINA RESULT:    -3.284      3.657      6.449
REMARK INTER + INTRA:          -4.913
REMARK INTER:                  -4.646
REMARK INTRA:                  -0.267
REMARK UNBOUND:                -0.286
REMARK SMILES CCCCCCCCC(=O)[O-]
REMARK SMILES IDX 6 1 7 2 8 3 9 4 10 5 11 6 5 7 4 8 3 9 2 10 1 11
REMARK H PARENT
REMARK Flexibility Score: inf
ROOT
ATOM      1  C   UNL     1      -2.265   6.419   8.847  1.00  0.00     0.000 C 
ENDROOT
BRANCH   1   2
ATOM      2  C   UNL     1      -1.695   7.070  10.119  1.00  0.00     0.006 C 
BRANCH   2   3
ATOM      3  C   UNL     1      -1.181   8.492   9.861  1.00  0.00     0.053 C 
BRANCH   3   4
ATOM      4  C   UNL     1       0.304   8.587  10.038  1.00  0.00     0.041 C 
ATOM      5  O   UNL     1       0.863   9.714  10.098  1.00  0.00    -0.550 OA
ATOM      6  O   UNL     1       1.074   7.433  10.098  1.00  0.00    -0.550 OA
ENDBRANCH   3   4
ENDBRANCH   2   3
ENDBRANCH   1   2
BRANCH   1   7
ATOM      7  C   UNL     1      -3.530   5.591   9.122  1.00  0.00     0.000 C 
BRANCH   7   8
ATOM      8  C   UNL     1      -3.824   4.572   8.010  1.00  0.00    -0.000 C 
BRANCH   8   9
ATOM      9  C   UNL     1      -4.785   3.484   8.503  1.00  0.00    -0.000 C 
BRANCH   9  10
ATOM     10  C   UNL     1      -5.361   3.840   9.878  1.00  0.00    -0.003 C 
ATOM     11  C   UNL     1      -6.867   4.069   9.803  1.00  0.00     0.004 C 
ENDBRANCH   9  10
ENDBRANCH   8   9
ENDBRANCH   7   8
ENDBRANCH   1   7
TORSDOF 7
ENDMDL
MODEL 3
REMARK VINA RESULT:    -3.184     19.645     20.861
REMARK INTER + INTRA:          -4.773
REMARK INTER:                  -4.335
REMARK INTRA:                  -0.438
REMARK UNBOUND:                -0.286
REMARK SMILES CCCCCCCCC(=O)[O-]
REMARK SMILES IDX 6 1 7 2 8 3 9 4 10 5 11 6 5 7 4 8 3 9 2 10 1 11
REMARK H PARENT
REMARK Flexibility Score: inf
ROOT
ATOM      1  C   UNL     1       9.932   7.492  -6.751  1.00  0.00     0.000 C 
ENDROOT
BRANCH   1   2
ATOM      2  C   UNL     1       8.741   6.520  -6.677  1.00  0.00     0.006 C 
BRANCH   2   3
ATOM      3  C   UNL     1       8.603   5.879  -5.290  1.00  0.00     0.053 C 
BRANCH   3   4
ATOM      4  C   UNL     1       9.651   4.835  -5.053  1.00  0.00     0.041 C 
ATOM      5  O   UNL     1      10.084   4.143  -6.012  1.00  0.00    -0.550 OA
ATOM      6  O   UNL     1      10.123   4.601  -3.768  1.00  0.00    -0.550 OA
ENDBRANCH   3   4
ENDBRANCH   2   3
ENDBRANCH   1   2
BRANCH   1   7
ATOM      7  C   UNL     1      10.077   8.146  -8.133  1.00  0.00     0.000 C 
BRANCH   7   8
ATOM      8  C   UNL     1       9.512   9.575  -8.173  1.00  0.00    -0.000 C 
BRANCH   8   9
ATOM      9  C   UNL     1       8.711   9.812  -9.458  1.00  0.00    -0.000 C 
BRANCH   9  10
ATOM     10  C   UNL     1       8.068   8.512  -9.954  1.00  0.00    -0.003 C 
ATOM     11  C   UNL     1       6.546   8.582  -9.870  1.00  0.00     0.004 C 
ENDBRANCH   9  10
ENDBRANCH   8   9
ENDBRANCH   7   8
ENDBRANCH   1   7
TORSDOF 7
ENDMDL
MODEL 4
REMARK VINA RESULT:    -3.023      3.262      5.842
REMARK INTER + INTRA:          -4.546
REMARK INTER:                  -4.076
REMARK INTRA:                  -0.470
REMARK UNBOUND:                -0.286
REMARK SMILES CCCCCCCCC(=O)[O-]
REMARK SMILES IDX 6 1 7 2 8 3 9 4 10 5 11 6 5 7 4 8 3 9 2 10 1 11
REMARK H PARENT
REMARK Flexibility Score: inf
ROOT
ATOM      1  C   UNL     1      -3.428   5.993   7.816  1.00  0.00     0.000 C 
ENDROOT
BRANCH   1   2
ATOM      2  C   UNL     1      -2.393   5.735   8.925  1.00  0.00     0.006 C 
BRANCH   2   3
ATOM      3  C   UNL     1      -2.505   6.750  10.069  1.00  0.00     0.053 C 
BRANCH   3   4
ATOM      4  C   UNL     1      -1.346   7.699  10.086  1.00  0.00     0.041 C 
ATOM      5  O   UNL     1      -0.166   7.258  10.101  1.00  0.00    -0.550 OA
ATOM      6  O   UNL     1      -1.568   9.069  10.124  1.00  0.00    -0.550 OA
ENDBRANCH   3   4
ENDBRANCH   2   3
ENDBRANCH   1   2
BRANCH   1   7
ATOM      7  C   UNL     1      -4.128   4.707   7.350  1.00  0.00     0.000 C 
BRANCH   7   8
ATOM      8  C   UNL     1      -3.863   3.516   8.284  1.00  0.00    -0.000 C 
BRANCH   8   9
ATOM      9  C   UNL     1      -5.155   3.059   8.970  1.00  0.00    -0.000 C 
BRANCH   9  10
ATOM     10  C   UNL     1      -5.762   4.189   9.810  1.00  0.00    -0.003 C 
ATOM     11  C   UNL     1      -7.254   3.967  10.039  1.00  0.00     0.004 C 
ENDBRANCH   9  10
ENDBRANCH   8   9
ENDBRANCH   7   8
ENDBRANCH   1   7
TORSDOF 7
ENDMDL
MODEL 5
REMARK VINA RESULT:    -2.581     10.566     11.410
REMARK INTER + INTRA:          -3.922
REMARK INTER:                  -3.747
REMARK INTRA:                  -0.175
REMARK UNBOUND:                -0.286
REMARK SMILES CCCCCCCCC(=O)[O-]
REMARK SMILES IDX 6 1 7 2 8 3 9 4 10 5 11 6 5 7 4 8 3 9 2 10 1 11
REMARK H PARENT
REMARK Flexibility Score: inf
ROOT
ATOM      1  C   UNL     1      -1.899   8.609  -0.136  1.00  0.00     0.000 C 
ENDROOT
BRANCH   1   2
ATOM      2  C   UNL     1      -3.395   8.262  -0.026  1.00  0.00     0.006 C 
BRANCH   2   3
ATOM      3  C   UNL     1      -4.292   9.472  -0.316  1.00  0.00     0.053 C 
BRANCH   3   4
ATOM      4  C   UNL     1      -4.994   9.341  -1.634  1.00  0.00     0.041 C 
ATOM      5  O   UNL     1      -6.244   9.477  -1.702  1.00  0.00    -0.550 OA
ATOM      6  O   UNL     1      -4.272   9.031  -2.779  1.00  0.00    -0.550 OA
ENDBRANCH   3   4
ENDBRANCH   2   3
ENDBRANCH   1   2
BRANCH   1   7
ATOM      7  C   UNL     1      -1.304   8.237  -1.502  1.00  0.00     0.000 C 
BRANCH   7   8
ATOM      8  C   UNL     1       0.232   8.254  -1.503  1.00  0.00    -0.000 C 
BRANCH   8   9
ATOM      9  C   UNL     1       0.797   6.835  -1.625  1.00  0.00    -0.000 C 
BRANCH   9  10
ATOM     10  C   UNL     1       2.322   6.833  -1.467  1.00  0.00    -0.003 C 
ATOM     11  C   UNL     1       2.807   5.549  -0.802  1.00  0.00     0.004 C 
ENDBRANCH   9  10
ENDBRANCH   8   9
ENDBRANCH   7   8
ENDBRANCH   1   7
TORSDOF 7
ENDMDL
MODEL 6
REMARK VINA RESULT:    -2.350     10.881     11.534
REMARK INTER + INTRA:          -3.598
REMARK INTER:                  -3.530
REMARK INTRA:                  -0.068
REMARK UNBOUND:                -0.286
REMARK SMILES CCCCCCCCC(=O)[O-]
REMARK SMILES IDX 6 1 7 2 8 3 9 4 10 5 11 6 5 7 4 8 3 9 2 10 1 11
REMARK H PARENT
REMARK Flexibility Score: inf
ROOT
ATOM      1  C   UNL     1      -1.432   7.899  -1.466  1.00  0.00     0.000 C 
ENDROOT
BRANCH   1   2
ATOM      2  C   UNL     1      -2.204   8.675  -0.384  1.00  0.00     0.006 C 
BRANCH   2   3
ATOM      3  C   UNL     1      -3.694   8.315  -0.365  1.00  0.00     0.053 C 
BRANCH   3   4
ATOM      4  C   UNL     1      -4.460   9.060  -1.416  1.00  0.00     0.041 C 
ATOM      5  O   UNL     1      -4.169   8.916  -2.633  1.00  0.00    -0.550 OA
ATOM      6  O   UNL     1      -5.469   9.942  -1.049  1.00  0.00    -0.550 OA
ENDBRANCH   3   4
ENDBRANCH   2   3
ENDBRANCH   1   2
BRANCH   1   7
ATOM      7  C   UNL     1       0.067   8.234  -1.479  1.00  0.00     0.000 C 
BRANCH   7   8
ATOM      8  C   UNL     1       0.953   6.979  -1.535  1.00  0.00    -0.000 C 
BRANCH   8   9
ATOM      9  C   UNL     1       2.439   7.357  -1.532  1.00  0.00    -0.000 C 
BRANCH   9  10
ATOM     10  C   UNL     1       2.621   8.877  -1.596  1.00  0.00    -0.003 C 
ATOM     11  C   UNL     1       4.080   9.249  -1.842  1.00  0.00     0.004 C 
ENDBRANCH   9  10
ENDBRANCH   8   9
ENDBRANCH   7   8
ENDBRANCH   1   7
TORSDOF 7
ENDMDL
MODEL 7
REMARK VINA RESULT:    -1.770      1.805      2.343
REMARK INTER + INTRA:          -2.780
REMARK INTER:                  -2.863
REMARK INTRA:                   0.083
REMARK UNBOUND:                -0.286
REMARK SMILES CCCCCCCCC(=O)[O-]
REMARK SMILES IDX 6 1 7 2 8 3 9 4 10 5 11 6 5 7 4 8 3 9 2 10 1 11
REMARK H PARENT
REMARK Flexibility Score: inf
ROOT
ATOM      1  C   UNL     1      -4.093   5.222  10.103  1.00  0.00     0.000 C 
ENDROOT
BRANCH   1   2
ATOM      2  C   UNL     1      -5.355   4.423   9.734  1.00  0.00     0.006 C 
BRANCH   2   3
ATOM      3  C   UNL     1      -5.019   3.037   9.172  1.00  0.00     0.053 C 
BRANCH   3   4
ATOM      4  C   UNL     1      -4.393   3.124   7.813  1.00  0.00     0.041 C 
ATOM      5  O   UNL     1      -4.410   2.128   7.043  1.00  0.00    -0.550 OA
ATOM      6  O   UNL     1      -3.761   4.294   7.411  1.00  0.00    -0.550 OA
ENDBRANCH   3   4
ENDBRANCH   2   3
ENDBRANCH   1   2
BRANCH   1   7
ATOM      7  C   UNL     1      -4.337   6.739  10.125  1.00  0.00     0.000 C 
BRANCH   7   8
ATOM      8  C   UNL     1      -3.033   7.550  10.091  1.00  0.00    -0.000 C 
BRANCH   8   9
ATOM      9  C   UNL     1      -1.847   6.664   9.690  1.00  0.00    -0.000 C 
BRANCH   9  10
ATOM     10  C   UNL     1      -0.518   7.302  10.109  1.00  0.00    -0.003 C 
ATOM     11  C   UNL     1      -0.603   8.825  10.081  1.00  0.00     0.004 C 
ENDBRANCH   9  10
ENDBRANCH   8   9
ENDBRANCH   7   8
ENDBRANCH   1   7
TORSDOF 7
ENDMDL
MODEL 8
REMARK VINA RESULT:    -1.752      3.187      5.378
REMARK INTER + INTRA:          -2.754
REMARK INTER:                  -2.440
REMARK INTRA:                  -0.314
REMARK UNBOUND:                -0.286
REMARK SMILES CCCCCCCCC(=O)[O-]
REMARK SMILES IDX 6 1 7 2 8 3 9 4 10 5 11 6 5 7 4 8 3 9 2 10 1 11
REMARK H PARENT
REMARK Flexibility Score: inf
ROOT
ATOM      1  C   UNL     1      -5.187   6.017   9.869  1.00  0.00     0.000 C 
ENDROOT
BRANCH   1   2
ATOM      2  C   UNL     1      -4.079   7.054  10.125  1.00  0.00     0.006 C 
BRANCH   2   3
ATOM      3  C   UNL     1      -2.681   6.421  10.121  1.00  0.00     0.053 C 
BRANCH   3   4
ATOM      4  C   UNL     1      -1.605   7.450   9.951  1.00  0.00     0.041 C 
ATOM      5  O   UNL     1      -1.901   8.672   9.897  1.00  0.00    -0.550 OA
ATOM      6  O   UNL     1      -0.280   7.056   9.816  1.00  0.00    -0.550 OA
ENDBRANCH   3   4
ENDBRANCH   2   3
ENDBRANCH   1   2
BRANCH   1   7
ATOM      7  C   UNL     1      -4.665   4.572   9.908  1.00  0.00     0.000 C 
BRANCH   7   8
ATOM      8  C   UNL     1      -5.287   3.689   8.815  1.00  0.00    -0.000 C 
BRANCH   8   9
ATOM      9  C   UNL     1      -4.208   3.141   7.874  1.00  0.00    -0.000 C 
BRANCH   9  10
ATOM     10  C   UNL     1      -3.096   4.171   7.651  1.00  0.00    -0.003 C 
ATOM     11  C   UNL     1      -3.569   5.309   6.752  1.00  0.00     0.004 C 
ENDBRANCH   9  10
ENDBRANCH   8   9
ENDBRANCH   7   8
ENDBRANCH   1   7
TORSDOF 7
ENDMDL
