MODEL 1
REMARK VINA RESULT:    -2.879      0.000      0.000
REMARK INTER + INTRA:          -3.534
REMARK INTER:                  -3.384
REMARK INTRA:                  -0.151
REMARK UNBOUND:                -0.151
REMARK SMILES CCOC(=O)C(C)C
REMARK SMILES IDX 4 1 5 2 3 3 2 4 1 5 6 6 7 7 8 8
REMARK H PARENT
REMARK Flexibility Score: inf
ROOT
ATOM      1  C   UNL     1     202.238 198.823 217.495  1.00  0.00     0.308 C 
ATOM      2  O   UNL     1     201.533 197.807 217.742  1.00  0.00    -0.252 OA
ENDROOT
BRANCH   1   3
ATOM      3  O   UNL     1     203.433 198.703 216.772  1.00  0.00    -0.466 OA
BRANCH   3   4
ATOM      4  C   UNL     1     204.671 198.318 217.362  1.00  0.00     0.229 C 
ATOM      5  C   UNL     1     205.532 199.543 217.650  1.00  0.00     0.049 C 
ENDBRANCH   3   4
ENDBRANCH   1   3
BRANCH   1   6
ATOM      6  C   UNL     1     201.796 200.173 217.982  1.00  0.00     0.093 C 
ATOM      7  C   UNL     1     200.526 200.043 218.826  1.00  0.00     0.019 C 
ATOM      8  C   UNL     1     201.573 201.119 216.799  1.00  0.00     0.019 C 
ENDBRANCH   1   6
TORSDOF 3
ENDMDL
MODEL 2
REMARK VINA RESULT:    -2.648      1.156      1.521
REMARK INTER + INTRA:          -3.263
REMARK INTER:                  -3.106
REMARK INTRA:                  -0.157
REMARK UNBOUND:                -0.151
REMARK SMILES CCOC(=O)C(C)C
REMARK SMILES IDX 4 1 5 2 3 3 2 4 1 5 6 6 7 7 8 8
REMARK H PARENT
REMARK Flexibility Score: inf
ROOT
ATOM      1  C   UNL     1     203.177 199.589 216.610  1.00  0.00     0.308 C 
ATOM      2  O   UNL     1     203.280 199.613 215.353  1.00  0.00    -0.252 OA
ENDROOT
BRANCH   1   3
ATOM      3  O   UNL     1     203.674 198.505 217.346  1.00  0.00    -0.466 OA
BRANCH   3   4
ATOM      4  C   UNL     1     205.042 198.107 217.330  1.00  0.00     0.229 C 
ATOM      5  C   UNL     1     205.911 199.142 218.034  1.00  0.00     0.049 C 
ENDBRANCH   3   4
ENDBRANCH   1   3
BRANCH   1   6
ATOM      6  C   UNL     1     202.510 200.729 217.325  1.00  0.00     0.093 C 
ATOM      7  C   UNL     1     201.383 200.208 218.220  1.00  0.00     0.019 C 
ATOM      8  C   UNL     1     201.980 201.752 216.316  1.00  0.00     0.019 C 
ENDBRANCH   1   6
TORSDOF 3
ENDMDL
MODEL 3
REMARK VINA RESULT:    -2.626      1.759      4.155
REMARK INTER + INTRA:          -3.237
REMARK INTER:                  -3.162
REMARK INTRA:                  -0.075
REMARK UNBOUND:                -0.151
REMARK SMILES CCOC(=O)C(C)C
REMARK SMILES IDX 4 1 5 2 3 3 2 4 1 5 6 6 7 7 8 8
REMARK H PARENT
REMARK Flexibility Score: inf
ROOT
ATOM      1  C   UNL     1     201.247 199.700 218.173  1.00  0.00     0.308 C 
ATOM      2  O   UNL     1     201.317 198.455 217.979  1.00  0.00    -0.252 OA
ENDROOT
BRANCH   1   3
ATOM      3  O   UNL     1     200.149 200.256 218.841  1.00  0.00    -0.466 OA
BRANCH   3   4
ATOM      4  C   UNL     1     198.812 200.179 218.354  1.00  0.00     0.229 C 
ATOM      5  C   UNL     1     197.817 200.199 219.510  1.00  0.00     0.049 C 
ENDBRANCH   3   4
ENDBRANCH   1   3
BRANCH   1   6
ATOM      6  C   UNL     1     202.348 200.593 217.678  1.00  0.00     0.093 C 
ATOM      7  C   UNL     1     201.850 201.453 216.513  1.00  0.00     0.019 C 
ATOM      8  C   UNL     1     203.564 199.760 217.264  1.00  0.00     0.019 C 
ENDBRANCH   1   6
TORSDOF 3
ENDMDL
MODEL 4
REMARK VINA RESULT:    -2.587      1.512      2.966
REMARK INTER + INTRA:          -3.191
REMARK INTER:                  -3.011
REMARK INTRA:                  -0.180
REMARK UNBOUND:                -0.151
REMARK SMILES CCOC(=O)C(C)C
REMARK SMILES IDX 4 1 5 2 3 3 2 4 1 5 6 6 7 7 8 8
REMARK H PARENT
REMARK Flexibility Score: inf
ROOT
ATOM      1  C   UNL     1     202.247 199.012 217.466  1.00  0.00     0.308 C 
ATOM      2  O   UNL     1     203.314 199.031 216.792  1.00  0.00    -0.252 OA
ENDROOT
BRANCH   1   3
ATOM      3  O   UNL     1     201.636 197.795 217.798  1.00  0.00    -0.466 OA
BRANCH   3   4
ATOM      4  C   UNL     1     201.037 196.930 216.837  1.00  0.00     0.229 C 
ATOM      5  C   UNL     1     199.717 196.375 217.362  1.00  0.00     0.049 C 
ENDBRANCH   3   4
ENDBRANCH   1   3
BRANCH   1   6
ATOM      6  C   UNL     1     201.625 200.303 217.913  1.00  0.00     0.093 C 
ATOM      7  C   UNL     1     200.507 200.032 218.922  1.00  0.00     0.019 C 
ATOM      8  C   UNL     1     201.096 201.084 216.706  1.00  0.00     0.019 C 
ENDBRANCH   1   6
TORSDOF 3
ENDMDL
MODEL 5
REMARK VINA RESULT:    -2.536      8.370      9.651
REMARK INTER + INTRA:          -3.131
REMARK INTER:                  -3.017
REMARK INTRA:                  -0.114
REMARK UNBOUND:                -0.151
REMARK SMILES CCOC(=O)C(C)C
REMARK SMILES IDX 4 1 5 2 3 3 2 4 1 5 6 6 7 7 8 8
REMARK H PARENT
REMARK Flexibility Score: inf
ROOT
ATOM      1  C   UNL     1     197.272 205.950 217.023  1.00  0.00     0.308 C 
ATOM      2  O   UNL     1     198.353 205.429 216.635  1.00  0.00    -0.252 OA
ENDROOT
BRANCH   1   3
ATOM      3  O   UNL     1     196.533 206.779 216.168  1.00  0.00    -0.466 OA
BRANCH   3   4
ATOM      4  C   UNL     1     197.122 207.563 215.133  1.00  0.00     0.229 C 
ATOM      5  C   UNL     1     196.552 208.977 215.141  1.00  0.00     0.049 C 
ENDBRANCH   3   4
ENDBRANCH   1   3
BRANCH   1   6
ATOM      6  C   UNL     1     196.773 205.683 218.414  1.00  0.00     0.093 C 
ATOM      7  C   UNL     1     196.081 204.319 218.476  1.00  0.00     0.019 C 
ATOM      8  C   UNL     1     195.825 206.799 218.862  1.00  0.00     0.019 C 
ENDBRANCH   1   6
TORSDOF 3
ENDMDL
MODEL 6
REMARK VINA RESULT:    -2.524      9.364     10.888
REMARK INTER + INTRA:          -3.118
REMARK INTER:                  -3.037
REMARK INTRA:                  -0.081
REMARK UNBOUND:                -0.151
REMARK SMILES CCOC(=O)C(C)C
REMARK SMILES IDX 4 1 5 2 3 3 2 4 1 5 6 6 7 7 8 8
REMARK H PARENT
REMARK Flexibility Score: inf
ROOT
ATOM      1  C   UNL     1     195.759 207.147 216.343  1.00  0.00     0.308 C 
ATOM      2  O   UNL     1     194.548 206.843 216.161  1.00  0.00    -0.252 OA
ENDROOT
BRANCH   1   3
ATOM      3  O   UNL     1     196.488 207.803 215.342  1.00  0.00    -0.466 OA
BRANCH   3   4
ATOM      4  C   UNL     1     196.150 209.094 214.842  1.00  0.00     0.229 C 
ATOM      5  C   UNL     1     197.226 210.110 215.207  1.00  0.00     0.049 C 
ENDBRANCH   3   4
ENDBRANCH   1   3
BRANCH   1   6
ATOM      6  C   UNL     1     196.427 206.798 217.642  1.00  0.00     0.093 C 
ATOM      7  C   UNL     1     197.247 205.514 217.488  1.00  0.00     0.019 C 
ATOM      8  C   UNL     1     195.385 206.652 218.754  1.00  0.00     0.019 C 
ENDBRANCH   1   6
TORSDOF 3
ENDMDL
MODEL 7
REMARK VINA RESULT:    -2.484      2.634      3.605
REMARK INTER + INTRA:          -3.070
REMARK INTER:                  -2.881
REMARK INTRA:                  -0.189
REMARK UNBOUND:                -0.151
REMARK SMILES CCOC(=O)C(C)C
REMARK SMILES IDX 4 1 5 2 3 3 2 4 1 5 6 6 7 7 8 8
REMARK H PARENT
REMARK Flexibility Score: inf
ROOT
ATOM      1  C   UNL     1     201.588 201.425 216.470  1.00  0.00     0.308 C 
ATOM      2  O   UNL     1     200.521 200.991 215.957  1.00  0.00    -0.252 OA
ENDROOT
BRANCH   1   3
ATOM      3  O   UNL     1     202.237 202.543 215.928  1.00  0.00    -0.466 OA
BRANCH   3   4
ATOM      4  C   UNL     1     202.641 202.631 214.564  1.00  0.00     0.229 C 
ATOM      5  C   UNL     1     204.067 202.120 214.392  1.00  0.00     0.049 C 
ENDBRANCH   3   4
ENDBRANCH   1   3
BRANCH   1   6
ATOM      6  C   UNL     1     202.172 200.736 217.669  1.00  0.00     0.093 C 
ATOM      7  C   UNL     1     203.181 199.671 217.230  1.00  0.00     0.019 C 
ATOM      8  C   UNL     1     201.060 200.117 218.521  1.00  0.00     0.019 C 
ENDBRANCH   1   6
TORSDOF 3
ENDMDL
MODEL 8
REMARK VINA RESULT:    -2.471      1.131      3.988
REMARK INTER + INTRA:          -3.055
REMARK INTER:                  -2.876
REMARK INTRA:                  -0.179
REMARK UNBOUND:                -0.151
REMARK SMILES CCOC(=O)C(C)C
REMARK SMILES IDX 4 1 5 2 3 3 2 4 1 5 6 6 7 7 8 8
REMARK H PARENT
REMARK Flexibility Score: inf
ROOT
ATOM      1  C   UNL     1     204.181 198.456 216.829  1.00  0.00     0.308 C 
ATOM      2  O   UNL     1     204.293 198.665 215.590  1.00  0.00    -0.252 OA
ENDROOT
BRANCH   1   3
ATOM      3  O   UNL     1     202.920 198.261 217.408  1.00  0.00    -0.466 OA
BRANCH   3   4
ATOM      4  C   UNL     1     201.823 199.152 217.221  1.00  0.00     0.229 C 
ATOM      5  C   UNL     1     202.127 200.514 217.833  1.00  0.00     0.049 C 
ENDBRANCH   3   4
ENDBRANCH   1   3
BRANCH   1   6
ATOM      6  C   UNL     1     205.409 198.422 217.692  1.00  0.00     0.093 C 
ATOM      7  C   UNL     1     206.186 199.735 217.561  1.00  0.00     0.019 C 
ATOM      8  C   UNL     1     206.289 197.226 217.318  1.00  0.00     0.019 C 
ENDBRANCH   1   6
TORSDOF 3
ENDMDL
MODEL 9
REMARK VINA RESULT:    -2.442      2.347      5.128
REMARK INTER + INTRA:          -3.020
REMARK INTER:                  -2.943
REMARK INTRA:                  -0.078
REMARK UNBOUND:                -0.151
REMARK SMILES CCOC(=O)C(C)C
REMARK SMILES IDX 4 1 5 2 3 3 2 4 1 5 6 6 7 7 8 8
REMARK H PARENT
REMARK Flexibility Score: inf
ROOT
ATOM      1  C   UNL     1     206.335 199.365 217.445  1.00  0.00     0.308 C 
ATOM      2  O   UNL     1     206.985 200.260 216.839  1.00  0.00    -0.252 OA
ENDROOT
BRANCH   1   3
ATOM      3  O   UNL     1     204.989 199.565 217.780  1.00  0.00    -0.466 OA
BRANCH   3   4
ATOM      4  C   UNL     1     203.974 199.849 216.821  1.00  0.00     0.229 C 
ATOM      5  C   UNL     1     202.741 200.433 217.500  1.00  0.00     0.049 C 
ENDBRANCH   3   4
ENDBRANCH   1   3
BRANCH   1   6
ATOM      6  C   UNL     1     207.009 198.075 217.814  1.00  0.00     0.093 C 
ATOM      7  C   UNL     1     208.475 198.099 217.374  1.00  0.00     0.019 C 
ATOM      8  C   UNL     1     206.269 196.890 217.187  1.00  0.00     0.019 C 
ENDBRANCH   1   6
TORSDOF 3
ENDMDL
