MODEL 1
REMARK VINA RESULT:    -3.960      0.000      0.000
REMARK INTER + INTRA:          -8.326
REMARK INTER:                  -6.160
REMARK INTRA:                  -2.166
REMARK UNBOUND:                -2.166
REMARK SMILES COc1cc(CNC(=O)CCCCC=CC(C)C)ccc1O
REMARK SMILES IDX 11 1 12 2 13 3 14 4 15 5 16 6 17 7 18 8 10 9 8 10 9 11 7 12
REMARK SMILES IDX 6 14 5 15 4 16 19 17 3 18 20 19 21 20 2 21 1 22 22 23
REMARK H PARENT 7 13 22 24
REMARK Flexibility Score: inf
ROOT
ATOM      1  C   UNL     1     142.229 139.150 141.758  1.00  0.00     0.010 C 
ENDROOT
BRANCH   1   2
ATOM      2  C   UNL     1     140.995 138.750 142.591  1.00  0.00     0.005 C 
BRANCH   2   3
ATOM      3  C   UNL     1     139.704 138.608 141.763  1.00  0.00     0.027 C 
BRANCH   3   4
ATOM      4  C   UNL     1     139.815 137.484 140.760  1.00  0.00    -0.031 C 
ATOM      5  C   UNL     1     139.775 137.622 139.422  1.00  0.00    -0.028 C 
BRANCH   5   6
ATOM      6  C   UNL     1     139.585 138.933 138.689  1.00  0.00     0.005 C 
ATOM      7  C   UNL     1     138.537 138.768 137.582  1.00  0.00     0.012 C 
ATOM      8  C   UNL     1     140.912 139.412 138.090  1.00  0.00     0.012 C 
ENDBRANCH   5   6
ENDBRANCH   3   4
ENDBRANCH   2   3
ENDBRANCH   1   2
BRANCH   1   9
ATOM      9  C   UNL     1     142.962 140.409 142.249  1.00  0.00     0.100 C 
BRANCH   9  10
ATOM     10  C   UNL     1     142.366 141.685 141.723  1.00  0.00     0.220 C 
ATOM     11  O   UNL     1     142.409 142.733 142.423  1.00  0.00    -0.275 OA
ATOM     12  N   UNL     1     141.815 141.725 140.399  1.00  0.00    -0.352 N 
ATOM     13  H   UNL     1     141.872 140.870 139.799  1.00  0.00     0.163 HD
BRANCH  12  14
ATOM     14  C   UNL     1     141.030 142.855 139.910  1.00  0.00     0.151 C 
BRANCH  14  15
ATOM     15  C   UNL     1     139.567 142.521 139.983  1.00  0.00    -0.025 A 
ATOM     16  C   UNL     1     138.786 142.523 138.817  1.00  0.00     0.056 A 
ATOM     17  C   UNL     1     138.994 142.117 141.197  1.00  0.00     0.009 A 
ATOM     18  C   UNL     1     137.433 142.131 138.858  1.00  0.00     0.160 A 
ATOM     19  C   UNL     1     137.651 141.736 141.247  1.00  0.00     0.050 A 
ATOM     20  C   UNL     1     136.870 141.738 140.087  1.00  0.00     0.157 A 
BRANCH  18  21
ATOM     21  O   UNL     1     136.631 142.107 137.707  1.00  0.00    -0.493 OA
ATOM     22  C   UNL     1     135.857 143.208 137.239  1.00  0.00     0.278 C 
ENDBRANCH  18  21
BRANCH  20  23
ATOM     23  O   UNL     1     135.536 141.342 140.174  1.00  0.00    -0.504 OA
ATOM     24  H   UNL     1     134.818 141.942 140.560  1.00  0.00     0.293 HD
ENDBRANCH  20  23
ENDBRANCH  14  15
ENDBRANCH  12  14
ENDBRANCH   9  10
ENDBRANCH   1   9
TORSDOF 10
ENDMDL
MODEL 2
REMARK VINA RESULT:    -3.741      4.474      8.075
REMARK INTER + INTRA:          -7.985
REMARK INTER:                  -7.172
REMARK INTRA:                  -0.812
REMARK UNBOUND:                -2.166
REMARK SMILES COc1cc(CNC(=O)CCCCC=CC(C)C)ccc1O
REMARK SMILES IDX 11 1 12 2 13 3 14 4 15 5 16 6 17 7 18 8 10 9 8 10 9 11 7 12
REMARK SMILES IDX 6 14 5 15 4 16 19 17 3 18 20 19 21 20 2 21 1 22 22 23
REMARK H PARENT 7 13 22 24
REMARK Flexibility Score: inf
ROOT
ATOM      1  C   UNL     1     143.030 147.247 137.386  1.00  0.00     0.010 C 
ENDROOT
BRANCH   1   2
ATOM      2  C   UNL     1     142.902 148.780 137.482  1.00  0.00     0.005 C 
BRANCH   2   3
ATOM      3  C   UNL     1     141.453 149.273 137.654  1.00  0.00     0.027 C 
BRANCH   3   4
ATOM      4  C   UNL     1     140.650 148.329 138.518  1.00  0.00    -0.031 C 
ATOM      5  C   UNL     1     140.419 148.477 139.836  1.00  0.00    -0.028 C 
BRANCH   5   6
ATOM      6  C   UNL     1     140.949 149.612 140.688  1.00  0.00     0.005 C 
ATOM      7  C   UNL     1     142.438 149.395 140.982  1.00  0.00     0.012 C 
ATOM      8  C   UNL     1     140.163 149.711 142.000  1.00  0.00     0.012 C 
ENDBRANCH   5   6
ENDBRANCH   3   4
ENDBRANCH   2   3
ENDBRANCH   1   2
BRANCH   1   9
ATOM      9  C   UNL     1     143.402 146.545 138.703  1.00  0.00     0.100 C 
BRANCH   9  10
ATOM     10  C   UNL     1     142.476 145.413 139.054  1.00  0.00     0.220 C 
ATOM     11  O   UNL     1     141.882 144.782 138.138  1.00  0.00    -0.275 OA
ATOM     12  N   UNL     1     142.328 145.008 140.422  1.00  0.00    -0.352 N 
ATOM     13  H   UNL     1     142.899 145.484 141.157  1.00  0.00     0.163 HD
BRANCH  12  14
ATOM     14  C   UNL     1     141.291 144.076 140.856  1.00  0.00     0.151 C 
BRANCH  14  15
ATOM     15  C   UNL     1     141.924 142.779 141.276  1.00  0.00    -0.025 A 
ATOM     16  C   UNL     1     142.442 141.904 140.309  1.00  0.00     0.056 A 
ATOM     17  C   UNL     1     142.085 142.478 142.635  1.00  0.00     0.009 A 
ATOM     18  C   UNL     1     143.113 140.725 140.693  1.00  0.00     0.160 A 
ATOM     19  C   UNL     1     142.739 141.307 143.023  1.00  0.00     0.050 A 
ATOM     20  C   UNL     1     143.255 140.433 142.062  1.00  0.00     0.157 A 
BRANCH  18  21
ATOM     21  O   UNL     1     143.655 139.838 139.750  1.00  0.00    -0.493 OA
ATOM     22  C   UNL     1     142.928 139.266 138.667  1.00  0.00     0.278 C 
ENDBRANCH  18  21
BRANCH  20  23
ATOM     23  O   UNL     1     143.912 139.278 142.487  1.00  0.00    -0.504 OA
ATOM     24  H   UNL     1     143.640 138.355 142.171  1.00  0.00     0.293 HD
ENDBRANCH  20  23
ENDBRANCH  14  15
ENDBRANCH  12  14
ENDBRANCH   9  10
ENDBRANCH   1   9
TORSDOF 10
ENDMDL
MODEL 3
REMARK VINA RESULT:    -3.699      3.992      6.912
REMARK INTER + INTRA:          -7.919
REMARK INTER:                  -7.088
REMARK INTRA:                  -0.831
REMARK UNBOUND:                -2.166
REMARK SMILES COc1cc(CNC(=O)CCCCC=CC(C)C)ccc1O
REMARK SMILES IDX 11 1 12 2 13 3 14 4 15 5 16 6 17 7 18 8 10 9 8 10 9 11 7 12
REMARK SMILES IDX 6 14 5 15 4 16 19 17 3 18 20 19 21 20 2 21 1 22 22 23
REMARK H PARENT 7 13 22 24
REMARK Flexibility Score: inf
ROOT
ATOM      1  C   UNL     1     141.656 145.029 139.457  1.00  0.00     0.010 C 
ENDROOT
BRANCH   1   2
ATOM      2  C   UNL     1     142.841 145.828 138.878  1.00  0.00     0.005 C 
BRANCH   2   3
ATOM      3  C   UNL     1     142.599 147.348 138.824  1.00  0.00     0.027 C 
BRANCH   3   4
ATOM      4  C   UNL     1     141.123 147.671 138.849  1.00  0.00    -0.031 C 
ATOM      5  C   UNL     1     140.528 148.555 139.671  1.00  0.00    -0.028 C 
BRANCH   5   6
ATOM      6  C   UNL     1     141.238 149.365 140.736  1.00  0.00     0.005 C 
ATOM      7  C   UNL     1     140.285 149.644 141.904  1.00  0.00     0.012 C 
ATOM      8  C   UNL     1     141.756 150.684 140.151  1.00  0.00     0.012 C 
ENDBRANCH   5   6
ENDBRANCH   3   4
ENDBRANCH   2   3
ENDBRANCH   1   2
BRANCH   1   9
ATOM      9  C   UNL     1     142.052 143.797 140.288  1.00  0.00     0.100 C 
BRANCH   9  10
ATOM     10  C   UNL     1     140.900 143.200 141.048  1.00  0.00     0.220 C 
ATOM     11  O   UNL     1     140.931 143.166 142.309  1.00  0.00    -0.275 OA
ATOM     12  N   UNL     1     139.741 142.735 140.342  1.00  0.00    -0.352 N 
ATOM     13  H   UNL     1     139.696 142.855 139.304  1.00  0.00     0.163 HD
BRANCH  12  14
ATOM     14  C   UNL     1     138.693 141.949 140.987  1.00  0.00     0.151 C 
BRANCH  14  15
ATOM     15  C   UNL     1     139.040 140.489 140.916  1.00  0.00    -0.025 A 
ATOM     16  C   UNL     1     139.132 139.849 139.670  1.00  0.00     0.056 A 
ATOM     17  C   UNL     1     139.365 139.781 142.081  1.00  0.00     0.009 A 
ATOM     18  C   UNL     1     139.539 138.502 139.583  1.00  0.00     0.160 A 
ATOM     19  C   UNL     1     139.759 138.444 142.004  1.00  0.00     0.050 A 
ATOM     20  C   UNL     1     139.850 137.803 140.764  1.00  0.00     0.157 A 
BRANCH  18  21
ATOM     21  O   UNL     1     139.655 137.839 138.352  1.00  0.00    -0.493 OA
ATOM     22  C   UNL     1     138.589 137.160 137.696  1.00  0.00     0.278 C 
ENDBRANCH  18  21
BRANCH  20  23
ATOM     23  O   UNL     1     140.257 136.470 140.725  1.00  0.00    -0.504 OA
ATOM     24  H   UNL     1     141.187 136.180 141.002  1.00  0.00     0.293 HD
ENDBRANCH  20  23
ENDBRANCH  14  15
ENDBRANCH  12  14
ENDBRANCH   9  10
ENDBRANCH   1   9
TORSDOF 10
ENDMDL
MODEL 4
REMARK VINA RESULT:    -3.632      4.307      5.941
REMARK INTER + INTRA:          -7.815
REMARK INTER:                  -6.825
REMARK INTRA:                  -0.990
REMARK UNBOUND:                -2.166
REMARK SMILES COc1cc(CNC(=O)CCCCC=CC(C)C)ccc1O
REMARK SMILES IDX 11 1 12 2 13 3 14 4 15 5 16 6 17 7 18 8 10 9 8 10 9 11 7 12
REMARK SMILES IDX 6 14 5 15 4 16 19 17 3 18 20 19 21 20 2 21 1 22 22 23
REMARK H PARENT 7 13 22 24
REMARK Flexibility Score: inf
ROOT
ATOM      1  C   UNL     1     140.214 142.882 142.568  1.00  0.00     0.010 C 
ENDROOT
BRANCH   1   2
ATOM      2  C   UNL     1     139.349 142.089 141.567  1.00  0.00     0.005 C 
BRANCH   2   3
ATOM      3  C   UNL     1     138.375 141.101 142.234  1.00  0.00     0.027 C 
BRANCH   3   4
ATOM      4  C   UNL     1     139.114 140.074 143.060  1.00  0.00    -0.031 C 
ATOM      5  C   UNL     1     139.886 139.085 142.573  1.00  0.00    -0.028 C 
BRANCH   5   6
ATOM      6  C   UNL     1     140.127 138.816 141.103  1.00  0.00     0.005 C 
ATOM      7  C   UNL     1     139.850 137.341 140.787  1.00  0.00     0.012 C 
ATOM      8  C   UNL     1     141.568 139.174 140.721  1.00  0.00     0.012 C 
ENDBRANCH   5   6
ENDBRANCH   3   4
ENDBRANCH   2   3
ENDBRANCH   1   2
BRANCH   1   9
ATOM      9  C   UNL     1     141.715 142.921 142.236  1.00  0.00     0.100 C 
BRANCH   9  10
ATOM     10  C   UNL     1     141.999 143.325 140.816  1.00  0.00     0.220 C 
ATOM     11  O   UNL     1     142.414 142.466 139.991  1.00  0.00    -0.275 OA
ATOM     12  N   UNL     1     141.730 144.667 140.386  1.00  0.00    -0.352 N 
ATOM     13  H   UNL     1     141.300 145.340 141.061  1.00  0.00     0.163 HD
BRANCH  12  14
ATOM     14  C   UNL     1     142.184 145.183 139.098  1.00  0.00     0.151 C 
BRANCH  14  15
ATOM     15  C   UNL     1     142.223 146.685 139.143  1.00  0.00    -0.025 A 
ATOM     16  C   UNL     1     141.215 147.395 139.814  1.00  0.00     0.056 A 
ATOM     17  C   UNL     1     143.311 147.381 138.598  1.00  0.00     0.009 A 
ATOM     18  C   UNL     1     141.284 148.797 139.936  1.00  0.00     0.160 A 
ATOM     19  C   UNL     1     143.381 148.771 138.706  1.00  0.00     0.050 A 
ATOM     20  C   UNL     1     142.378 149.481 139.373  1.00  0.00     0.157 A 
BRANCH  18  21
ATOM     21  O   UNL     1     140.301 149.533 140.615  1.00  0.00    -0.493 OA
ATOM     22  C   UNL     1     140.221 149.662 142.032  1.00  0.00     0.278 C 
ENDBRANCH  18  21
BRANCH  20  23
ATOM     23  O   UNL     1     142.487 150.868 139.470  1.00  0.00    -0.504 OA
ATOM     24  H   UNL     1     142.905 151.322 140.273  1.00  0.00     0.293 HD
ENDBRANCH  20  23
ENDBRANCH  14  15
ENDBRANCH  12  14
ENDBRANCH   9  10
ENDBRANCH   1   9
TORSDOF 10
ENDMDL
MODEL 5
REMARK VINA RESULT:    -3.612      2.758      4.452
REMARK INTER + INTRA:          -7.784
REMARK INTER:                  -6.005
REMARK INTRA:                  -1.778
REMARK UNBOUND:                -2.166
REMARK SMILES COc1cc(CNC(=O)CCCCC=CC(C)C)ccc1O
REMARK SMILES IDX 11 1 12 2 13 3 14 4 15 5 16 6 17 7 18 8 10 9 8 10 9 11 7 12
REMARK SMILES IDX 6 14 5 15 4 16 19 17 3 18 20 19 21 20 2 21 1 22 22 23
REMARK H PARENT 7 13 22 24
REMARK Flexibility Score: inf
ROOT
ATOM      1  C   UNL     1     138.957 139.442 142.122  1.00  0.00     0.010 C 
ENDROOT
BRANCH   1   2
ATOM      2  C   UNL     1     138.683 140.868 142.642  1.00  0.00     0.005 C 
BRANCH   2   3
ATOM      3  C   UNL     1     137.939 141.765 141.635  1.00  0.00     0.027 C 
BRANCH   3   4
ATOM      4  C   UNL     1     138.814 142.107 140.452  1.00  0.00    -0.031 C 
ATOM      5  C   UNL     1     138.441 142.053 139.160  1.00  0.00    -0.028 C 
BRANCH   5   6
ATOM      6  C   UNL     1     137.078 141.615 138.668  1.00  0.00     0.005 C 
ATOM      7  C   UNL     1     137.230 140.718 137.434  1.00  0.00     0.012 C 
ATOM      8  C   UNL     1     136.212 142.834 138.328  1.00  0.00     0.012 C 
ENDBRANCH   5   6
ENDBRANCH   3   4
ENDBRANCH   2   3
ENDBRANCH   1   2
BRANCH   1   9
ATOM      9  C   UNL     1     140.158 138.736 142.772  1.00  0.00     0.100 C 
BRANCH   9  10
ATOM     10  C   UNL     1     141.484 139.244 142.278  1.00  0.00     0.220 C 
ATOM     11  O   UNL     1     142.498 139.180 143.025  1.00  0.00    -0.275 OA
ATOM     12  N   UNL     1     141.608 139.735 140.936  1.00  0.00    -0.352 N 
ATOM     13  H   UNL     1     140.777 139.694 140.302  1.00  0.00     0.163 HD
BRANCH  12  14
ATOM     14  C   UNL     1     142.796 140.441 140.465  1.00  0.00     0.151 C 
BRANCH  14  15
ATOM     15  C   UNL     1     142.504 141.912 140.374  1.00  0.00    -0.025 A 
ATOM     16  C   UNL     1     142.443 142.540 139.120  1.00  0.00     0.056 A 
ATOM     17  C   UNL     1     142.201 142.646 141.528  1.00  0.00     0.009 A 
ATOM     18  C   UNL     1     142.087 143.900 139.014  1.00  0.00     0.160 A 
ATOM     19  C   UNL     1     141.858 143.997 141.432  1.00  0.00     0.050 A 
ATOM     20  C   UNL     1     141.797 144.625 140.185  1.00  0.00     0.157 A 
BRANCH  18  21
ATOM     21  O   UNL     1     142.002 144.551 137.774  1.00  0.00    -0.493 OA
ATOM     22  C   UNL     1     143.056 145.306 137.183  1.00  0.00     0.278 C 
ENDBRANCH  18  21
BRANCH  20  23
ATOM     23  O   UNL     1     141.441 145.972 140.127  1.00  0.00    -0.504 OA
ATOM     24  H   UNL     1     140.667 146.303 139.564  1.00  0.00     0.293 HD
ENDBRANCH  20  23
ENDBRANCH  14  15
ENDBRANCH  12  14
ENDBRANCH   9  10
ENDBRANCH   1   9
TORSDOF 10
ENDMDL
MODEL 6
REMARK VINA RESULT:    -3.591      3.736      5.342
REMARK INTER + INTRA:          -7.752
REMARK INTER:                  -7.006
REMARK INTRA:                  -0.746
REMARK UNBOUND:                -2.166
REMARK SMILES COc1cc(CNC(=O)CCCCC=CC(C)C)ccc1O
REMARK SMILES IDX 11 1 12 2 13 3 14 4 15 5 16 6 17 7 18 8 10 9 8 10 9 11 7 12
REMARK SMILES IDX 6 14 5 15 4 16 19 17 3 18 20 19 21 20 2 21 1 22 22 23
REMARK H PARENT 7 13 22 24
REMARK Flexibility Score: inf
ROOT
ATOM      1  C   UNL     1     143.893 139.821 139.632  1.00  0.00     0.010 C 
ENDROOT
BRANCH   1   2
ATOM      2  C   UNL     1     145.209 139.202 139.118  1.00  0.00     0.005 C 
BRANCH   2   3
ATOM      3  C   UNL     1     146.472 139.806 139.760  1.00  0.00     0.027 C 
BRANCH   3   4
ATOM      4  C   UNL     1     147.436 140.306 138.710  1.00  0.00    -0.031 C 
ATOM      5  C   UNL     1     148.775 140.364 138.839  1.00  0.00    -0.028 C 
BRANCH   5   6
ATOM      6  C   UNL     1     149.546 139.957 140.077  1.00  0.00     0.005 C 
ATOM      7  C   UNL     1     149.583 141.119 141.077  1.00  0.00     0.012 C 
ATOM      8  C   UNL     1     150.972 139.535 139.708  1.00  0.00     0.012 C 
ENDBRANCH   5   6
ENDBRANCH   3   4
ENDBRANCH   2   3
ENDBRANCH   1   2
BRANCH   1   9
ATOM      9  C   UNL     1     143.583 139.544 141.112  1.00  0.00     0.100 C 
BRANCH   9  10
ATOM     10  C   UNL     1     142.886 140.687 141.796  1.00  0.00     0.220 C 
ATOM     11  O   UNL     1     142.683 140.644 143.040  1.00  0.00    -0.275 OA
ATOM     12  N   UNL     1     142.518 141.853 141.046  1.00  0.00    -0.352 N 
ATOM     13  H   UNL     1     142.777 141.909 140.034  1.00  0.00     0.163 HD
BRANCH  12  14
ATOM     14  C   UNL     1     141.651 142.895 141.590  1.00  0.00     0.151 C 
BRANCH  14  15
ATOM     15  C   UNL     1     140.217 142.571 141.279  1.00  0.00    -0.025 A 
ATOM     16  C   UNL     1     139.780 142.524 139.945  1.00  0.00     0.056 A 
ATOM     17  C   UNL     1     139.331 142.222 142.307  1.00  0.00     0.009 A 
ATOM     18  C   UNL     1     138.461 142.139 139.635  1.00  0.00     0.160 A 
ATOM     19  C   UNL     1     138.019 141.849 142.008  1.00  0.00     0.050 A 
ATOM     20  C   UNL     1     137.581 141.803 140.681  1.00  0.00     0.157 A 
BRANCH  18  21
ATOM     21  O   UNL     1     137.999 142.069 138.312  1.00  0.00    -0.493 OA
ATOM     22  C   UNL     1     138.806 142.297 137.161  1.00  0.00     0.278 C 
ENDBRANCH  18  21
BRANCH  20  23
ATOM     23  O   UNL     1     136.267 141.417 140.420  1.00  0.00    -0.504 OA
ATOM     24  H   UNL     1     136.014 140.455 140.231  1.00  0.00     0.293 HD
ENDBRANCH  20  23
ENDBRANCH  14  15
ENDBRANCH  12  14
ENDBRANCH   9  10
ENDBRANCH   1   9
TORSDOF 10
ENDMDL
MODEL 7
REMARK VINA RESULT:    -3.514      2.104      3.967
REMARK INTER + INTRA:          -7.632
REMARK INTER:                  -5.600
REMARK INTRA:                  -2.032
REMARK UNBOUND:                -2.166
REMARK SMILES COc1cc(CNC(=O)CCCCC=CC(C)C)ccc1O
REMARK SMILES IDX 11 1 12 2 13 3 14 4 15 5 16 6 17 7 18 8 10 9 8 10 9 11 7 12
REMARK SMILES IDX 6 14 5 15 4 16 19 17 3 18 20 19 21 20 2 21 1 22 22 23
REMARK H PARENT 7 13 22 24
REMARK Flexibility Score: inf
ROOT
ATOM      1  C   UNL     1     140.592 139.330 142.595  1.00  0.00     0.010 C 
ENDROOT
BRANCH   1   2
ATOM      2  C   UNL     1     142.115 139.259 142.830  1.00  0.00     0.005 C 
BRANCH   2   3
ATOM      3  C   UNL     1     142.874 140.517 142.367  1.00  0.00     0.027 C 
BRANCH   3   4
ATOM      4  C   UNL     1     142.795 140.686 140.868  1.00  0.00    -0.031 C 
ATOM      5  C   UNL     1     142.214 141.716 140.225  1.00  0.00    -0.028 C 
BRANCH   5   6
ATOM      6  C   UNL     1     141.515 142.878 140.901  1.00  0.00     0.005 C 
ATOM      7  C   UNL     1     140.013 142.592 141.013  1.00  0.00     0.012 C 
ATOM      8  C   UNL     1     141.747 144.174 140.116  1.00  0.00     0.012 C 
ENDBRANCH   5   6
ENDBRANCH   3   4
ENDBRANCH   2   3
ENDBRANCH   1   2
BRANCH   1   9
ATOM      9  C   UNL     1     139.956 138.029 142.078  1.00  0.00     0.100 C 
BRANCH   9  10
ATOM     10  C   UNL     1     139.793 138.001 140.584  1.00  0.00     0.220 C 
ATOM     11  O   UNL     1     140.028 136.938 139.947  1.00  0.00    -0.275 OA
ATOM     12  N   UNL     1     139.303 139.160 139.896  1.00  0.00    -0.352 N 
ATOM     13  H   UNL     1     139.026 140.002 140.452  1.00  0.00     0.163 HD
BRANCH  12  14
ATOM     14  C   UNL     1     139.329 139.278 138.441  1.00  0.00     0.151 C 
BRANCH  14  15
ATOM     15  C   UNL     1     138.893 140.659 138.039  1.00  0.00    -0.025 A 
ATOM     16  C   UNL     1     137.595 141.102 138.339  1.00  0.00     0.056 A 
ATOM     17  C   UNL     1     139.805 141.545 137.449  1.00  0.00     0.009 A 
ATOM     18  C   UNL     1     137.201 142.422 138.044  1.00  0.00     0.160 A 
ATOM     19  C   UNL     1     139.418 142.852 137.144  1.00  0.00     0.050 A 
ATOM     20  C   UNL     1     138.125 143.295 137.440  1.00  0.00     0.157 A 
BRANCH  18  21
ATOM     21  O   UNL     1     135.915 142.898 138.345  1.00  0.00    -0.493 OA
ATOM     22  C   UNL     1     135.100 142.408 139.406  1.00  0.00     0.278 C 
ENDBRANCH  18  21
BRANCH  20  23
ATOM     23  O   UNL     1     137.777 144.610 137.132  1.00  0.00    -0.504 OA
ATOM     24  H   UNL     1     138.245 145.135 136.403  1.00  0.00     0.293 HD
ENDBRANCH  20  23
ENDBRANCH  14  15
ENDBRANCH  12  14
ENDBRANCH   9  10
ENDBRANCH   1   9
TORSDOF 10
ENDMDL
