MODEL 1
REMARK VINA RESULT:    -3.268      0.000      0.000
REMARK INTER + INTRA:         -11.622
REMARK INTER:                  -8.619
REMARK INTRA:                  -3.003
REMARK UNBOUND:                -3.003
REMARK SMILES CCCCCCCCCCCCCCCCCCCCCCCCCCCCCC(=O)[O-]
REMARK SMILES IDX 16 1 17 2 18 3 19 4 20 5 21 6 22 7 23 8 24 9 25 10 26 11
REMARK SMILES IDX 27 12 28 13 29 14 30 15 31 16 32 17 15 18 14 19 13 20 12 21
REMARK SMILES IDX 11 22 10 23 9 24 8 25 7 26 6 27 5 28 4 29 3 30 2 31 1 32
REMARK H PARENT
REMARK Flexibility Score: inf
ROOT
ATOM      1  C   UNL     1      -8.514  -7.619 -25.867  1.00  0.00     0.000 C 
ENDROOT
BRANCH   1   2
ATOM      2  C   UNL     1      -9.946  -8.162 -25.725  1.00  0.00     0.000 C 
BRANCH   2   3
ATOM      3  C   UNL     1      -9.989  -9.700 -25.721  1.00  0.00     0.000 C 
BRANCH   3   4
ATOM      4  C   UNL     1     -10.815 -10.279 -26.882  1.00  0.00     0.000 C 
BRANCH   4   5
ATOM      5  C   UNL     1     -10.130 -11.484 -27.552  1.00  0.00     0.000 C 
BRANCH   5   6
ATOM      6  C   UNL     1     -10.920 -12.796 -27.376  1.00  0.00     0.000 C 
BRANCH   6   7
ATOM      7  C   UNL     1     -10.075 -14.010 -26.944  1.00  0.00     0.000 C 
BRANCH   7   8
ATOM      8  C   UNL     1      -8.722 -13.678 -26.284  1.00  0.00     0.000 C 
BRANCH   8   9
ATOM      9  C   UNL     1      -7.942 -14.915 -25.789  1.00  0.00     0.000 C 
BRANCH   9  10
ATOM     10  C   UNL     1      -6.591 -14.542 -25.152  1.00  0.00     0.000 C 
BRANCH  10  11
ATOM     11  C   UNL     1      -6.486 -14.979 -23.680  1.00  0.00     0.000 C 
BRANCH  11  12
ATOM     12  C   UNL     1      -7.724 -14.667 -22.814  1.00  0.00     0.000 C 
BRANCH  12  13
ATOM     13  C   UNL     1      -7.473 -13.726 -21.618  1.00  0.00     0.006 C 
BRANCH  13  14
ATOM     14  C   UNL     1      -8.423 -13.940 -20.429  1.00  0.00     0.053 C 
BRANCH  14  15
ATOM     15  C   UNL     1      -7.853 -13.403 -19.152  1.00  0.00     0.041 C 
ATOM     16  O   UNL     1      -6.741 -13.818 -18.732  1.00  0.00    -0.550 OA
ATOM     17  O   UNL     1      -8.563 -12.468 -18.411  1.00  0.00    -0.550 OA
ENDBRANCH  14  15
ENDBRANCH  13  14
ENDBRANCH  12  13
ENDBRANCH  11  12
ENDBRANCH  10  11
ENDBRANCH   9  10
ENDBRANCH   8   9
ENDBRANCH   7   8
ENDBRANCH   6   7
ENDBRANCH   5   6
ENDBRANCH   4   5
ENDBRANCH   3   4
ENDBRANCH   2   3
ENDBRANCH   1   2
BRANCH   1  18
ATOM     18  C   UNL     1      -8.073  -7.488 -27.336  1.00  0.00     0.000 C 
BRANCH  18  19
ATOM     19  C   UNL     1      -6.654  -8.045 -27.583  1.00  0.00     0.000 C 
BRANCH  19  20
ATOM     20  C   UNL     1      -5.758  -8.073 -26.330  1.00  0.00     0.000 C 
BRANCH  20  21
ATOM     21  C   UNL     1      -5.057  -6.743 -25.993  1.00  0.00     0.000 C 
BRANCH  21  22
ATOM     22  C   UNL     1      -4.937  -5.746 -27.166  1.00  0.00     0.000 C 
BRANCH  22  23
ATOM     23  C   UNL     1      -5.792  -4.473 -27.030  1.00  0.00     0.000 C 
BRANCH  23  24
ATOM     24  C   UNL     1      -6.269  -4.225 -25.592  1.00  0.00    -0.000 C 
BRANCH  24  25
ATOM     25  C   UNL     1      -7.799  -4.093 -25.536  1.00  0.00    -0.000 C 
BRANCH  25  26
ATOM     26  C   UNL     1      -8.270  -3.181 -24.392  1.00  0.00    -0.000 C 
BRANCH  26  27
ATOM     27  C   UNL     1      -7.316  -2.000 -24.144  1.00  0.00    -0.000 C 
BRANCH  27  28
ATOM     28  C   UNL     1      -8.056  -0.664 -23.952  1.00  0.00    -0.000 C 
BRANCH  28  29
ATOM     29  C   UNL     1      -8.378   0.089 -25.256  1.00  0.00    -0.000 C 
BRANCH  29  30
ATOM     30  C   UNL     1      -9.852  -0.051 -25.677  1.00  0.00    -0.000 C 
BRANCH  30  31
ATOM     31  C   UNL     1     -10.034  -0.997 -26.873  1.00  0.00    -0.003 C 
ATOM     32  C   UNL     1      -8.751  -1.173 -27.687  1.00  0.00     0.004 C 
ENDBRANCH  30  31
ENDBRANCH  29  30
ENDBRANCH  28  29
ENDBRANCH  27  28
ENDBRANCH  26  27
ENDBRANCH  25  26
ENDBRANCH  24  25
ENDBRANCH  23  24
ENDBRANCH  22  23
ENDBRANCH  21  22
ENDBRANCH  20  21
ENDBRANCH  19  20
ENDBRANCH  18  19
ENDBRANCH   1  18
TORSDOF 28
ENDMDL
MODEL 2
REMARK VINA RESULT:    -3.207      3.192      5.947
REMARK INTER + INTRA:         -11.458
REMARK INTER:                  -7.937
REMARK INTRA:                  -3.521
REMARK UNBOUND:                -3.003
REMARK SMILES CCCCCCCCCCCCCCCCCCCCCCCCCCCCCC(=O)[O-]
REMARK SMILES IDX 16 1 17 2 18 3 19 4 20 5 21 6 22 7 23 8 24 9 25 10 26 11
REMARK SMILES IDX 27 12 28 13 29 14 30 15 31 16 32 17 15 18 14 19 13 20 12 21
REMARK SMILES IDX 11 22 10 23 9 24 8 25 7 26 6 27 5 28 4 29 3 30 2 31 1 32
REMARK H PARENT
REMARK Flexibility Score: inf
ROOT
ATOM      1  C   UNL     1      -5.957  -4.079 -25.681  1.00  0.00     0.000 C 
ENDROOT
BRANCH   1   2
ATOM      2  C   UNL     1      -5.352  -5.459 -25.984  1.00  0.00     0.000 C 
BRANCH   2   3
ATOM      3  C   UNL     1      -6.393  -6.588 -25.881  1.00  0.00     0.000 C 
BRANCH   3   4
ATOM      4  C   UNL     1      -7.840  -6.067 -25.846  1.00  0.00     0.000 C 
BRANCH   4   5
ATOM      5  C   UNL     1      -8.666  -6.535 -27.057  1.00  0.00     0.000 C 
BRANCH   5   6
ATOM      6  C   UNL     1      -8.811  -8.067 -27.128  1.00  0.00     0.000 C 
BRANCH   6   7
ATOM      7  C   UNL     1      -9.650  -8.694 -25.997  1.00  0.00     0.000 C 
BRANCH   7   8
ATOM      8  C   UNL     1     -10.080 -10.157 -26.219  1.00  0.00     0.000 C 
BRANCH   8   9
ATOM      9  C   UNL     1     -11.390 -10.314 -27.022  1.00  0.00     0.000 C 
BRANCH   9  10
ATOM     10  C   UNL     1     -11.607 -11.755 -27.517  1.00  0.00     0.000 C 
BRANCH  10  11
ATOM     11  C   UNL     1     -12.566 -12.557 -26.618  1.00  0.00     0.000 C 
BRANCH  11  12
ATOM     12  C   UNL     1     -12.404 -14.090 -26.692  1.00  0.00     0.000 C 
BRANCH  12  13
ATOM     13  C   UNL     1     -11.129 -14.585 -27.404  1.00  0.00     0.006 C 
BRANCH  13  14
ATOM     14  C   UNL     1     -10.042 -15.124 -26.461  1.00  0.00     0.053 C 
BRANCH  14  15
ATOM     15  C   UNL     1      -8.710 -14.491 -26.722  1.00  0.00     0.041 C 
ATOM     16  O   UNL     1      -8.392 -13.422 -26.137  1.00  0.00    -0.550 OA
ATOM     17  O   UNL     1      -7.832 -15.064 -27.634  1.00  0.00    -0.550 OA
ENDBRANCH  14  15
ENDBRANCH  13  14
ENDBRANCH  12  13
ENDBRANCH  11  12
ENDBRANCH  10  11
ENDBRANCH   9  10
ENDBRANCH   8   9
ENDBRANCH   7   8
ENDBRANCH   6   7
ENDBRANCH   5   6
ENDBRANCH   4   5
ENDBRANCH   3   4
ENDBRANCH   2   3
ENDBRANCH   1   2
BRANCH   1  18
ATOM     18  C   UNL     1      -5.748  -3.075 -26.830  1.00  0.00     0.000 C 
BRANCH  18  19
ATOM     19  C   UNL     1      -7.079  -2.570 -27.428  1.00  0.00     0.000 C 
BRANCH  19  20
ATOM     20  C   UNL     1      -8.244  -2.513 -26.422  1.00  0.00     0.000 C 
BRANCH  20  21
ATOM     21  C   UNL     1      -9.495  -1.756 -26.907  1.00  0.00     0.000 C 
BRANCH  21  22
ATOM     22  C   UNL     1      -9.866  -0.502 -26.087  1.00  0.00     0.000 C 
BRANCH  22  23
ATOM     23  C   UNL     1      -9.960   0.803 -26.898  1.00  0.00     0.000 C 
BRANCH  23  24
ATOM     24  C   UNL     1      -8.833   1.792 -26.572  1.00  0.00    -0.000 C 
BRANCH  24  25
ATOM     25  C   UNL     1      -7.658   1.627 -27.549  1.00  0.00    -0.000 C 
BRANCH  25  26
ATOM     26  C   UNL     1      -6.445   2.489 -27.163  1.00  0.00    -0.000 C 
BRANCH  26  27
ATOM     27  C   UNL     1      -5.141   1.676 -27.082  1.00  0.00    -0.000 C 
BRANCH  27  28
ATOM     28  C   UNL     1      -5.108   0.717 -25.878  1.00  0.00    -0.000 C 
BRANCH  28  29
ATOM     29  C   UNL     1      -5.010   1.408 -24.505  1.00  0.00    -0.000 C 
BRANCH  29  30
ATOM     30  C   UNL     1      -6.163   1.024 -23.560  1.00  0.00    -0.000 C 
BRANCH  30  31
ATOM     31  C   UNL     1      -6.917  -0.228 -24.033  1.00  0.00    -0.003 C 
ATOM     32  C   UNL     1      -7.083  -1.270 -22.926  1.00  0.00     0.004 C 
ENDBRANCH  30  31
ENDBRANCH  29  30
ENDBRANCH  28  29
ENDBRANCH  27  28
ENDBRANCH  26  27
ENDBRANCH  25  26
ENDBRANCH  24  25
ENDBRANCH  23  24
ENDBRANCH  22  23
ENDBRANCH  21  22
ENDBRANCH  20  21
ENDBRANCH  19  20
ENDBRANCH  18  19
ENDBRANCH   1  18
TORSDOF 28
ENDMDL
MODEL 3
REMARK VINA RESULT:    -3.116      3.187      6.307
REMARK INTER + INTRA:         -11.220
REMARK INTER:                  -8.204
REMARK INTRA:                  -3.015
REMARK UNBOUND:                -3.003
REMARK SMILES CCCCCCCCCCCCCCCCCCCCCCCCCCCCCC(=O)[O-]
REMARK SMILES IDX 16 1 17 2 18 3 19 4 20 5 21 6 22 7 23 8 24 9 25 10 26 11
REMARK SMILES IDX 27 12 28 13 29 14 30 15 31 16 32 17 15 18 14 19 13 20 12 21
REMARK SMILES IDX 11 22 10 23 9 24 8 25 7 26 6 27 5 28 4 29 3 30 2 31 1 32
REMARK H PARENT
REMARK Flexibility Score: inf
ROOT
ATOM      1  C   UNL     1      -7.486  -2.533 -24.546  1.00  0.00     0.000 C 
ENDROOT
BRANCH   1   2
ATOM      2  C   UNL     1      -7.135  -3.116 -25.924  1.00  0.00     0.000 C 
BRANCH   2   3
ATOM      3  C   UNL     1      -6.738  -4.601 -25.846  1.00  0.00     0.000 C 
BRANCH   3   4
ATOM      4  C   UNL     1      -7.949  -5.548 -25.883  1.00  0.00     0.000 C 
BRANCH   4   5
ATOM      5  C   UNL     1      -8.549  -5.685 -27.294  1.00  0.00     0.000 C 
BRANCH   5   6
ATOM      6  C   UNL     1      -8.903  -7.142 -27.655  1.00  0.00     0.000 C 
BRANCH   6   7
ATOM      7  C   UNL     1      -9.731  -7.892 -26.593  1.00  0.00     0.000 C 
BRANCH   7   8
ATOM      8  C   UNL     1      -9.240  -9.312 -26.249  1.00  0.00     0.000 C 
BRANCH   8   9
ATOM      9  C   UNL     1     -10.369 -10.292 -25.863  1.00  0.00     0.000 C 
BRANCH   9  10
ATOM     10  C   UNL     1     -10.986 -10.991 -27.088  1.00  0.00     0.000 C 
BRANCH  10  11
ATOM     11  C   UNL     1     -11.999 -12.084 -26.704  1.00  0.00     0.000 C 
BRANCH  11  12
ATOM     12  C   UNL     1     -11.610 -13.516 -27.130  1.00  0.00     0.000 C 
BRANCH  12  13
ATOM     13  C   UNL     1     -10.136 -13.703 -27.546  1.00  0.00     0.006 C 
BRANCH  13  14
ATOM     14  C   UNL     1      -9.233 -14.281 -26.445  1.00  0.00     0.053 C 
BRANCH  14  15
ATOM     15  C   UNL     1      -7.829 -13.768 -26.545  1.00  0.00     0.041 C 
ATOM     16  O   UNL     1      -6.891 -14.547 -26.857  1.00  0.00    -0.550 OA
ATOM     17  O   UNL     1      -7.553 -12.436 -26.263  1.00  0.00    -0.550 OA
ENDBRANCH  14  15
ENDBRANCH  13  14
ENDBRANCH  12  13
ENDBRANCH  11  12
ENDBRANCH  10  11
ENDBRANCH   9  10
ENDBRANCH   8   9
ENDBRANCH   7   8
ENDBRANCH   6   7
ENDBRANCH   5   6
ENDBRANCH   4   5
ENDBRANCH   3   4
ENDBRANCH   2   3
ENDBRANCH   1   2
BRANCH   1  18
ATOM     18  C   UNL     1      -6.376  -2.765 -23.504  1.00  0.00     0.000 C 
BRANCH  18  19
ATOM     19  C   UNL     1      -5.691  -1.454 -23.062  1.00  0.00     0.000 C 
BRANCH  19  20
ATOM     20  C   UNL     1      -6.047  -0.230 -23.928  1.00  0.00     0.000 C 
BRANCH  20  21
ATOM     21  C   UNL     1      -6.353   1.062 -23.148  1.00  0.00     0.000 C 
BRANCH  21  22
ATOM     22  C   UNL     1      -5.377   2.231 -23.400  1.00  0.00     0.000 C 
BRANCH  22  23
ATOM     23  C   UNL     1      -4.925   2.398 -24.862  1.00  0.00     0.000 C 
BRANCH  23  24
ATOM     24  C   UNL     1      -5.303   3.763 -25.452  1.00  0.00    -0.000 C 
BRANCH  24  25
ATOM     25  C   UNL     1      -6.201   3.596 -26.689  1.00  0.00    -0.000 C 
BRANCH  25  26
ATOM     26  C   UNL     1      -7.649   3.237 -26.322  1.00  0.00    -0.000 C 
BRANCH  26  27
ATOM     27  C   UNL     1      -8.457   2.725 -27.527  1.00  0.00    -0.000 C 
BRANCH  27  28
ATOM     28  C   UNL     1      -8.504   1.188 -27.605  1.00  0.00    -0.000 C 
BRANCH  28  29
ATOM     29  C   UNL     1      -8.610   0.475 -26.244  1.00  0.00    -0.000 C 
BRANCH  29  30
ATOM     30  C   UNL     1      -9.980  -0.189 -26.022  1.00  0.00    -0.000 C 
BRANCH  30  31
ATOM     31  C   UNL     1     -10.651  -0.605 -27.340  1.00  0.00    -0.003 C 
ATOM     32  C   UNL     1     -10.346  -2.052 -27.726  1.00  0.00     0.004 C 
ENDBRANCH  30  31
ENDBRANCH  29  30
ENDBRANCH  28  29
ENDBRANCH  27  28
ENDBRANCH  26  27
ENDBRANCH  25  26
ENDBRANCH  24  25
ENDBRANCH  23  24
ENDBRANCH  22  23
ENDBRANCH  21  22
ENDBRANCH  20  21
ENDBRANCH  19  20
ENDBRANCH  18  19
ENDBRANCH   1  18
TORSDOF 28
ENDMDL
MODEL 4
REMARK VINA RESULT:    -3.084      2.779      5.521
REMARK INTER + INTRA:         -11.136
REMARK INTER:                  -8.185
REMARK INTRA:                  -2.952
REMARK UNBOUND:                -3.003
REMARK SMILES CCCCCCCCCCCCCCCCCCCCCCCCCCCCCC(=O)[O-]
REMARK SMILES IDX 16 1 17 2 18 3 19 4 20 5 21 6 22 7 23 8 24 9 25 10 26 11
REMARK SMILES IDX 27 12 28 13 29 14 30 15 31 16 32 17 15 18 14 19 13 20 12 21
REMARK SMILES IDX 11 22 10 23 9 24 8 25 7 26 6 27 5 28 4 29 3 30 2 31 1 32
REMARK H PARENT
REMARK Flexibility Score: inf
ROOT
ATOM      1  C   UNL     1      -6.246  -3.364 -25.756  1.00  0.00     0.000 C 
ENDROOT
BRANCH   1   2
ATOM      2  C   UNL     1      -6.330  -4.893 -25.887  1.00  0.00     0.000 C 
BRANCH   2   3
ATOM      3  C   UNL     1      -7.745  -5.427 -25.601  1.00  0.00     0.000 C 
BRANCH   3   4
ATOM      4  C   UNL     1      -8.245  -6.404 -26.678  1.00  0.00     0.000 C 
BRANCH   4   5
ATOM      5  C   UNL     1      -9.170  -7.493 -26.106  1.00  0.00     0.000 C 
BRANCH   5   6
ATOM      6  C   UNL     1     -10.094  -8.115 -27.171  1.00  0.00     0.000 C 
BRANCH   6   7
ATOM      7  C   UNL     1      -9.430  -9.181 -28.065  1.00  0.00     0.000 C 
BRANCH   7   8
ATOM      8  C   UNL     1      -9.698 -10.645 -27.665  1.00  0.00     0.000 C 
BRANCH   8   9
ATOM      9  C   UNL     1     -10.756 -10.811 -26.552  1.00  0.00     0.000 C 
BRANCH   9  10
ATOM     10  C   UNL     1     -11.635 -12.058 -26.758  1.00  0.00     0.000 C 
BRANCH  10  11
ATOM     11  C   UNL     1     -11.171 -12.927 -27.940  1.00  0.00     0.000 C 
BRANCH  11  12
ATOM     12  C   UNL     1     -11.105 -14.442 -27.653  1.00  0.00     0.000 C 
BRANCH  12  13
ATOM     13  C   UNL     1      -9.693 -15.000 -27.382  1.00  0.00     0.006 C 
BRANCH  13  14
ATOM     14  C   UNL     1      -9.189 -14.789 -25.946  1.00  0.00     0.053 C 
BRANCH  14  15
ATOM     15  C   UNL     1      -7.964 -13.929 -25.902  1.00  0.00     0.041 C 
ATOM     16  O   UNL     1      -7.302 -13.823 -24.836  1.00  0.00    -0.550 OA
ATOM     17  O   UNL     1      -7.570 -13.219 -27.029  1.00  0.00    -0.550 OA
ENDBRANCH  14  15
ENDBRANCH  13  14
ENDBRANCH  12  13
ENDBRANCH  11  12
ENDBRANCH  10  11
ENDBRANCH   9  10
ENDBRANCH   8   9
ENDBRANCH   7   8
ENDBRANCH   6   7
ENDBRANCH   5   6
ENDBRANCH   4   5
ENDBRANCH   3   4
ENDBRANCH   2   3
ENDBRANCH   1   2
BRANCH   1  18
ATOM     18  C   UNL     1      -5.539  -2.704 -26.954  1.00  0.00     0.000 C 
BRANCH  18  19
ATOM     19  C   UNL     1      -6.470  -1.763 -27.750  1.00  0.00     0.000 C 
BRANCH  19  20
ATOM     20  C   UNL     1      -7.874  -2.338 -28.015  1.00  0.00     0.000 C 
BRANCH  20  21
ATOM     21  C   UNL     1      -9.002  -1.295 -28.124  1.00  0.00     0.000 C 
BRANCH  21  22
ATOM     22  C   UNL     1      -9.960  -1.232 -26.915  1.00  0.00     0.000 C 
BRANCH  22  23
ATOM     23  C   UNL     1     -10.042   0.139 -26.220  1.00  0.00     0.000 C 
BRANCH  23  24
ATOM     24  C   UNL     1      -9.832   0.051 -24.702  1.00  0.00    -0.000 C 
BRANCH  24  25
ATOM     25  C   UNL     1      -8.937  -1.144 -24.339  1.00  0.00    -0.000 C 
BRANCH  25  26
ATOM     26  C   UNL     1      -7.445  -0.776 -24.310  1.00  0.00    -0.000 C 
BRANCH  26  27
ATOM     27  C   UNL     1      -6.711  -1.369 -23.095  1.00  0.00    -0.000 C 
BRANCH  27  28
ATOM     28  C   UNL     1      -5.267  -0.853 -22.959  1.00  0.00    -0.000 C 
BRANCH  28  29
ATOM     29  C   UNL     1      -5.080   0.639 -23.295  1.00  0.00    -0.000 C 
BRANCH  29  30
ATOM     30  C   UNL     1      -5.500   1.567 -22.142  1.00  0.00    -0.000 C 
BRANCH  30  31
ATOM     31  C   UNL     1      -6.099   2.890 -22.641  1.00  0.00    -0.003 C 
ATOM     32  C   UNL     1      -7.011   2.704 -23.854  1.00  0.00     0.004 C 
ENDBRANCH  30  31
ENDBRANCH  29  30
ENDBRANCH  28  29
ENDBRANCH  27  28
ENDBRANCH  26  27
ENDBRANCH  25  26
ENDBRANCH  24  25
ENDBRANCH  23  24
ENDBRANCH  22  23
ENDBRANCH  21  22
ENDBRANCH  20  21
ENDBRANCH  19  20
ENDBRANCH  18  19
ENDBRANCH   1  18
TORSDOF 28
ENDMDL
MODEL 5
REMARK VINA RESULT:    -3.033      1.605      2.316
REMARK INTER + INTRA:         -11.001
REMARK INTER:                  -8.559
REMARK INTRA:                  -2.442
REMARK UNBOUND:                -3.003
REMARK SMILES CCCCCCCCCCCCCCCCCCCCCCCCCCCCCC(=O)[O-]
REMARK SMILES IDX 16 1 17 2 18 3 19 4 20 5 21 6 22 7 23 8 24 9 25 10 26 11
REMARK SMILES IDX 27 12 28 13 29 14 30 15 31 16 32 17 15 18 14 19 13 20 12 21
REMARK SMILES IDX 11 22 10 23 9 24 8 25 7 26 6 27 5 28 4 29 3 30 2 31 1 32
REMARK H PARENT
REMARK Flexibility Score: inf
ROOT
ATOM      1  C   UNL     1      -8.814  -7.732 -26.240  1.00  0.00     0.000 C 
ENDROOT
BRANCH   1   2
ATOM      2  C   UNL     1     -10.164  -8.395 -25.925  1.00  0.00     0.000 C 
BRANCH   2   3
ATOM      3  C   UNL     1     -10.021  -9.898 -25.626  1.00  0.00     0.000 C 
BRANCH   3   4
ATOM      4  C   UNL     1     -10.831 -10.780 -26.592  1.00  0.00     0.000 C 
BRANCH   4   5
ATOM      5  C   UNL     1      -9.938 -11.688 -27.455  1.00  0.00     0.000 C 
BRANCH   5   6
ATOM      6  C   UNL     1      -9.922 -13.150 -26.968  1.00  0.00     0.000 C 
BRANCH   6   7
ATOM      7  C   UNL     1      -8.622 -13.922 -27.271  1.00  0.00     0.000 C 
BRANCH   7   8
ATOM      8  C   UNL     1      -7.425 -13.593 -26.357  1.00  0.00     0.000 C 
BRANCH   8   9
ATOM      9  C   UNL     1      -6.420 -14.753 -26.193  1.00  0.00     0.000 C 
BRANCH   9  10
ATOM     10  C   UNL     1      -5.812 -14.809 -24.780  1.00  0.00     0.000 C 
BRANCH  10  11
ATOM     11  C   UNL     1      -6.880 -14.803 -23.671  1.00  0.00     0.000 C 
BRANCH  11  12
ATOM     12  C   UNL     1      -6.385 -14.328 -22.288  1.00  0.00     0.000 C 
BRANCH  12  13
ATOM     13  C   UNL     1      -7.473 -13.745 -21.363  1.00  0.00     0.006 C 
BRANCH  13  14
ATOM     14  C   UNL     1      -7.245 -14.011 -19.867  1.00  0.00     0.053 C 
BRANCH  14  15
ATOM     15  C   UNL     1      -8.397 -13.543 -19.032  1.00  0.00     0.041 C 
ATOM     16  O   UNL     1      -8.195 -12.812 -18.027  1.00  0.00    -0.550 OA
ATOM     17  O   UNL     1      -9.691 -13.939 -19.347  1.00  0.00    -0.550 OA
ENDBRANCH  14  15
ENDBRANCH  13  14
ENDBRANCH  12  13
ENDBRANCH  11  12
ENDBRANCH  10  11
ENDBRANCH   9  10
ENDBRANCH   8   9
ENDBRANCH   7   8
ENDBRANCH   6   7
ENDBRANCH   5   6
ENDBRANCH   4   5
ENDBRANCH   3   4
ENDBRANCH   2   3
ENDBRANCH   1   2
BRANCH   1  18
ATOM     18  C   UNL     1      -8.412  -7.878 -27.718  1.00  0.00     0.000 C 
BRANCH  18  19
ATOM     19  C   UNL     1      -7.139  -8.732 -27.907  1.00  0.00     0.000 C 
BRANCH  19  20
ATOM     20  C   UNL     1      -6.299  -8.907 -26.628  1.00  0.00     0.000 C 
BRANCH  20  21
ATOM     21  C   UNL     1      -5.283  -7.783 -26.349  1.00  0.00     0.000 C 
BRANCH  21  22
ATOM     22  C   UNL     1      -4.919  -6.907 -27.568  1.00  0.00     0.000 C 
BRANCH  22  23
ATOM     23  C   UNL     1      -5.486  -5.477 -27.535  1.00  0.00     0.000 C 
BRANCH  23  24
ATOM     24  C   UNL     1      -5.933  -5.044 -26.133  1.00  0.00    -0.000 C 
BRANCH  24  25
ATOM     25  C   UNL     1      -7.387  -4.544 -26.149  1.00  0.00    -0.000 C 
BRANCH  25  26
ATOM     26  C   UNL     1      -7.720  -3.661 -24.937  1.00  0.00    -0.000 C 
BRANCH  26  27
ATOM     27  C   UNL     1      -6.635  -2.608 -24.653  1.00  0.00    -0.000 C 
BRANCH  27  28
ATOM     28  C   UNL     1      -6.526  -2.249 -23.160  1.00  0.00    -0.000 C 
BRANCH  28  29
ATOM     29  C   UNL     1      -6.966  -0.816 -22.806  1.00  0.00    -0.000 C 
BRANCH  29  30
ATOM     30  C   UNL     1      -5.793   0.179 -22.783  1.00  0.00    -0.000 C 
BRANCH  30  31
ATOM     31  C   UNL     1      -6.164   1.509 -22.111  1.00  0.00    -0.003 C 
ATOM     32  C   UNL     1      -5.093   2.585 -22.300  1.00  0.00     0.004 C 
ENDBRANCH  30  31
ENDBRANCH  29  30
ENDBRANCH  28  29
ENDBRANCH  27  28
ENDBRANCH  26  27
ENDBRANCH  25  26
ENDBRANCH  24  25
ENDBRANCH  23  24
ENDBRANCH  22  23
ENDBRANCH  21  22
ENDBRANCH  20  21
ENDBRANCH  19  20
ENDBRANCH  18  19
ENDBRANCH   1  18
TORSDOF 28
ENDMDL
MODEL 6
REMARK VINA RESULT:    -2.707      3.319      4.182
REMARK INTER + INTRA:         -10.140
REMARK INTER:                  -7.372
REMARK INTRA:                  -2.768
REMARK UNBOUND:                -3.003
REMARK SMILES CCCCCCCCCCCCCCCCCCCCCCCCCCCCCC(=O)[O-]
REMARK SMILES IDX 16 1 17 2 18 3 19 4 20 5 21 6 22 7 23 8 24 9 25 10 26 11
REMARK SMILES IDX 27 12 28 13 29 14 30 15 31 16 32 17 15 18 14 19 13 20 12 21
REMARK SMILES IDX 11 22 10 23 9 24 8 25 7 26 6 27 5 28 4 29 3 30 2 31 1 32
REMARK H PARENT
REMARK Flexibility Score: inf
ROOT
ATOM      1  C   UNL     1      -9.024  -8.271 -25.753  1.00  0.00     0.000 C 
ENDROOT
BRANCH   1   2
ATOM      2  C   UNL     1      -9.988  -9.449 -25.967  1.00  0.00     0.000 C 
BRANCH   2   3
ATOM      3  C   UNL     1      -9.263 -10.715 -26.458  1.00  0.00     0.000 C 
BRANCH   3   4
ATOM      4  C   UNL     1      -8.334 -10.447 -27.654  1.00  0.00     0.000 C 
BRANCH   4   5
ATOM      5  C   UNL     1      -6.854 -10.717 -27.325  1.00  0.00     0.000 C 
BRANCH   5   6
ATOM      6  C   UNL     1      -6.317 -11.997 -27.995  1.00  0.00     0.000 C 
BRANCH   6   7
ATOM      7  C   UNL     1      -5.365 -12.837 -27.120  1.00  0.00     0.000 C 
BRANCH   7   8
ATOM      8  C   UNL     1      -6.047 -13.765 -26.095  1.00  0.00     0.000 C 
BRANCH   8   9
ATOM      9  C   UNL     1      -6.571 -15.088 -26.694  1.00  0.00     0.000 C 
BRANCH   9  10
ATOM     10  C   UNL     1      -8.107 -15.122 -26.789  1.00  0.00     0.000 C 
BRANCH  10  11
ATOM     11  C   UNL     1      -8.636 -14.531 -28.108  1.00  0.00     0.000 C 
BRANCH  11  12
ATOM     12  C   UNL     1     -10.022 -13.858 -28.015  1.00  0.00     0.000 C 
BRANCH  12  13
ATOM     13  C   UNL     1     -11.224 -14.825 -27.980  1.00  0.00     0.006 C 
BRANCH  13  14
ATOM     14  C   UNL     1     -12.021 -14.802 -26.667  1.00  0.00     0.053 C 
BRANCH  14  15
ATOM     15  C   UNL     1     -12.898 -13.592 -26.565  1.00  0.00     0.041 C 
ATOM     16  O   UNL     1     -12.419 -12.445 -26.763  1.00  0.00    -0.550 OA
ATOM     17  O   UNL     1     -14.237 -13.729 -26.220  1.00  0.00    -0.550 OA
ENDBRANCH  14  15
ENDBRANCH  13  14
ENDBRANCH  12  13
ENDBRANCH  11  12
ENDBRANCH  10  11
ENDBRANCH   9  10
ENDBRANCH   8   9
ENDBRANCH   7   8
ENDBRANCH   6   7
ENDBRANCH   5   6
ENDBRANCH   4   5
ENDBRANCH   3   4
ENDBRANCH   2   3
ENDBRANCH   1   2
BRANCH   1  18
ATOM     18  C   UNL     1      -8.951  -7.335 -26.974  1.00  0.00     0.000 C 
BRANCH  18  19
ATOM     19  C   UNL     1      -7.504  -6.929 -27.328  1.00  0.00     0.000 C 
BRANCH  19  20
ATOM     20  C   UNL     1      -6.559  -6.832 -26.115  1.00  0.00     0.000 C 
BRANCH  20  21
ATOM     21  C   UNL     1      -5.607  -5.621 -26.119  1.00  0.00     0.000 C 
BRANCH  21  22
ATOM     22  C   UNL     1      -5.851  -4.594 -27.246  1.00  0.00     0.000 C 
BRANCH  22  23
ATOM     23  C   UNL     1      -6.616  -3.328 -26.818  1.00  0.00     0.000 C 
BRANCH  23  24
ATOM     24  C   UNL     1      -8.013  -3.634 -26.261  1.00  0.00    -0.000 C 
BRANCH  24  25
ATOM     25  C   UNL     1      -8.055  -3.422 -24.739  1.00  0.00    -0.000 C 
BRANCH  25  26
ATOM     26  C   UNL     1      -7.139  -2.277 -24.278  1.00  0.00    -0.000 C 
BRANCH  26  27
ATOM     27  C   UNL     1      -7.881  -1.230 -23.429  1.00  0.00    -0.000 C 
BRANCH  27  28
ATOM     28  C   UNL     1      -8.006   0.133 -24.136  1.00  0.00    -0.000 C 
BRANCH  28  29
ATOM     29  C   UNL     1      -8.981   0.153 -25.329  1.00  0.00    -0.000 C 
BRANCH  29  30
ATOM     30  C   UNL     1      -8.269   0.003 -26.685  1.00  0.00    -0.000 C 
BRANCH  30  31
ATOM     31  C   UNL     1      -9.076   0.608 -27.843  1.00  0.00    -0.003 C 
ATOM     32  C   UNL     1     -10.483   1.032 -27.423  1.00  0.00     0.004 C 
ENDBRANCH  30  31
ENDBRANCH  29  30
ENDBRANCH  28  29
ENDBRANCH  27  28
ENDBRANCH  26  27
ENDBRANCH  25  26
ENDBRANCH  24  25
ENDBRANCH  23  24
ENDBRANCH  22  23
ENDBRANCH  21  22
ENDBRANCH  20  21
ENDBRANCH  19  20
ENDBRANCH  18  19
ENDBRANCH   1  18
TORSDOF 28
ENDMDL
MODEL 7
REMARK VINA RESULT:    -2.617      3.181      4.655
REMARK INTER + INTRA:          -9.903
REMARK INTER:                  -7.373
REMARK INTRA:                  -2.529
REMARK UNBOUND:                -3.003
REMARK SMILES CCCCCCCCCCCCCCCCCCCCCCCCCCCCCC(=O)[O-]
REMARK SMILES IDX 16 1 17 2 18 3 19 4 20 5 21 6 22 7 23 8 24 9 25 10 26 11
REMARK SMILES IDX 27 12 28 13 29 14 30 15 31 16 32 17 15 18 14 19 13 20 12 21
REMARK SMILES IDX 11 22 10 23 9 24 8 25 7 26 6 27 5 28 4 29 3 30 2 31 1 32
REMARK H PARENT
REMARK Flexibility Score: inf
ROOT
ATOM      1  C   UNL     1      -9.117  -8.310 -25.617  1.00  0.00     0.000 C 
ENDROOT
BRANCH   1   2
ATOM      2  C   UNL     1      -9.883  -9.642 -25.664  1.00  0.00     0.000 C 
BRANCH   2   3
ATOM      3  C   UNL     1      -9.049 -10.774 -26.288  1.00  0.00     0.000 C 
BRANCH   3   4
ATOM      4  C   UNL     1      -8.188 -10.301 -27.472  1.00  0.00     0.000 C 
BRANCH   4   5
ATOM      5  C   UNL     1      -6.701 -10.661 -27.303  1.00  0.00     0.000 C 
BRANCH   5   6
ATOM      6  C   UNL     1      -6.366 -12.075 -27.817  1.00  0.00     0.000 C 
BRANCH   6   7
ATOM      7  C   UNL     1      -5.146 -12.738 -27.146  1.00  0.00     0.000 C 
BRANCH   7   8
ATOM      8  C   UNL     1      -5.463 -13.663 -25.954  1.00  0.00     0.000 C 
BRANCH   8   9
ATOM      9  C   UNL     1      -6.504 -14.759 -26.267  1.00  0.00     0.000 C 
BRANCH   9  10
ATOM     10  C   UNL     1      -7.801 -14.587 -25.455  1.00  0.00     0.000 C 
BRANCH  10  11
ATOM     11  C   UNL     1      -9.065 -14.882 -26.282  1.00  0.00     0.000 C 
BRANCH  11  12
ATOM     12  C   UNL     1      -9.250 -13.998 -27.533  1.00  0.00     0.000 C 
BRANCH  12  13
ATOM     13  C   UNL     1     -10.675 -13.982 -28.124  1.00  0.00     0.006 C 
BRANCH  13  14
ATOM     14  C   UNL     1     -11.760 -14.529 -27.184  1.00  0.00     0.053 C 
BRANCH  14  15
ATOM     15  C   UNL     1     -12.666 -13.447 -26.682  1.00  0.00     0.041 C 
ATOM     16  O   UNL     1     -12.250 -12.261 -26.601  1.00  0.00    -0.550 OA
ATOM     17  O   UNL     1     -13.959 -13.753 -26.277  1.00  0.00    -0.550 OA
ENDBRANCH  14  15
ENDBRANCH  13  14
ENDBRANCH  12  13
ENDBRANCH  11  12
ENDBRANCH  10  11
ENDBRANCH   9  10
ENDBRANCH   8   9
ENDBRANCH   7   8
ENDBRANCH   6   7
ENDBRANCH   5   6
ENDBRANCH   4   5
ENDBRANCH   3   4
ENDBRANCH   2   3
ENDBRANCH   1   2
BRANCH   1  18
ATOM     18  C   UNL     1      -9.363  -7.440 -26.864  1.00  0.00     0.000 C 
BRANCH  18  19
ATOM     19  C   UNL     1      -8.283  -6.353 -27.053  1.00  0.00     0.000 C 
BRANCH  19  20
ATOM     20  C   UNL     1      -6.967  -6.630 -26.301  1.00  0.00     0.000 C 
BRANCH  20  21
ATOM     21  C   UNL     1      -6.159  -5.379 -25.907  1.00  0.00     0.000 C 
BRANCH  21  22
ATOM     22  C   UNL     1      -6.179  -4.230 -26.939  1.00  0.00     0.000 C 
BRANCH  22  23
ATOM     23  C   UNL     1      -5.799  -2.847 -26.380  1.00  0.00     0.000 C 
BRANCH  23  24
ATOM     24  C   UNL     1      -6.157  -1.698 -27.334  1.00  0.00    -0.000 C 
BRANCH  24  25
ATOM     25  C   UNL     1      -6.863  -0.559 -26.581  1.00  0.00    -0.000 C 
BRANCH  25  26
ATOM     26  C   UNL     1      -8.325  -0.891 -26.246  1.00  0.00    -0.000 C 
BRANCH  26  27
ATOM     27  C   UNL     1      -8.566  -1.057 -24.736  1.00  0.00    -0.000 C 
BRANCH  27  28
ATOM     28  C   UNL     1      -7.802  -0.020 -23.891  1.00  0.00    -0.000 C 
BRANCH  28  29
ATOM     29  C   UNL     1      -6.702  -0.608 -22.987  1.00  0.00    -0.000 C 
BRANCH  29  30
ATOM     30  C   UNL     1      -5.468   0.305 -22.879  1.00  0.00    -0.000 C 
BRANCH  30  31
ATOM     31  C   UNL     1      -5.671   1.453 -21.880  1.00  0.00    -0.003 C 
ATOM     32  C   UNL     1      -6.213   2.721 -22.540  1.00  0.00     0.004 C 
ENDBRANCH  30  31
ENDBRANCH  29  30
ENDBRANCH  28  29
ENDBRANCH  27  28
ENDBRANCH  26  27
ENDBRANCH  25  26
ENDBRANCH  24  25
ENDBRANCH  23  24
ENDBRANCH  22  23
ENDBRANCH  21  22
ENDBRANCH  20  21
ENDBRANCH  19  20
ENDBRANCH  18  19
ENDBRANCH   1  18
TORSDOF 28
ENDMDL
MODEL 8
REMARK VINA RESULT:    -2.541      4.587     12.270
REMARK INTER + INTRA:          -9.703
REMARK INTER:                  -7.072
REMARK INTRA:                  -2.631
REMARK UNBOUND:                -3.003
REMARK SMILES CCCCCCCCCCCCCCCCCCCCCCCCCCCCCC(=O)[O-]
REMARK SMILES IDX 16 1 17 2 18 3 19 4 20 5 21 6 22 7 23 8 24 9 25 10 26 11
REMARK SMILES IDX 27 12 28 13 29 14 30 15 31 16 32 17 15 18 14 19 13 20 12 21
REMARK SMILES IDX 11 22 10 23 9 24 8 25 7 26 6 27 5 28 4 29 3 30 2 31 1 32
REMARK H PARENT
REMARK Flexibility Score: inf
ROOT
ATOM      1  C   UNL     1      -6.002  -1.163 -24.982  1.00  0.00     0.000 C 
ENDROOT
BRANCH   1   2
ATOM      2  C   UNL     1      -6.687  -1.633 -23.689  1.00  0.00     0.000 C 
BRANCH   2   3
ATOM      3  C   UNL     1      -6.475  -0.649 -22.524  1.00  0.00     0.000 C 
BRANCH   3   4
ATOM      4  C   UNL     1      -6.712   0.816 -22.928  1.00  0.00     0.000 C 
BRANCH   4   5
ATOM      5  C   UNL     1      -5.436   1.501 -23.448  1.00  0.00     0.000 C 
BRANCH   5   6
ATOM      6  C   UNL     1      -5.728   2.789 -24.242  1.00  0.00     0.000 C 
BRANCH   6   7
ATOM      7  C   UNL     1      -4.875   2.978 -25.512  1.00  0.00     0.000 C 
BRANCH   7   8
ATOM      8  C   UNL     1      -5.661   3.045 -26.837  1.00  0.00     0.000 C 
BRANCH   8   9
ATOM      9  C   UNL     1      -7.032   3.745 -26.722  1.00  0.00     0.000 C 
BRANCH   9  10
ATOM     10  C   UNL     1      -8.177   2.894 -27.301  1.00  0.00     0.000 C 
BRANCH  10  11
ATOM     11  C   UNL     1      -8.110   1.422 -26.857  1.00  0.00     0.000 C 
BRANCH  11  12
ATOM     12  C   UNL     1      -9.046   1.047 -25.689  1.00  0.00     0.000 C 
BRANCH  12  13
ATOM     13  C   UNL     1      -9.995  -0.138 -25.958  1.00  0.00     0.006 C 
BRANCH  13  14
ATOM     14  C   UNL     1     -10.213  -0.452 -27.447  1.00  0.00     0.053 C 
BRANCH  14  15
ATOM     15  C   UNL     1      -9.660  -1.792 -27.824  1.00  0.00     0.041 C 
ATOM     16  O   UNL     1      -8.441  -1.914 -28.114  1.00  0.00    -0.550 OA
ATOM     17  O   UNL     1     -10.497  -2.899 -27.886  1.00  0.00    -0.550 OA
ENDBRANCH  14  15
ENDBRANCH  13  14
ENDBRANCH  12  13
ENDBRANCH  11  12
ENDBRANCH  10  11
ENDBRANCH   9  10
ENDBRANCH   8   9
ENDBRANCH   7   8
ENDBRANCH   6   7
ENDBRANCH   5   6
ENDBRANCH   4   5
ENDBRANCH   3   4
ENDBRANCH   2   3
ENDBRANCH   1   2
BRANCH   1  18
ATOM     18  C   UNL     1      -5.116  -2.252 -25.613  1.00  0.00     0.000 C 
BRANCH  18  19
ATOM     19  C   UNL     1      -5.924  -3.259 -26.460  1.00  0.00     0.000 C 
BRANCH  19  20
ATOM     20  C   UNL     1      -6.157  -4.619 -25.774  1.00  0.00     0.000 C 
BRANCH  20  21
ATOM     21  C   UNL     1      -6.931  -5.654 -26.612  1.00  0.00     0.000 C 
BRANCH  21  22
ATOM     22  C   UNL     1      -6.355  -7.086 -26.587  1.00  0.00     0.000 C 
BRANCH  22  23
ATOM     23  C   UNL     1      -7.406  -8.211 -26.618  1.00  0.00     0.000 C 
BRANCH  23  24
ATOM     24  C   UNL     1      -8.469  -8.005 -27.705  1.00  0.00    -0.000 C 
BRANCH  24  25
ATOM     25  C   UNL     1      -9.879  -7.968 -27.094  1.00  0.00    -0.000 C 
BRANCH  25  26
ATOM     26  C   UNL     1     -10.953  -8.499 -28.055  1.00  0.00    -0.000 C 
BRANCH  26  27
ATOM     27  C   UNL     1     -11.248  -9.995 -27.846  1.00  0.00    -0.000 C 
BRANCH  27  28
ATOM     28  C   UNL     1     -10.722 -10.526 -26.500  1.00  0.00    -0.000 C 
BRANCH  28  29
ATOM     29  C   UNL     1     -10.140 -11.951 -26.552  1.00  0.00    -0.000 C 
BRANCH  29  30
ATOM     30  C   UNL     1     -10.362 -12.638 -27.911  1.00  0.00    -0.000 C 
BRANCH  30  31
ATOM     31  C   UNL     1     -10.273 -14.168 -27.818  1.00  0.00    -0.003 C 
ATOM     32  C   UNL     1     -11.590 -14.810 -27.379  1.00  0.00     0.004 C 
ENDBRANCH  30  31
ENDBRANCH  29  30
ENDBRANCH  28  29
ENDBRANCH  27  28
ENDBRANCH  26  27
ENDBRANCH  25  26
ENDBRANCH  24  25
ENDBRANCH  23  24
ENDBRANCH  22  23
ENDBRANCH  21  22
ENDBRANCH  20  21
ENDBRANCH  19  20
ENDBRANCH  18  19
ENDBRANCH   1  18
TORSDOF 28
ENDMDL
MODEL 9
REMARK VINA RESULT:    -2.450      3.341      5.708
REMARK INTER + INTRA:          -9.464
REMARK INTER:                  -7.407
REMARK INTRA:                  -2.056
REMARK UNBOUND:                -3.003
REMARK SMILES CCCCCCCCCCCCCCCCCCCCCCCCCCCCCC(=O)[O-]
REMARK SMILES IDX 16 1 17 2 18 3 19 4 20 5 21 6 22 7 23 8 24 9 25 10 26 11
REMARK SMILES IDX 27 12 28 13 29 14 30 15 31 16 32 17 15 18 14 19 13 20 12 21
REMARK SMILES IDX 11 22 10 23 9 24 8 25 7 26 6 27 5 28 4 29 3 30 2 31 1 32
REMARK H PARENT
REMARK Flexibility Score: inf
ROOT
ATOM      1  C   UNL     1      -6.299  -3.126 -25.531  1.00  0.00     0.000 C 
ENDROOT
BRANCH   1   2
ATOM      2  C   UNL     1      -6.456  -4.655 -25.565  1.00  0.00     0.000 C 
BRANCH   2   3
ATOM      3  C   UNL     1      -7.928  -5.088 -25.684  1.00  0.00     0.000 C 
BRANCH   3   4
ATOM      4  C   UNL     1      -8.088  -6.524 -26.212  1.00  0.00     0.000 C 
BRANCH   4   5
ATOM      5  C   UNL     1      -9.429  -7.159 -25.802  1.00  0.00     0.000 C 
BRANCH   5   6
ATOM      6  C   UNL     1      -9.624  -8.573 -26.383  1.00  0.00     0.000 C 
BRANCH   6   7
ATOM      7  C   UNL     1      -9.291  -9.726 -25.415  1.00  0.00     0.000 C 
BRANCH   7   8
ATOM      8  C   UNL     1      -9.347 -11.142 -26.022  1.00  0.00     0.000 C 
BRANCH   8   9
ATOM      9  C   UNL     1      -8.253 -11.420 -27.075  1.00  0.00     0.000 C 
BRANCH   9  10
ATOM     10  C   UNL     1      -7.770 -12.882 -27.049  1.00  0.00     0.000 C 
BRANCH  10  11
ATOM     11  C   UNL     1      -8.362 -13.684 -25.877  1.00  0.00     0.000 C 
BRANCH  11  12
ATOM     12  C   UNL     1      -8.908 -15.079 -26.248  1.00  0.00     0.000 C 
BRANCH  12  13
ATOM     13  C   UNL     1     -10.405 -15.124 -26.617  1.00  0.00     0.006 C 
BRANCH  13  14
ATOM     14  C   UNL     1     -10.902 -13.905 -27.410  1.00  0.00     0.053 C 
BRANCH  14  15
ATOM     15  C   UNL     1     -12.197 -13.377 -26.874  1.00  0.00     0.041 C 
ATOM     16  O   UNL     1     -12.473 -12.154 -26.977  1.00  0.00    -0.550 OA
ATOM     17  O   UNL     1     -13.086 -14.232 -26.234  1.00  0.00    -0.550 OA
ENDBRANCH  14  15
ENDBRANCH  13  14
ENDBRANCH  12  13
ENDBRANCH  11  12
ENDBRANCH  10  11
ENDBRANCH   9  10
ENDBRANCH   8   9
ENDBRANCH   7   8
ENDBRANCH   6   7
ENDBRANCH   5   6
ENDBRANCH   4   5
ENDBRANCH   3   4
ENDBRANCH   2   3
ENDBRANCH   1   2
BRANCH   1  18
ATOM     18  C   UNL     1      -5.404  -2.596 -26.666  1.00  0.00     0.000 C 
BRANCH  18  19
ATOM     19  C   UNL     1      -6.114  -1.538 -27.539  1.00  0.00     0.000 C 
BRANCH  19  20
ATOM     20  C   UNL     1      -7.493  -1.976 -28.068  1.00  0.00     0.000 C 
BRANCH  20  21
ATOM     21  C   UNL     1      -8.564  -0.869 -28.106  1.00  0.00     0.000 C 
BRANCH  21  22
ATOM     22  C   UNL     1      -9.504  -0.819 -26.882  1.00  0.00     0.000 C 
BRANCH  22  23
ATOM     23  C   UNL     1      -9.436   0.483 -26.063  1.00  0.00     0.000 C 
BRANCH  23  24
ATOM     24  C   UNL     1      -9.573   0.245 -24.553  1.00  0.00    -0.000 C 
BRANCH  24  25
ATOM     25  C   UNL     1      -8.694  -0.931 -24.100  1.00  0.00    -0.000 C 
BRANCH  25  26
ATOM     26  C   UNL     1      -7.200  -0.572 -24.070  1.00  0.00    -0.000 C 
BRANCH  26  27
ATOM     27  C   UNL     1      -6.766   0.051 -22.732  1.00  0.00    -0.000 C 
BRANCH  27  28
ATOM     28  C   UNL     1      -5.341   0.633 -22.778  1.00  0.00    -0.000 C 
BRANCH  28  29
ATOM     29  C   UNL     1      -5.104   1.672 -23.891  1.00  0.00    -0.000 C 
BRANCH  29  30
ATOM     30  C   UNL     1      -4.998   3.109 -23.352  1.00  0.00    -0.000 C 
BRANCH  30  31
ATOM     31  C   UNL     1      -5.020   4.160 -24.473  1.00  0.00    -0.003 C 
ATOM     32  C   UNL     1      -5.204   3.540 -25.858  1.00  0.00     0.004 C 
ENDBRANCH  30  31
ENDBRANCH  29  30
ENDBRANCH  28  29
ENDBRANCH  27  28
ENDBRANCH  26  27
ENDBRANCH  25  26
ENDBRANCH  24  25
ENDBRANCH  23  24
ENDBRANCH  22  23
ENDBRANCH  21  22
ENDBRANCH  20  21
ENDBRANCH  19  20
ENDBRANCH  18  19
ENDBRANCH   1  18
TORSDOF 28
ENDMDL
