MODEL 1
REMARK VINA RESULT:    -4.373      0.000      0.000
REMARK INTER + INTRA:          -5.106
REMARK INTER:                  -5.013
REMARK INTRA:                  -0.094
REMARK UNBOUND:                -0.094
REMARK SMILES COc1cc(C(=O)[O-])ccc1O
REMARK SMILES IDX 5 1 9 2 4 3 10 4 3 5 11 6 6 7 7 8 8 9 2 10 1 11 12 12
REMARK H PARENT 12 13
REMARK Flexibility Score: inf
ROOT
ATOM      1  C   UNL     1      19.638  40.361   5.030  1.00  0.00     0.001 A 
ATOM      2  C   UNL     1      20.201  40.716   3.793  1.00  0.00     0.014 A 
ATOM      3  C   UNL     1      20.132  39.233   5.708  1.00  0.00     0.060 A 
ATOM      4  C   UNL     1      21.238  39.957   3.246  1.00  0.00     0.051 A 
ATOM      5  C   UNL     1      21.179  38.464   5.159  1.00  0.00     0.161 A 
ATOM      6  C   UNL     1      21.729  38.836   3.919  1.00  0.00     0.157 A 
ENDROOT
BRANCH   1   7
ATOM      7  C   UNL     1      18.539  41.163   5.613  1.00  0.00     0.072 C 
ATOM      8  O   UNL     1      18.073  40.883   6.749  1.00  0.00    -0.545 OA
ATOM      9  O   UNL     1      18.003  42.239   4.912  1.00  0.00    -0.545 OA
ENDBRANCH   1   7
BRANCH   5  10
ATOM     10  O   UNL     1      21.691  37.332   5.814  1.00  0.00    -0.493 OA
ATOM     11  C   UNL     1      22.235  37.335   7.130  1.00  0.00     0.278 C 
ENDBRANCH   5  10
BRANCH   6  12
ATOM     12  O   UNL     1      22.764  38.103   3.341  1.00  0.00    -0.504 OA
ATOM     13  H   UNL     1      23.686  38.048   3.758  1.00  0.00     0.293 HD
ENDBRANCH   6  12
TORSDOF 3
ENDMDL
MODEL 2
REMARK VINA RESULT:    -4.338      1.246      2.957
REMARK INTER + INTRA:          -5.066
REMARK INTER:                  -4.973
REMARK INTRA:                  -0.093
REMARK UNBOUND:                -0.094
REMARK SMILES COc1cc(C(=O)[O-])ccc1O
REMARK SMILES IDX 5 1 9 2 4 3 10 4 3 5 11 6 6 7 7 8 8 9 2 10 1 11 12 12
REMARK H PARENT 12 13
REMARK Flexibility Score: inf
ROOT
ATOM      1  C   UNL     1      19.521  40.090   5.688  1.00  0.00     0.001 A 
ATOM      2  C   UNL     1      20.263  39.031   6.237  1.00  0.00     0.014 A 
ATOM      3  C   UNL     1      19.790  40.502   4.371  1.00  0.00     0.060 A 
ATOM      4  C   UNL     1      21.253  38.397   5.484  1.00  0.00     0.051 A 
ATOM      5  C   UNL     1      20.788  39.865   3.606  1.00  0.00     0.161 A 
ATOM      6  C   UNL     1      21.520  38.807   4.175  1.00  0.00     0.157 A 
ENDROOT
BRANCH   1   7
ATOM      7  C   UNL     1      18.471  40.764   6.485  1.00  0.00     0.072 C 
ATOM      8  O   UNL     1      17.430  41.206   5.930  1.00  0.00    -0.545 OA
ATOM      9  O   UNL     1      18.620  40.920   7.859  1.00  0.00    -0.545 OA
ENDBRANCH   1   7
BRANCH   5  10
ATOM     10  O   UNL     1      21.077  40.256   2.289  1.00  0.00    -0.493 OA
ATOM     11  C   UNL     1      21.512  41.557   1.907  1.00  0.00     0.278 C 
ENDBRANCH   5  10
BRANCH   6  12
ATOM     12  O   UNL     1      22.515  38.150   3.454  1.00  0.00    -0.504 OA
ATOM     13  H   UNL     1      22.352  37.265   2.988  1.00  0.00     0.293 HD
ENDBRANCH   6  12
TORSDOF 3
ENDMDL
MODEL 3
REMARK VINA RESULT:    -4.167      1.279      1.826
REMARK INTER + INTRA:          -4.870
REMARK INTER:                  -4.771
REMARK INTRA:                  -0.099
REMARK UNBOUND:                -0.094
REMARK SMILES COc1cc(C(=O)[O-])ccc1O
REMARK SMILES IDX 5 1 9 2 4 3 10 4 3 5 11 6 6 7 7 8 8 9 2 10 1 11 12 12
REMARK H PARENT 12 13
REMARK Flexibility Score: inf
ROOT
ATOM      1  C   UNL     1      19.675  40.047   5.413  1.00  0.00     0.001 A 
ATOM      2  C   UNL     1      20.367  39.589   4.280  1.00  0.00     0.014 A 
ATOM      3  C   UNL     1      19.957  39.471   6.665  1.00  0.00     0.060 A 
ATOM      4  C   UNL     1      21.323  38.578   4.396  1.00  0.00     0.051 A 
ATOM      5  C   UNL     1      20.921  38.449   6.788  1.00  0.00     0.161 A 
ATOM      6  C   UNL     1      21.603  38.006   5.640  1.00  0.00     0.157 A 
ENDROOT
BRANCH   1   7
ATOM      7  C   UNL     1      18.662  41.119   5.293  1.00  0.00     0.072 C 
ATOM      8  O   UNL     1      18.844  42.088   4.510  1.00  0.00    -0.545 OA
ATOM      9  O   UNL     1      17.493  41.071   6.045  1.00  0.00    -0.545 OA
ENDBRANCH   1   7
BRANCH   5  10
ATOM     10  O   UNL     1      21.223  37.857   8.025  1.00  0.00    -0.493 OA
ATOM     11  C   UNL     1      21.939  38.497   9.076  1.00  0.00     0.278 C 
ENDBRANCH   5  10
BRANCH   6  12
ATOM     12  O   UNL     1      22.563  36.998   5.717  1.00  0.00    -0.504 OA
ATOM     13  H   UNL     1      23.130  36.730   4.922  1.00  0.00     0.293 HD
ENDBRANCH   6  12
TORSDOF 3
ENDMDL
MODEL 4
REMARK VINA RESULT:    -4.142      2.130      4.124
REMARK INTER + INTRA:          -4.840
REMARK INTER:                  -4.742
REMARK INTRA:                  -0.099
REMARK UNBOUND:                -0.094
REMARK SMILES COc1cc(C(=O)[O-])ccc1O
REMARK SMILES IDX 5 1 9 2 4 3 10 4 3 5 11 6 6 7 7 8 8 9 2 10 1 11 12 12
REMARK H PARENT 12 13
REMARK Flexibility Score: inf
ROOT
ATOM      1  C   UNL     1      20.758  39.372   4.941  1.00  0.00     0.001 A 
ATOM      2  C   UNL     1      20.645  38.529   3.823  1.00  0.00     0.014 A 
ATOM      3  C   UNL     1      20.712  40.765   4.753  1.00  0.00     0.060 A 
ATOM      4  C   UNL     1      20.489  39.067   2.545  1.00  0.00     0.051 A 
ATOM      5  C   UNL     1      20.554  41.314   3.464  1.00  0.00     0.161 A 
ATOM      6  C   UNL     1      20.444  40.451   2.358  1.00  0.00     0.157 A 
ENDROOT
BRANCH   1   7
ATOM      7  C   UNL     1      20.923  38.804   6.297  1.00  0.00     0.072 C 
ATOM      8  O   UNL     1      20.279  39.274   7.272  1.00  0.00    -0.545 OA
ATOM      9  O   UNL     1      21.795  37.743   6.516  1.00  0.00    -0.545 OA
ENDBRANCH   1   7
BRANCH   5  10
ATOM     10  O   UNL     1      20.506  42.700   3.247  1.00  0.00    -0.493 OA
ATOM     11  C   UNL     1      19.335  43.500   3.383  1.00  0.00     0.278 C 
ENDBRANCH   5  10
BRANCH   6  12
ATOM     12  O   UNL     1      20.287  40.952   1.067  1.00  0.00    -0.504 OA
ATOM     13  H   UNL     1      19.425  41.381   0.754  1.00  0.00     0.293 HD
ENDBRANCH   6  12
TORSDOF 3
ENDMDL
MODEL 5
REMARK VINA RESULT:    -4.112      1.923      3.985
REMARK INTER + INTRA:          -4.807
REMARK INTER:                  -4.725
REMARK INTRA:                  -0.083
REMARK UNBOUND:                -0.094
REMARK SMILES COc1cc(C(=O)[O-])ccc1O
REMARK SMILES IDX 5 1 9 2 4 3 10 4 3 5 11 6 6 7 7 8 8 9 2 10 1 11 12 12
REMARK H PARENT 12 13
REMARK Flexibility Score: inf
ROOT
ATOM      1  C   UNL     1      21.386  38.275   6.791  1.00  0.00     0.001 A 
ATOM      2  C   UNL     1      21.843  37.292   5.898  1.00  0.00     0.014 A 
ATOM      3  C   UNL     1      20.807  39.449   6.278  1.00  0.00     0.060 A 
ATOM      4  C   UNL     1      21.722  37.479   4.519  1.00  0.00     0.051 A 
ATOM      5  C   UNL     1      20.684  39.643   4.887  1.00  0.00     0.161 A 
ATOM      6  C   UNL     1      21.147  38.646   4.010  1.00  0.00     0.157 A 
ENDROOT
BRANCH   1   7
ATOM      7  C   UNL     1      21.513  38.079   8.253  1.00  0.00     0.072 C 
ATOM      8  O   UNL     1      21.522  36.920   8.746  1.00  0.00    -0.545 OA
ATOM      9  O   UNL     1      21.622  39.174   9.104  1.00  0.00    -0.545 OA
ENDBRANCH   1   7
BRANCH   5  10
ATOM     10  O   UNL     1      20.110  40.806   4.347  1.00  0.00    -0.493 OA
ATOM     11  C   UNL     1      19.028  41.522   4.933  1.00  0.00     0.278 C 
ENDBRANCH   5  10
BRANCH   6  12
ATOM     12  O   UNL     1      21.045  38.798   2.628  1.00  0.00    -0.504 OA
ATOM     13  H   UNL     1      21.191  38.027   1.987  1.00  0.00     0.293 HD
ENDBRANCH   6  12
TORSDOF 3
ENDMDL
MODEL 6
REMARK VINA RESULT:    -4.100      1.507      4.425
REMARK INTER + INTRA:          -4.793
REMARK INTER:                  -4.707
REMARK INTRA:                  -0.086
REMARK UNBOUND:                -0.094
REMARK SMILES COc1cc(C(=O)[O-])ccc1O
REMARK SMILES IDX 5 1 9 2 4 3 10 4 3 5 11 6 6 7 7 8 8 9 2 10 1 11 12 12
REMARK H PARENT 12 13
REMARK Flexibility Score: inf
ROOT
ATOM      1  C   UNL     1      20.949  38.820   6.091  1.00  0.00     0.001 A 
ATOM      2  C   UNL     1      20.052  39.644   6.791  1.00  0.00     0.014 A 
ATOM      3  C   UNL     1      21.145  39.036   4.715  1.00  0.00     0.060 A 
ATOM      4  C   UNL     1      19.366  40.664   6.128  1.00  0.00     0.051 A 
ATOM      5  C   UNL     1      20.455  40.065   4.042  1.00  0.00     0.161 A 
ATOM      6  C   UNL     1      19.561  40.879   4.761  1.00  0.00     0.157 A 
ENDROOT
BRANCH   1   7
ATOM      7  C   UNL     1      21.677  37.738   6.790  1.00  0.00     0.072 C 
ATOM      8  O   UNL     1      21.556  36.540   6.421  1.00  0.00    -0.545 OA
ATOM      9  O   UNL     1      22.507  38.029   7.868  1.00  0.00    -0.545 OA
ENDBRANCH   1   7
BRANCH   5  10
ATOM     10  O   UNL     1      20.631  40.303   2.669  1.00  0.00    -0.493 OA
ATOM     11  C   UNL     1      21.609  41.179   2.119  1.00  0.00     0.278 C 
ENDBRANCH   5  10
BRANCH   6  12
ATOM     12  O   UNL     1      18.858  41.907   4.134  1.00  0.00    -0.504 OA
ATOM     13  H   UNL     1      19.063  42.884   4.304  1.00  0.00     0.293 HD
ENDBRANCH   6  12
TORSDOF 3
ENDMDL
MODEL 7
REMARK VINA RESULT:    -4.093      1.745      2.333
REMARK INTER + INTRA:          -4.785
REMARK INTER:                  -4.682
REMARK INTRA:                  -0.103
REMARK UNBOUND:                -0.094
REMARK SMILES COc1cc(C(=O)[O-])ccc1O
REMARK SMILES IDX 5 1 9 2 4 3 10 4 3 5 11 6 6 7 7 8 8 9 2 10 1 11 12 12
REMARK H PARENT 12 13
REMARK Flexibility Score: inf
ROOT
ATOM      1  C   UNL     1      20.200  41.387   3.708  1.00  0.00     0.001 A 
ATOM      2  C   UNL     1      20.443  40.591   2.576  1.00  0.00     0.014 A 
ATOM      3  C   UNL     1      20.190  40.784   4.979  1.00  0.00     0.060 A 
ATOM      4  C   UNL     1      20.674  39.221   2.713  1.00  0.00     0.051 A 
ATOM      5  C   UNL     1      20.422  39.401   5.122  1.00  0.00     0.161 A 
ATOM      6  C   UNL     1      20.664  38.622   3.976  1.00  0.00     0.157 A 
ENDROOT
BRANCH   1   7
ATOM      7  C   UNL     1      19.955  42.840   3.566  1.00  0.00     0.072 C 
ATOM      8  O   UNL     1      19.875  43.368   2.426  1.00  0.00    -0.545 OA
ATOM      9  O   UNL     1      19.810  43.644   4.692  1.00  0.00    -0.545 OA
ENDBRANCH   1   7
BRANCH   5  10
ATOM     10  O   UNL     1      20.418  38.773   6.378  1.00  0.00    -0.493 OA
ATOM     11  C   UNL     1      21.493  38.822   7.311  1.00  0.00     0.278 C 
ENDBRANCH   5  10
BRANCH   6  12
ATOM     12  O   UNL     1      20.898  37.251   4.073  1.00  0.00    -0.504 OA
ATOM     13  H   UNL     1      20.762  36.739   4.936  1.00  0.00     0.293 HD
ENDBRANCH   6  12
TORSDOF 3
ENDMDL
MODEL 8
REMARK VINA RESULT:    -4.076      1.964      2.824
REMARK INTER + INTRA:          -4.765
REMARK INTER:                  -4.685
REMARK INTRA:                  -0.080
REMARK UNBOUND:                -0.094
REMARK SMILES COc1cc(C(=O)[O-])ccc1O
REMARK SMILES IDX 5 1 9 2 4 3 10 4 3 5 11 6 6 7 7 8 8 9 2 10 1 11 12 12
REMARK H PARENT 12 13
REMARK Flexibility Score: inf
ROOT
ATOM      1  C   UNL     1      20.759  39.545   4.527  1.00  0.00     0.001 A 
ATOM      2  C   UNL     1      21.262  38.357   3.969  1.00  0.00     0.014 A 
ATOM      3  C   UNL     1      20.784  39.708   5.924  1.00  0.00     0.060 A 
ATOM      4  C   UNL     1      21.780  37.355   4.791  1.00  0.00     0.051 A 
ATOM      5  C   UNL     1      21.306  38.699   6.758  1.00  0.00     0.161 A 
ATOM      6  C   UNL     1      21.805  37.518   6.179  1.00  0.00     0.157 A 
ENDROOT
BRANCH   1   7
ATOM      7  C   UNL     1      20.209  40.609   3.658  1.00  0.00     0.072 C 
ATOM      8  O   UNL     1      19.510  41.537   4.145  1.00  0.00    -0.545 OA
ATOM      9  O   UNL     1      20.456  40.600   2.289  1.00  0.00    -0.545 OA
ENDBRANCH   1   7
BRANCH   5  10
ATOM     10  O   UNL     1      21.344  38.835   8.155  1.00  0.00    -0.493 OA
ATOM     11  C   UNL     1      21.123  40.055   8.856  1.00  0.00     0.278 C 
ENDBRANCH   5  10
BRANCH   6  12
ATOM     12  O   UNL     1      22.330  36.495   6.967  1.00  0.00    -0.504 OA
ATOM     13  H   UNL     1      23.107  36.643   7.600  1.00  0.00     0.293 HD
ENDBRANCH   6  12
TORSDOF 3
ENDMDL
MODEL 9
REMARK VINA RESULT:    -4.038      2.592      3.860
REMARK INTER + INTRA:          -4.722
REMARK INTER:                  -4.628
REMARK INTRA:                  -0.094
REMARK UNBOUND:                -0.094
REMARK SMILES COc1cc(C(=O)[O-])ccc1O
REMARK SMILES IDX 5 1 9 2 4 3 10 4 3 5 11 6 6 7 7 8 8 9 2 10 1 11 12 12
REMARK H PARENT 12 13
REMARK Flexibility Score: inf
ROOT
ATOM      1  C   UNL     1      21.164  40.870   5.278  1.00  0.00     0.001 A 
ATOM      2  C   UNL     1      20.628  39.571   5.319  1.00  0.00     0.014 A 
ATOM      3  C   UNL     1      21.430  41.460   4.029  1.00  0.00     0.060 A 
ATOM      4  C   UNL     1      20.363  38.879   4.136  1.00  0.00     0.051 A 
ATOM      5  C   UNL     1      21.164  40.764   2.832  1.00  0.00     0.161 A 
ATOM      6  C   UNL     1      20.627  39.466   2.896  1.00  0.00     0.157 A 
ENDROOT
BRANCH   1   7
ATOM      7  C   UNL     1      21.446  41.606   6.530  1.00  0.00     0.072 C 
ATOM      8  O   UNL     1      21.516  40.998   7.630  1.00  0.00    -0.545 OA
ATOM      9  O   UNL     1      21.637  42.984   6.509  1.00  0.00    -0.545 OA
ENDBRANCH   1   7
BRANCH   5  10
ATOM     10  O   UNL     1      21.420  41.329   1.572  1.00  0.00    -0.493 OA
ATOM     11  C   UNL     1      20.849  42.545   1.099  1.00  0.00     0.278 C 
ENDBRANCH   5  10
BRANCH   6  12
ATOM     12  O   UNL     1      20.350  38.743   1.737  1.00  0.00    -0.504 OA
ATOM     13  H   UNL     1      20.122  37.756   1.756  1.00  0.00     0.293 HD
ENDBRANCH   6  12
TORSDOF 3
ENDMDL
