MODEL 1
REMARK VINA RESULT:    -4.734      0.000      0.000
REMARK INTER + INTRA:          -5.399
REMARK INTER:                  -5.149
REMARK INTRA:                  -0.250
REMARK UNBOUND:                -0.250
REMARK SMILES O=C([O-])c1ccccc1O
REMARK SMILES IDX 4 1 9 2 5 3 8 4 6 5 7 6 2 7 1 8 3 9 10 10
REMARK H PARENT 10 11
REMARK Flexibility Score: inf
ROOT
ATOM      1  C   UNL     1     -26.528 -48.977  47.486  1.00  0.00     0.039 A 
ATOM      2  C   UNL     1     -27.208 -50.134  47.022  1.00  0.00     0.124 A 
ATOM      3  C   UNL     1     -27.248 -47.778  47.634  1.00  0.00     0.014 A 
ATOM      4  C   UNL     1     -28.559 -50.044  46.662  1.00  0.00     0.047 A 
ATOM      5  C   UNL     1     -28.600 -47.712  47.290  1.00  0.00     0.001 A 
ATOM      6  C   UNL     1     -29.252 -48.840  46.796  1.00  0.00     0.004 A 
ENDROOT
BRANCH   1   7
ATOM      7  C   UNL     1     -25.080 -48.967  47.793  1.00  0.00     0.075 C 
ATOM      8  O   UNL     1     -24.262 -49.596  47.072  1.00  0.00    -0.545 OA
ATOM      9  O   UNL     1     -24.598 -48.201  48.848  1.00  0.00    -0.545 OA
ENDBRANCH   1   7
BRANCH   2  10
ATOM     10  O   UNL     1     -26.596 -51.386  46.937  1.00  0.00    -0.507 OA
ATOM     11  H   UNL     1     -25.631 -51.519  46.666  1.00  0.00     0.293 HD
ENDBRANCH   2  10
TORSDOF 2
ENDMDL
MODEL 2
REMARK VINA RESULT:    -4.733      1.915      3.438
REMARK INTER + INTRA:          -5.398
REMARK INTER:                  -5.186
REMARK INTRA:                  -0.212
REMARK UNBOUND:                -0.250
REMARK SMILES O=C([O-])c1ccccc1O
REMARK SMILES IDX 4 1 9 2 5 3 8 4 6 5 7 6 2 7 1 8 3 9 10 10
REMARK H PARENT 10 11
REMARK Flexibility Score: inf
ROOT
ATOM      1  C   UNL     1     -27.304 -48.554  47.708  1.00  0.00     0.039 A 
ATOM      2  C   UNL     1     -26.114 -49.314  47.551  1.00  0.00     0.124 A 
ATOM      3  C   UNL     1     -27.240 -47.323  48.385  1.00  0.00     0.014 A 
ATOM      4  C   UNL     1     -24.920 -48.856  48.124  1.00  0.00     0.047 A 
ATOM      5  C   UNL     1     -26.036 -46.872  48.933  1.00  0.00     0.001 A 
ATOM      6  C   UNL     1     -24.881 -47.642  48.811  1.00  0.00     0.004 A 
ENDROOT
BRANCH   1   7
ATOM      7  C   UNL     1     -28.621 -49.016  47.216  1.00  0.00     0.075 C 
ATOM      8  O   UNL     1     -28.741 -50.126  46.634  1.00  0.00    -0.545 OA
ATOM      9  O   UNL     1     -29.758 -48.255  47.455  1.00  0.00    -0.545 OA
ENDBRANCH   1   7
BRANCH   2  10
ATOM     10  O   UNL     1     -26.067 -50.497  46.811  1.00  0.00    -0.507 OA
ATOM     11  H   UNL     1     -25.258 -51.103  46.778  1.00  0.00     0.293 HD
ENDBRANCH   2  10
TORSDOF 2
ENDMDL
MODEL 3
REMARK VINA RESULT:    -4.668      2.552      2.765
REMARK INTER + INTRA:          -5.327
REMARK INTER:                  -5.080
REMARK INTRA:                  -0.246
REMARK UNBOUND:                -0.250
REMARK SMILES O=C([O-])c1ccccc1O
REMARK SMILES IDX 4 1 9 2 5 3 8 4 6 5 7 6 2 7 1 8 3 9 10 10
REMARK H PARENT 10 11
REMARK Flexibility Score: inf
ROOT
ATOM      1  C   UNL     1     -26.563 -46.745  47.110  1.00  0.00     0.039 A 
ATOM      2  C   UNL     1     -27.463 -47.360  48.020  1.00  0.00     0.124 A 
ATOM      3  C   UNL     1     -26.958 -46.578  45.770  1.00  0.00     0.014 A 
ATOM      4  C   UNL     1     -28.694 -47.842  47.556  1.00  0.00     0.047 A 
ATOM      5  C   UNL     1     -28.198 -47.046  45.329  1.00  0.00     0.001 A 
ATOM      6  C   UNL     1     -29.060 -47.686  46.218  1.00  0.00     0.004 A 
ENDROOT
BRANCH   1   7
ATOM      7  C   UNL     1     -25.207 -46.298  47.502  1.00  0.00     0.075 C 
ATOM      8  O   UNL     1     -24.258 -46.310  46.675  1.00  0.00    -0.545 OA
ATOM      9  O   UNL     1     -24.985 -45.790  48.776  1.00  0.00    -0.545 OA
ENDBRANCH   1   7
BRANCH   2  10
ATOM     10  O   UNL     1     -27.193 -47.479  49.384  1.00  0.00    -0.507 OA
ATOM     11  H   UNL     1     -26.414 -48.006  49.755  1.00  0.00     0.293 HD
ENDBRANCH   2  10
TORSDOF 2
ENDMDL
MODEL 4
REMARK VINA RESULT:    -4.655      1.958      3.569
REMARK INTER + INTRA:          -5.313
REMARK INTER:                  -5.094
REMARK INTRA:                  -0.219
REMARK UNBOUND:                -0.250
REMARK SMILES O=C([O-])c1ccccc1O
REMARK SMILES IDX 4 1 9 2 5 3 8 4 6 5 7 6 2 7 1 8 3 9 10 10
REMARK H PARENT 10 11
REMARK Flexibility Score: inf
ROOT
ATOM      1  C   UNL     1     -26.622 -49.130  47.502  1.00  0.00     0.039 A 
ATOM      2  C   UNL     1     -27.456 -48.164  48.126  1.00  0.00     0.124 A 
ATOM      3  C   UNL     1     -25.230 -49.052  47.693  1.00  0.00     0.014 A 
ATOM      4  C   UNL     1     -26.876 -47.123  48.863  1.00  0.00     0.047 A 
ATOM      5  C   UNL     1     -24.671 -48.019  48.449  1.00  0.00     0.001 A 
ATOM      6  C   UNL     1     -25.492 -47.051  49.024  1.00  0.00     0.004 A 
ENDROOT
BRANCH   1   7
ATOM      7  C   UNL     1     -27.151 -50.202  46.629  1.00  0.00     0.075 C 
ATOM      8  O   UNL     1     -28.376 -50.490  46.629  1.00  0.00    -0.545 OA
ATOM      9  O   UNL     1     -26.305 -50.857  45.742  1.00  0.00    -0.545 OA
ENDBRANCH   1   7
BRANCH   2  10
ATOM     10  O   UNL     1     -28.850 -48.221  48.068  1.00  0.00    -0.507 OA
ATOM     11  H   UNL     1     -29.443 -48.207  48.886  1.00  0.00     0.293 HD
ENDBRANCH   2  10
TORSDOF 2
ENDMDL
MODEL 5
REMARK VINA RESULT:    -4.488      5.810      8.287
REMARK INTER + INTRA:          -5.132
REMARK INTER:                  -4.903
REMARK INTRA:                  -0.229
REMARK UNBOUND:                -0.250
REMARK SMILES O=C([O-])c1ccccc1O
REMARK SMILES IDX 4 1 9 2 5 3 8 4 6 5 7 6 2 7 1 8 3 9 10 10
REMARK H PARENT 10 11
REMARK Flexibility Score: inf
ROOT
ATOM      1  C   UNL     1     -20.334 -49.474  50.063  1.00  0.00     0.039 A 
ATOM      2  C   UNL     1     -19.244 -48.592  49.834  1.00  0.00     0.124 A 
ATOM      3  C   UNL     1     -20.202 -50.478  51.039  1.00  0.00     0.014 A 
ATOM      4  C   UNL     1     -18.045 -48.778  50.534  1.00  0.00     0.047 A 
ATOM      5  C   UNL     1     -19.007 -50.635  51.743  1.00  0.00     0.001 A 
ATOM      6  C   UNL     1     -17.927 -49.793  51.484  1.00  0.00     0.004 A 
ENDROOT
BRANCH   1   7
ATOM      7  C   UNL     1     -21.597 -49.403  49.295  1.00  0.00     0.075 C 
ATOM      8  O   UNL     1     -21.590 -49.405  48.036  1.00  0.00    -0.545 OA
ATOM      9  O   UNL     1     -22.817 -49.406  49.961  1.00  0.00    -0.545 OA
ENDBRANCH   1   7
BRANCH   2  10
ATOM     10  O   UNL     1     -19.321 -47.510  48.955  1.00  0.00    -0.507 OA
ATOM     11  H   UNL     1     -19.369 -47.609  47.950  1.00  0.00     0.293 HD
ENDBRANCH   2  10
TORSDOF 2
ENDMDL
MODEL 6
REMARK VINA RESULT:    -4.392      6.245      8.007
REMARK INTER + INTRA:          -5.027
REMARK INTER:                  -4.779
REMARK INTRA:                  -0.248
REMARK UNBOUND:                -0.250
REMARK SMILES O=C([O-])c1ccccc1O
REMARK SMILES IDX 4 1 9 2 5 3 8 4 6 5 7 6 2 7 1 8 3 9 10 10
REMARK H PARENT 10 11
REMARK Flexibility Score: inf
ROOT
ATOM      1  C   UNL     1     -20.138 -48.972  50.014  1.00  0.00     0.039 A 
ATOM      2  C   UNL     1     -20.589 -50.111  50.732  1.00  0.00     0.124 A 
ATOM      3  C   UNL     1     -18.771 -48.643  50.048  1.00  0.00     0.014 A 
ATOM      4  C   UNL     1     -19.680 -50.844  51.507  1.00  0.00     0.047 A 
ATOM      5  C   UNL     1     -17.875 -49.397  50.809  1.00  0.00     0.001 A 
ATOM      6  C   UNL     1     -18.331 -50.490  51.545  1.00  0.00     0.004 A 
ENDROOT
BRANCH   1   7
ATOM      7  C   UNL     1     -21.052 -48.092  49.252  1.00  0.00     0.075 C 
ATOM      8  O   UNL     1     -21.996 -48.573  48.573  1.00  0.00    -0.545 OA
ATOM      9  O   UNL     1     -20.919 -46.711  49.337  1.00  0.00    -0.545 OA
ENDBRANCH   1   7
BRANCH   2  10
ATOM     10  O   UNL     1     -21.908 -50.566  50.677  1.00  0.00    -0.507 OA
ATOM     11  H   UNL     1     -22.167 -51.490  50.363  1.00  0.00     0.293 HD
ENDBRANCH   2  10
TORSDOF 2
ENDMDL
MODEL 7
REMARK VINA RESULT:    -4.381      2.777      3.837
REMARK INTER + INTRA:          -5.015
REMARK INTER:                  -4.769
REMARK INTRA:                  -0.246
REMARK UNBOUND:                -0.250
REMARK SMILES O=C([O-])c1ccccc1O
REMARK SMILES IDX 4 1 9 2 5 3 8 4 6 5 7 6 2 7 1 8 3 9 10 10
REMARK H PARENT 10 11
REMARK Flexibility Score: inf
ROOT
ATOM      1  C   UNL     1     -24.280 -47.795  48.839  1.00  0.00     0.039 A 
ATOM      2  C   UNL     1     -25.187 -46.732  49.089  1.00  0.00     0.124 A 
ATOM      3  C   UNL     1     -24.743 -48.939  48.164  1.00  0.00     0.014 A 
ATOM      4  C   UNL     1     -26.532 -46.867  48.718  1.00  0.00     0.047 A 
ATOM      5  C   UNL     1     -26.082 -49.049  47.783  1.00  0.00     0.001 A 
ATOM      6  C   UNL     1     -26.977 -48.019  48.068  1.00  0.00     0.004 A 
ENDROOT
BRANCH   1   7
ATOM      7  C   UNL     1     -22.870 -47.768  49.287  1.00  0.00     0.075 C 
ATOM      8  O   UNL     1     -22.135 -46.774  49.049  1.00  0.00    -0.545 OA
ATOM      9  O   UNL     1     -22.359 -48.818  50.040  1.00  0.00    -0.545 OA
ENDBRANCH   1   7
BRANCH   2  10
ATOM     10  O   UNL     1     -24.792 -45.523  49.666  1.00  0.00    -0.507 OA
ATOM     11  H   UNL     1     -24.147 -45.458  50.441  1.00  0.00     0.293 HD
ENDBRANCH   2  10
TORSDOF 2
ENDMDL
MODEL 8
REMARK VINA RESULT:    -4.330      6.385      7.663
REMARK INTER + INTRA:          -4.959
REMARK INTER:                  -4.707
REMARK INTRA:                  -0.252
REMARK UNBOUND:                -0.250
REMARK SMILES O=C([O-])c1ccccc1O
REMARK SMILES IDX 4 1 9 2 5 3 8 4 6 5 7 6 2 7 1 8 3 9 10 10
REMARK H PARENT 10 11
REMARK Flexibility Score: inf
ROOT
ATOM      1  C   UNL     1     -20.045 -49.697  50.407  1.00  0.00     0.039 A 
ATOM      2  C   UNL     1     -19.741 -48.371  49.998  1.00  0.00     0.124 A 
ATOM      3  C   UNL     1     -21.383 -50.128  50.379  1.00  0.00     0.014 A 
ATOM      4  C   UNL     1     -20.781 -47.504  49.636  1.00  0.00     0.047 A 
ATOM      5  C   UNL     1     -22.405 -49.256  49.996  1.00  0.00     0.001 A 
ATOM      6  C   UNL     1     -22.105 -47.944  49.635  1.00  0.00     0.004 A 
ENDROOT
BRANCH   1   7
ATOM      7  C   UNL     1     -19.014 -50.641  50.895  1.00  0.00     0.075 C 
ATOM      8  O   UNL     1     -19.001 -51.839  50.510  1.00  0.00    -0.545 OA
ATOM      9  O   UNL     1     -18.001 -50.191  51.733  1.00  0.00    -0.545 OA
ENDBRANCH   1   7
BRANCH   2  10
ATOM     10  O   UNL     1     -18.434 -47.891  49.902  1.00  0.00    -0.507 OA
ATOM     11  H   UNL     1     -18.061 -47.165  50.498  1.00  0.00     0.293 HD
ENDBRANCH   2  10
TORSDOF 2
ENDMDL
MODEL 9
REMARK VINA RESULT:    -4.307      6.829      8.437
REMARK INTER + INTRA:          -4.935
REMARK INTER:                  -4.686
REMARK INTRA:                  -0.249
REMARK UNBOUND:                -0.250
REMARK SMILES O=C([O-])c1ccccc1O
REMARK SMILES IDX 4 1 9 2 5 3 8 4 6 5 7 6 2 7 1 8 3 9 10 10
REMARK H PARENT 10 11
REMARK Flexibility Score: inf
ROOT
ATOM      1  C   UNL     1     -19.794 -51.285  48.971  1.00  0.00     0.039 A 
ATOM      2  C   UNL     1     -18.596 -51.996  49.246  1.00  0.00     0.124 A 
ATOM      3  C   UNL     1     -20.401 -50.550  50.004  1.00  0.00     0.014 A 
ATOM      4  C   UNL     1     -18.079 -52.003  50.549  1.00  0.00     0.047 A 
ATOM      5  C   UNL     1     -19.861 -50.550  51.292  1.00  0.00     0.001 A 
ATOM      6  C   UNL     1     -18.708 -51.284  51.566  1.00  0.00     0.004 A 
ENDROOT
BRANCH   1   7
ATOM      7  C   UNL     1     -20.453 -51.309  47.646  1.00  0.00     0.075 C 
ATOM      8  O   UNL     1     -20.418 -52.340  46.924  1.00  0.00    -0.545 OA
ATOM      9  O   UNL     1     -21.181 -50.208  47.212  1.00  0.00    -0.545 OA
ENDBRANCH   1   7
BRANCH   2  10
ATOM     10  O   UNL     1     -17.875 -52.673  48.260  1.00  0.00    -0.507 OA
ATOM     11  H   UNL     1     -17.127 -52.252  47.727  1.00  0.00     0.293 HD
ENDBRANCH   2  10
TORSDOF 2
ENDMDL
