MODEL 1
REMARK VINA RESULT:    -4.278      0.000      0.000
REMARK INTER + INTRA:          -6.740
REMARK INTER:                  -6.029
REMARK INTRA:                  -0.711
REMARK UNBOUND:                -0.711
REMARK SMILES CCCCCCCCC(=O)[O-]
REMARK SMILES IDX 6 1 7 2 8 3 9 4 10 5 11 6 5 7 4 8 3 9 2 10 1 11
REMARK H PARENT
REMARK Flexibility Score: inf
ROOT
ATOM      1  C   UNL     1     105.904 -80.683  21.908  1.00  0.00     0.000 C 
ENDROOT
BRANCH   1   2
ATOM      2  C   UNL     1     106.705 -81.248  20.721  1.00  0.00     0.006 C 
BRANCH   2   3
ATOM      3  C   UNL     1     106.090 -82.503  20.079  1.00  0.00     0.053 C 
BRANCH   3   4
ATOM      4  C   UNL     1     105.850 -82.326  18.612  1.00  0.00     0.041 C 
ATOM      5  O   UNL     1     106.369 -83.120  17.785  1.00  0.00    -0.550 OA
ATOM      6  O   UNL     1     105.024 -81.304  18.160  1.00  0.00    -0.550 OA
ENDBRANCH   3   4
ENDBRANCH   2   3
ENDBRANCH   1   2
BRANCH   1   7
ATOM      7  C   UNL     1     105.321 -81.784  22.810  1.00  0.00     0.000 C 
BRANCH   7   8
ATOM      8  C   UNL     1     106.082 -81.923  24.138  1.00  0.00    -0.000 C 
BRANCH   8   9
ATOM      9  C   UNL     1     106.588 -83.355  24.386  1.00  0.00    -0.000 C 
BRANCH   9  10
ATOM     10  C   UNL     1     107.685 -83.773  23.395  1.00  0.00    -0.003 C 
ATOM     11  C   UNL     1     108.930 -82.890  23.488  1.00  0.00     0.004 C 
ENDBRANCH   9  10
ENDBRANCH   8   9
ENDBRANCH   7   8
ENDBRANCH   1   7
TORSDOF 7
ENDMDL
MODEL 2
REMARK VINA RESULT:    -4.276      8.429     10.351
REMARK INTER + INTRA:          -6.736
REMARK INTER:                  -6.321
REMARK INTRA:                  -0.415
REMARK UNBOUND:                -0.711
REMARK SMILES CCCCCCCCC(=O)[O-]
REMARK SMILES IDX 6 1 7 2 8 3 9 4 10 5 11 6 5 7 4 8 3 9 2 10 1 11
REMARK H PARENT
REMARK Flexibility Score: inf
ROOT
ATOM      1  C   UNL     1     116.277 -83.386  21.580  1.00  0.00     0.000 C 
ENDROOT
BRANCH   1   2
ATOM      2  C   UNL     1     115.353 -83.091  20.384  1.00  0.00     0.006 C 
BRANCH   2   3
ATOM      3  C   UNL     1     114.027 -83.869  20.399  1.00  0.00     0.053 C 
BRANCH   3   4
ATOM      4  C   UNL     1     113.006 -83.224  21.285  1.00  0.00     0.041 C 
ATOM      5  O   UNL     1     112.535 -83.852  22.269  1.00  0.00    -0.550 OA
ATOM      6  O   UNL     1     112.602 -81.917  21.046  1.00  0.00    -0.550 OA
ENDBRANCH   3   4
ENDBRANCH   2   3
ENDBRANCH   1   2
BRANCH   1   7
ATOM      7  C   UNL     1     117.768 -83.338  21.206  1.00  0.00     0.000 C 
BRANCH   7   8
ATOM      8  C   UNL     1     118.669 -83.031  22.413  1.00  0.00    -0.000 C 
BRANCH   8   9
ATOM      9  C   UNL     1     119.111 -81.558  22.465  1.00  0.00    -0.000 C 
BRANCH   9  10
ATOM     10  C   UNL     1     119.210 -80.924  21.069  1.00  0.00    -0.003 C 
ATOM     11  C   UNL     1     118.260 -79.739  20.890  1.00  0.00     0.004 C 
ENDBRANCH   9  10
ENDBRANCH   8   9
ENDBRANCH   7   8
ENDBRANCH   1   7
TORSDOF 7
ENDMDL
MODEL 3
REMARK VINA RESULT:    -4.272     10.338     12.088
REMARK INTER + INTRA:          -6.731
REMARK INTER:                  -6.164
REMARK INTRA:                  -0.568
REMARK UNBOUND:                -0.711
REMARK SMILES CCCCCCCCC(=O)[O-]
REMARK SMILES IDX 6 1 7 2 8 3 9 4 10 5 11 6 5 7 4 8 3 9 2 10 1 11
REMARK H PARENT
REMARK Flexibility Score: inf
ROOT
ATOM      1  C   UNL     1     116.673 -83.273  21.537  1.00  0.00     0.000 C 
ENDROOT
BRANCH   1   2
ATOM      2  C   UNL     1     118.196 -83.116  21.368  1.00  0.00     0.006 C 
BRANCH   2   3
ATOM      3  C   UNL     1     118.817 -81.996  22.218  1.00  0.00     0.053 C 
BRANCH   3   4
ATOM      4  C   UNL     1     119.652 -82.535  23.338  1.00  0.00     0.041 C 
ATOM      5  O   UNL     1     119.539 -83.738  23.690  1.00  0.00    -0.550 OA
ATOM      6  O   UNL     1     120.582 -81.718  23.968  1.00  0.00    -0.550 OA
ENDBRANCH   3   4
ENDBRANCH   2   3
ENDBRANCH   1   2
BRANCH   1   7
ATOM      7  C   UNL     1     115.972 -81.945  21.870  1.00  0.00     0.000 C 
BRANCH   7   8
ATOM      8  C   UNL     1     115.047 -81.468  20.738  1.00  0.00    -0.000 C 
BRANCH   8   9
ATOM      9  C   UNL     1     115.392 -80.051  20.247  1.00  0.00    -0.000 C 
BRANCH   9  10
ATOM     10  C   UNL     1     116.384 -79.332  21.174  1.00  0.00    -0.003 C 
ATOM     11  C   UNL     1     115.762 -78.130  21.884  1.00  0.00     0.004 C 
ENDBRANCH   9  10
ENDBRANCH   8   9
ENDBRANCH   7   8
ENDBRANCH   1   7
TORSDOF 7
ENDMDL
MODEL 4
REMARK VINA RESULT:    -4.239      3.525      5.313
REMARK INTER + INTRA:          -6.685
REMARK INTER:                  -6.207
REMARK INTRA:                  -0.478
REMARK UNBOUND:                -0.711
REMARK SMILES CCCCCCCCC(=O)[O-]
REMARK SMILES IDX 6 1 7 2 8 3 9 4 10 5 11 6 5 7 4 8 3 9 2 10 1 11
REMARK H PARENT
REMARK Flexibility Score: inf
ROOT
ATOM      1  C   UNL     1     107.261 -80.768  21.616  1.00  0.00     0.000 C 
ENDROOT
BRANCH   1   2
ATOM      2  C   UNL     1     107.230 -80.766  23.156  1.00  0.00     0.006 C 
BRANCH   2   3
ATOM      3  C   UNL     1     106.068 -81.566  23.768  1.00  0.00     0.053 C 
BRANCH   3   4
ATOM      4  C   UNL     1     106.479 -82.295  25.009  1.00  0.00     0.041 C 
ATOM      5  O   UNL     1     106.552 -83.552  25.011  1.00  0.00    -0.550 OA
ATOM      6  O   UNL     1     106.815 -81.585  26.155  1.00  0.00    -0.550 OA
ENDBRANCH   3   4
ENDBRANCH   2   3
ENDBRANCH   1   2
BRANCH   1   7
ATOM      7  C   UNL     1     106.708 -79.468  21.008  1.00  0.00     0.000 C 
BRANCH   7   8
ATOM      8  C   UNL     1     105.415 -79.695  20.207  1.00  0.00    -0.000 C 
BRANCH   8   9
ATOM      9  C   UNL     1     105.118 -81.186  19.969  1.00  0.00    -0.000 C 
BRANCH   9  10
ATOM     10  C   UNL     1     105.263 -81.587  18.493  1.00  0.00    -0.003 C 
ATOM     11  C   UNL     1     106.251 -82.736  18.289  1.00  0.00     0.004 C 
ENDBRANCH   9  10
ENDBRANCH   8   9
ENDBRANCH   7   8
ENDBRANCH   1   7
TORSDOF 7
ENDMDL
MODEL 5
REMARK VINA RESULT:    -4.198      9.413     11.370
REMARK INTER + INTRA:          -6.627
REMARK INTER:                  -6.245
REMARK INTRA:                  -0.382
REMARK UNBOUND:                -0.711
REMARK SMILES CCCCCCCCC(=O)[O-]
REMARK SMILES IDX 6 1 7 2 8 3 9 4 10 5 11 6 5 7 4 8 3 9 2 10 1 11
REMARK H PARENT
REMARK Flexibility Score: inf
ROOT
ATOM      1  C   UNL     1     118.585 -82.991  22.411  1.00  0.00     0.000 C 
ENDROOT
BRANCH   1   2
ATOM      2  C   UNL     1     119.250 -81.606  22.323  1.00  0.00     0.006 C 
BRANCH   2   3
ATOM      3  C   UNL     1     118.997 -80.863  21.001  1.00  0.00     0.053 C 
BRANCH   3   4
ATOM      4  C   UNL     1     118.037 -79.725  21.169  1.00  0.00     0.041 C 
ATOM      5  O   UNL     1     116.896 -79.775  20.639  1.00  0.00    -0.550 OA
ATOM      6  O   UNL     1     118.390 -78.625  21.940  1.00  0.00    -0.550 OA
ENDBRANCH   3   4
ENDBRANCH   2   3
ENDBRANCH   1   2
BRANCH   1   7
ATOM      7  C   UNL     1     117.714 -83.312  21.184  1.00  0.00     0.000 C 
BRANCH   7   8
ATOM      8  C   UNL     1     116.220 -83.420  21.534  1.00  0.00    -0.000 C 
BRANCH   8   9
ATOM      9  C   UNL     1     115.306 -83.133  20.330  1.00  0.00    -0.000 C 
BRANCH   9  10
ATOM     10  C   UNL     1     114.002 -83.945  20.374  1.00  0.00    -0.003 C 
ATOM     11  C   UNL     1     113.069 -83.502  21.501  1.00  0.00     0.004 C 
ENDBRANCH   9  10
ENDBRANCH   8   9
ENDBRANCH   7   8
ENDBRANCH   1   7
TORSDOF 7
ENDMDL
MODEL 6
REMARK VINA RESULT:    -4.197      4.575      5.793
REMARK INTER + INTRA:          -6.625
REMARK INTER:                  -6.341
REMARK INTRA:                  -0.284
REMARK UNBOUND:                -0.711
REMARK SMILES CCCCCCCCC(=O)[O-]
REMARK SMILES IDX 6 1 7 2 8 3 9 4 10 5 11 6 5 7 4 8 3 9 2 10 1 11
REMARK H PARENT
REMARK Flexibility Score: inf
ROOT
ATOM      1  C   UNL     1     110.469 -82.486  23.402  1.00  0.00     0.000 C 
ENDROOT
BRANCH   1   2
ATOM      2  C   UNL     1     111.367 -82.453  22.151  1.00  0.00     0.006 C 
BRANCH   2   3
ATOM      3  C   UNL     1     112.501 -83.491  22.157  1.00  0.00     0.053 C 
BRANCH   3   4
ATOM      4  C   UNL     1     113.557 -83.177  21.142  1.00  0.00     0.041 C 
ATOM      5  O   UNL     1     114.150 -82.067  21.168  1.00  0.00    -0.550 OA
ATOM      6  O   UNL     1     113.912 -84.125  20.191  1.00  0.00    -0.550 OA
ENDBRANCH   3   4
ENDBRANCH   2   3
ENDBRANCH   1   2
BRANCH   1   7
ATOM      7  C   UNL     1     108.982 -82.275  23.073  1.00  0.00     0.000 C 
BRANCH   7   8
ATOM      8  C   UNL     1     108.126 -83.513  23.390  1.00  0.00    -0.000 C 
BRANCH   8   9
ATOM      9  C   UNL     1     106.813 -83.159  24.108  1.00  0.00    -0.000 C 
BRANCH   9  10
ATOM     10  C   UNL     1     106.862 -81.777  24.778  1.00  0.00    -0.003 C 
ATOM     11  C   UNL     1     106.973 -81.863  26.301  1.00  0.00     0.004 C 
ENDBRANCH   9  10
ENDBRANCH   8   9
ENDBRANCH   7   8
ENDBRANCH   1   7
TORSDOF 7
ENDMDL
MODEL 7
REMARK VINA RESULT:    -4.180      8.243     10.023
REMARK INTER + INTRA:          -6.602
REMARK INTER:                  -6.003
REMARK INTRA:                  -0.599
REMARK UNBOUND:                -0.711
REMARK SMILES CCCCCCCCC(=O)[O-]
REMARK SMILES IDX 6 1 7 2 8 3 9 4 10 5 11 6 5 7 4 8 3 9 2 10 1 11
REMARK H PARENT
REMARK Flexibility Score: inf
ROOT
ATOM      1  C   UNL     1     115.476 -80.144  20.464  1.00  0.00     0.000 C 
ENDROOT
BRANCH   1   2
ATOM      2  C   UNL     1     114.405 -80.980  21.189  1.00  0.00     0.006 C 
BRANCH   2   3
ATOM      3  C   UNL     1     114.847 -82.410  21.542  1.00  0.00     0.053 C 
BRANCH   3   4
ATOM      4  C   UNL     1     113.817 -83.428  21.162  1.00  0.00     0.041 C 
ATOM      5  O   UNL     1     112.828 -83.639  21.912  1.00  0.00    -0.550 OA
ATOM      6  O   UNL     1     113.930 -84.119  19.962  1.00  0.00    -0.550 OA
ENDBRANCH   3   4
ENDBRANCH   2   3
ENDBRANCH   1   2
BRANCH   1   7
ATOM      7  C   UNL     1     116.143 -79.107  21.383  1.00  0.00     0.000 C 
BRANCH   7   8
ATOM      8  C   UNL     1     117.669 -79.285  21.462  1.00  0.00    -0.000 C 
BRANCH   8   9
ATOM      9  C   UNL     1     118.079 -80.581  22.181  1.00  0.00    -0.000 C 
BRANCH   9  10
ATOM     10  C   UNL     1     118.929 -81.504  21.293  1.00  0.00    -0.003 C 
ATOM     11  C   UNL     1     118.549 -82.977  21.440  1.00  0.00     0.004 C 
ENDBRANCH   9  10
ENDBRANCH   8   9
ENDBRANCH   7   8
ENDBRANCH   1   7
TORSDOF 7
ENDMDL
MODEL 8
REMARK VINA RESULT:    -4.142      3.546      5.357
REMARK INTER + INTRA:          -6.548
REMARK INTER:                  -6.051
REMARK INTRA:                  -0.497
REMARK UNBOUND:                -0.711
REMARK SMILES CCCCCCCCC(=O)[O-]
REMARK SMILES IDX 6 1 7 2 8 3 9 4 10 5 11 6 5 7 4 8 3 9 2 10 1 11
REMARK H PARENT
REMARK Flexibility Score: inf
ROOT
ATOM      1  C   UNL     1     105.943 -83.673  22.351  1.00  0.00     0.000 C 
ENDROOT
BRANCH   1   2
ATOM      2  C   UNL     1     107.027 -83.790  23.439  1.00  0.00     0.006 C 
BRANCH   2   3
ATOM      3  C   UNL     1     106.550 -83.415  24.852  1.00  0.00     0.053 C 
BRANCH   3   4
ATOM      4  C   UNL     1     107.339 -82.282  25.431  1.00  0.00     0.041 C 
ATOM      5  O   UNL     1     106.848 -81.570  26.346  1.00  0.00    -0.550 OA
ATOM      6  O   UNL     1     108.631 -82.033  24.985  1.00  0.00    -0.550 OA
ENDBRANCH   3   4
ENDBRANCH   2   3
ENDBRANCH   1   2
BRANCH   1   7
ATOM      7  C   UNL     1     105.184 -82.337  22.409  1.00  0.00     0.000 C 
BRANCH   7   8
ATOM      8  C   UNL     1     106.001 -81.169  21.832  1.00  0.00    -0.000 C 
BRANCH   8   9
ATOM      9  C   UNL     1     106.723 -81.539  20.525  1.00  0.00    -0.000 C 
BRANCH   9  10
ATOM     10  C   UNL     1     105.772 -81.587  19.319  1.00  0.00    -0.003 C 
ATOM     11  C   UNL     1     106.077 -82.750  18.374  1.00  0.00     0.004 C 
ENDBRANCH   9  10
ENDBRANCH   8   9
ENDBRANCH   7   8
ENDBRANCH   1   7
TORSDOF 7
ENDMDL
MODEL 9
REMARK VINA RESULT:    -4.126      2.937      4.659
REMARK INTER + INTRA:          -6.526
REMARK INTER:                  -5.850
REMARK INTRA:                  -0.676
REMARK UNBOUND:                -0.711
REMARK SMILES CCCCCCCCC(=O)[O-]
REMARK SMILES IDX 6 1 7 2 8 3 9 4 10 5 11 6 5 7 4 8 3 9 2 10 1 11
REMARK H PARENT
REMARK Flexibility Score: inf
ROOT
ATOM      1  C   UNL     1     105.781 -81.769  23.761  1.00  0.00     0.000 C 
ENDROOT
BRANCH   1   2
ATOM      2  C   UNL     1     106.475 -83.041  24.282  1.00  0.00     0.006 C 
BRANCH   2   3
ATOM      3  C   UNL     1     107.738 -83.440  23.500  1.00  0.00     0.053 C 
BRANCH   3   4
ATOM      4  C   UNL     1     108.777 -82.362  23.520  1.00  0.00     0.041 C 
ATOM      5  O   UNL     1     109.129 -81.802  22.449  1.00  0.00    -0.550 OA
ATOM      6  O   UNL     1     109.331 -81.951  24.726  1.00  0.00    -0.550 OA
ENDBRANCH   3   4
ENDBRANCH   2   3
ENDBRANCH   1   2
BRANCH   1   7
ATOM      7  C   UNL     1     104.481 -82.071  22.997  1.00  0.00     0.000 C 
BRANCH   7   8
ATOM      8  C   UNL     1     104.501 -81.523  21.560  1.00  0.00    -0.000 C 
BRANCH   8   9
ATOM      9  C   UNL     1     105.889 -81.012  21.138  1.00  0.00    -0.000 C 
BRANCH   9  10
ATOM     10  C   UNL     1     106.511 -81.858  20.016  1.00  0.00    -0.003 C 
ATOM     11  C   UNL     1     105.592 -81.995  18.802  1.00  0.00     0.004 C 
ENDBRANCH   9  10
ENDBRANCH   8   9
ENDBRANCH   7   8
ENDBRANCH   1   7
TORSDOF 7
ENDMDL
