MODEL 1
REMARK VINA RESULT:    -2.075      0.000      0.000
REMARK INTER + INTRA:           0.374
REMARK INTER:                  -3.288
REMARK INTRA:                   3.662
REMARK UNBOUND:                 3.662
REMARK SMILES C[C@@H]1O[C@@H](O[C@H]2[C@@H](Oc3cc(O)c4c(c3)O[C@H](c3ccc(O)cc3)CC4=O)O[C@H](CO)[C@H](O)[C@H]2O)[C@@H](O)[C@@H](O)[C@@H]1O
REMARK SMILES IDX 6 1 34 2 32 3 29 4 28 5 7 6 5 7 4 8 1 9 2 10 40 11 3 12
REMARK SMILES IDX 38 13 36 14 41 15 39 17 37 19 35 21 8 23 9 24 10 25 15 26
REMARK SMILES IDX 11 27 14 28 13 29 16 30 26 31 17 32 27 33 25 34 12 35 18 37
REMARK SMILES IDX 19 38 24 39 20 40 23 41 21 42 22 43 33 45 30 47 31 48
REMARK H PARENT 41 16 39 18 37 20 35 22 12 36 22 44 33 46 31 49
REMARK Flexibility Score: inf
ROOT
ATOM      1  C   UNL     1      59.735  39.300   5.865  1.00  0.00     0.221 C 
ATOM      2  C   UNL     1      59.315  38.078   6.702  1.00  0.00     0.181 C 
ATOM      3  C   UNL     1      59.005  36.884   5.778  1.00  0.00     0.177 C 
ATOM      4  C   UNL     1      60.197  36.652   4.820  1.00  0.00     0.179 C 
ATOM      5  O   UNL     1      60.445  37.811   4.039  1.00  0.00    -0.332 OA
ATOM      6  C   UNL     1      60.828  38.913   4.846  1.00  0.00     0.339 C 
ENDROOT
BRANCH   1   7
ATOM      7  O   UNL     1      60.240  40.305   6.736  1.00  0.00    -0.337 OA
BRANCH   7   8
ATOM      8  C   UNL     1      59.398  41.447   6.781  1.00  0.00     0.282 C 
ATOM      9  C   UNL     1      56.795  40.377   4.396  1.00  0.00     0.041 C 
ATOM     10  C   UNL     1      58.178  40.831   4.868  1.00  0.00     0.150 C 
ATOM     11  C   UNL     1      58.691  42.025   4.034  1.00  0.00     0.174 C 
ATOM     12  O   UNL     1      58.109  41.169   6.246  1.00  0.00    -0.344 OA
ATOM     13  C   UNL     1      60.093  42.417   4.530  1.00  0.00     0.179 C 
ATOM     14  C   UNL     1      60.066  42.636   6.055  1.00  0.00     0.202 C 
BRANCH  11  15
ATOM     15  O   UNL     1      57.824  43.125   4.175  1.00  0.00    -0.388 OA
ATOM     16  H   UNL     1      57.959  43.712   3.384  1.00  0.00     0.211 HD
ENDBRANCH  11  15
BRANCH  13  17
ATOM     17  O   UNL     1      61.026  41.416   4.207  1.00  0.00    -0.387 OA
ATOM     18  H   UNL     1      61.384  41.636   3.306  1.00  0.00     0.211 HD
ENDBRANCH  13  17
BRANCH  14  19
ATOM     19  O   UNL     1      61.367  42.821   6.549  1.00  0.00    -0.385 OA
ATOM     20  H   UNL     1      61.951  42.971   5.760  1.00  0.00     0.211 HD
ENDBRANCH  14  19
ENDBRANCH   7   8
ENDBRANCH   1   7
BRANCH   2  21
ATOM     21  O   UNL     1      60.344  37.745   7.601  1.00  0.00    -0.387 OA
ATOM     22  H   UNL     1      60.235  38.333   8.399  1.00  0.00     0.211 HD
ENDBRANCH   2  21
BRANCH   6  23
ATOM     23  O   UNL     1      62.066  38.656   5.524  1.00  0.00    -0.462 OA
BRANCH  23  24
ATOM     24  C   UNL     1      62.773  39.573   6.319  1.00  0.00     0.130 A 
ATOM     25  C   UNL     1      63.534  40.627   5.785  1.00  0.00     0.093 A 
ATOM     26  C   UNL     1      62.681  39.436   7.705  1.00  0.00     0.094 A 
ATOM     27  C   UNL     1      64.130  41.581   6.619  1.00  0.00     0.133 A 
ATOM     28  C   UNL     1      63.314  40.343   8.555  1.00  0.00     0.138 A 
ATOM     29  C   UNL     1      64.040  41.433   8.029  1.00  0.00     0.102 A 
ATOM     30  O   UNL     1      63.208  40.158   9.942  1.00  0.00    -0.484 OA
ATOM     31  C   UNL     1      64.672  42.353   9.012  1.00  0.00     0.174 C 
ATOM     32  C   UNL     1      64.044  40.852  10.871  1.00  0.00     0.211 C 
ATOM     33  O   UNL     1      65.614  43.125   8.693  1.00  0.00    -0.294 OA
ATOM     34  C   UNL     1      64.211  42.314  10.441  1.00  0.00     0.131 C 
BRANCH  27  35
ATOM     35  O   UNL     1      64.762  42.660   5.999  1.00  0.00    -0.507 OA
ATOM     36  H   UNL     1      64.737  42.841   5.005  1.00  0.00     0.293 HD
ENDBRANCH  27  35
BRANCH  32  37
ATOM     37  C   UNL     1      63.469  40.763  12.265  1.00  0.00    -0.007 A 
ATOM     38  C   UNL     1      63.580  41.839  13.162  1.00  0.00     0.011 A 
ATOM     39  C   UNL     1      62.872  39.567  12.701  1.00  0.00     0.011 A 
ATOM     40  C   UNL     1      63.074  41.732  14.460  1.00  0.00     0.046 A 
ATOM     41  C   UNL     1      62.368  39.461  14.000  1.00  0.00     0.046 A 
ATOM     42  C   UNL     1      62.465  40.546  14.882  1.00  0.00     0.115 A 
BRANCH  42  43
ATOM     43  O   UNL     1      61.965  40.454  16.178  1.00  0.00    -0.508 OA
ATOM     44  H   UNL     1      62.407  40.938  16.950  1.00  0.00     0.293 HD
ENDBRANCH  42  43
ENDBRANCH  32  37
ENDBRANCH  23  24
ENDBRANCH   6  23
BRANCH   3  45
ATOM     45  O   UNL     1      57.840  37.141   5.038  1.00  0.00    -0.387 OA
ATOM     46  H   UNL     1      57.809  38.121   4.878  1.00  0.00     0.211 HD
ENDBRANCH   3  45
BRANCH   4  47
ATOM     47  C   UNL     1      59.937  35.470   3.875  1.00  0.00     0.191 C 
BRANCH  47  48
ATOM     48  O   UNL     1      58.575  35.132   3.877  1.00  0.00    -0.394 OA
ATOM     49  H   UNL     1      58.129  35.781   3.273  1.00  0.00     0.210 HD
ENDBRANCH  47  48
ENDBRANCH   4  47
TORSDOF 14
ENDMDL
MODEL 2
REMARK VINA RESULT:    -0.118      1.978      4.449
REMARK INTER + INTRA:           3.476
REMARK INTER:                  -3.357
REMARK INTRA:                   6.833
REMARK UNBOUND:                 3.662
REMARK SMILES C[C@@H]1O[C@@H](O[C@H]2[C@@H](Oc3cc(O)c4c(c3)O[C@H](c3ccc(O)cc3)CC4=O)O[C@H](CO)[C@H](O)[C@H]2O)[C@@H](O)[C@@H](O)[C@@H]1O
REMARK SMILES IDX 6 1 34 2 32 3 29 4 28 5 7 6 5 7 4 8 1 9 2 10 40 11 3 12
REMARK SMILES IDX 38 13 36 14 41 15 39 17 37 19 35 21 8 23 9 24 10 25 15 26
REMARK SMILES IDX 11 27 14 28 13 29 16 30 26 31 17 32 27 33 25 34 12 35 18 37
REMARK SMILES IDX 19 38 24 39 20 40 23 41 21 42 22 43 33 45 30 47 31 48
REMARK H PARENT 41 16 39 18 37 20 35 22 12 36 22 44 33 46 31 49
REMARK Flexibility Score: inf
ROOT
ATOM      1  C   UNL     1      62.160  40.286   5.133  1.00  0.00     0.221 C 
ATOM      2  C   UNL     1      63.402  39.735   5.856  1.00  0.00     0.181 C 
ATOM      3  C   UNL     1      64.661  40.501   5.406  1.00  0.00     0.177 C 
ATOM      4  C   UNL     1      64.423  42.021   5.564  1.00  0.00     0.179 C 
ATOM      5  O   UNL     1      63.307  42.436   4.791  1.00  0.00    -0.332 OA
ATOM      6  C   UNL     1      62.106  41.826   5.237  1.00  0.00     0.339 C 
ENDROOT
BRANCH   1   7
ATOM      7  O   UNL     1      60.994  39.735   5.733  1.00  0.00    -0.337 OA
BRANCH   7   8
ATOM      8  C   UNL     1      61.119  38.340   5.965  1.00  0.00     0.282 C 
ATOM      9  C   UNL     1      58.322  37.124   3.890  1.00  0.00     0.041 C 
ATOM     10  C   UNL     1      59.010  37.829   5.062  1.00  0.00     0.150 C 
ATOM     11  C   UNL     1      58.433  37.361   6.415  1.00  0.00     0.174 C 
ATOM     12  O   UNL     1      60.407  37.581   4.994  1.00  0.00    -0.344 OA
ATOM     13  C   UNL     1      59.137  38.122   7.551  1.00  0.00     0.179 C 
ATOM     14  C   UNL     1      60.665  37.991   7.399  1.00  0.00     0.202 C 
BRANCH  11  15
ATOM     15  O   UNL     1      58.644  35.979   6.581  1.00  0.00    -0.388 OA
ATOM     16  H   UNL     1      59.372  35.713   5.958  1.00  0.00     0.211 HD
ENDBRANCH  11  15
BRANCH  13  17
ATOM     17  O   UNL     1      58.770  39.479   7.532  1.00  0.00    -0.387 OA
ATOM     18  H   UNL     1      58.960  39.816   6.616  1.00  0.00     0.211 HD
ENDBRANCH  13  17
BRANCH  14  19
ATOM     19  O   UNL     1      61.324  38.821   8.320  1.00  0.00    -0.385 OA
ATOM     20  H   UNL     1      62.085  39.234   7.835  1.00  0.00     0.211 HD
ENDBRANCH  14  19
ENDBRANCH   7   8
ENDBRANCH   1   7
BRANCH   2  21
ATOM     21  O   UNL     1      63.231  39.855   7.248  1.00  0.00    -0.387 OA
ATOM     22  H   UNL     1      64.100  40.172   7.621  1.00  0.00     0.211 HD
ENDBRANCH   2  21
BRANCH   6  23
ATOM     23  O   UNL     1      61.791  42.219   6.579  1.00  0.00    -0.462 OA
BRANCH  23  24
ATOM     24  C   UNL     1      62.624  42.060   7.700  1.00  0.00     0.130 A 
ATOM     25  C   UNL     1      63.932  42.570   7.763  1.00  0.00     0.093 A 
ATOM     26  C   UNL     1      62.102  41.388   8.806  1.00  0.00     0.094 A 
ATOM     27  C   UNL     1      64.684  42.483   8.942  1.00  0.00     0.133 A 
ATOM     28  C   UNL     1      62.856  41.241   9.971  1.00  0.00     0.138 A 
ATOM     29  C   UNL     1      64.152  41.791  10.062  1.00  0.00     0.102 A 
ATOM     30  O   UNL     1      62.298  40.544  11.054  1.00  0.00    -0.484 OA
ATOM     31  C   UNL     1      64.874  41.592  11.347  1.00  0.00     0.174 C 
ATOM     32  C   UNL     1      63.083  40.099  12.162  1.00  0.00     0.211 C 
ATOM     33  O   UNL     1      66.125  41.709  11.433  1.00  0.00    -0.294 OA
ATOM     34  C   UNL     1      64.093  41.181  12.562  1.00  0.00     0.131 C 
BRANCH  27  35
ATOM     35  O   UNL     1      65.924  43.124   8.952  1.00  0.00    -0.507 OA
ATOM     36  H   UNL     1      66.762  42.738   9.362  1.00  0.00     0.293 HD
ENDBRANCH  27  35
BRANCH  32  37
ATOM     37  C   UNL     1      62.192  39.736  13.327  1.00  0.00    -0.007 A 
ATOM     38  C   UNL     1      62.239  38.453  13.899  1.00  0.00     0.011 A 
ATOM     39  C   UNL     1      61.255  40.667  13.808  1.00  0.00     0.011 A 
ATOM     40  C   UNL     1      61.386  38.119  14.954  1.00  0.00     0.046 A 
ATOM     41  C   UNL     1      60.402  40.330  14.863  1.00  0.00     0.046 A 
ATOM     42  C   UNL     1      60.468  39.055  15.440  1.00  0.00     0.115 A 
BRANCH  42  43
ATOM     43  O   UNL     1      59.625  38.709  16.493  1.00  0.00    -0.508 OA
ATOM     44  H   UNL     1      58.878  39.322  16.794  1.00  0.00     0.293 HD
ENDBRANCH  42  43
ENDBRANCH  32  37
ENDBRANCH  23  24
ENDBRANCH   6  23
BRANCH   3  45
ATOM     45  O   UNL     1      64.950  40.199   4.065  1.00  0.00    -0.387 OA
ATOM     46  H   UNL     1      65.421  39.325   4.060  1.00  0.00     0.211 HD
ENDBRANCH   3  45
BRANCH   4  47
ATOM     47  C   UNL     1      65.652  42.830   5.125  1.00  0.00     0.191 C 
BRANCH  47  48
ATOM     48  O   UNL     1      66.119  42.377   3.882  1.00  0.00    -0.394 OA
ATOM     49  H   UNL     1      65.377  42.518   3.239  1.00  0.00     0.210 HD
ENDBRANCH  47  48
ENDBRANCH   4  47
TORSDOF 14
ENDMDL
MODEL 3
REMARK VINA RESULT:     0.001     16.753     20.155
REMARK INTER + INTRA:           3.664
REMARK INTER:                  -2.814
REMARK INTRA:                   6.479
REMARK UNBOUND:                 3.662
REMARK SMILES C[C@@H]1O[C@@H](O[C@H]2[C@@H](Oc3cc(O)c4c(c3)O[C@H](c3ccc(O)cc3)CC4=O)O[C@H](CO)[C@H](O)[C@H]2O)[C@@H](O)[C@@H](O)[C@@H]1O
REMARK SMILES IDX 6 1 34 2 32 3 29 4 28 5 7 6 5 7 4 8 1 9 2 10 40 11 3 12
REMARK SMILES IDX 38 13 36 14 41 15 39 17 37 19 35 21 8 23 9 24 10 25 15 26
REMARK SMILES IDX 11 27 14 28 13 29 16 30 26 31 17 32 27 33 25 34 12 35 18 37
REMARK SMILES IDX 19 38 24 39 20 40 23 41 21 42 22 43 33 45 30 47 31 48
REMARK H PARENT 41 16 39 18 37 20 35 22 12 36 22 44 33 46 31 49
REMARK Flexibility Score: inf
ROOT
ATOM      1  C   UNL     1      48.106  28.683  16.944  1.00  0.00     0.221 C 
ATOM      2  C   UNL     1      48.820  30.037  17.106  1.00  0.00     0.181 C 
ATOM      3  C   UNL     1      49.396  30.498  15.753  1.00  0.00     0.177 C 
ATOM      4  C   UNL     1      48.283  30.461  14.680  1.00  0.00     0.179 C 
ATOM      5  O   UNL     1      47.752  29.151  14.554  1.00  0.00    -0.332 OA
ATOM      6  C   UNL     1      47.124  28.723  15.753  1.00  0.00     0.339 C 
ENDROOT
BRANCH   1   7
ATOM      7  O   UNL     1      47.384  28.396  18.136  1.00  0.00    -0.337 OA
BRANCH   7   8
ATOM      8  C   UNL     1      48.109  28.760  19.301  1.00  0.00     0.282 C 
ATOM      9  C   UNL     1      50.080  25.679  19.780  1.00  0.00     0.041 C 
ATOM     10  C   UNL     1      48.835  26.568  19.740  1.00  0.00     0.150 C 
ATOM     11  C   UNL     1      48.023  26.454  21.048  1.00  0.00     0.174 C 
ATOM     12  O   UNL     1      49.233  27.911  19.506  1.00  0.00    -0.344 OA
ATOM     13  C   UNL     1      46.771  27.341  20.940  1.00  0.00     0.179 C 
ATOM     14  C   UNL     1      47.177  28.770  20.533  1.00  0.00     0.202 C 
BRANCH  11  15
ATOM     15  O   UNL     1      48.801  26.880  22.142  1.00  0.00    -0.388 OA
ATOM     16  H   UNL     1      48.443  27.760  22.435  1.00  0.00     0.211 HD
ENDBRANCH  11  15
BRANCH  13  17
ATOM     17  O   UNL     1      45.875  26.811  19.995  1.00  0.00    -0.387 OA
ATOM     18  H   UNL     1      46.287  26.947  19.101  1.00  0.00     0.211 HD
ENDBRANCH  13  17
BRANCH  14  19
ATOM     19  O   UNL     1      46.039  29.546  20.259  1.00  0.00    -0.385 OA
ATOM     20  H   UNL     1      45.884  29.485  19.280  1.00  0.00     0.211 HD
ENDBRANCH  14  19
ENDBRANCH   7   8
ENDBRANCH   1   7
BRANCH   2  21
ATOM     21  O   UNL     1      47.913  30.993  17.601  1.00  0.00    -0.387 OA
ATOM     22  H   UNL     1      48.442  31.812  17.812  1.00  0.00     0.211 HD
ENDBRANCH   2  21
BRANCH   6  23
ATOM     23  O   UNL     1      45.995  29.548  16.071  1.00  0.00    -0.462 OA
BRANCH  23  24
ATOM     24  C   UNL     1      46.024  30.938  16.271  1.00  0.00     0.130 A 
ATOM     25  C   UNL     1      45.876  31.535  17.535  1.00  0.00     0.093 A 
ATOM     26  C   UNL     1      46.241  31.750  15.158  1.00  0.00     0.094 A 
ATOM     27  C   UNL     1      46.023  32.918  17.701  1.00  0.00     0.133 A 
ATOM     28  C   UNL     1      46.335  33.136  15.293  1.00  0.00     0.138 A 
ATOM     29  C   UNL     1      46.236  33.742  16.564  1.00  0.00     0.102 A 
ATOM     30  O   UNL     1      46.538  33.915  14.144  1.00  0.00    -0.484 OA
ATOM     31  C   UNL     1      46.358  35.223  16.610  1.00  0.00     0.174 C 
ATOM     32  C   UNL     1      46.361  35.334  14.142  1.00  0.00     0.211 C 
ATOM     33  O   UNL     1      45.942  35.895  17.589  1.00  0.00    -0.294 OA
ATOM     34  C   UNL     1      46.941  35.940  15.425  1.00  0.00     0.131 C 
BRANCH  27  35
ATOM     35  O   UNL     1      45.982  33.408  19.007  1.00  0.00    -0.507 OA
ATOM     36  H   UNL     1      46.038  34.387  19.251  1.00  0.00     0.293 HD
ENDBRANCH  27  35
BRANCH  32  37
ATOM     37  C   UNL     1      47.006  35.943  12.919  1.00  0.00    -0.007 A 
ATOM     38  C   UNL     1      46.262  36.168  11.748  1.00  0.00     0.011 A 
ATOM     39  C   UNL     1      48.382  36.231  12.923  1.00  0.00     0.011 A 
ATOM     40  C   UNL     1      46.878  36.702  10.612  1.00  0.00     0.046 A 
ATOM     41  C   UNL     1      48.996  36.763  11.786  1.00  0.00     0.046 A 
ATOM     42  C   UNL     1      48.243  37.002  10.628  1.00  0.00     0.115 A 
BRANCH  42  43
ATOM     43  O   UNL     1      48.844  37.534   9.489  1.00  0.00    -0.508 OA
ATOM     44  H   UNL     1      49.679  37.121   9.092  1.00  0.00     0.293 HD
ENDBRANCH  42  43
ENDBRANCH  32  37
ENDBRANCH  23  24
ENDBRANCH   6  23
BRANCH   3  45
ATOM     45  O   UNL     1      50.455  29.657  15.373  1.00  0.00    -0.387 OA
ATOM     46  H   UNL     1      51.295  30.099  15.664  1.00  0.00     0.211 HD
ENDBRANCH   3  45
BRANCH   4  47
ATOM     47  C   UNL     1      48.808  30.911  13.309  1.00  0.00     0.191 C 
BRANCH  47  48
ATOM     48  O   UNL     1      47.787  31.528  12.572  1.00  0.00    -0.394 OA
ATOM     49  H   UNL     1      47.690  31.000  11.738  1.00  0.00     0.210 HD
ENDBRANCH  47  48
ENDBRANCH   4  47
TORSDOF 14
ENDMDL
MODEL 4
REMARK VINA RESULT:     0.509      1.606      3.995
REMARK INTER + INTRA:           4.469
REMARK INTER:                  -3.261
REMARK INTRA:                   7.730
REMARK UNBOUND:                 3.662
REMARK SMILES C[C@@H]1O[C@@H](O[C@H]2[C@@H](Oc3cc(O)c4c(c3)O[C@H](c3ccc(O)cc3)CC4=O)O[C@H](CO)[C@H](O)[C@H]2O)[C@@H](O)[C@@H](O)[C@@H]1O
REMARK SMILES IDX 6 1 34 2 32 3 29 4 28 5 7 6 5 7 4 8 1 9 2 10 40 11 3 12
REMARK SMILES IDX 38 13 36 14 41 15 39 17 37 19 35 21 8 23 9 24 10 25 15 26
REMARK SMILES IDX 11 27 14 28 13 29 16 30 26 31 17 32 27 33 25 34 12 35 18 37
REMARK SMILES IDX 19 38 24 39 20 40 23 41 21 42 22 43 33 45 30 47 31 48
REMARK H PARENT 41 16 39 18 37 20 35 22 12 36 22 44 33 46 31 49
REMARK Flexibility Score: inf
ROOT
ATOM      1  C   UNL     1      62.531  39.306   4.563  1.00  0.00     0.221 C 
ATOM      2  C   UNL     1      63.621  38.639   5.420  1.00  0.00     0.181 C 
ATOM      3  C   UNL     1      64.973  39.348   5.206  1.00  0.00     0.177 C 
ATOM      4  C   UNL     1      64.797  40.869   5.425  1.00  0.00     0.179 C 
ATOM      5  O   UNL     1      63.831  41.396   4.528  1.00  0.00    -0.332 OA
ATOM      6  C   UNL     1      62.546  40.838   4.756  1.00  0.00     0.339 C 
ENDROOT
BRANCH   1   7
ATOM      7  O   UNL     1      61.261  38.797   4.953  1.00  0.00    -0.337 OA
BRANCH   7   8
ATOM      8  C   UNL     1      60.232  39.179   4.052  1.00  0.00     0.282 C 
ATOM      9  C   UNL     1      60.001  42.767   4.877  1.00  0.00     0.041 C 
ATOM     10  C   UNL     1      59.865  41.257   5.087  1.00  0.00     0.150 C 
ATOM     11  C   UNL     1      58.443  40.884   5.559  1.00  0.00     0.174 C 
ATOM     12  O   UNL     1      60.188  40.590   3.875  1.00  0.00    -0.344 OA
ATOM     13  C   UNL     1      58.373  39.363   5.783  1.00  0.00     0.179 C 
ATOM     14  C   UNL     1      58.870  38.626   4.526  1.00  0.00     0.202 C 
BRANCH  11  15
ATOM     15  O   UNL     1      57.495  41.254   4.586  1.00  0.00    -0.388 OA
ATOM     16  H   UNL     1      57.744  40.795   3.739  1.00  0.00     0.211 HD
ENDBRANCH  11  15
BRANCH  13  17
ATOM     17  O   UNL     1      59.153  38.996   6.893  1.00  0.00    -0.387 OA
ATOM     18  H   UNL     1      59.653  38.176   6.634  1.00  0.00     0.211 HD
ENDBRANCH  13  17
BRANCH  14  19
ATOM     19  O   UNL     1      58.979  37.248   4.774  1.00  0.00    -0.385 OA
ATOM     20  H   UNL     1      58.363  37.046   5.526  1.00  0.00     0.211 HD
ENDBRANCH  14  19
ENDBRANCH   7   8
ENDBRANCH   1   7
BRANCH   2  21
ATOM     21  O   UNL     1      63.253  38.692   6.778  1.00  0.00    -0.387 OA
ATOM     22  H   UNL     1      62.680  37.896   6.955  1.00  0.00     0.211 HD
ENDBRANCH   2  21
BRANCH   6  23
ATOM     23  O   UNL     1      62.058  41.176   6.062  1.00  0.00    -0.462 OA
BRANCH  23  24
ATOM     24  C   UNL     1      62.840  41.315   7.221  1.00  0.00     0.130 A 
ATOM     25  C   UNL     1      64.028  42.065   7.260  1.00  0.00     0.093 A 
ATOM     26  C   UNL     1      62.386  40.699   8.388  1.00  0.00     0.094 A 
ATOM     27  C   UNL     1      64.714  42.266   8.465  1.00  0.00     0.133 A 
ATOM     28  C   UNL     1      63.085  40.841   9.588  1.00  0.00     0.138 A 
ATOM     29  C   UNL     1      64.253  41.631   9.648  1.00  0.00     0.102 A 
ATOM     30  O   UNL     1      62.601  40.191  10.733  1.00  0.00    -0.484 OA
ATOM     31  C   UNL     1      64.924  41.731  10.972  1.00  0.00     0.174 C 
ATOM     32  C   UNL     1      63.388  40.041  11.916  1.00  0.00     0.211 C 
ATOM     33  O   UNL     1      66.125  42.089  11.084  1.00  0.00    -0.294 OA
ATOM     34  C   UNL     1      64.161  41.334  12.203  1.00  0.00     0.131 C 
BRANCH  27  35
ATOM     35  O   UNL     1      65.815  43.124   8.432  1.00  0.00    -0.507 OA
ATOM     36  H   UNL     1      65.752  44.132   8.442  1.00  0.00     0.293 HD
ENDBRANCH  27  35
BRANCH  32  37
ATOM     37  C   UNL     1      62.513  39.665  13.088  1.00  0.00    -0.007 A 
ATOM     38  C   UNL     1      62.702  38.451  13.770  1.00  0.00     0.011 A 
ATOM     39  C   UNL     1      61.450  40.505  13.466  1.00  0.00     0.011 A 
ATOM     40  C   UNL     1      61.863  38.099  14.831  1.00  0.00     0.046 A 
ATOM     41  C   UNL     1      60.612  40.150  14.527  1.00  0.00     0.046 A 
ATOM     42  C   UNL     1      60.819  38.947  15.214  1.00  0.00     0.115 A 
BRANCH  42  43
ATOM     43  O   UNL     1      59.992  38.583  16.273  1.00  0.00    -0.508 OA
ATOM     44  H   UNL     1      59.246  37.909  16.153  1.00  0.00     0.293 HD
ENDBRANCH  42  43
ENDBRANCH  32  37
ENDBRANCH  23  24
ENDBRANCH   6  23
BRANCH   3  45
ATOM     45  O   UNL     1      65.439  39.103   3.904  1.00  0.00    -0.387 OA
ATOM     46  H   UNL     1      65.066  38.227   3.622  1.00  0.00     0.211 HD
ENDBRANCH   3  45
BRANCH   4  47
ATOM     47  C   UNL     1      66.118  41.623   5.219  1.00  0.00     0.191 C 
BRANCH  47  48
ATOM     48  O   UNL     1      65.912  42.767   4.434  1.00  0.00    -0.394 OA
ATOM     49  H   UNL     1      65.009  43.105   4.670  1.00  0.00     0.210 HD
ENDBRANCH  47  48
ENDBRANCH   4  47
TORSDOF 14
ENDMDL
