MODEL 1
REMARK VINA RESULT:    -3.878      0.000      0.000
REMARK INTER + INTRA:         -10.242
REMARK INTER:                  -7.506
REMARK INTRA:                  -2.736
REMARK UNBOUND:                -2.736
REMARK SMILES CCCCCCCCCCCCCCCCCC(=O)[O-]
REMARK SMILES IDX 10 1 11 2 12 3 13 4 14 5 15 6 16 7 17 8 18 9 19 10 20 11
REMARK SMILES IDX 9 12 8 13 7 14 6 15 5 16 4 17 3 18 2 19 1 20
REMARK H PARENT
REMARK Flexibility Score: inf
ROOT
ATOM      1  C   UNL     1       4.409   2.273 402.616  1.00  0.00     0.000 C 
ENDROOT
BRANCH   1   2
ATOM      2  C   UNL     1       5.910   2.538 402.784  1.00  0.00     0.000 C 
BRANCH   2   3
ATOM      3  C   UNL     1       6.544   1.521 403.745  1.00  0.00     0.000 C 
BRANCH   3   4
ATOM      4  C   UNL     1       5.529   0.494 404.274  1.00  0.00     0.000 C 
BRANCH   4   5
ATOM      5  C   UNL     1       6.105  -0.929 404.338  1.00  0.00     0.000 C 
BRANCH   5   6
ATOM      6  C   UNL     1       5.018  -1.974 404.041  1.00  0.00     0.000 C 
BRANCH   6   7
ATOM      7  C   UNL     1       3.602  -1.474 404.380  1.00  0.00     0.006 C 
BRANCH   7   8
ATOM      8  C   UNL     1       2.702  -2.528 405.046  1.00  0.00     0.053 C 
BRANCH   8   9
ATOM      9  C   UNL     1       3.218  -2.939 406.390  1.00  0.00     0.041 C 
ATOM     10  O   UNL     1       3.728  -4.080 406.551  1.00  0.00    -0.550 OA
ATOM     11  O   UNL     1       3.166  -2.052 407.457  1.00  0.00    -0.550 OA
ENDBRANCH   8   9
ENDBRANCH   7   8
ENDBRANCH   6   7
ENDBRANCH   5   6
ENDBRANCH   4   5
ENDBRANCH   3   4
ENDBRANCH   2   3
ENDBRANCH   1   2
BRANCH   1  12
ATOM     12  C   UNL     1       3.929   2.696 401.219  1.00  0.00     0.000 C 
BRANCH  12  13
ATOM     13  C   UNL     1       3.309   1.533 400.430  1.00  0.00    -0.000 C 
BRANCH  13  14
ATOM     14  C   UNL     1       3.708   0.157 400.995  1.00  0.00    -0.000 C 
BRANCH  14  15
ATOM     15  C   UNL     1       4.612  -0.635 400.037  1.00  0.00    -0.000 C 
BRANCH  15  16
ATOM     16  C   UNL     1       5.978  -0.975 400.659  1.00  0.00    -0.000 C 
BRANCH  16  17
ATOM     17  C   UNL     1       7.066   0.052 400.277  1.00  0.00    -0.000 C 
BRANCH  17  18
ATOM     18  C   UNL     1       6.729   0.869 399.016  1.00  0.00    -0.000 C 
BRANCH  18  19
ATOM     19  C   UNL     1       7.766   0.762 397.885  1.00  0.00    -0.003 C 
ATOM     20  C   UNL     1       8.659   1.999 397.783  1.00  0.00     0.004 C 
ENDBRANCH  18  19
ENDBRANCH  17  18
ENDBRANCH  16  17
ENDBRANCH  15  16
ENDBRANCH  14  15
ENDBRANCH  13  14
ENDBRANCH  12  13
ENDBRANCH   1  12
TORSDOF 16
ENDMDL
MODEL 2
REMARK VINA RESULT:    -3.807      2.162      2.444
REMARK INTER + INTRA:         -10.103
REMARK INTER:                  -7.466
REMARK INTRA:                  -2.636
REMARK UNBOUND:                -2.736
REMARK SMILES CCCCCCCCCCCCCCCCCC(=O)[O-]
REMARK SMILES IDX 10 1 11 2 12 3 13 4 14 5 15 6 16 7 17 8 18 9 19 10 20 11
REMARK SMILES IDX 9 12 8 13 7 14 6 15 5 16 4 17 3 18 2 19 1 20
REMARK H PARENT
REMARK Flexibility Score: inf
ROOT
ATOM      1  C   UNL     1       4.591   2.210 402.896  1.00  0.00     0.000 C 
ENDROOT
BRANCH   1   2
ATOM      2  C   UNL     1       6.078   2.545 403.050  1.00  0.00     0.000 C 
BRANCH   2   3
ATOM      3  C   UNL     1       6.832   1.396 403.738  1.00  0.00     0.000 C 
BRANCH   3   4
ATOM      4  C   UNL     1       6.009   0.100 403.799  1.00  0.00     0.000 C 
BRANCH   4   5
ATOM      5  C   UNL     1       6.756  -1.106 403.209  1.00  0.00     0.000 C 
BRANCH   5   6
ATOM      6  C   UNL     1       5.811  -2.304 403.033  1.00  0.00     0.000 C 
BRANCH   6   7
ATOM      7  C   UNL     1       4.358  -1.980 403.422  1.00  0.00     0.006 C 
BRANCH   7   8
ATOM      8  C   UNL     1       3.366  -3.130 403.178  1.00  0.00     0.053 C 
BRANCH   8   9
ATOM      9  C   UNL     1       3.523  -3.727 401.814  1.00  0.00     0.041 C 
ATOM     10  O   UNL     1       3.145  -3.088 400.796  1.00  0.00    -0.550 OA
ATOM     11  O   UNL     1       4.113  -4.974 401.663  1.00  0.00    -0.550 OA
ENDBRANCH   8   9
ENDBRANCH   7   8
ENDBRANCH   6   7
ENDBRANCH   5   6
ENDBRANCH   4   5
ENDBRANCH   3   4
ENDBRANCH   2   3
ENDBRANCH   1   2
BRANCH   1  12
ATOM     12  C   UNL     1       3.972   2.981 401.720  1.00  0.00     0.000 C 
BRANCH  12  13
ATOM     13  C   UNL     1       3.635   2.071 400.529  1.00  0.00    -0.000 C 
BRANCH  13  14
ATOM     14  C   UNL     1       3.765   0.576 400.873  1.00  0.00    -0.000 C 
BRANCH  14  15
ATOM     15  C   UNL     1       4.848  -0.129 400.041  1.00  0.00    -0.000 C 
BRANCH  15  16
ATOM     16  C   UNL     1       6.036   0.792 399.714  1.00  0.00    -0.000 C 
BRANCH  16  17
ATOM     17  C   UNL     1       7.390   0.055 399.809  1.00  0.00    -0.000 C 
BRANCH  17  18
ATOM     18  C   UNL     1       8.231   0.138 398.521  1.00  0.00    -0.000 C 
BRANCH  18  19
ATOM     19  C   UNL     1       8.119   1.474 397.767  1.00  0.00    -0.003 C 
ATOM     20  C   UNL     1       9.371   2.340 397.910  1.00  0.00     0.004 C 
ENDBRANCH  18  19
ENDBRANCH  17  18
ENDBRANCH  16  17
ENDBRANCH  15  16
ENDBRANCH  14  15
ENDBRANCH  13  14
ENDBRANCH  12  13
ENDBRANCH   1  12
TORSDOF 16
ENDMDL
MODEL 3
REMARK VINA RESULT:    -3.778      3.232      4.446
REMARK INTER + INTRA:         -10.048
REMARK INTER:                  -7.557
REMARK INTRA:                  -2.491
REMARK UNBOUND:                -2.736
REMARK SMILES CCCCCCCCCCCCCCCCCC(=O)[O-]
REMARK SMILES IDX 10 1 11 2 12 3 13 4 14 5 15 6 16 7 17 8 18 9 19 10 20 11
REMARK SMILES IDX 9 12 8 13 7 14 6 15 5 16 4 17 3 18 2 19 1 20
REMARK H PARENT
REMARK Flexibility Score: inf
ROOT
ATOM      1  C   UNL     1       5.111   0.066 404.157  1.00  0.00     0.000 C 
ENDROOT
BRANCH   1   2
ATOM      2  C   UNL     1       4.008  -0.992 404.048  1.00  0.00     0.000 C 
BRANCH   2   3
ATOM      3  C   UNL     1       4.473  -2.186 403.200  1.00  0.00     0.000 C 
BRANCH   3   4
ATOM      4  C   UNL     1       3.301  -2.962 402.576  1.00  0.00     0.000 C 
BRANCH   4   5
ATOM      5  C   UNL     1       3.736  -3.846 401.397  1.00  0.00     0.000 C 
BRANCH   5   6
ATOM      6  C   UNL     1       5.197  -4.294 401.558  1.00  0.00     0.000 C 
BRANCH   6   7
ATOM      7  C   UNL     1       5.345  -5.822 401.657  1.00  0.00     0.006 C 
BRANCH   7   8
ATOM      8  C   UNL     1       4.227  -6.516 402.453  1.00  0.00     0.053 C 
BRANCH   8   9
ATOM      9  C   UNL     1       4.190  -7.991 402.199  1.00  0.00     0.041 C 
ATOM     10  O   UNL     1       4.452  -8.801 403.128  1.00  0.00    -0.550 OA
ATOM     11  O   UNL     1       3.835  -8.474 400.946  1.00  0.00    -0.550 OA
ENDBRANCH   8   9
ENDBRANCH   7   8
ENDBRANCH   6   7
ENDBRANCH   5   6
ENDBRANCH   4   5
ENDBRANCH   3   4
ENDBRANCH   2   3
ENDBRANCH   1   2
BRANCH   1  12
ATOM     12  C   UNL     1       4.537   1.480 403.979  1.00  0.00     0.000 C 
BRANCH  12  13
ATOM     13  C   UNL     1       5.069   2.180 402.719  1.00  0.00    -0.000 C 
BRANCH  13  14
ATOM     14  C   UNL     1       3.945   2.788 401.861  1.00  0.00    -0.000 C 
BRANCH  14  15
ATOM     15  C   UNL     1       3.777   2.070 400.513  1.00  0.00    -0.000 C 
BRANCH  15  16
ATOM     16  C   UNL     1       3.320   0.609 400.672  1.00  0.00    -0.000 C 
BRANCH  16  17
ATOM     17  C   UNL     1       4.253  -0.378 399.937  1.00  0.00    -0.000 C 
BRANCH  17  18
ATOM     18  C   UNL     1       5.720   0.087 399.878  1.00  0.00    -0.000 C 
BRANCH  18  19
ATOM     19  C   UNL     1       6.701  -0.780 400.686  1.00  0.00    -0.003 C 
ATOM     20  C   UNL     1       8.028  -0.073 400.961  1.00  0.00     0.004 C 
ENDBRANCH  18  19
ENDBRANCH  17  18
ENDBRANCH  16  17
ENDBRANCH  15  16
ENDBRANCH  14  15
ENDBRANCH  13  14
ENDBRANCH  12  13
ENDBRANCH   1  12
TORSDOF 16
ENDMDL
MODEL 4
REMARK VINA RESULT:    -3.697      2.354      6.061
REMARK INTER + INTRA:          -9.891
REMARK INTER:                  -7.513
REMARK INTRA:                  -2.378
REMARK UNBOUND:                -2.736
REMARK SMILES CCCCCCCCCCCCCCCCCC(=O)[O-]
REMARK SMILES IDX 10 1 11 2 12 3 13 4 14 5 15 6 16 7 17 8 18 9 19 10 20 11
REMARK SMILES IDX 9 12 8 13 7 14 6 15 5 16 4 17 3 18 2 19 1 20
REMARK H PARENT
REMARK Flexibility Score: inf
ROOT
ATOM      1  C   UNL     1       4.917   2.370 403.284  1.00  0.00     0.000 C 
ENDROOT
BRANCH   1   2
ATOM      2  C   UNL     1       4.216   2.805 401.992  1.00  0.00     0.000 C 
BRANCH   2   3
ATOM      3  C   UNL     1       3.990   1.607 401.058  1.00  0.00     0.000 C 
BRANCH   3   4
ATOM      4  C   UNL     1       5.285   1.132 400.380  1.00  0.00     0.000 C 
BRANCH   4   5
ATOM      5  C   UNL     1       5.309  -0.386 400.143  1.00  0.00     0.000 C 
BRANCH   5   6
ATOM      6  C   UNL     1       3.889  -0.969 400.183  1.00  0.00     0.000 C 
BRANCH   6   7
ATOM      7  C   UNL     1       3.858  -2.484 399.911  1.00  0.00     0.006 C 
BRANCH   7   8
ATOM      8  C   UNL     1       3.265  -3.320 401.057  1.00  0.00     0.053 C 
BRANCH   8   9
ATOM      9  C   UNL     1       4.259  -4.289 401.617  1.00  0.00     0.041 C 
ATOM     10  O   UNL     1       5.493  -4.080 401.482  1.00  0.00    -0.550 OA
ATOM     11  O   UNL     1       3.823  -5.407 402.316  1.00  0.00    -0.550 OA
ENDBRANCH   8   9
ENDBRANCH   7   8
ENDBRANCH   6   7
ENDBRANCH   5   6
ENDBRANCH   4   5
ENDBRANCH   3   4
ENDBRANCH   2   3
ENDBRANCH   1   2
BRANCH   1  12
ATOM     12  C   UNL     1       4.336   1.046 403.806  1.00  0.00     0.000 C 
BRANCH  12  13
ATOM     13  C   UNL     1       5.424   0.009 404.124  1.00  0.00    -0.000 C 
BRANCH  13  14
ATOM     14  C   UNL     1       4.890  -1.435 404.092  1.00  0.00    -0.000 C 
BRANCH  14  15
ATOM     15  C   UNL     1       3.358  -1.496 403.995  1.00  0.00    -0.000 C 
BRANCH  15  16
ATOM     16  C   UNL     1       2.736  -2.449 405.031  1.00  0.00    -0.000 C 
BRANCH  16  17
ATOM     17  C   UNL     1       3.680  -3.616 405.392  1.00  0.00    -0.000 C 
BRANCH  17  18
ATOM     18  C   UNL     1       3.974  -3.730 406.900  1.00  0.00    -0.000 C 
BRANCH  18  19
ATOM     19  C   UNL     1       3.781  -2.426 407.692  1.00  0.00    -0.003 C 
ATOM     20  C   UNL     1       2.742  -2.558 408.805  1.00  0.00     0.004 C 
ENDBRANCH  18  19
ENDBRANCH  17  18
ENDBRANCH  16  17
ENDBRANCH  15  16
ENDBRANCH  14  15
ENDBRANCH  13  14
ENDBRANCH  12  13
ENDBRANCH   1  12
TORSDOF 16
ENDMDL
MODEL 5
REMARK VINA RESULT:    -3.691      4.059      6.788
REMARK INTER + INTRA:          -9.879
REMARK INTER:                  -7.617
REMARK INTRA:                  -2.262
REMARK UNBOUND:                -2.736
REMARK SMILES CCCCCCCCCCCCCCCCCC(=O)[O-]
REMARK SMILES IDX 10 1 11 2 12 3 13 4 14 5 15 6 16 7 17 8 18 9 19 10 20 11
REMARK SMILES IDX 9 12 8 13 7 14 6 15 5 16 4 17 3 18 2 19 1 20
REMARK H PARENT
REMARK Flexibility Score: inf
ROOT
ATOM      1  C   UNL     1       3.672   1.834 400.855  1.00  0.00     0.000 C 
ENDROOT
BRANCH   1   2
ATOM      2  C   UNL     1       4.613   2.442 401.901  1.00  0.00     0.000 C 
BRANCH   2   3
ATOM      3  C   UNL     1       5.497   1.360 402.540  1.00  0.00     0.000 C 
BRANCH   3   4
ATOM      4  C   UNL     1       6.866   1.230 401.853  1.00  0.00     0.000 C 
BRANCH   4   5
ATOM      5  C   UNL     1       7.208  -0.220 401.480  1.00  0.00     0.000 C 
BRANCH   5   6
ATOM      6  C   UNL     1       7.474  -0.350 399.973  1.00  0.00     0.000 C 
BRANCH   6   7
ATOM      7  C   UNL     1       7.140   0.935 399.195  1.00  0.00     0.006 C 
BRANCH   7   8
ATOM      8  C   UNL     1       7.872   1.067 397.849  1.00  0.00     0.053 C 
BRANCH   8   9
ATOM      9  C   UNL     1       9.162   1.815 397.982  1.00  0.00     0.041 C 
ATOM     10  O   UNL     1       9.210   3.046 397.721  1.00  0.00    -0.550 OA
ATOM     11  O   UNL     1      10.304   1.160 398.424  1.00  0.00    -0.550 OA
ENDBRANCH   8   9
ENDBRANCH   7   8
ENDBRANCH   6   7
ENDBRANCH   5   6
ENDBRANCH   4   5
ENDBRANCH   3   4
ENDBRANCH   2   3
ENDBRANCH   1   2
BRANCH   1  12
ATOM     12  C   UNL     1       3.532   0.317 401.056  1.00  0.00     0.000 C 
BRANCH  12  13
ATOM     13  C   UNL     1       3.876  -0.481 399.789  1.00  0.00    -0.000 C 
BRANCH  13  14
ATOM     14  C   UNL     1       3.680  -1.997 399.974  1.00  0.00    -0.000 C 
BRANCH  14  15
ATOM     15  C   UNL     1       4.312  -2.520 401.274  1.00  0.00    -0.000 C 
BRANCH  15  16
ATOM     16  C   UNL     1       3.612  -3.783 401.806  1.00  0.00    -0.000 C 
BRANCH  16  17
ATOM     17  C   UNL     1       3.801  -3.957 403.328  1.00  0.00    -0.000 C 
BRANCH  17  18
ATOM     18  C   UNL     1       2.631  -3.402 404.163  1.00  0.00    -0.000 C 
BRANCH  18  19
ATOM     19  C   UNL     1       3.045  -2.418 405.271  1.00  0.00    -0.003 C 
ATOM     20  C   UNL     1       3.918  -1.276 404.753  1.00  0.00     0.004 C 
ENDBRANCH  18  19
ENDBRANCH  17  18
ENDBRANCH  16  17
ENDBRANCH  15  16
ENDBRANCH  14  15
ENDBRANCH  13  14
ENDBRANCH  12  13
ENDBRANCH   1  12
TORSDOF 16
ENDMDL
MODEL 6
REMARK VINA RESULT:    -3.682      2.646      5.480
REMARK INTER + INTRA:          -9.862
REMARK INTER:                  -7.304
REMARK INTRA:                  -2.558
REMARK UNBOUND:                -2.736
REMARK SMILES CCCCCCCCCCCCCCCCCC(=O)[O-]
REMARK SMILES IDX 10 1 11 2 12 3 13 4 14 5 15 6 16 7 17 8 18 9 19 10 20 11
REMARK SMILES IDX 9 12 8 13 7 14 6 15 5 16 4 17 3 18 2 19 1 20
REMARK H PARENT
REMARK Flexibility Score: inf
ROOT
ATOM      1  C   UNL     1       3.723   1.202 401.102  1.00  0.00     0.000 C 
ENDROOT
BRANCH   1   2
ATOM      2  C   UNL     1       4.816   0.774 400.116  1.00  0.00     0.000 C 
BRANCH   2   3
ATOM      3  C   UNL     1       4.992  -0.753 400.119  1.00  0.00     0.000 C 
BRANCH   3   4
ATOM      4  C   UNL     1       3.667  -1.502 399.903  1.00  0.00     0.000 C 
BRANCH   4   5
ATOM      5  C   UNL     1       3.640  -2.873 400.596  1.00  0.00     0.000 C 
BRANCH   5   6
ATOM      6  C   UNL     1       5.057  -3.316 400.988  1.00  0.00     0.000 C 
BRANCH   6   7
ATOM      7  C   UNL     1       5.062  -4.520 401.947  1.00  0.00     0.006 C 
BRANCH   7   8
ATOM      8  C   UNL     1       3.794  -5.387 401.882  1.00  0.00     0.053 C 
BRANCH   8   9
ATOM      9  C   UNL     1       4.042  -6.782 402.364  1.00  0.00     0.041 C 
ATOM     10  O   UNL     1       4.732  -6.982 403.398  1.00  0.00    -0.550 OA
ATOM     11  O   UNL     1       3.487  -7.861 401.689  1.00  0.00    -0.550 OA
ENDBRANCH   8   9
ENDBRANCH   7   8
ENDBRANCH   6   7
ENDBRANCH   5   6
ENDBRANCH   4   5
ENDBRANCH   3   4
ENDBRANCH   2   3
ENDBRANCH   1   2
BRANCH   1  12
ATOM     12  C   UNL     1       4.092   2.525 401.791  1.00  0.00     0.000 C 
BRANCH  12  13
ATOM     13  C   UNL     1       5.224   2.362 402.817  1.00  0.00    -0.000 C 
BRANCH  13  14
ATOM     14  C   UNL     1       4.750   1.684 404.116  1.00  0.00    -0.000 C 
BRANCH  14  15
ATOM     15  C   UNL     1       5.652   0.512 404.533  1.00  0.00    -0.000 C 
BRANCH  15  16
ATOM     16  C   UNL     1       5.405  -0.754 403.694  1.00  0.00    -0.000 C 
BRANCH  16  17
ATOM     17  C   UNL     1       3.964  -1.286 403.850  1.00  0.00    -0.000 C 
BRANCH  17  18
ATOM     18  C   UNL     1       3.666  -1.861 405.248  1.00  0.00    -0.000 C 
BRANCH  18  19
ATOM     19  C   UNL     1       3.188  -3.323 405.251  1.00  0.00    -0.003 C 
ATOM     20  C   UNL     1       4.291  -4.305 405.648  1.00  0.00     0.004 C 
ENDBRANCH  18  19
ENDBRANCH  17  18
ENDBRANCH  16  17
ENDBRANCH  15  16
ENDBRANCH  14  15
ENDBRANCH  13  14
ENDBRANCH  12  13
ENDBRANCH   1  12
TORSDOF 16
ENDMDL
MODEL 7
REMARK VINA RESULT:    -3.641      1.524      4.025
REMARK INTER + INTRA:          -9.783
REMARK INTER:                  -6.852
REMARK INTRA:                  -2.931
REMARK UNBOUND:                -2.736
REMARK SMILES CCCCCCCCCCCCCCCCCC(=O)[O-]
REMARK SMILES IDX 10 1 11 2 12 3 13 4 14 5 15 6 16 7 17 8 18 9 19 10 20 11
REMARK SMILES IDX 9 12 8 13 7 14 6 15 5 16 4 17 3 18 2 19 1 20
REMARK H PARENT
REMARK Flexibility Score: inf
ROOT
ATOM      1  C   UNL     1       6.515  -1.424 402.662  1.00  0.00     0.000 C 
ENDROOT
BRANCH   1   2
ATOM      2  C   UNL     1       5.888  -2.821 402.737  1.00  0.00     0.000 C 
BRANCH   2   3
ATOM      3  C   UNL     1       4.816  -3.002 401.652  1.00  0.00     0.000 C 
BRANCH   3   4
ATOM      4  C   UNL     1       3.542  -3.678 402.184  1.00  0.00     0.000 C 
BRANCH   4   5
ATOM      5  C   UNL     1       3.645  -4.048 403.672  1.00  0.00     0.000 C 
BRANCH   5   6
ATOM      6  C   UNL     1       2.527  -3.375 404.482  1.00  0.00     0.000 C 
BRANCH   6   7
ATOM      7  C   UNL     1       2.917  -1.975 404.988  1.00  0.00     0.006 C 
BRANCH   7   8
ATOM      8  C   UNL     1       4.142  -1.956 405.917  1.00  0.00     0.053 C 
BRANCH   8   9
ATOM      9  C   UNL     1       3.864  -2.625 407.227  1.00  0.00     0.041 C 
ATOM     10  O   UNL     1       2.944  -2.198 407.974  1.00  0.00    -0.550 OA
ATOM     11  O   UNL     1       4.599  -3.740 407.609  1.00  0.00    -0.550 OA
ENDBRANCH   8   9
ENDBRANCH   7   8
ENDBRANCH   6   7
ENDBRANCH   5   6
ENDBRANCH   4   5
ENDBRANCH   3   4
ENDBRANCH   2   3
ENDBRANCH   1   2
BRANCH   1  12
ATOM     12  C   UNL     1       7.041  -1.132 401.248  1.00  0.00     0.000 C 
BRANCH  12  13
ATOM     13  C   UNL     1       7.224   0.370 400.983  1.00  0.00    -0.000 C 
BRANCH  13  14
ATOM     14  C   UNL     1       6.121   0.950 400.080  1.00  0.00    -0.000 C 
BRANCH  14  15
ATOM     15  C   UNL     1       5.022  -0.074 399.758  1.00  0.00    -0.000 C 
BRANCH  15  16
ATOM     16  C   UNL     1       3.635   0.370 400.254  1.00  0.00    -0.000 C 
BRANCH  16  17
ATOM     17  C   UNL     1       3.727   1.444 401.359  1.00  0.00    -0.000 C 
BRANCH  17  18
ATOM     18  C   UNL     1       3.588   0.878 402.785  1.00  0.00    -0.000 C 
BRANCH  18  19
ATOM     19  C   UNL     1       4.559   1.484 403.813  1.00  0.00    -0.003 C 
ATOM     20  C   UNL     1       5.332   2.682 403.262  1.00  0.00     0.004 C 
ENDBRANCH  18  19
ENDBRANCH  17  18
ENDBRANCH  16  17
ENDBRANCH  15  16
ENDBRANCH  14  15
ENDBRANCH  13  14
ENDBRANCH  12  13
ENDBRANCH   1  12
TORSDOF 16
ENDMDL
MODEL 8
REMARK VINA RESULT:    -3.638      2.887      5.121
REMARK INTER + INTRA:          -9.777
REMARK INTER:                  -6.684
REMARK INTRA:                  -3.093
REMARK UNBOUND:                -2.736
REMARK SMILES CCCCCCCCCCCCCCCCCC(=O)[O-]
REMARK SMILES IDX 10 1 11 2 12 3 13 4 14 5 15 6 16 7 17 8 18 9 19 10 20 11
REMARK SMILES IDX 9 12 8 13 7 14 6 15 5 16 4 17 3 18 2 19 1 20
REMARK H PARENT
REMARK Flexibility Score: inf
ROOT
ATOM      1  C   UNL     1       4.234  -4.189 402.119  1.00  0.00     0.000 C 
ENDROOT
BRANCH   1   2
ATOM      2  C   UNL     1       4.081  -4.046 403.638  1.00  0.00     0.000 C 
BRANCH   2   3
ATOM      3  C   UNL     1       2.868  -3.171 403.989  1.00  0.00     0.000 C 
BRANCH   3   4
ATOM      4  C   UNL     1       3.256  -1.910 404.778  1.00  0.00     0.000 C 
BRANCH   4   5
ATOM      5  C   UNL     1       4.045  -0.900 403.931  1.00  0.00     0.000 C 
BRANCH   5   6
ATOM      6  C   UNL     1       5.406  -0.591 404.574  1.00  0.00     0.000 C 
BRANCH   6   7
ATOM      7  C   UNL     1       6.578  -1.275 403.849  1.00  0.00     0.006 C 
BRANCH   7   8
ATOM      8  C   UNL     1       7.378  -0.345 402.922  1.00  0.00     0.053 C 
BRANCH   8   9
ATOM      9  C   UNL     1       8.316  -1.106 402.037  1.00  0.00     0.041 C 
ATOM     10  O   UNL     1       8.244  -2.362 401.969  1.00  0.00    -0.550 OA
ATOM     11  O   UNL     1       9.249  -0.427 401.264  1.00  0.00    -0.550 OA
ENDBRANCH   8   9
ENDBRANCH   7   8
ENDBRANCH   6   7
ENDBRANCH   5   6
ENDBRANCH   4   5
ENDBRANCH   3   4
ENDBRANCH   2   3
ENDBRANCH   1   2
BRANCH   1  12
ATOM     12  C   UNL     1       3.122  -3.428 401.381  1.00  0.00     0.000 C 
BRANCH  12  13
ATOM     13  C   UNL     1       3.650  -2.630 400.179  1.00  0.00    -0.000 C 
BRANCH  13  14
ATOM     14  C   UNL     1       5.018  -1.980 400.456  1.00  0.00    -0.000 C 
BRANCH  14  15
ATOM     15  C   UNL     1       5.019  -0.468 400.185  1.00  0.00    -0.000 C 
BRANCH  15  16
ATOM     16  C   UNL     1       3.606   0.141 400.216  1.00  0.00    -0.000 C 
BRANCH  16  17
ATOM     17  C   UNL     1       3.618   1.623 400.648  1.00  0.00    -0.000 C 
BRANCH  17  18
ATOM     18  C   UNL     1       4.919   2.052 401.351  1.00  0.00    -0.000 C 
BRANCH  18  19
ATOM     19  C   UNL     1       4.725   2.633 402.762  1.00  0.00    -0.003 C 
ATOM     20  C   UNL     1       6.044   3.015 403.432  1.00  0.00     0.004 C 
ENDBRANCH  18  19
ENDBRANCH  17  18
ENDBRANCH  16  17
ENDBRANCH  15  16
ENDBRANCH  14  15
ENDBRANCH  13  14
ENDBRANCH  12  13
ENDBRANCH   1  12
TORSDOF 16
ENDMDL
MODEL 9
REMARK VINA RESULT:    -3.626      3.616      5.503
REMARK INTER + INTRA:          -9.754
REMARK INTER:                  -7.329
REMARK INTRA:                  -2.425
REMARK UNBOUND:                -2.736
REMARK SMILES CCCCCCCCCCCCCCCCCC(=O)[O-]
REMARK SMILES IDX 10 1 11 2 12 3 13 4 14 5 15 6 16 7 17 8 18 9 19 10 20 11
REMARK SMILES IDX 9 12 8 13 7 14 6 15 5 16 4 17 3 18 2 19 1 20
REMARK H PARENT
REMARK Flexibility Score: inf
ROOT
ATOM      1  C   UNL     1       5.347   1.170 400.122  1.00  0.00     0.000 C 
ENDROOT
BRANCH   1   2
ATOM      2  C   UNL     1       3.949   1.665 400.510  1.00  0.00     0.000 C 
BRANCH   2   3
ATOM      3  C   UNL     1       4.017   2.612 401.718  1.00  0.00     0.000 C 
BRANCH   3   4
ATOM      4  C   UNL     1       4.483   1.904 403.001  1.00  0.00     0.000 C 
BRANCH   4   5
ATOM      5  C   UNL     1       3.621   0.681 403.350  1.00  0.00     0.000 C 
BRANCH   5   6
ATOM      6  C   UNL     1       4.494  -0.482 403.843  1.00  0.00     0.000 C 
BRANCH   6   7
ATOM      7  C   UNL     1       5.959  -0.366 403.383  1.00  0.00     0.006 C 
BRANCH   7   8
ATOM      8  C   UNL     1       6.771  -1.664 403.526  1.00  0.00     0.053 C 
BRANCH   8   9
ATOM      9  C   UNL     1       7.611  -1.935 402.316  1.00  0.00     0.041 C 
ATOM     10  O   UNL     1       7.238  -2.784 401.464  1.00  0.00    -0.550 OA
ATOM     11  O   UNL     1       8.789  -1.229 402.114  1.00  0.00    -0.550 OA
ENDBRANCH   8   9
ENDBRANCH   7   8
ENDBRANCH   6   7
ENDBRANCH   5   6
ENDBRANCH   4   5
ENDBRANCH   3   4
ENDBRANCH   2   3
ENDBRANCH   1   2
BRANCH   1  12
ATOM     12  C   UNL     1       5.328  -0.331 399.797  1.00  0.00     0.000 C 
BRANCH  12  13
ATOM     13  C   UNL     1       3.966  -0.981 400.084  1.00  0.00    -0.000 C 
BRANCH  13  14
ATOM     14  C   UNL     1       4.031  -2.519 400.075  1.00  0.00    -0.000 C 
BRANCH  14  15
ATOM     15  C   UNL     1       3.153  -3.154 401.164  1.00  0.00    -0.000 C 
BRANCH  15  16
ATOM     16  C   UNL     1       3.978  -3.855 402.257  1.00  0.00    -0.000 C 
BRANCH  16  17
ATOM     17  C   UNL     1       4.559  -5.202 401.776  1.00  0.00    -0.000 C 
BRANCH  17  18
ATOM     18  C   UNL     1       3.859  -6.431 402.386  1.00  0.00    -0.000 C 
BRANCH  18  19
ATOM     19  C   UNL     1       3.962  -7.713 401.543  1.00  0.00    -0.003 C 
ATOM     20  C   UNL     1       5.351  -8.348 401.597  1.00  0.00     0.004 C 
ENDBRANCH  18  19
ENDBRANCH  17  18
ENDBRANCH  16  17
ENDBRANCH  15  16
ENDBRANCH  14  15
ENDBRANCH  13  14
ENDBRANCH  12  13
ENDBRANCH   1  12
TORSDOF 16
ENDMDL
