MODEL 1
REMARK VINA RESULT:    -6.222      0.000      0.000
REMARK INTER + INTRA:         -14.094
REMARK INTER:                 -11.679
REMARK INTRA:                  -2.415
REMARK UNBOUND:                -2.415
REMARK SMILES CCCCCCCCC=CCCCCCCCC(=O)[O-]
REMARK SMILES IDX 10 1 9 2 11 3 12 4 13 5 14 6 15 7 16 8 17 9 18 10 19 11
REMARK SMILES IDX 20 12 8 13 7 14 6 15 5 16 4 17 3 18 2 19 1 20
REMARK H PARENT
REMARK Flexibility Score: inf
ROOT
ATOM      1  C   UNL     1      54.882  49.579  42.604  1.00  0.00    -0.031 C 
ATOM      2  C   UNL     1      55.536  49.008  43.632  1.00  0.00    -0.031 C 
ENDROOT
BRANCH   1   3
ATOM      3  C   UNL     1      55.550  50.252  41.430  1.00  0.00     0.027 C 
BRANCH   3   4
ATOM      4  C   UNL     1      54.526  50.824  40.436  1.00  0.00     0.004 C 
BRANCH   4   5
ATOM      5  C   UNL     1      53.817  52.071  40.991  1.00  0.00     0.000 C 
BRANCH   5   6
ATOM      6  C   UNL     1      52.301  52.055  40.735  1.00  0.00     0.000 C 
BRANCH   6   7
ATOM      7  C   UNL     1      51.603  50.853  41.393  1.00  0.00     0.000 C 
BRANCH   7   8
ATOM      8  C   UNL     1      51.569  50.951  42.929  1.00  0.00     0.006 C 
BRANCH   8   9
ATOM      9  C   UNL     1      50.354  50.274  43.583  1.00  0.00     0.053 C 
BRANCH   9  10
ATOM     10  C   UNL     1      50.751  49.378  44.715  1.00  0.00     0.041 C 
ATOM     11  O   UNL     1      51.966  49.118  44.922  1.00  0.00    -0.550 OA
ATOM     12  O   UNL     1      49.783  48.856  45.563  1.00  0.00    -0.550 OA
ENDBRANCH   9  10
ENDBRANCH   8   9
ENDBRANCH   7   8
ENDBRANCH   6   7
ENDBRANCH   5   6
ENDBRANCH   4   5
ENDBRANCH   3   4
ENDBRANCH   1   3
BRANCH   2  13
ATOM     13  C   UNL     1      57.035  48.871  43.722  1.00  0.00     0.027 C 
BRANCH  13  14
ATOM     14  C   UNL     1      57.603  49.814  44.788  1.00  0.00     0.004 C 
BRANCH  14  15
ATOM     15  C   UNL     1      57.877  51.203  44.203  1.00  0.00     0.000 C 
BRANCH  15  16
ATOM     16  C   UNL     1      56.862  52.230  44.724  1.00  0.00     0.000 C 
BRANCH  16  17
ATOM     17  C   UNL     1      56.217  53.054  43.597  1.00  0.00    -0.000 C 
BRANCH  17  18
ATOM     18  C   UNL     1      57.142  53.259  42.376  1.00  0.00    -0.000 C 
BRANCH  18  19
ATOM     19  C   UNL     1      56.686  54.407  41.456  1.00  0.00    -0.003 C 
ATOM     20  C   UNL     1      55.514  55.193  42.045  1.00  0.00     0.004 C 
ENDBRANCH  18  19
ENDBRANCH  17  18
ENDBRANCH  16  17
ENDBRANCH  15  16
ENDBRANCH  14  15
ENDBRANCH  13  14
ENDBRANCH   2  13
TORSDOF 15
ENDMDL
MODEL 2
REMARK VINA RESULT:    -6.094      1.420      3.612
REMARK INTER + INTRA:         -13.853
REMARK INTER:                 -11.242
REMARK INTRA:                  -2.611
REMARK UNBOUND:                -2.415
REMARK SMILES CCCCCCCCC=CCCCCCCCC(=O)[O-]
REMARK SMILES IDX 10 1 9 2 11 3 12 4 13 5 14 6 15 7 16 8 17 9 18 10 19 11
REMARK SMILES IDX 20 12 8 13 7 14 6 15 5 16 4 17 3 18 2 19 1 20
REMARK H PARENT
REMARK Flexibility Score: inf
ROOT
ATOM      1  C   UNL     1      54.026  53.221  41.445  1.00  0.00    -0.031 C 
ATOM      2  C   UNL     1      54.767  54.344  41.441  1.00  0.00    -0.031 C 
ENDROOT
BRANCH   1   3
ATOM      3  C   UNL     1      54.364  51.967  40.676  1.00  0.00     0.027 C 
BRANCH   3   4
ATOM      4  C   UNL     1      53.409  50.811  41.010  1.00  0.00     0.004 C 
BRANCH   4   5
ATOM      5  C   UNL     1      51.960  51.295  41.195  1.00  0.00     0.000 C 
BRANCH   5   6
ATOM      6  C   UNL     1      51.260  50.629  42.391  1.00  0.00     0.000 C 
BRANCH   6   7
ATOM      7  C   UNL     1      52.149  50.581  43.645  1.00  0.00     0.000 C 
BRANCH   7   8
ATOM      8  C   UNL     1      51.681  49.528  44.666  1.00  0.00     0.006 C 
BRANCH   8   9
ATOM      9  C   UNL     1      50.238  49.039  44.461  1.00  0.00     0.053 C 
BRANCH   9  10
ATOM     10  C   UNL     1      49.273  49.740  45.366  1.00  0.00     0.041 C 
ATOM     11  O   UNL     1      48.870  50.901  45.087  1.00  0.00    -0.550 OA
ATOM     12  O   UNL     1      48.791  49.100  46.501  1.00  0.00    -0.550 OA
ENDBRANCH   9  10
ENDBRANCH   8   9
ENDBRANCH   7   8
ENDBRANCH   6   7
ENDBRANCH   5   6
ENDBRANCH   4   5
ENDBRANCH   3   4
ENDBRANCH   1   3
BRANCH   2  13
ATOM     13  C   UNL     1      56.095  54.491  40.742  1.00  0.00     0.027 C 
BRANCH  13  14
ATOM     14  C   UNL     1      57.251  54.217  41.711  1.00  0.00     0.004 C 
BRANCH  14  15
ATOM     15  C   UNL     1      57.946  52.893  41.378  1.00  0.00     0.000 C 
BRANCH  15  16
ATOM     16  C   UNL     1      57.960  51.957  42.593  1.00  0.00     0.000 C 
BRANCH  16  17
ATOM     17  C   UNL     1      56.878  52.310  43.628  1.00  0.00    -0.000 C 
BRANCH  17  18
ATOM     18  C   UNL     1      55.878  51.162  43.893  1.00  0.00    -0.000 C 
BRANCH  18  19
ATOM     19  C   UNL     1      56.373  49.797  43.381  1.00  0.00    -0.003 C 
ATOM     20  C   UNL     1      55.280  48.729  43.424  1.00  0.00     0.004 C 
ENDBRANCH  18  19
ENDBRANCH  17  18
ENDBRANCH  16  17
ENDBRANCH  15  16
ENDBRANCH  14  15
ENDBRANCH  13  14
ENDBRANCH   2  13
TORSDOF 15
ENDMDL
MODEL 3
REMARK VINA RESULT:    -5.907      2.171      6.076
REMARK INTER + INTRA:         -13.502
REMARK INTER:                 -11.150
REMARK INTRA:                  -2.352
REMARK UNBOUND:                -2.415
REMARK SMILES CCCCCCCCC=CCCCCCCCC(=O)[O-]
REMARK SMILES IDX 10 1 9 2 11 3 12 4 13 5 14 6 15 7 16 8 17 9 18 10 19 11
REMARK SMILES IDX 20 12 8 13 7 14 6 15 5 16 4 17 3 18 2 19 1 20
REMARK H PARENT
REMARK Flexibility Score: inf
ROOT
ATOM      1  C   UNL     1      54.720  54.219  41.495  1.00  0.00    -0.031 C 
ATOM      2  C   UNL     1      53.959  53.108  41.510  1.00  0.00    -0.031 C 
ENDROOT
BRANCH   1   3
ATOM      3  C   UNL     1      56.021  54.356  40.743  1.00  0.00     0.027 C 
BRANCH   3   4
ATOM      4  C   UNL     1      57.239  54.185  41.665  1.00  0.00     0.004 C 
BRANCH   4   5
ATOM      5  C   UNL     1      57.806  52.756  41.611  1.00  0.00     0.000 C 
BRANCH   5   6
ATOM      6  C   UNL     1      57.970  52.130  43.006  1.00  0.00     0.000 C 
BRANCH   6   7
ATOM      7  C   UNL     1      56.723  52.315  43.888  1.00  0.00     0.000 C 
BRANCH   7   8
ATOM      8  C   UNL     1      55.860  51.042  43.972  1.00  0.00     0.006 C 
BRANCH   8   9
ATOM      9  C   UNL     1      56.434  49.833  43.217  1.00  0.00     0.053 C 
BRANCH   9  10
ATOM     10  C   UNL     1      56.907  48.760  44.148  1.00  0.00     0.041 C 
ATOM     11  O   UNL     1      57.788  49.014  45.012  1.00  0.00    -0.550 OA
ATOM     12  O   UNL     1      56.352  47.488  44.085  1.00  0.00    -0.550 OA
ENDBRANCH   9  10
ENDBRANCH   8   9
ENDBRANCH   7   8
ENDBRANCH   6   7
ENDBRANCH   5   6
ENDBRANCH   4   5
ENDBRANCH   3   4
ENDBRANCH   1   3
BRANCH   2  13
ATOM     13  C   UNL     1      54.243  51.865  40.705  1.00  0.00     0.027 C 
BRANCH  13  14
ATOM     14  C   UNL     1      53.417  50.683  41.224  1.00  0.00     0.004 C 
BRANCH  14  15
ATOM     15  C   UNL     1      52.218  51.168  42.045  1.00  0.00     0.000 C 
BRANCH  15  16
ATOM     16  C   UNL     1      50.902  50.627  41.472  1.00  0.00     0.000 C 
BRANCH  16  17
ATOM     17  C   UNL     1      50.103  49.801  42.494  1.00  0.00    -0.000 C 
BRANCH  17  18
ATOM     18  C   UNL     1      50.249  50.308  43.947  1.00  0.00    -0.000 C 
BRANCH  18  19
ATOM     19  C   UNL     1      50.561  49.185  44.952  1.00  0.00    -0.003 C 
ATOM     20  C   UNL     1      52.025  48.746  44.898  1.00  0.00     0.004 C 
ENDBRANCH  18  19
ENDBRANCH  17  18
ENDBRANCH  16  17
ENDBRANCH  15  16
ENDBRANCH  14  15
ENDBRANCH  13  14
ENDBRANCH   2  13
TORSDOF 15
ENDMDL
MODEL 4
REMARK VINA RESULT:    -5.847      2.403      5.073
REMARK INTER + INTRA:         -13.391
REMARK INTER:                 -10.966
REMARK INTRA:                  -2.425
REMARK UNBOUND:                -2.415
REMARK SMILES CCCCCCCCC=CCCCCCCCC(=O)[O-]
REMARK SMILES IDX 10 1 9 2 11 3 12 4 13 5 14 6 15 7 16 8 17 9 18 10 19 11
REMARK SMILES IDX 20 12 8 13 7 14 6 15 5 16 4 17 3 18 2 19 1 20
REMARK H PARENT
REMARK Flexibility Score: inf
ROOT
ATOM      1  C   UNL     1      50.772  50.243  42.356  1.00  0.00    -0.031 C 
ATOM      2  C   UNL     1      51.216  50.744  41.188  1.00  0.00    -0.031 C 
ENDROOT
BRANCH   1   3
ATOM      3  C   UNL     1      51.265  50.673  43.716  1.00  0.00     0.027 C 
BRANCH   3   4
ATOM      4  C   UNL     1      52.331  49.715  44.271  1.00  0.00     0.004 C 
BRANCH   4   5
ATOM      5  C   UNL     1      53.743  50.075  43.777  1.00  0.00     0.000 C 
BRANCH   5   6
ATOM      6  C   UNL     1      54.110  51.543  44.047  1.00  0.00     0.000 C 
BRANCH   6   7
ATOM      7  C   UNL     1      55.625  51.756  44.201  1.00  0.00     0.000 C 
BRANCH   7   8
ATOM      8  C   UNL     1      56.443  50.507  43.825  1.00  0.00     0.006 C 
BRANCH   8   9
ATOM      9  C   UNL     1      57.614  50.204  44.773  1.00  0.00     0.053 C 
BRANCH   9  10
ATOM     10  C   UNL     1      57.726  48.743  45.081  1.00  0.00     0.041 C 
ATOM     11  O   UNL     1      58.167  48.363  46.198  1.00  0.00    -0.550 OA
ATOM     12  O   UNL     1      57.312  47.800  44.149  1.00  0.00    -0.550 OA
ENDBRANCH   9  10
ENDBRANCH   8   9
ENDBRANCH   7   8
ENDBRANCH   6   7
ENDBRANCH   5   6
ENDBRANCH   4   5
ENDBRANCH   3   4
ENDBRANCH   1   3
BRANCH   2  13
ATOM     13  C   UNL     1      52.204  51.875  41.062  1.00  0.00     0.027 C 
BRANCH  13  14
ATOM     14  C   UNL     1      53.220  51.587  39.951  1.00  0.00     0.004 C 
BRANCH  14  15
ATOM     15  C   UNL     1      54.231  50.525  40.392  1.00  0.00     0.000 C 
BRANCH  15  16
ATOM     16  C   UNL     1      55.658  51.090  40.397  1.00  0.00     0.000 C 
BRANCH  16  17
ATOM     17  C   UNL     1      55.702  52.591  40.733  1.00  0.00    -0.000 C 
BRANCH  17  18
ATOM     18  C   UNL     1      57.107  53.091  41.137  1.00  0.00    -0.000 C 
BRANCH  18  19
ATOM     19  C   UNL     1      57.122  54.566  41.578  1.00  0.00    -0.003 C 
ATOM     20  C   UNL     1      55.758  55.035  42.085  1.00  0.00     0.004 C 
ENDBRANCH  18  19
ENDBRANCH  17  18
ENDBRANCH  16  17
ENDBRANCH  15  16
ENDBRANCH  14  15
ENDBRANCH  13  14
ENDBRANCH   2  13
TORSDOF 15
ENDMDL
MODEL 5
REMARK VINA RESULT:    -5.796      1.432      2.679
REMARK INTER + INTRA:         -13.295
REMARK INTER:                 -10.577
REMARK INTRA:                  -2.717
REMARK UNBOUND:                -2.415
REMARK SMILES CCCCCCCCC=CCCCCCCCC(=O)[O-]
REMARK SMILES IDX 10 1 9 2 11 3 12 4 13 5 14 6 15 7 16 8 17 9 18 10 19 11
REMARK SMILES IDX 20 12 8 13 7 14 6 15 5 16 4 17 3 18 2 19 1 20
REMARK H PARENT
REMARK Flexibility Score: inf
ROOT
ATOM      1  C   UNL     1      54.185  51.555  40.439  1.00  0.00    -0.031 C 
ATOM      2  C   UNL     1      55.085  50.587  40.695  1.00  0.00    -0.031 C 
ENDROOT
BRANCH   1   3
ATOM      3  C   UNL     1      53.129  52.024  41.411  1.00  0.00     0.027 C 
BRANCH   3   4
ATOM      4  C   UNL     1      51.745  51.441  41.084  1.00  0.00     0.004 C 
BRANCH   4   5
ATOM      5  C   UNL     1      51.204  50.564  42.226  1.00  0.00     0.000 C 
BRANCH   5   6
ATOM      6  C   UNL     1      51.926  50.817  43.560  1.00  0.00     0.000 C 
BRANCH   6   7
ATOM      7  C   UNL     1      52.435  49.520  44.212  1.00  0.00     0.000 C 
BRANCH   7   8
ATOM      8  C   UNL     1      51.440  48.935  45.231  1.00  0.00     0.006 C 
BRANCH   8   9
ATOM      9  C   UNL     1      50.755  47.636  44.777  1.00  0.00     0.053 C 
BRANCH   9  10
ATOM     10  C   UNL     1      49.262  47.726  44.866  1.00  0.00     0.041 C 
ATOM     11  O   UNL     1      48.716  48.175  45.909  1.00  0.00    -0.550 OA
ATOM     12  O   UNL     1      48.475  47.346  43.787  1.00  0.00    -0.550 OA
ENDBRANCH   9  10
ENDBRANCH   8   9
ENDBRANCH   7   8
ENDBRANCH   6   7
ENDBRANCH   5   6
ENDBRANCH   4   5
ENDBRANCH   3   4
ENDBRANCH   1   3
BRANCH   2  13
ATOM     13  C   UNL     1      55.237  49.891  42.024  1.00  0.00     0.027 C 
BRANCH  13  14
ATOM     14  C   UNL     1      56.443  50.444  42.791  1.00  0.00     0.004 C 
BRANCH  14  15
ATOM     15  C   UNL     1      56.015  51.028  44.141  1.00  0.00     0.000 C 
BRANCH  15  16
ATOM     16  C   UNL     1      55.986  52.562  44.093  1.00  0.00     0.000 C 
BRANCH  16  17
ATOM     17  C   UNL     1      56.833  53.138  42.946  1.00  0.00    -0.000 C 
BRANCH  17  18
ATOM     18  C   UNL     1      56.095  54.208  42.110  1.00  0.00    -0.000 C 
BRANCH  18  19
ATOM     19  C   UNL     1      56.617  54.316  40.666  1.00  0.00    -0.003 C 
ATOM     20  C   UNL     1      57.687  53.270  40.355  1.00  0.00     0.004 C 
ENDBRANCH  18  19
ENDBRANCH  17  18
ENDBRANCH  16  17
ENDBRANCH  15  16
ENDBRANCH  14  15
ENDBRANCH  13  14
ENDBRANCH   2  13
TORSDOF 15
ENDMDL
MODEL 6
REMARK VINA RESULT:    -5.671      2.151      6.364
REMARK INTER + INTRA:         -13.059
REMARK INTER:                 -11.008
REMARK INTRA:                  -2.051
REMARK UNBOUND:                -2.415
REMARK SMILES CCCCCCCCC=CCCCCCCCC(=O)[O-]
REMARK SMILES IDX 10 1 9 2 11 3 12 4 13 5 14 6 15 7 16 8 17 9 18 10 19 11
REMARK SMILES IDX 20 12 8 13 7 14 6 15 5 16 4 17 3 18 2 19 1 20
REMARK H PARENT
REMARK Flexibility Score: inf
ROOT
ATOM      1  C   UNL     1      54.254  52.095  40.795  1.00  0.00    -0.031 C 
ATOM      2  C   UNL     1      53.485  51.021  41.056  1.00  0.00    -0.031 C 
ENDROOT
BRANCH   1   3
ATOM      3  C   UNL     1      54.217  53.386  41.577  1.00  0.00     0.027 C 
BRANCH   3   4
ATOM      4  C   UNL     1      55.268  54.390  41.078  1.00  0.00     0.004 C 
BRANCH   4   5
ATOM      5  C   UNL     1      56.529  54.391  41.959  1.00  0.00     0.000 C 
BRANCH   5   6
ATOM      6  C   UNL     1      57.599  53.404  41.463  1.00  0.00     0.000 C 
BRANCH   6   7
ATOM      7  C   UNL     1      57.692  52.143  42.339  1.00  0.00     0.000 C 
BRANCH   7   8
ATOM      8  C   UNL     1      57.045  52.331  43.724  1.00  0.00     0.006 C 
BRANCH   8   9
ATOM      9  C   UNL     1      55.980  51.281  44.076  1.00  0.00     0.053 C 
BRANCH   9  10
ATOM     10  C   UNL     1      56.442  49.888  43.778  1.00  0.00     0.041 C 
ATOM     11  O   UNL     1      57.396  49.384  44.429  1.00  0.00    -0.550 OA
ATOM     12  O   UNL     1      55.799  49.133  42.806  1.00  0.00    -0.550 OA
ENDBRANCH   9  10
ENDBRANCH   8   9
ENDBRANCH   7   8
ENDBRANCH   6   7
ENDBRANCH   5   6
ENDBRANCH   4   5
ENDBRANCH   3   4
ENDBRANCH   1   3
BRANCH   2  13
ATOM     13  C   UNL     1      52.538  50.909  42.224  1.00  0.00     0.027 C 
BRANCH  13  14
ATOM     14  C   UNL     1      51.083  50.925  41.746  1.00  0.00     0.004 C 
BRANCH  14  15
ATOM     15  C   UNL     1      50.263  49.834  42.442  1.00  0.00     0.000 C 
BRANCH  15  16
ATOM     16  C   UNL     1      49.826  50.282  43.843  1.00  0.00     0.000 C 
BRANCH  16  17
ATOM     17  C   UNL     1      49.676  49.107  44.824  1.00  0.00    -0.000 C 
BRANCH  17  18
ATOM     18  C   UNL     1      50.066  47.741  44.216  1.00  0.00    -0.000 C 
BRANCH  18  19
ATOM     19  C   UNL     1      51.289  47.101  44.896  1.00  0.00    -0.003 C 
ATOM     20  C   UNL     1      52.489  48.048  44.943  1.00  0.00     0.004 C 
ENDBRANCH  18  19
ENDBRANCH  17  18
ENDBRANCH  16  17
ENDBRANCH  15  16
ENDBRANCH  14  15
ENDBRANCH  13  14
ENDBRANCH   2  13
TORSDOF 15
ENDMDL
MODEL 7
REMARK VINA RESULT:    -5.644      1.154      3.911
REMARK INTER + INTRA:         -13.009
REMARK INTER:                 -11.604
REMARK INTRA:                  -1.404
REMARK UNBOUND:                -2.415
REMARK SMILES CCCCCCCCC=CCCCCCCCC(=O)[O-]
REMARK SMILES IDX 10 1 9 2 11 3 12 4 13 5 14 6 15 7 16 8 17 9 18 10 19 11
REMARK SMILES IDX 20 12 8 13 7 14 6 15 5 16 4 17 3 18 2 19 1 20
REMARK H PARENT
REMARK Flexibility Score: inf
ROOT
ATOM      1  C   UNL     1      55.422  54.872  41.944  1.00  0.00    -0.031 C 
ATOM      2  C   UNL     1      56.716  54.749  41.595  1.00  0.00    -0.031 C 
ENDROOT
BRANCH   1   3
ATOM      3  C   UNL     1      54.310  53.982  41.445  1.00  0.00     0.027 C 
BRANCH   3   4
ATOM      4  C   UNL     1      54.164  52.711  42.297  1.00  0.00     0.004 C 
BRANCH   4   5
ATOM      5  C   UNL     1      53.620  51.527  41.479  1.00  0.00     0.000 C 
BRANCH   5   6
ATOM      6  C   UNL     1      52.160  51.730  41.041  1.00  0.00     0.000 C 
BRANCH   6   7
ATOM      7  C   UNL     1      51.248  50.568  41.469  1.00  0.00     0.000 C 
BRANCH   7   8
ATOM      8  C   UNL     1      50.819  50.660  42.945  1.00  0.00     0.006 C 
BRANCH   8   9
ATOM      9  C   UNL     1      49.972  49.476  43.437  1.00  0.00     0.053 C 
BRANCH   9  10
ATOM     10  C   UNL     1      50.564  48.825  44.649  1.00  0.00     0.041 C 
ATOM     11  O   UNL     1      49.823  48.218  45.467  1.00  0.00    -0.550 OA
ATOM     12  O   UNL     1      51.936  48.860  44.859  1.00  0.00    -0.550 OA
ENDBRANCH   9  10
ENDBRANCH   8   9
ENDBRANCH   7   8
ENDBRANCH   6   7
ENDBRANCH   5   6
ENDBRANCH   4   5
ENDBRANCH   3   4
ENDBRANCH   1   3
BRANCH   2  13
ATOM     13  C   UNL     1      57.267  53.646  40.726  1.00  0.00     0.027 C 
BRANCH  13  14
ATOM     14  C   UNL     1      58.151  52.701  41.546  1.00  0.00     0.004 C 
BRANCH  14  15
ATOM     15  C   UNL     1      57.303  51.690  42.324  1.00  0.00     0.000 C 
BRANCH  15  16
ATOM     16  C   UNL     1      57.471  51.878  43.837  1.00  0.00     0.000 C 
BRANCH  16  17
ATOM     17  C   UNL     1      57.462  50.546  44.607  1.00  0.00    -0.000 C 
BRANCH  17  18
ATOM     18  C   UNL     1      56.884  49.366  43.793  1.00  0.00    -0.000 C 
BRANCH  18  19
ATOM     19  C   UNL     1      57.082  48.002  44.478  1.00  0.00    -0.003 C 
ATOM     20  C   UNL     1      57.904  48.110  45.762  1.00  0.00     0.004 C 
ENDBRANCH  18  19
ENDBRANCH  17  18
ENDBRANCH  16  17
ENDBRANCH  15  16
ENDBRANCH  14  15
ENDBRANCH  13  14
ENDBRANCH   2  13
TORSDOF 15
ENDMDL
MODEL 8
REMARK VINA RESULT:    -5.556      2.992      6.890
REMARK INTER + INTRA:         -12.843
REMARK INTER:                 -10.558
REMARK INTRA:                  -2.285
REMARK UNBOUND:                -2.415
REMARK SMILES CCCCCCCCC=CCCCCCCCC(=O)[O-]
REMARK SMILES IDX 10 1 9 2 11 3 12 4 13 5 14 6 15 7 16 8 17 9 18 10 19 11
REMARK SMILES IDX 20 12 8 13 7 14 6 15 5 16 4 17 3 18 2 19 1 20
REMARK H PARENT
REMARK Flexibility Score: inf
ROOT
ATOM      1  C   UNL     1      53.572  51.942  40.426  1.00  0.00    -0.031 C 
ATOM      2  C   UNL     1      52.429  52.118  41.115  1.00  0.00    -0.031 C 
ENDROOT
BRANCH   1   3
ATOM      3  C   UNL     1      54.243  50.608  40.203  1.00  0.00     0.027 C 
BRANCH   3   4
ATOM      4  C   UNL     1      55.513  50.454  41.054  1.00  0.00     0.004 C 
BRANCH   4   5
ATOM      5  C   UNL     1      55.216  49.821  42.425  1.00  0.00     0.000 C 
BRANCH   5   6
ATOM      6  C   UNL     1      55.937  50.538  43.578  1.00  0.00     0.000 C 
BRANCH   6   7
ATOM      7  C   UNL     1      55.191  51.798  44.049  1.00  0.00     0.000 C 
BRANCH   7   8
ATOM      8  C   UNL     1      56.047  53.073  43.940  1.00  0.00     0.006 C 
BRANCH   8   9
ATOM      9  C   UNL     1      55.779  53.915  42.682  1.00  0.00     0.053 C 
BRANCH   9  10
ATOM     10  C   UNL     1      56.847  53.737  41.648  1.00  0.00     0.041 C 
ATOM     11  O   UNL     1      57.844  53.005  41.886  1.00  0.00    -0.550 OA
ATOM     12  O   UNL     1      56.725  54.351  40.408  1.00  0.00    -0.550 OA
ENDBRANCH   9  10
ENDBRANCH   8   9
ENDBRANCH   7   8
ENDBRANCH   6   7
ENDBRANCH   5   6
ENDBRANCH   4   5
ENDBRANCH   3   4
ENDBRANCH   1   3
BRANCH   2  13
ATOM     13  C   UNL     1      51.595  51.000  41.688  1.00  0.00     0.027 C 
BRANCH  13  14
ATOM     14  C   UNL     1      51.822  50.875  43.198  1.00  0.00     0.004 C 
BRANCH  14  15
ATOM     15  C   UNL     1      51.035  49.695  43.777  1.00  0.00     0.000 C 
BRANCH  15  16
ATOM     16  C   UNL     1      51.855  48.953  44.841  1.00  0.00     0.000 C 
BRANCH  16  17
ATOM     17  C   UNL     1      51.469  47.469  44.962  1.00  0.00    -0.000 C 
BRANCH  17  18
ATOM     18  C   UNL     1      49.955  47.209  44.791  1.00  0.00    -0.000 C 
BRANCH  18  19
ATOM     19  C   UNL     1      49.197  47.137  46.128  1.00  0.00    -0.003 C 
ATOM     20  C   UNL     1      48.505  48.455  46.475  1.00  0.00     0.004 C 
ENDBRANCH  18  19
ENDBRANCH  17  18
ENDBRANCH  16  17
ENDBRANCH  15  16
ENDBRANCH  14  15
ENDBRANCH  13  14
ENDBRANCH   2  13
TORSDOF 15
ENDMDL
MODEL 9
REMARK VINA RESULT:    -5.551      1.610      4.132
REMARK INTER + INTRA:         -12.834
REMARK INTER:                 -10.768
REMARK INTRA:                  -2.066
REMARK UNBOUND:                -2.415
REMARK SMILES CCCCCCCCC=CCCCCCCCC(=O)[O-]
REMARK SMILES IDX 10 1 9 2 11 3 12 4 13 5 14 6 15 7 16 8 17 9 18 10 19 11
REMARK SMILES IDX 20 12 8 13 7 14 6 15 5 16 4 17 3 18 2 19 1 20
REMARK H PARENT
REMARK Flexibility Score: inf
ROOT
ATOM      1  C   UNL     1      53.428  51.099  40.942  1.00  0.00    -0.031 C 
ATOM      2  C   UNL     1      54.249  52.163  40.870  1.00  0.00    -0.031 C 
ENDROOT
BRANCH   1   3
ATOM      3  C   UNL     1      52.145  51.059  41.737  1.00  0.00     0.027 C 
BRANCH   3   4
ATOM      4  C   UNL     1      52.401  50.818  43.233  1.00  0.00     0.004 C 
BRANCH   4   5
ATOM      5  C   UNL     1      51.367  49.860  43.848  1.00  0.00     0.000 C 
BRANCH   5   6
ATOM      6  C   UNL     1      51.989  48.886  44.862  1.00  0.00     0.000 C 
BRANCH   6   7
ATOM      7  C   UNL     1      51.301  47.511  44.861  1.00  0.00     0.000 C 
BRANCH   7   8
ATOM      8  C   UNL     1      49.995  47.499  44.046  1.00  0.00     0.006 C 
BRANCH   8   9
ATOM      9  C   UNL     1      48.739  47.147  44.859  1.00  0.00     0.053 C 
BRANCH   9  10
ATOM     10  C   UNL     1      48.633  47.962  46.111  1.00  0.00     0.041 C 
ATOM     11  O   UNL     1      48.616  47.395  47.236  1.00  0.00    -0.550 OA
ATOM     12  O   UNL     1      48.586  49.348  46.039  1.00  0.00    -0.550 OA
ENDBRANCH   9  10
ENDBRANCH   8   9
ENDBRANCH   7   8
ENDBRANCH   6   7
ENDBRANCH   5   6
ENDBRANCH   4   5
ENDBRANCH   3   4
ENDBRANCH   1   3
BRANCH   2  13
ATOM     13  C   UNL     1      53.967  53.506  41.494  1.00  0.00     0.027 C 
BRANCH  13  14
ATOM     14  C   UNL     1      55.233  54.369  41.517  1.00  0.00     0.004 C 
BRANCH  14  15
ATOM     15  C   UNL     1      56.373  53.694  40.748  1.00  0.00     0.000 C 
BRANCH  15  16
ATOM     16  C   UNL     1      57.610  53.517  41.639  1.00  0.00     0.000 C 
BRANCH  16  17
ATOM     17  C   UNL     1      57.706  52.109  42.250  1.00  0.00    -0.000 C 
BRANCH  17  18
ATOM     18  C   UNL     1      57.211  52.034  43.712  1.00  0.00    -0.000 C 
BRANCH  18  19
ATOM     19  C   UNL     1      56.014  51.085  43.900  1.00  0.00    -0.003 C 
ATOM     20  C   UNL     1      56.158  49.800  43.085  1.00  0.00     0.004 C 
ENDBRANCH  18  19
ENDBRANCH  17  18
ENDBRANCH  16  17
ENDBRANCH  15  16
ENDBRANCH  14  15
ENDBRANCH  13  14
ENDBRANCH   2  13
TORSDOF 15
ENDMDL
