MODEL 1
REMARK VINA RESULT:    -8.095      0.000      0.000
REMARK INTER + INTRA:         -13.085
REMARK INTER:                 -12.117
REMARK INTRA:                  -0.968
REMARK UNBOUND:                -0.968
REMARK SMILES C[C@@H]1O[C@@H](O[C@@H]2CC[C@]3(C)[C@H](CC[C@]4(C)[C@H]3C=C[C@]35OC[C@@]6(CCC(C)(C)C[C@H]63)[C@H](O)C[C@]54C)[C@@]2(C)CO)[C@H](O)[C@@H](O[C@@H]2O[C@@H](CO)[C@H](O)[C@@H](O)[C@H]2O)[C@@H]1O
REMARK SMILES IDX 1 1 2 2 54 3 41 4 39 5 4 6 3 7 55 8 42 10 43 11 52 12 44 13
REMARK SMILES IDX 50 14 45 15 48 16 53 17 51 19 46 21 47 22 49 24 5 26 6 27
REMARK SMILES IDX 7 28 35 29 8 30 11 31 36 32 9 33 12 34 10 35 16 36 13 37
REMARK SMILES IDX 14 38 17 39 15 40 33 41 18 42 19 43 32 44 34 45 29 46 20 47
REMARK SMILES IDX 30 48 22 49 28 50 21 51 23 52 25 53 24 54 26 55 27 56 37 57
REMARK SMILES IDX 38 58 31 60 40 62
REMARK H PARENT 55 9 53 18 51 20 47 23 49 25 38 59 31 61 40 63
REMARK Flexibility Score: inf
ROOT
ATOM      1  C   UNL     1      21.503  45.050  44.298  1.00  0.00     0.041 C 
ATOM      2  C   UNL     1      20.416  45.983  43.771  1.00  0.00     0.150 C 
ATOM      3  C   UNL     1      20.348  47.430  44.426  1.00  0.00     0.175 C 
ATOM      4  C   UNL     1      18.840  47.604  44.613  1.00  0.00     0.186 C 
ATOM      5  C   UNL     1      18.198  47.525  43.154  1.00  0.00     0.202 C 
ATOM      6  C   UNL     1      18.972  46.571  42.136  1.00  0.00     0.282 C 
ATOM      7  O   UNL     1      20.321  46.149  42.397  1.00  0.00    -0.344 OA
ENDROOT
BRANCH   3   8
ATOM      8  O   UNL     1      21.023  48.430  43.691  1.00  0.00    -0.388 OA
ATOM      9  H   UNL     1      20.792  49.296  44.150  1.00  0.00     0.211 HD
ENDBRANCH   3   8
BRANCH   4  10
ATOM     10  O   UNL     1      18.693  46.645  45.713  1.00  0.00    -0.341 OA
BRANCH  10  11
ATOM     11  C   UNL     1      17.961  47.036  46.892  1.00  0.00     0.282 C 
ATOM     12  C   UNL     1      18.795  48.223  47.594  1.00  0.00     0.202 C 
ATOM     13  O   UNL     1      16.621  47.305  46.391  1.00  0.00    -0.341 OA
ATOM     14  C   UNL     1      18.126  49.718  47.588  1.00  0.00     0.179 C 
ATOM     15  C   UNL     1      15.969  48.522  46.890  1.00  0.00     0.178 C 
ATOM     16  C   UNL     1      16.917  49.790  46.645  1.00  0.00     0.177 C 
BRANCH  12  17
ATOM     17  O   UNL     1      19.201  47.891  48.934  1.00  0.00    -0.385 OA
ATOM     18  H   UNL     1      19.727  46.998  49.008  1.00  0.00     0.211 HD
ENDBRANCH  12  17
BRANCH  14  19
ATOM     19  O   UNL     1      17.651  50.199  48.838  1.00  0.00    -0.387 OA
ATOM     20  H   UNL     1      16.959  49.577  49.198  1.00  0.00     0.211 HD
ENDBRANCH  14  19
BRANCH  15  21
ATOM     21  C   UNL     1      15.352  48.238  48.457  1.00  0.00     0.191 C 
BRANCH  21  22
ATOM     22  O   UNL     1      14.705  49.361  49.086  1.00  0.00    -0.394 OA
ATOM     23  H   UNL     1      13.868  48.939  49.469  1.00  0.00     0.210 HD
ENDBRANCH  21  22
ENDBRANCH  15  21
BRANCH  16  24
ATOM     24  O   UNL     1      17.335  49.881  45.280  1.00  0.00    -0.387 OA
ATOM     25  H   UNL     1      17.159  49.072  44.718  1.00  0.00     0.211 HD
ENDBRANCH  16  24
ENDBRANCH  10  11
ENDBRANCH   4  10
BRANCH   6  26
ATOM     26  O   UNL     1      18.173  45.433  42.000  1.00  0.00    -0.346 OA
BRANCH  26  27
ATOM     27  C   UNL     1      17.696  45.302  40.689  1.00  0.00     0.130 C 
ATOM     28  C   UNL     1      17.065  46.659  40.295  1.00  0.00     0.033 C 
ATOM     29  C   UNL     1      16.727  44.074  40.642  1.00  0.00     0.020 C 
ATOM     30  C   UNL     1      16.522  46.590  38.859  1.00  0.00     0.010 C 
ATOM     31  C   UNL     1      16.007  44.151  39.260  1.00  0.00     0.006 C 
ATOM     32  C   UNL     1      15.733  44.073  41.808  1.00  0.00     0.017 C 
ATOM     33  C   UNL     1      15.419  45.524  38.745  1.00  0.00    -0.022 C 
ATOM     34  C   UNL     1      15.094  43.028  38.807  1.00  0.00     0.005 C 
ATOM     35  C   UNL     1      14.233  46.011  39.614  1.00  0.00     0.012 C 
ATOM     36  C   UNL     1      14.903  45.358  37.239  1.00  0.00     0.024 C 
ATOM     37  C   UNL     1      15.383  42.873  37.292  1.00  0.00     0.008 C 
ATOM     38  C   UNL     1      15.666  44.225  36.424  1.00  0.00    -0.017 C 
ATOM     39  C   UNL     1      13.405  44.975  37.168  1.00  0.00    -0.024 C 
ATOM     40  C   UNL     1      17.198  44.508  36.235  1.00  0.00     0.013 C 
ATOM     41  C   UNL     1      15.066  44.088  34.907  1.00  0.00     0.009 C 
ATOM     42  C   UNL     1      12.841  44.519  36.035  1.00  0.00     0.005 C 
ATOM     43  C   UNL     1      13.642  44.773  34.799  1.00  0.00     0.096 C 
ATOM     44  C   UNL     1      15.920  44.760  33.758  1.00  0.00     0.043 C 
ATOM     45  C   UNL     1      15.108  42.549  34.547  1.00  0.00     0.015 C 
ATOM     46  C   UNL     1      12.872  44.493  33.526  1.00  0.00     0.037 C 
ATOM     47  O   UNL     1      13.785  46.222  34.746  1.00  0.00    -0.369 OA
ATOM     48  C   UNL     1      15.175  44.827  32.383  1.00  0.00     0.124 C 
ATOM     49  C   UNL     1      13.692  45.331  32.562  1.00  0.00     0.026 C 
ATOM     50  C   UNL     1      12.511  43.098  32.980  1.00  0.00     0.014 C 
ATOM     51  C   UNL     1      13.749  46.591  33.411  1.00  0.00     0.171 C 
ATOM     52  C   UNL     1      12.975  45.485  31.230  1.00  0.00     0.013 C 
ATOM     53  C   UNL     1      11.705  43.262  31.668  1.00  0.00    -0.035 C 
ATOM     54  C   UNL     1      12.500  44.137  30.653  1.00  0.00     0.007 C 
ATOM     55  C   UNL     1      11.498  41.875  31.062  1.00  0.00     0.011 C 
ATOM     56  C   UNL     1      10.311  43.894  31.925  1.00  0.00     0.011 C 
BRANCH  29  57
ATOM     57  C   UNL     1      17.706  42.801  40.752  1.00  0.00     0.165 C 
BRANCH  57  58
ATOM     58  O   UNL     1      18.723  42.867  41.752  1.00  0.00    -0.396 OA
ATOM     59  H   UNL     1      18.222  42.598  42.584  1.00  0.00     0.210 HD
ENDBRANCH  57  58
ENDBRANCH  29  57
BRANCH  48  60
ATOM     60  O   UNL     1      15.244  43.607  31.707  1.00  0.00    -0.392 OA
ATOM     61  H   UNL     1      14.336  43.380  31.373  1.00  0.00     0.210 HD
ENDBRANCH  48  60
ENDBRANCH  26  27
ENDBRANCH   6  26
BRANCH   5  62
ATOM     62  O   UNL     1      18.099  48.822  42.608  1.00  0.00    -0.385 OA
ATOM     63  H   UNL     1      17.150  49.006  42.378  1.00  0.00     0.211 HD
ENDBRANCH   5  62
TORSDOF 14
ENDMDL
MODEL 2
REMARK VINA RESULT:    -7.432      2.434     12.309
REMARK INTER + INTRA:         -12.093
REMARK INTER:                 -11.984
REMARK INTRA:                  -0.110
REMARK UNBOUND:                -0.968
REMARK SMILES C[C@@H]1O[C@@H](O[C@@H]2CC[C@]3(C)[C@H](CC[C@]4(C)[C@H]3C=C[C@]35OC[C@@]6(CCC(C)(C)C[C@H]63)[C@H](O)C[C@]54C)[C@@]2(C)CO)[C@H](O)[C@@H](O[C@@H]2O[C@@H](CO)[C@H](O)[C@@H](O)[C@H]2O)[C@@H]1O
REMARK SMILES IDX 1 1 2 2 54 3 41 4 39 5 4 6 3 7 55 8 42 10 43 11 52 12 44 13
REMARK SMILES IDX 50 14 45 15 48 16 53 17 51 19 46 21 47 22 49 24 5 26 6 27
REMARK SMILES IDX 7 28 35 29 8 30 11 31 36 32 9 33 12 34 10 35 16 36 13 37
REMARK SMILES IDX 14 38 17 39 15 40 33 41 18 42 19 43 32 44 34 45 29 46 20 47
REMARK SMILES IDX 30 48 22 49 28 50 21 51 23 52 25 53 24 54 26 55 27 56 37 57
REMARK SMILES IDX 38 58 31 60 40 62
REMARK H PARENT 55 9 53 18 51 20 47 23 49 25 38 59 31 61 40 63
REMARK Flexibility Score: inf
ROOT
ATOM      1  C   UNL     1      14.000  42.505  33.574  1.00  0.00     0.041 C 
ATOM      2  C   UNL     1      13.682  43.559  34.631  1.00  0.00     0.150 C 
ATOM      3  C   UNL     1      12.362  44.415  34.399  1.00  0.00     0.175 C 
ATOM      4  C   UNL     1      12.851  45.820  34.756  1.00  0.00     0.186 C 
ATOM      5  C   UNL     1      13.318  45.756  36.280  1.00  0.00     0.202 C 
ATOM      6  C   UNL     1      13.916  44.347  36.735  1.00  0.00     0.282 C 
ATOM      7  O   UNL     1      13.684  43.160  35.959  1.00  0.00    -0.344 OA
ENDROOT
BRANCH   3   8
ATOM      8  O   UNL     1      11.231  43.934  35.093  1.00  0.00    -0.388 OA
ATOM      9  H   UNL     1      11.601  43.406  35.867  1.00  0.00     0.211 HD
ENDBRANCH   3   8
BRANCH   4  10
ATOM     10  O   UNL     1      13.686  46.018  33.567  1.00  0.00    -0.341 OA
BRANCH  10  11
ATOM     11  C   UNL     1      13.216  46.884  32.514  1.00  0.00     0.282 C 
ATOM     12  C   UNL     1      11.674  46.499  32.240  1.00  0.00     0.202 C 
ATOM     13  O   UNL     1      13.542  48.218  32.995  1.00  0.00    -0.341 OA
ATOM     14  C   UNL     1      10.539  47.607  32.646  1.00  0.00     0.179 C 
ATOM     15  C   UNL     1      12.502  49.242  32.837  1.00  0.00     0.178 C 
ATOM     16  C   UNL     1      11.134  48.737  33.498  1.00  0.00     0.177 C 
BRANCH  12  17
ATOM     17  O   UNL     1      11.450  46.063  30.887  1.00  0.00    -0.385 OA
ATOM     18  H   UNL     1      11.719  46.761  30.167  1.00  0.00     0.211 HD
ENDBRANCH  12  17
BRANCH  14  19
ATOM     19  O   UNL     1       9.884  48.260  31.566  1.00  0.00    -0.387 OA
ATOM     20  H   UNL     1       9.333  47.602  31.059  1.00  0.00     0.211 HD
ENDBRANCH  14  19
BRANCH  15  21
ATOM     21  C   UNL     1      12.490  49.800  31.223  1.00  0.00     0.191 C 
BRANCH  21  22
ATOM     22  O   UNL     1      11.383  50.652  30.867  1.00  0.00    -0.394 OA
ATOM     23  H   UNL     1      11.511  51.441  31.489  1.00  0.00     0.210 HD
ENDBRANCH  21  22
ENDBRANCH  15  21
BRANCH  16  24
ATOM     24  O   UNL     1      11.324  48.315  34.851  1.00  0.00    -0.387 OA
ATOM     25  H   UNL     1      10.675  48.686  35.516  1.00  0.00     0.211 HD
ENDBRANCH  16  24
ENDBRANCH  10  11
ENDBRANCH   4  10
BRANCH   6  26
ATOM     26  O   UNL     1      15.295  44.539  36.845  1.00  0.00    -0.346 OA
BRANCH  26  27
ATOM     27  C   UNL     1      15.610  45.323  37.963  1.00  0.00     0.130 C 
ATOM     28  C   UNL     1      17.014  45.925  37.719  1.00  0.00     0.033 C 
ATOM     29  C   UNL     1      15.479  44.428  39.240  1.00  0.00     0.020 C 
ATOM     30  C   UNL     1      17.425  46.805  38.909  1.00  0.00     0.010 C 
ATOM     31  C   UNL     1      16.117  45.248  40.404  1.00  0.00     0.006 C 
ATOM     32  C   UNL     1      16.153  43.062  39.065  1.00  0.00     0.017 C 
ATOM     33  C   UNL     1      17.506  45.971  40.199  1.00  0.00    -0.022 C 
ATOM     34  C   UNL     1      16.034  44.744  41.833  1.00  0.00     0.005 C 
ATOM     35  C   UNL     1      18.665  44.963  40.010  1.00  0.00     0.012 C 
ATOM     36  C   UNL     1      17.833  46.880  41.476  1.00  0.00     0.024 C 
ATOM     37  C   UNL     1      15.784  46.015  42.684  1.00  0.00     0.008 C 
ATOM     38  C   UNL     1      16.538  47.393  42.244  1.00  0.00    -0.017 C 
ATOM     39  C   UNL     1      18.666  46.123  42.539  1.00  0.00    -0.024 C 
ATOM     40  C   UNL     1      15.623  48.330  41.380  1.00  0.00     0.013 C 
ATOM     41  C   UNL     1      16.947  48.285  43.555  1.00  0.00     0.009 C 
ATOM     42  C   UNL     1      18.815  46.592  43.791  1.00  0.00     0.005 C 
ATOM     43  C   UNL     1      18.458  48.034  43.959  1.00  0.00     0.096 C 
ATOM     44  C   UNL     1      16.835  49.854  43.391  1.00  0.00     0.043 C 
ATOM     45  C   UNL     1      15.882  47.951  44.673  1.00  0.00     0.015 C 
ATOM     46  C   UNL     1      18.883  48.598  45.298  1.00  0.00     0.037 C 
ATOM     47  O   UNL     1      19.347  48.740  43.045  1.00  0.00    -0.369 OA
ATOM     48  C   UNL     1      17.483  50.654  44.569  1.00  0.00     0.124 C 
ATOM     49  C   UNL     1      18.900  50.073  44.941  1.00  0.00     0.026 C 
ATOM     50  C   UNL     1      18.217  48.296  46.654  1.00  0.00     0.014 C 
ATOM     51  C   UNL     1      19.683  49.943  43.644  1.00  0.00     0.171 C 
ATOM     52  C   UNL     1      19.586  50.886  46.028  1.00  0.00     0.013 C 
ATOM     53  C   UNL     1      18.973  49.060  47.770  1.00  0.00    -0.035 C 
ATOM     54  C   UNL     1      19.036  50.580  47.435  1.00  0.00     0.007 C 
ATOM     55  C   UNL     1      18.203  48.878  49.076  1.00  0.00     0.011 C 
ATOM     56  C   UNL     1      20.410  48.508  47.971  1.00  0.00     0.011 C 
BRANCH  29  57
ATOM     57  C   UNL     1      13.891  44.238  39.423  1.00  0.00     0.165 C 
BRANCH  57  58
ATOM     58  O   UNL     1      13.180  45.344  39.979  1.00  0.00    -0.396 OA
ATOM     59  H   UNL     1      13.640  46.132  39.549  1.00  0.00     0.210 HD
ENDBRANCH  57  58
ENDBRANCH  29  57
BRANCH  48  60
ATOM     60  O   UNL     1      16.628  50.716  45.673  1.00  0.00    -0.392 OA
ATOM     61  H   UNL     1      16.457  49.791  45.992  1.00  0.00     0.210 HD
ENDBRANCH  48  60
ENDBRANCH  26  27
ENDBRANCH   6  26
BRANCH   5  62
ATOM     62  O   UNL     1      12.243  46.109  37.123  1.00  0.00    -0.385 OA
ATOM     63  H   UNL     1      11.526  46.526  36.576  1.00  0.00     0.211 HD
ENDBRANCH   5  62
TORSDOF 14
ENDMDL
MODEL 3
REMARK VINA RESULT:    -7.056      2.022      4.165
REMARK INTER + INTRA:         -11.529
REMARK INTER:                  -9.585
REMARK INTRA:                  -1.944
REMARK UNBOUND:                -0.968
REMARK SMILES C[C@@H]1O[C@@H](O[C@@H]2CC[C@]3(C)[C@H](CC[C@]4(C)[C@H]3C=C[C@]35OC[C@@]6(CCC(C)(C)C[C@H]63)[C@H](O)C[C@]54C)[C@@]2(C)CO)[C@H](O)[C@@H](O[C@@H]2O[C@@H](CO)[C@H](O)[C@@H](O)[C@H]2O)[C@@H]1O
REMARK SMILES IDX 1 1 2 2 54 3 41 4 39 5 4 6 3 7 55 8 42 10 43 11 52 12 44 13
REMARK SMILES IDX 50 14 45 15 48 16 53 17 51 19 46 21 47 22 49 24 5 26 6 27
REMARK SMILES IDX 7 28 35 29 8 30 11 31 36 32 9 33 12 34 10 35 16 36 13 37
REMARK SMILES IDX 14 38 17 39 15 40 33 41 18 42 19 43 32 44 34 45 29 46 20 47
REMARK SMILES IDX 30 48 22 49 28 50 21 51 23 52 25 53 24 54 26 55 27 56 37 57
REMARK SMILES IDX 38 58 31 60 40 62
REMARK H PARENT 55 9 53 18 51 20 47 23 49 25 38 59 31 61 40 63
REMARK Flexibility Score: inf
ROOT
ATOM      1  C   UNL     1      13.873  49.386  43.223  1.00  0.00     0.041 C 
ATOM      2  C   UNL     1      14.247  48.112  43.977  1.00  0.00     0.150 C 
ATOM      3  C   UNL     1      14.101  48.160  45.560  1.00  0.00     0.175 C 
ATOM      4  C   UNL     1      15.389  47.462  46.000  1.00  0.00     0.186 C 
ATOM      5  C   UNL     1      15.328  45.988  45.391  1.00  0.00     0.202 C 
ATOM      6  C   UNL     1      14.559  45.875  43.996  1.00  0.00     0.282 C 
ATOM      7  O   UNL     1      13.681  46.921  43.549  1.00  0.00    -0.344 OA
ENDROOT
BRANCH   3   8
ATOM      8  O   UNL     1      12.886  47.630  46.045  1.00  0.00    -0.388 OA
ATOM      9  H   UNL     1      12.699  48.135  46.896  1.00  0.00     0.211 HD
ENDBRANCH   3   8
BRANCH   4  10
ATOM     10  O   UNL     1      16.305  48.548  45.636  1.00  0.00    -0.341 OA
BRANCH  10  11
ATOM     11  C   UNL     1      17.614  48.595  46.240  1.00  0.00     0.282 C 
ATOM     12  C   UNL     1      18.431  47.318  45.694  1.00  0.00     0.202 C 
ATOM     13  O   UNL     1      18.090  49.934  45.925  1.00  0.00    -0.341 OA
ATOM     14  C   UNL     1      19.698  47.605  44.695  1.00  0.00     0.179 C 
ATOM     15  C   UNL     1      19.479  50.041  45.460  1.00  0.00     0.178 C 
ATOM     16  C   UNL     1      19.715  49.063  44.214  1.00  0.00     0.177 C 
BRANCH  12  17
ATOM     17  O   UNL     1      18.854  46.442  46.755  1.00  0.00    -0.385 OA
ATOM     18  H   UNL     1      19.738  45.935  46.559  1.00  0.00     0.211 HD
ENDBRANCH  12  17
BRANCH  14  19
ATOM     19  O   UNL     1      20.991  47.377  45.238  1.00  0.00    -0.387 OA
ATOM     20  H   UNL     1      21.218  46.408  45.171  1.00  0.00     0.211 HD
ENDBRANCH  14  19
BRANCH  15  21
ATOM     21  C   UNL     1      20.536  49.953  46.798  1.00  0.00     0.191 C 
BRANCH  21  22
ATOM     22  O   UNL     1      20.130  50.696  47.964  1.00  0.00    -0.394 OA
ATOM     23  H   UNL     1      20.905  50.543  48.597  1.00  0.00     0.210 HD
ENDBRANCH  21  22
ENDBRANCH  15  21
BRANCH  16  24
ATOM     24  O   UNL     1      18.747  49.276  43.184  1.00  0.00    -0.387 OA
ATOM     25  H   UNL     1      18.769  50.176  42.748  1.00  0.00     0.211 HD
ENDBRANCH  16  24
ENDBRANCH  10  11
ENDBRANCH   4  10
BRANCH   6  26
ATOM     26  O   UNL     1      15.552  45.690  43.031  1.00  0.00    -0.346 OA
BRANCH  26  27
ATOM     27  C   UNL     1      14.993  45.473  41.764  1.00  0.00     0.130 C 
ATOM     28  C   UNL     1      14.581  43.984  41.695  1.00  0.00     0.033 C 
ATOM     29  C   UNL     1      16.031  45.931  40.687  1.00  0.00     0.020 C 
ATOM     30  C   UNL     1      13.953  43.673  40.328  1.00  0.00     0.010 C 
ATOM     31  C   UNL     1      15.491  45.402  39.322  1.00  0.00     0.006 C 
ATOM     32  C   UNL     1      17.443  45.415  40.984  1.00  0.00     0.017 C 
ATOM     33  C   UNL     1      14.965  43.919  39.196  1.00  0.00    -0.022 C 
ATOM     34  C   UNL     1      16.176  45.790  38.025  1.00  0.00     0.005 C 
ATOM     35  C   UNL     1      16.100  42.881  39.375  1.00  0.00     0.012 C 
ATOM     36  C   UNL     1      14.308  43.701  37.752  1.00  0.00     0.024 C 
ATOM     37  C   UNL     1      15.016  46.019  37.022  1.00  0.00     0.008 C 
ATOM     38  C   UNL     1      13.720  45.033  37.110  1.00  0.00    -0.017 C 
ATOM     39  C   UNL     1      15.326  43.163  36.718  1.00  0.00    -0.024 C 
ATOM     40  C   UNL     1      12.542  45.661  37.934  1.00  0.00     0.013 C 
ATOM     41  C   UNL     1      13.096  44.743  35.625  1.00  0.00     0.009 C 
ATOM     42  C   UNL     1      15.069  43.171  35.397  1.00  0.00     0.005 C 
ATOM     43  C   UNL     1      13.629  43.366  35.048  1.00  0.00     0.096 C 
ATOM     44  C   UNL     1      11.522  44.627  35.541  1.00  0.00     0.043 C 
ATOM     45  C   UNL     1      13.421  46.016  34.748  1.00  0.00     0.015 C 
ATOM     46  C   UNL     1      13.333  43.107  33.586  1.00  0.00     0.037 C 
ATOM     47  O   UNL     1      12.942  42.254  35.690  1.00  0.00    -0.369 OA
ATOM     48  C   UNL     1      11.006  44.093  34.164  1.00  0.00     0.124 C 
ATOM     49  C   UNL     1      11.841  42.844  33.687  1.00  0.00     0.026 C 
ATOM     50  C   UNL     1      13.721  44.028  32.412  1.00  0.00     0.014 C 
ATOM     51  C   UNL     1      11.902  41.875  34.857  1.00  0.00     0.171 C 
ATOM     52  C   UNL     1      11.305  42.256  32.392  1.00  0.00     0.013 C 
ATOM     53  C   UNL     1      13.248  43.382  31.087  1.00  0.00    -0.035 C 
ATOM     54  C   UNL     1      11.722  43.071  31.152  1.00  0.00     0.007 C 
ATOM     55  C   UNL     1      13.496  44.379  29.957  1.00  0.00     0.011 C 
ATOM     56  C   UNL     1      14.034  42.081  30.768  1.00  0.00     0.011 C 
BRANCH  29  57
ATOM     57  C   UNL     1      16.002  47.538  40.776  1.00  0.00     0.165 C 
BRANCH  57  58
ATOM     58  O   UNL     1      17.263  48.188  40.937  1.00  0.00    -0.396 OA
ATOM     59  H   UNL     1      17.913  47.431  40.793  1.00  0.00     0.210 HD
ENDBRANCH  57  58
ENDBRANCH  29  57
BRANCH  48  60
ATOM     60  O   UNL     1      10.973  45.108  33.205  1.00  0.00    -0.392 OA
ATOM     61  H   UNL     1      10.383  45.835  33.535  1.00  0.00     0.210 HD
ENDBRANCH  48  60
ENDBRANCH  26  27
ENDBRANCH   6  26
BRANCH   5  62
ATOM     62  O   UNL     1      14.743  45.111  46.328  1.00  0.00    -0.385 OA
ATOM     63  H   UNL     1      14.809  44.180  45.986  1.00  0.00     0.211 HD
ENDBRANCH   5  62
TORSDOF 14
ENDMDL
MODEL 4
REMARK VINA RESULT:    -7.010      2.788     12.663
REMARK INTER + INTRA:         -11.462
REMARK INTER:                  -9.757
REMARK INTRA:                  -1.704
REMARK UNBOUND:                -0.968
REMARK SMILES C[C@@H]1O[C@@H](O[C@@H]2CC[C@]3(C)[C@H](CC[C@]4(C)[C@H]3C=C[C@]35OC[C@@]6(CCC(C)(C)C[C@H]63)[C@H](O)C[C@]54C)[C@@]2(C)CO)[C@H](O)[C@@H](O[C@@H]2O[C@@H](CO)[C@H](O)[C@@H](O)[C@H]2O)[C@@H]1O
REMARK SMILES IDX 1 1 2 2 54 3 41 4 39 5 4 6 3 7 55 8 42 10 43 11 52 12 44 13
REMARK SMILES IDX 50 14 45 15 48 16 53 17 51 19 46 21 47 22 49 24 5 26 6 27
REMARK SMILES IDX 7 28 35 29 8 30 11 31 36 32 9 33 12 34 10 35 16 36 13 37
REMARK SMILES IDX 14 38 17 39 15 40 33 41 18 42 19 43 32 44 34 45 29 46 20 47
REMARK SMILES IDX 30 48 22 49 28 50 21 51 23 52 25 53 24 54 26 55 27 56 37 57
REMARK SMILES IDX 38 58 31 60 40 62
REMARK H PARENT 55 9 53 18 51 20 47 23 49 25 38 59 31 61 40 63
REMARK Flexibility Score: inf
ROOT
ATOM      1  C   UNL     1      15.547  41.875  40.283  1.00  0.00     0.041 C 
ATOM      2  C   UNL     1      14.386  42.863  40.351  1.00  0.00     0.150 C 
ATOM      3  C   UNL     1      12.963  42.311  39.906  1.00  0.00     0.175 C 
ATOM      4  C   UNL     1      12.440  43.477  39.065  1.00  0.00     0.186 C 
ATOM      5  C   UNL     1      12.366  44.735  40.043  1.00  0.00     0.202 C 
ATOM      6  C   UNL     1      13.477  44.753  41.190  1.00  0.00     0.282 C 
ATOM      7  O   UNL     1      14.203  43.562  41.535  1.00  0.00    -0.344 OA
ENDROOT
BRANCH   3   8
ATOM      8  O   UNL     1      12.150  41.876  40.976  1.00  0.00    -0.388 OA
ATOM      9  H   UNL     1      11.589  42.676  41.223  1.00  0.00     0.211 HD
ENDBRANCH   3   8
BRANCH   4  10
ATOM     10  O   UNL     1      13.336  43.277  37.921  1.00  0.00    -0.341 OA
BRANCH  10  11
ATOM     11  C   UNL     1      13.638  44.395  37.062  1.00  0.00     0.282 C 
ATOM     12  C   UNL     1      15.244  44.533  37.015  1.00  0.00     0.202 C 
ATOM     13  O   UNL     1      12.912  44.094  35.837  1.00  0.00    -0.341 OA
ATOM     14  C   UNL     1      15.986  44.197  35.594  1.00  0.00     0.179 C 
ATOM     15  C   UNL     1      13.636  44.310  34.578  1.00  0.00     0.178 C 
ATOM     16  C   UNL     1      15.028  43.518  34.606  1.00  0.00     0.177 C 
BRANCH  12  17
ATOM     17  O   UNL     1      15.699  45.811  37.497  1.00  0.00    -0.385 OA
ATOM     18  H   UNL     1      15.354  46.053  38.446  1.00  0.00     0.211 HD
ENDBRANCH  12  17
BRANCH  14  19
ATOM     19  O   UNL     1      16.526  45.306  34.889  1.00  0.00    -0.387 OA
ATOM     20  H   UNL     1      15.902  46.081  34.952  1.00  0.00     0.211 HD
ENDBRANCH  14  19
BRANCH  15  21
ATOM     21  C   UNL     1      13.636  45.975  34.198  1.00  0.00     0.191 C 
BRANCH  21  22
ATOM     22  O   UNL     1      14.605  46.391  33.216  1.00  0.00    -0.394 OA
ATOM     23  H   UNL     1      14.728  45.549  32.667  1.00  0.00     0.210 HD
ENDBRANCH  21  22
ENDBRANCH  15  21
BRANCH  16  24
ATOM     24  O   UNL     1      14.845  42.138  34.932  1.00  0.00    -0.387 OA
ATOM     25  H   UNL     1      15.033  41.489  34.195  1.00  0.00     0.211 HD
ENDBRANCH  16  24
ENDBRANCH  10  11
ENDBRANCH   4  10
BRANCH   6  26
ATOM     26  O   UNL     1      14.395  45.736  40.812  1.00  0.00    -0.346 OA
BRANCH  26  27
ATOM     27  C   UNL     1      15.156  46.165  41.908  1.00  0.00     0.130 C 
ATOM     28  C   UNL     1      14.267  47.125  42.734  1.00  0.00     0.033 C 
ATOM     29  C   UNL     1      16.486  46.785  41.365  1.00  0.00     0.020 C 
ATOM     30  C   UNL     1      15.040  47.635  43.960  1.00  0.00     0.010 C 
ATOM     31  C   UNL     1      17.150  47.504  42.581  1.00  0.00     0.006 C 
ATOM     32  C   UNL     1      16.246  47.744  40.194  1.00  0.00     0.017 C 
ATOM     33  C   UNL     1      16.285  48.427  43.528  1.00  0.00    -0.022 C 
ATOM     34  C   UNL     1      18.540  48.098  42.456  1.00  0.00     0.005 C 
ATOM     35  C   UNL     1      15.780  49.696  42.799  1.00  0.00     0.012 C 
ATOM     36  C   UNL     1      17.166  48.885  44.783  1.00  0.00     0.024 C 
ATOM     37  C   UNL     1      19.225  47.782  43.809  1.00  0.00     0.008 C 
ATOM     38  C   UNL     1      18.320  47.857  45.164  1.00  0.00    -0.017 C 
ATOM     39  C   UNL     1      17.885  50.234  44.538  1.00  0.00    -0.024 C 
ATOM     40  C   UNL     1      17.787  46.451  45.610  1.00  0.00     0.013 C 
ATOM     41  C   UNL     1      19.199  48.405  46.432  1.00  0.00     0.009 C 
ATOM     42  C   UNL     1      18.880  50.664  45.334  1.00  0.00     0.005 C 
ATOM     43  C   UNL     1      18.971  49.957  46.648  1.00  0.00     0.096 C 
ATOM     44  C   UNL     1      18.873  47.755  47.836  1.00  0.00     0.043 C 
ATOM     45  C   UNL     1      20.693  47.969  46.160  1.00  0.00     0.015 C 
ATOM     46  C   UNL     1      19.917  50.632  47.619  1.00  0.00     0.037 C 
ATOM     47  O   UNL     1      17.681  50.193  47.281  1.00  0.00    -0.369 OA
ATOM     48  C   UNL     1      19.547  48.495  49.039  1.00  0.00     0.124 C 
ATOM     49  C   UNL     1      19.377  50.057  48.916  1.00  0.00     0.026 C 
ATOM     50  C   UNL     1      21.456  50.623  47.530  1.00  0.00     0.014 C 
ATOM     51  C   UNL     1      17.906  50.325  48.641  1.00  0.00     0.171 C 
ATOM     52  C   UNL     1      19.952  50.793  50.116  1.00  0.00     0.013 C 
ATOM     53  C   UNL     1      22.034  51.446  48.708  1.00  0.00    -0.035 C 
ATOM     54  C   UNL     1      21.488  50.905  50.063  1.00  0.00     0.007 C 
ATOM     55  C   UNL     1      23.554  51.290  48.695  1.00  0.00     0.011 C 
ATOM     56  C   UNL     1      21.699  52.956  48.573  1.00  0.00     0.011 C 
BRANCH  29  57
ATOM     57  C   UNL     1      17.336  45.512  40.868  1.00  0.00     0.165 C 
BRANCH  57  58
ATOM     58  O   UNL     1      18.330  45.022  41.769  1.00  0.00    -0.396 OA
ATOM     59  H   UNL     1      18.256  44.024  41.646  1.00  0.00     0.210 HD
ENDBRANCH  57  58
ENDBRANCH  29  57
BRANCH  48  60
ATOM     60  O   UNL     1      20.884  48.116  49.184  1.00  0.00    -0.392 OA
ATOM     61  H   UNL     1      21.433  48.650  48.552  1.00  0.00     0.210 HD
ENDBRANCH  48  60
ENDBRANCH  26  27
ENDBRANCH   6  26
BRANCH   5  62
ATOM     62  O   UNL     1      11.083  44.811  40.624  1.00  0.00    -0.385 OA
ATOM     63  H   UNL     1      10.462  45.250  39.984  1.00  0.00     0.211 HD
ENDBRANCH   5  62
TORSDOF 14
ENDMDL
MODEL 5
REMARK VINA RESULT:    -6.960      4.590     11.669
REMARK INTER + INTRA:         -11.386
REMARK INTER:                  -9.777
REMARK INTRA:                  -1.609
REMARK UNBOUND:                -0.968
REMARK SMILES C[C@@H]1O[C@@H](O[C@@H]2CC[C@]3(C)[C@H](CC[C@]4(C)[C@H]3C=C[C@]35OC[C@@]6(CCC(C)(C)C[C@H]63)[C@H](O)C[C@]54C)[C@@]2(C)CO)[C@H](O)[C@@H](O[C@@H]2O[C@@H](CO)[C@H](O)[C@@H](O)[C@H]2O)[C@@H]1O
REMARK SMILES IDX 1 1 2 2 54 3 41 4 39 5 4 6 3 7 55 8 42 10 43 11 52 12 44 13
REMARK SMILES IDX 50 14 45 15 48 16 53 17 51 19 46 21 47 22 49 24 5 26 6 27
REMARK SMILES IDX 7 28 35 29 8 30 11 31 36 32 9 33 12 34 10 35 16 36 13 37
REMARK SMILES IDX 14 38 17 39 15 40 33 41 18 42 19 43 32 44 34 45 29 46 20 47
REMARK SMILES IDX 30 48 22 49 28 50 21 51 23 52 25 53 24 54 26 55 27 56 37 57
REMARK SMILES IDX 38 58 31 60 40 62
REMARK H PARENT 55 9 53 18 51 20 47 23 49 25 38 59 31 61 40 63
REMARK Flexibility Score: inf
ROOT
ATOM      1  C   UNL     1      11.178  44.552  39.389  1.00  0.00     0.041 C 
ATOM      2  C   UNL     1      12.244  44.246  40.438  1.00  0.00     0.150 C 
ATOM      3  C   UNL     1      11.791  43.337  41.661  1.00  0.00     0.175 C 
ATOM      4  C   UNL     1      12.443  44.069  42.835  1.00  0.00     0.186 C 
ATOM      5  C   UNL     1      14.014  44.042  42.560  1.00  0.00     0.202 C 
ATOM      6  C   UNL     1      14.421  44.073  41.017  1.00  0.00     0.282 C 
ATOM      7  O   UNL     1      13.463  43.756  39.993  1.00  0.00    -0.344 OA
ENDROOT
BRANCH   3   8
ATOM      8  O   UNL     1      12.096  41.967  41.509  1.00  0.00    -0.388 OA
ATOM      9  H   UNL     1      11.205  41.504  41.446  1.00  0.00     0.211 HD
ENDBRANCH   3   8
BRANCH   4  10
ATOM     10  O   UNL     1      11.548  45.232  42.830  1.00  0.00    -0.341 OA
BRANCH  10  11
ATOM     11  C   UNL     1      11.763  46.287  43.789  1.00  0.00     0.282 C 
ATOM     12  C   UNL     1      10.316  46.907  44.139  1.00  0.00     0.202 C 
ATOM     13  O   UNL     1      12.536  45.645  44.840  1.00  0.00    -0.341 OA
ATOM     14  C   UNL     1       9.739  46.662  45.652  1.00  0.00     0.179 C 
ATOM     15  C   UNL     1      12.129  45.934  46.221  1.00  0.00     0.178 C 
ATOM     16  C   UNL     1      10.571  45.617  46.409  1.00  0.00     0.177 C 
BRANCH  12  17
ATOM     17  O   UNL     1      10.227  48.307  43.819  1.00  0.00    -0.385 OA
ATOM     18  H   UNL     1       9.924  48.500  42.845  1.00  0.00     0.211 HD
ENDBRANCH  12  17
BRANCH  14  19
ATOM     19  O   UNL     1       9.705  47.799  46.504  1.00  0.00    -0.387 OA
ATOM     20  H   UNL     1       9.734  47.507  47.457  1.00  0.00     0.211 HD
ENDBRANCH  14  19
BRANCH  15  21
ATOM     21  C   UNL     1      12.727  47.466  46.683  1.00  0.00     0.191 C 
BRANCH  21  22
ATOM     22  O   UNL     1      12.673  48.488  45.669  1.00  0.00    -0.394 OA
ATOM     23  H   UNL     1      11.829  48.246  45.165  1.00  0.00     0.210 HD
ENDBRANCH  21  22
ENDBRANCH  15  21
BRANCH  16  24
ATOM     24  O   UNL     1      10.246  44.292  45.980  1.00  0.00    -0.387 OA
ATOM     25  H   UNL     1       9.832  44.219  45.072  1.00  0.00     0.211 HD
ENDBRANCH  16  24
ENDBRANCH  10  11
ENDBRANCH   4  10
BRANCH   6  26
ATOM     26  O   UNL     1      14.911  45.359  40.780  1.00  0.00    -0.346 OA
BRANCH  26  27
ATOM     27  C   UNL     1      15.599  45.853  41.896  1.00  0.00     0.130 C 
ATOM     28  C   UNL     1      14.703  46.934  42.544  1.00  0.00     0.033 C 
ATOM     29  C   UNL     1      17.007  46.346  41.423  1.00  0.00     0.020 C 
ATOM     30  C   UNL     1      15.396  47.521  43.784  1.00  0.00     0.010 C 
ATOM     31  C   UNL     1      17.606  47.144  42.623  1.00  0.00     0.006 C 
ATOM     32  C   UNL     1      16.928  47.197  40.151  1.00  0.00     0.017 C 
ATOM     33  C   UNL     1      16.721  48.200  43.396  1.00  0.00    -0.022 C 
ATOM     34  C   UNL     1      19.035  47.648  42.571  1.00  0.00     0.005 C 
ATOM     35  C   UNL     1      16.359  49.416  42.510  1.00  0.00     0.012 C 
ATOM     36  C   UNL     1      17.516  48.731  44.680  1.00  0.00     0.024 C 
ATOM     37  C   UNL     1      19.580  47.431  44.006  1.00  0.00     0.008 C 
ATOM     38  C   UNL     1      18.567  47.686  45.259  1.00  0.00    -0.017 C 
ATOM     39  C   UNL     1      18.334  50.009  44.378  1.00  0.00    -0.024 C 
ATOM     40  C   UNL     1      17.913  46.360  45.783  1.00  0.00     0.013 C 
ATOM     41  C   UNL     1      19.365  48.307  46.546  1.00  0.00     0.009 C 
ATOM     42  C   UNL     1      19.282  50.462  45.219  1.00  0.00     0.005 C 
ATOM     43  C   UNL     1      19.215  49.884  46.595  1.00  0.00     0.096 C 
ATOM     44  C   UNL     1      18.879  47.817  47.968  1.00  0.00     0.043 C 
ATOM     45  C   UNL     1      20.848  47.769  46.454  1.00  0.00     0.015 C 
ATOM     46  C   UNL     1      20.113  50.599  47.582  1.00  0.00     0.037 C 
ATOM     47  O   UNL     1      17.892  50.248  47.083  1.00  0.00    -0.369 OA
ATOM     48  C   UNL     1      19.492  48.633  49.154  1.00  0.00     0.124 C 
ATOM     49  C   UNL     1      19.429  50.183  48.872  1.00  0.00     0.026 C 
ATOM     50  C   UNL     1      21.650  50.500  47.637  1.00  0.00     0.014 C 
ATOM     51  C   UNL     1      18.006  50.500  48.439  1.00  0.00     0.171 C 
ATOM     52  C   UNL     1      19.942  51.001  50.047  1.00  0.00     0.013 C 
ATOM     53  C   UNL     1      22.174  51.402  48.781  1.00  0.00    -0.035 C 
ATOM     54  C   UNL     1      21.481  51.027  50.125  1.00  0.00     0.007 C 
ATOM     55  C   UNL     1      23.676  51.167  48.923  1.00  0.00     0.011 C 
ATOM     56  C   UNL     1      21.945  52.908  48.477  1.00  0.00     0.011 C 
BRANCH  29  57
ATOM     57  C   UNL     1      17.817  44.987  41.127  1.00  0.00     0.165 C 
BRANCH  57  58
ATOM     58  O   UNL     1      17.660  44.426  39.823  1.00  0.00    -0.396 OA
ATOM     59  H   UNL     1      18.374  43.715  39.809  1.00  0.00     0.210 HD
ENDBRANCH  57  58
ENDBRANCH  29  57
BRANCH  48  60
ATOM     60  O   UNL     1      20.785  48.200  49.456  1.00  0.00    -0.392 OA
ATOM     61  H   UNL     1      21.185  47.807  48.637  1.00  0.00     0.210 HD
ENDBRANCH  48  60
ENDBRANCH  26  27
ENDBRANCH   6  26
BRANCH   5  62
ATOM     62  O   UNL     1      14.586  42.911  43.179  1.00  0.00    -0.385 OA
ATOM     63  H   UNL     1      15.202  42.467  42.538  1.00  0.00     0.211 HD
ENDBRANCH   5  62
TORSDOF 14
ENDMDL
MODEL 6
REMARK VINA RESULT:    -6.827      2.553     12.593
REMARK INTER + INTRA:         -11.186
REMARK INTER:                  -9.790
REMARK INTRA:                  -1.397
REMARK UNBOUND:                -0.968
REMARK SMILES C[C@@H]1O[C@@H](O[C@@H]2CC[C@]3(C)[C@H](CC[C@]4(C)[C@H]3C=C[C@]35OC[C@@]6(CCC(C)(C)C[C@H]63)[C@H](O)C[C@]54C)[C@@]2(C)CO)[C@H](O)[C@@H](O[C@@H]2O[C@@H](CO)[C@H](O)[C@@H](O)[C@H]2O)[C@@H]1O
REMARK SMILES IDX 1 1 2 2 54 3 41 4 39 5 4 6 3 7 55 8 42 10 43 11 52 12 44 13
REMARK SMILES IDX 50 14 45 15 48 16 53 17 51 19 46 21 47 22 49 24 5 26 6 27
REMARK SMILES IDX 7 28 35 29 8 30 11 31 36 32 9 33 12 34 10 35 16 36 13 37
REMARK SMILES IDX 14 38 17 39 15 40 33 41 18 42 19 43 32 44 34 45 29 46 20 47
REMARK SMILES IDX 30 48 22 49 28 50 21 51 23 52 25 53 24 54 26 55 27 56 37 57
REMARK SMILES IDX 38 58 31 60 40 62
REMARK H PARENT 55 9 53 18 51 20 47 23 49 25 38 59 31 61 40 63
REMARK Flexibility Score: inf
ROOT
ATOM      1  C   UNL     1      15.265  42.261  36.314  1.00  0.00     0.041 C 
ATOM      2  C   UNL     1      14.541  43.025  37.420  1.00  0.00     0.150 C 
ATOM      3  C   UNL     1      12.958  42.880  37.457  1.00  0.00     0.175 C 
ATOM      4  C   UNL     1      12.531  44.325  37.719  1.00  0.00     0.186 C 
ATOM      5  C   UNL     1      13.175  44.734  39.120  1.00  0.00     0.202 C 
ATOM      6  C   UNL     1      14.573  44.034  39.440  1.00  0.00     0.282 C 
ATOM      7  O   UNL     1      14.998  42.866  38.719  1.00  0.00    -0.344 OA
ENDROOT
BRANCH   3   8
ATOM      8  O   UNL     1      12.488  41.899  38.358  1.00  0.00    -0.388 OA
ATOM      9  H   UNL     1      13.132  41.923  39.133  1.00  0.00     0.211 HD
ENDBRANCH   3   8
BRANCH   4  10
ATOM     10  O   UNL     1      12.866  44.846  36.389  1.00  0.00    -0.341 OA
BRANCH  10  11
ATOM     11  C   UNL     1      12.244  46.064  35.934  1.00  0.00     0.282 C 
ATOM     12  C   UNL     1      12.806  46.355  34.451  1.00  0.00     0.202 C 
ATOM     13  O   UNL     1      10.823  45.816  36.122  1.00  0.00    -0.341 OA
ATOM     14  C   UNL     1      11.748  46.227  33.207  1.00  0.00     0.179 C 
ATOM     15  C   UNL     1       9.938  46.219  35.021  1.00  0.00     0.178 C 
ATOM     16  C   UNL     1      10.438  45.561  33.649  1.00  0.00     0.177 C 
BRANCH  12  17
ATOM     17  O   UNL     1      13.492  47.617  34.362  1.00  0.00    -0.385 OA
ATOM     18  H   UNL     1      14.526  47.535  34.316  1.00  0.00     0.211 HD
ENDBRANCH  12  17
BRANCH  14  19
ATOM     19  O   UNL     1      11.356  47.445  32.588  1.00  0.00    -0.387 OA
ATOM     20  H   UNL     1      11.735  47.491  31.667  1.00  0.00     0.211 HD
ENDBRANCH  14  19
BRANCH  15  21
ATOM     21  C   UNL     1       9.677  47.905  35.087  1.00  0.00     0.191 C 
BRANCH  21  22
ATOM     22  O   UNL     1      10.844  48.706  35.357  1.00  0.00    -0.394 OA
ATOM     23  H   UNL     1      11.077  49.062  34.438  1.00  0.00     0.210 HD
ENDBRANCH  21  22
ENDBRANCH  15  21
BRANCH  16  24
ATOM     24  O   UNL     1      10.597  44.145  33.769  1.00  0.00    -0.387 OA
ATOM     25  H   UNL     1      11.527  43.827  33.956  1.00  0.00     0.211 HD
ENDBRANCH  16  24
ENDBRANCH  10  11
ENDBRANCH   4  10
BRANCH   6  26
ATOM     26  O   UNL     1      15.540  45.029  39.277  1.00  0.00    -0.346 OA
BRANCH  26  27
ATOM     27  C   UNL     1      15.990  45.507  40.515  1.00  0.00     0.130 C 
ATOM     28  C   UNL     1      15.032  46.644  40.942  1.00  0.00     0.033 C 
ATOM     29  C   UNL     1      17.492  45.918  40.364  1.00  0.00     0.020 C 
ATOM     30  C   UNL     1      15.463  47.216  42.301  1.00  0.00     0.010 C 
ATOM     31  C   UNL     1      17.852  46.706  41.663  1.00  0.00     0.006 C 
ATOM     32  C   UNL     1      17.743  46.749  39.102  1.00  0.00     0.017 C 
ATOM     33  C   UNL     1      16.876  47.819  42.214  1.00  0.00    -0.022 C 
ATOM     34  C   UNL     1      19.282  47.135  41.927  1.00  0.00     0.005 C 
ATOM     35  C   UNL     1      16.786  49.036  41.262  1.00  0.00     0.012 C 
ATOM     36  C   UNL     1      17.394  48.331  43.639  1.00  0.00     0.024 C 
ATOM     37  C   UNL     1      19.483  46.915  43.449  1.00  0.00     0.008 C 
ATOM     38  C   UNL     1      18.232  47.245  44.443  1.00  0.00    -0.017 C 
ATOM     39  C   UNL     1      18.327  49.561  43.519  1.00  0.00    -0.024 C 
ATOM     40  C   UNL     1      17.408  45.963  44.816  1.00  0.00     0.013 C 
ATOM     41  C   UNL     1      18.757  47.847  45.872  1.00  0.00     0.009 C 
ATOM     42  C   UNL     1      19.087  49.979  44.547  1.00  0.00     0.005 C 
ATOM     43  C   UNL     1      18.686  49.429  45.877  1.00  0.00     0.096 C 
ATOM     44  C   UNL     1      17.943  47.407  47.154  1.00  0.00     0.043 C 
ATOM     45  C   UNL     1      20.193  47.232  46.115  1.00  0.00     0.015 C 
ATOM     46  C   UNL     1      19.380  50.115  47.035  1.00  0.00     0.037 C 
ATOM     47  O   UNL     1      17.309  49.869  46.056  1.00  0.00    -0.369 OA
ATOM     48  C   UNL     1      18.320  48.212  48.441  1.00  0.00     0.124 C 
ATOM     49  C   UNL     1      18.405  49.758  48.143  1.00  0.00     0.026 C 
ATOM     50  C   UNL     1      20.859  49.938  47.431  1.00  0.00     0.014 C 
ATOM     51  C   UNL     1      17.133  50.140  47.403  1.00  0.00     0.171 C 
ATOM     52  C   UNL     1      18.688  50.569  49.397  1.00  0.00     0.013 C 
ATOM     53  C   UNL     1      21.164  50.833  48.657  1.00  0.00    -0.035 C 
ATOM     54  C   UNL     1      20.170  50.518  49.816  1.00  0.00     0.007 C 
ATOM     55  C   UNL     1      22.582  50.523  49.131  1.00  0.00     0.011 C 
ATOM     56  C   UNL     1      21.089  52.343  48.301  1.00  0.00     0.011 C 
BRANCH  29  57
ATOM     57  C   UNL     1      18.273  44.514  40.264  1.00  0.00     0.165 C 
BRANCH  57  58
ATOM     58  O   UNL     1      18.358  43.748  41.465  1.00  0.00    -0.396 OA
ATOM     59  H   UNL     1      17.930  44.361  42.141  1.00  0.00     0.210 HD
ENDBRANCH  57  58
ENDBRANCH  29  57
BRANCH  48  60
ATOM     60  O   UNL     1      19.489  47.719  49.026  1.00  0.00    -0.392 OA
ATOM     61  H   UNL     1      19.328  46.781  49.310  1.00  0.00     0.210 HD
ENDBRANCH  48  60
ENDBRANCH  26  27
ENDBRANCH   6  26
BRANCH   5  62
ATOM     62  O   UNL     1      12.260  44.463  40.160  1.00  0.00    -0.385 OA
ATOM     63  H   UNL     1      11.500  45.100  40.097  1.00  0.00     0.211 HD
ENDBRANCH   5  62
TORSDOF 14
ENDMDL
MODEL 7
REMARK VINA RESULT:    -6.597      2.807     11.836
REMARK INTER + INTRA:         -10.842
REMARK INTER:                  -9.562
REMARK INTRA:                  -1.281
REMARK UNBOUND:                -0.968
REMARK SMILES C[C@@H]1O[C@@H](O[C@@H]2CC[C@]3(C)[C@H](CC[C@]4(C)[C@H]3C=C[C@]35OC[C@@]6(CCC(C)(C)C[C@H]63)[C@H](O)C[C@]54C)[C@@]2(C)CO)[C@H](O)[C@@H](O[C@@H]2O[C@@H](CO)[C@H](O)[C@@H](O)[C@H]2O)[C@@H]1O
REMARK SMILES IDX 1 1 2 2 54 3 41 4 39 5 4 6 3 7 55 8 42 10 43 11 52 12 44 13
REMARK SMILES IDX 50 14 45 15 48 16 53 17 51 19 46 21 47 22 49 24 5 26 6 27
REMARK SMILES IDX 7 28 35 29 8 30 11 31 36 32 9 33 12 34 10 35 16 36 13 37
REMARK SMILES IDX 14 38 17 39 15 40 33 41 18 42 19 43 32 44 34 45 29 46 20 47
REMARK SMILES IDX 30 48 22 49 28 50 21 51 23 52 25 53 24 54 26 55 27 56 37 57
REMARK SMILES IDX 38 58 31 60 40 62
REMARK H PARENT 55 9 53 18 51 20 47 23 49 25 38 59 31 61 40 63
REMARK Flexibility Score: inf
ROOT
ATOM      1  C   UNL     1      11.425  42.456  33.248  1.00  0.00     0.041 C 
ATOM      2  C   UNL     1      11.271  43.016  34.659  1.00  0.00     0.150 C 
ATOM      3  C   UNL     1       9.980  43.905  34.929  1.00  0.00     0.175 C 
ATOM      4  C   UNL     1      10.574  45.056  35.743  1.00  0.00     0.186 C 
ATOM      5  C   UNL     1      11.191  44.399  37.060  1.00  0.00     0.202 C 
ATOM      6  C   UNL     1      11.758  42.920  36.863  1.00  0.00     0.282 C 
ATOM      7  O   UNL     1      11.387  42.131  35.720  1.00  0.00    -0.344 OA
ENDROOT
BRANCH   3   8
ATOM      8  O   UNL     1       8.902  43.200  35.507  1.00  0.00    -0.388 OA
ATOM      9  H   UNL     1       8.602  42.550  34.798  1.00  0.00     0.211 HD
ENDBRANCH   3   8
BRANCH   4  10
ATOM     10  O   UNL     1      11.293  45.696  34.636  1.00  0.00    -0.341 OA
BRANCH  10  11
ATOM     11  C   UNL     1      11.379  47.134  34.592  1.00  0.00     0.282 C 
ATOM     12  C   UNL     1      12.470  47.507  33.466  1.00  0.00     0.202 C 
ATOM     13  O   UNL     1       9.997  47.556  34.414  1.00  0.00    -0.341 OA
ATOM     14  C   UNL     1      11.926  48.241  32.106  1.00  0.00     0.179 C 
ATOM     15  C   UNL     1       9.759  48.612  33.422  1.00  0.00     0.178 C 
ATOM     16  C   UNL     1      10.395  48.191  32.013  1.00  0.00     0.177 C 
BRANCH  12  17
ATOM     17  O   UNL     1      13.575  48.258  34.000  1.00  0.00    -0.385 OA
ATOM     18  H   UNL     1      13.524  48.415  35.025  1.00  0.00     0.211 HD
ENDBRANCH  12  17
BRANCH  14  19
ATOM     19  O   UNL     1      12.264  49.613  31.953  1.00  0.00    -0.387 OA
ATOM     20  H   UNL     1      11.581  50.180  32.406  1.00  0.00     0.211 HD
ENDBRANCH  14  19
BRANCH  15  21
ATOM     21  C   UNL     1      10.161  50.129  34.095  1.00  0.00     0.191 C 
BRANCH  21  22
ATOM     22  O   UNL     1      10.480  50.122  35.500  1.00  0.00    -0.394 OA
ATOM     23  H   UNL     1       9.567  50.216  35.928  1.00  0.00     0.210 HD
ENDBRANCH  21  22
ENDBRANCH  15  21
BRANCH  16  24
ATOM     24  O   UNL     1       9.947  46.899  31.595  1.00  0.00    -0.387 OA
ATOM     25  H   UNL     1      10.595  46.372  31.045  1.00  0.00     0.211 HD
ENDBRANCH  16  24
ENDBRANCH  10  11
ENDBRANCH   4  10
BRANCH   6  26
ATOM     26  O   UNL     1      13.150  43.043  36.880  1.00  0.00    -0.346 OA
BRANCH  26  27
ATOM     27  C   UNL     1      13.575  43.838  37.953  1.00  0.00     0.130 C 
ATOM     28  C   UNL     1      14.296  45.067  37.354  1.00  0.00     0.033 C 
ATOM     29  C   UNL     1      14.444  42.950  38.905  1.00  0.00     0.020 C 
ATOM     30  C   UNL     1      14.788  45.991  38.479  1.00  0.00     0.010 C 
ATOM     31  C   UNL     1      15.125  43.936  39.905  1.00  0.00     0.006 C 
ATOM     32  C   UNL     1      15.471  42.109  38.139  1.00  0.00     0.017 C 
ATOM     33  C   UNL     1      15.802  45.262  39.377  1.00  0.00    -0.022 C 
ATOM     34  C   UNL     1      15.934  43.406  41.073  1.00  0.00     0.005 C 
ATOM     35  C   UNL     1      17.047  44.972  38.505  1.00  0.00     0.012 C 
ATOM     36  C   UNL     1      16.256  46.165  40.618  1.00  0.00     0.024 C 
ATOM     37  C   UNL     1      15.588  44.351  42.252  1.00  0.00     0.008 C 
ATOM     38  C   UNL     1      15.383  45.937  41.928  1.00  0.00    -0.017 C 
ATOM     39  C   UNL     1      17.717  45.886  41.046  1.00  0.00    -0.024 C 
ATOM     40  C   UNL     1      13.873  46.324  41.754  1.00  0.00     0.013 C 
ATOM     41  C   UNL     1      15.923  46.866  43.163  1.00  0.00     0.009 C 
ATOM     42  C   UNL     1      18.209  46.320  42.220  1.00  0.00     0.005 C 
ATOM     43  C   UNL     1      17.392  47.385  42.877  1.00  0.00     0.096 C 
ATOM     44  C   UNL     1      15.090  48.174  43.466  1.00  0.00     0.043 C 
ATOM     45  C   UNL     1      15.752  46.005  44.477  1.00  0.00     0.015 C 
ATOM     46  C   UNL     1      18.099  48.037  44.047  1.00  0.00     0.037 C 
ATOM     47  O   UNL     1      17.361  48.473  41.909  1.00  0.00    -0.369 OA
ATOM     48  C   UNL     1      15.794  49.147  44.469  1.00  0.00     0.124 C 
ATOM     49  C   UNL     1      17.317  49.336  44.105  1.00  0.00     0.026 C 
ATOM     50  C   UNL     1      18.334  47.394  45.428  1.00  0.00     0.014 C 
ATOM     51  C   UNL     1      17.384  49.661  42.621  1.00  0.00     0.171 C 
ATOM     52  C   UNL     1      18.003  50.343  45.015  1.00  0.00     0.013 C 
ATOM     53  C   UNL     1      19.109  48.391  46.324  1.00  0.00    -0.035 C 
ATOM     54  C   UNL     1      18.354  49.752  46.395  1.00  0.00     0.007 C 
ATOM     55  C   UNL     1      19.190  47.802  47.731  1.00  0.00     0.011 C 
ATOM     56  C   UNL     1      20.556  48.621  45.810  1.00  0.00     0.011 C 
BRANCH  29  57
ATOM     57  C   UNL     1      13.374  41.989  39.627  1.00  0.00     0.165 C 
BRANCH  57  58
ATOM     58  O   UNL     1      12.534  42.598  40.608  1.00  0.00    -0.396 OA
ATOM     59  H   UNL     1      12.239  43.441  40.143  1.00  0.00     0.210 HD
ENDBRANCH  57  58
ENDBRANCH  29  57
BRANCH  48  60
ATOM     60  O   UNL     1      15.611  48.735  45.791  1.00  0.00    -0.392 OA
ATOM     61  H   UNL     1      14.912  49.306  46.205  1.00  0.00     0.210 HD
ENDBRANCH  48  60
ENDBRANCH  26  27
ENDBRANCH   6  26
BRANCH   5  62
ATOM     62  O   UNL     1      10.227  44.403  38.090  1.00  0.00    -0.385 OA
ATOM     63  H   UNL     1       9.778  43.517  38.118  1.00  0.00     0.211 HD
ENDBRANCH   5  62
TORSDOF 14
ENDMDL
MODEL 8
REMARK VINA RESULT:    -6.481      2.004      3.549
REMARK INTER + INTRA:         -10.669
REMARK INTER:                  -9.580
REMARK INTRA:                  -1.088
REMARK UNBOUND:                -0.968
REMARK SMILES C[C@@H]1O[C@@H](O[C@@H]2CC[C@]3(C)[C@H](CC[C@]4(C)[C@H]3C=C[C@]35OC[C@@]6(CCC(C)(C)C[C@H]63)[C@H](O)C[C@]54C)[C@@]2(C)CO)[C@H](O)[C@@H](O[C@@H]2O[C@@H](CO)[C@H](O)[C@@H](O)[C@H]2O)[C@@H]1O
REMARK SMILES IDX 1 1 2 2 54 3 41 4 39 5 4 6 3 7 55 8 42 10 43 11 52 12 44 13
REMARK SMILES IDX 50 14 45 15 48 16 53 17 51 19 46 21 47 22 49 24 5 26 6 27
REMARK SMILES IDX 7 28 35 29 8 30 11 31 36 32 9 33 12 34 10 35 16 36 13 37
REMARK SMILES IDX 14 38 17 39 15 40 33 41 18 42 19 43 32 44 34 45 29 46 20 47
REMARK SMILES IDX 30 48 22 49 28 50 21 51 23 52 25 53 24 54 26 55 27 56 37 57
REMARK SMILES IDX 38 58 31 60 40 62
REMARK H PARENT 55 9 53 18 51 20 47 23 49 25 38 59 31 61 40 63
REMARK Flexibility Score: inf
ROOT
ATOM      1  C   UNL     1      15.555  48.180  41.996  1.00  0.00     0.041 C 
ATOM      2  C   UNL     1      15.165  47.255  43.147  1.00  0.00     0.150 C 
ATOM      3  C   UNL     1      15.253  47.873  44.610  1.00  0.00     0.175 C 
ATOM      4  C   UNL     1      15.897  46.722  45.383  1.00  0.00     0.186 C 
ATOM      5  C   UNL     1      14.894  45.487  45.263  1.00  0.00     0.202 C 
ATOM      6  C   UNL     1      14.065  45.432  43.900  1.00  0.00     0.282 C 
ATOM      7  O   UNL     1      13.952  46.590  43.056  1.00  0.00    -0.344 OA
ENDROOT
BRANCH   3   8
ATOM      8  O   UNL     1      14.026  48.370  45.102  1.00  0.00    -0.388 OA
ATOM      9  H   UNL     1      14.241  49.282  45.473  1.00  0.00     0.211 HD
ENDBRANCH   3   8
BRANCH   4  10
ATOM     10  O   UNL     1      17.237  46.852  44.798  1.00  0.00    -0.341 OA
BRANCH  10  11
ATOM     11  C   UNL     1      18.347  47.190  45.653  1.00  0.00     0.282 C 
ATOM     12  C   UNL     1      19.566  47.628  44.693  1.00  0.00     0.202 C 
ATOM     13  O   UNL     1      17.784  48.162  46.579  1.00  0.00    -0.341 OA
ATOM     14  C   UNL     1      20.023  49.200  44.727  1.00  0.00     0.179 C 
ATOM     15  C   UNL     1      18.600  49.352  46.853  1.00  0.00     0.178 C 
ATOM     16  C   UNL     1      19.002  50.067  45.477  1.00  0.00     0.177 C 
BRANCH  12  17
ATOM     17  O   UNL     1      20.726  46.793  44.864  1.00  0.00    -0.385 OA
ATOM     18  H   UNL     1      20.525  45.775  44.818  1.00  0.00     0.211 HD
ENDBRANCH  12  17
BRANCH  14  19
ATOM     19  O   UNL     1      21.272  49.479  45.344  1.00  0.00    -0.387 OA
ATOM     20  H   UNL     1      21.121  49.869  46.249  1.00  0.00     0.211 HD
ENDBRANCH  14  19
BRANCH  15  21
ATOM     21  C   UNL     1      19.826  48.958  47.973  1.00  0.00     0.191 C 
BRANCH  21  22
ATOM     22  O   UNL     1      19.571  47.803  48.797  1.00  0.00    -0.394 OA
ATOM     23  H   UNL     1      18.605  47.942  49.067  1.00  0.00     0.210 HD
ENDBRANCH  21  22
ENDBRANCH  15  21
BRANCH  16  24
ATOM     24  O   UNL     1      17.856  50.331  44.664  1.00  0.00    -0.387 OA
ATOM     25  H   UNL     1      17.646  49.639  43.972  1.00  0.00     0.211 HD
ENDBRANCH  16  24
ENDBRANCH  10  11
ENDBRANCH   4  10
BRANCH   6  26
ATOM     26  O   UNL     1      14.631  44.395  43.155  1.00  0.00    -0.346 OA
BRANCH  26  27
ATOM     27  C   UNL     1      14.374  44.557  41.786  1.00  0.00     0.130 C 
ATOM     28  C   UNL     1      12.887  44.201  41.555  1.00  0.00     0.033 C 
ATOM     29  C   UNL     1      15.402  43.686  40.991  1.00  0.00     0.020 C 
ATOM     30  C   UNL     1      12.531  44.360  40.069  1.00  0.00     0.010 C 
ATOM     31  C   UNL     1      14.894  43.666  39.515  1.00  0.00     0.006 C 
ATOM     32  C   UNL     1      15.538  42.273  41.569  1.00  0.00     0.017 C 
ATOM     33  C   UNL     1      13.368  43.403  39.204  1.00  0.00    -0.022 C 
ATOM     34  C   UNL     1      15.733  43.029  38.424  1.00  0.00     0.005 C 
ATOM     35  C   UNL     1      12.937  41.964  39.581  1.00  0.00     0.012 C 
ATOM     36  C   UNL     1      13.093  43.617  37.642  1.00  0.00     0.024 C 
ATOM     37  C   UNL     1      15.561  43.965  37.200  1.00  0.00     0.008 C 
ATOM     38  C   UNL     1      14.097  44.640  36.950  1.00  0.00    -0.017 C 
ATOM     39  C   UNL     1      13.228  42.303  36.834  1.00  0.00    -0.024 C 
ATOM     40  C   UNL     1      14.001  46.098  37.520  1.00  0.00     0.013 C 
ATOM     41  C   UNL     1      13.779  44.784  35.350  1.00  0.00     0.009 C 
ATOM     42  C   UNL     1      13.313  42.299  35.492  1.00  0.00     0.005 C 
ATOM     43  C   UNL     1      12.890  43.576  34.841  1.00  0.00     0.096 C 
ATOM     44  C   UNL     1      12.982  46.077  34.913  1.00  0.00     0.043 C 
ATOM     45  C   UNL     1      15.176  44.948  34.631  1.00  0.00     0.015 C 
ATOM     46  C   UNL     1      12.743  43.455  33.339  1.00  0.00     0.037 C 
ATOM     47  O   UNL     1      11.506  43.759  35.259  1.00  0.00    -0.369 OA
ATOM     48  C   UNL     1      12.481  46.033  33.432  1.00  0.00     0.124 C 
ATOM     49  C   UNL     1      11.826  44.639  33.093  1.00  0.00     0.026 C 
ATOM     50  C   UNL     1      13.900  43.347  32.327  1.00  0.00     0.014 C 
ATOM     51  C   UNL     1      10.827  44.336  34.198  1.00  0.00     0.171 C 
ATOM     52  C   UNL     1      11.256  44.601  31.683  1.00  0.00     0.013 C 
ATOM     53  C   UNL     1      13.313  43.222  30.900  1.00  0.00    -0.035 C 
ATOM     54  C   UNL     1      12.344  44.407  30.609  1.00  0.00     0.007 C 
ATOM     55  C   UNL     1      14.469  43.279  29.903  1.00  0.00     0.011 C 
ATOM     56  C   UNL     1      12.566  41.875  30.701  1.00  0.00     0.011 C 
BRANCH  29  57
ATOM     57  C   UNL     1      16.793  44.481  41.148  1.00  0.00     0.165 C 
BRANCH  57  58
ATOM     58  O   UNL     1      17.926  43.706  41.539  1.00  0.00    -0.396 OA
ATOM     59  H   UNL     1      17.908  42.951  40.873  1.00  0.00     0.210 HD
ENDBRANCH  57  58
ENDBRANCH  29  57
BRANCH  48  60
ATOM     60  O   UNL     1      13.502  46.371  32.539  1.00  0.00    -0.392 OA
ATOM     61  H   UNL     1      14.324  46.565  33.060  1.00  0.00     0.210 HD
ENDBRANCH  48  60
ENDBRANCH  26  27
ENDBRANCH   6  26
BRANCH   5  62
ATOM     62  O   UNL     1      14.005  45.490  46.359  1.00  0.00    -0.385 OA
ATOM     63  H   UNL     1      13.072  45.448  46.020  1.00  0.00     0.211 HD
ENDBRANCH   5  62
TORSDOF 14
ENDMDL
MODEL 9
REMARK VINA RESULT:    -6.451      2.394     12.669
REMARK INTER + INTRA:         -10.625
REMARK INTER:                  -9.142
REMARK INTRA:                  -1.483
REMARK UNBOUND:                -0.968
REMARK SMILES C[C@@H]1O[C@@H](O[C@@H]2CC[C@]3(C)[C@H](CC[C@]4(C)[C@H]3C=C[C@]35OC[C@@]6(CCC(C)(C)C[C@H]63)[C@H](O)C[C@]54C)[C@@]2(C)CO)[C@H](O)[C@@H](O[C@@H]2O[C@@H](CO)[C@H](O)[C@@H](O)[C@H]2O)[C@@H]1O
REMARK SMILES IDX 1 1 2 2 54 3 41 4 39 5 4 6 3 7 55 8 42 10 43 11 52 12 44 13
REMARK SMILES IDX 50 14 45 15 48 16 53 17 51 19 46 21 47 22 49 24 5 26 6 27
REMARK SMILES IDX 7 28 35 29 8 30 11 31 36 32 9 33 12 34 10 35 16 36 13 37
REMARK SMILES IDX 14 38 17 39 15 40 33 41 18 42 19 43 32 44 34 45 29 46 20 47
REMARK SMILES IDX 30 48 22 49 28 50 21 51 23 52 25 53 24 54 26 55 27 56 37 57
REMARK SMILES IDX 38 58 31 60 40 62
REMARK H PARENT 55 9 53 18 51 20 47 23 49 25 38 59 31 61 40 63
REMARK Flexibility Score: inf
ROOT
ATOM      1  C   UNL     1      12.146  46.370  36.294  1.00  0.00     0.041 C 
ATOM      2  C   UNL     1      13.351  45.566  35.813  1.00  0.00     0.150 C 
ATOM      3  C   UNL     1      13.384  45.201  34.265  1.00  0.00     0.175 C 
ATOM      4  C   UNL     1      13.841  43.742  34.311  1.00  0.00     0.186 C 
ATOM      5  C   UNL     1      15.279  43.747  35.003  1.00  0.00     0.202 C 
ATOM      6  C   UNL     1      15.488  44.893  36.095  1.00  0.00     0.282 C 
ATOM      7  O   UNL     1      14.612  46.031  36.151  1.00  0.00    -0.344 OA
ENDROOT
BRANCH   3   8
ATOM      8  O   UNL     1      14.148  46.089  33.478  1.00  0.00    -0.388 OA
ATOM      9  H   UNL     1      13.594  46.927  33.411  1.00  0.00     0.211 HD
ENDBRANCH   3   8
BRANCH   4  10
ATOM     10  O   UNL     1      12.590  43.187  34.840  1.00  0.00    -0.341 OA
BRANCH  10  11
ATOM     11  C   UNL     1      11.680  42.524  33.940  1.00  0.00     0.282 C 
ATOM     12  C   UNL     1      10.191  42.985  34.351  1.00  0.00     0.202 C 
ATOM     13  O   UNL     1      12.193  42.863  32.621  1.00  0.00    -0.341 OA
ATOM     14  C   UNL     1       9.377  43.932  33.290  1.00  0.00     0.179 C 
ATOM     15  C   UNL     1      11.200  43.264  31.617  1.00  0.00     0.178 C 
ATOM     16  C   UNL     1      10.302  44.462  32.185  1.00  0.00     0.177 C 
BRANCH  12  17
ATOM     17  O   UNL     1       9.358  41.875  34.731  1.00  0.00    -0.385 OA
ATOM     18  H   UNL     1       8.403  41.904  34.325  1.00  0.00     0.211 HD
ENDBRANCH  12  17
BRANCH  14  19
ATOM     19  O   UNL     1       8.292  43.320  32.606  1.00  0.00    -0.387 OA
ATOM     20  H   UNL     1       7.781  42.740  33.236  1.00  0.00     0.211 HD
ENDBRANCH  14  19
BRANCH  15  21
ATOM     21  C   UNL     1      10.431  41.875  30.988  1.00  0.00     0.191 C 
BRANCH  21  22
ATOM     22  O   UNL     1       9.368  42.123  30.047  1.00  0.00    -0.394 OA
ATOM     23  H   UNL     1       8.669  41.448  30.330  1.00  0.00     0.210 HD
ENDBRANCH  21  22
ENDBRANCH  15  21
BRANCH  16  24
ATOM     24  O   UNL     1      11.105  45.544  32.663  1.00  0.00    -0.387 OA
ATOM     25  H   UNL     1      11.272  45.558  33.649  1.00  0.00     0.211 HD
ENDBRANCH  16  24
ENDBRANCH  10  11
ENDBRANCH   4  10
BRANCH   6  26
ATOM     26  O   UNL     1      15.452  44.247  37.333  1.00  0.00    -0.346 OA
BRANCH  26  27
ATOM     27  C   UNL     1      15.830  45.113  38.368  1.00  0.00     0.130 C 
ATOM     28  C   UNL     1      17.356  45.334  38.244  1.00  0.00     0.033 C 
ATOM     29  C   UNL     1      15.351  44.494  39.723  1.00  0.00     0.020 C 
ATOM     30  C   UNL     1      17.843  46.283  39.351  1.00  0.00     0.010 C 
ATOM     31  C   UNL     1      16.045  45.330  40.844  1.00  0.00     0.006 C 
ATOM     32  C   UNL     1      15.685  43.002  39.831  1.00  0.00     0.017 C 
ATOM     33  C   UNL     1      17.582  45.677  40.740  1.00  0.00    -0.022 C 
ATOM     34  C   UNL     1      15.692  45.100  42.301  1.00  0.00     0.005 C 
ATOM     35  C   UNL     1      18.472  44.416  40.855  1.00  0.00     0.012 C 
ATOM     36  C   UNL     1      17.986  46.686  41.915  1.00  0.00     0.024 C 
ATOM     37  C   UNL     1      15.672  46.518  42.928  1.00  0.00     0.008 C 
ATOM     38  C   UNL     1      16.783  47.598  42.417  1.00  0.00    -0.017 C 
ATOM     39  C   UNL     1      18.492  45.948  43.177  1.00  0.00    -0.024 C 
ATOM     40  C   UNL     1      16.220  48.561  41.313  1.00  0.00     0.013 C 
ATOM     41  C   UNL     1      17.258  48.579  43.638  1.00  0.00     0.009 C 
ATOM     42  C   UNL     1      18.620  46.571  44.363  1.00  0.00     0.005 C 
ATOM     43  C   UNL     1      18.611  48.063  44.282  1.00  0.00     0.096 C 
ATOM     44  C   UNL     1      17.550  50.083  43.250  1.00  0.00     0.043 C 
ATOM     45  C   UNL     1      16.032  48.683  44.630  1.00  0.00     0.015 C 
ATOM     46  C   UNL     1      19.018  48.729  45.578  1.00  0.00     0.037 C 
ATOM     47  O   UNL     1      19.736  48.390  43.415  1.00  0.00    -0.369 OA
ATOM     48  C   UNL     1      18.247  50.900  44.388  1.00  0.00     0.124 C 
ATOM     49  C   UNL     1      19.433  50.083  45.031  1.00  0.00     0.026 C 
ATOM     50  C   UNL     1      18.160  48.814  46.856  1.00  0.00     0.014 C 
ATOM     51  C   UNL     1      20.291  49.568  43.887  1.00  0.00     0.171 C 
ATOM     52  C   UNL     1      20.179  50.889  46.083  1.00  0.00     0.013 C 
ATOM     53  C   UNL     1      18.959  49.561  47.953  1.00  0.00    -0.035 C 
ATOM     54  C   UNL     1      19.427  50.951  47.427  1.00  0.00     0.007 C 
ATOM     55  C   UNL     1      18.035  49.775  49.150  1.00  0.00     0.011 C 
ATOM     56  C   UNL     1      20.188  48.740  48.428  1.00  0.00     0.011 C 
BRANCH  29  57
ATOM     57  C   UNL     1      13.755  44.701  39.704  1.00  0.00     0.165 C 
BRANCH  57  58
ATOM     58  O   UNL     1      13.012  43.827  38.854  1.00  0.00    -0.396 OA
ATOM     59  H   UNL     1      12.840  44.408  38.049  1.00  0.00     0.210 HD
ENDBRANCH  57  58
ENDBRANCH  29  57
BRANCH  48  60
ATOM     60  O   UNL     1      17.323  51.334  45.342  1.00  0.00    -0.392 OA
ATOM     61  H   UNL     1      17.334  50.698  46.104  1.00  0.00     0.210 HD
ENDBRANCH  48  60
ENDBRANCH  26  27
ENDBRANCH   6  26
BRANCH   5  62
ATOM     62  O   UNL     1      16.282  43.845  34.015  1.00  0.00    -0.385 OA
ATOM     63  H   UNL     1      15.943  43.448  33.170  1.00  0.00     0.211 HD
ENDBRANCH   5  62
TORSDOF 14
ENDMDL
