MODEL 1
REMARK VINA RESULT:    -4.962      0.000      0.000
REMARK INTER + INTRA:          -8.303
REMARK INTER:                  -7.863
REMARK INTRA:                  -0.440
REMARK UNBOUND:                -0.440
REMARK SMILES CCCCCCCCCCCC(=O)[O-]
REMARK SMILES IDX 7 1 8 2 9 3 10 4 11 5 12 6 13 7 14 8 6 9 5 10 4 11 3 12 2 13
REMARK SMILES IDX 1 14
REMARK H PARENT
REMARK Flexibility Score: inf
ROOT
ATOM      1  C   UNL     1     -10.132  -3.125 -10.022  1.00  0.00     0.000 C 
ENDROOT
BRANCH   1   2
ATOM      2  C   UNL     1      -9.854  -1.642  -9.730  1.00  0.00     0.000 C 
BRANCH   2   3
ATOM      3  C   UNL     1     -11.096  -0.757  -9.940  1.00  0.00     0.000 C 
BRANCH   3   4
ATOM      4  C   UNL     1     -10.801   0.735  -9.717  1.00  0.00     0.006 C 
BRANCH   4   5
ATOM      5  C   UNL     1     -12.074   1.589  -9.666  1.00  0.00     0.053 C 
BRANCH   5   6
ATOM      6  C   UNL     1     -11.790   2.910  -9.025  1.00  0.00     0.041 C 
ATOM      7  O   UNL     1     -10.623   3.195  -8.649  1.00  0.00    -0.550 OA
ATOM      8  O   UNL     1     -12.805   3.848  -8.886  1.00  0.00    -0.550 OA
ENDBRANCH   5   6
ENDBRANCH   4   5
ENDBRANCH   3   4
ENDBRANCH   2   3
ENDBRANCH   1   2
BRANCH   1   9
ATOM      9  C   UNL     1      -8.845  -3.964 -10.110  1.00  0.00     0.000 C 
BRANCH   9  10
ATOM     10  C   UNL     1      -8.409  -4.526  -8.746  1.00  0.00    -0.000 C 
BRANCH  10  11
ATOM     11  C   UNL     1      -8.497  -6.061  -8.686  1.00  0.00    -0.000 C 
BRANCH  11  12
ATOM     12  C   UNL     1      -9.497  -6.555  -7.629  1.00  0.00    -0.000 C 
BRANCH  12  13
ATOM     13  C   UNL     1     -10.015  -5.423  -6.730  1.00  0.00    -0.003 C 
ATOM     14  C   UNL     1     -10.410  -5.952  -5.354  1.00  0.00     0.004 C 
ENDBRANCH  12  13
ENDBRANCH  11  12
ENDBRANCH  10  11
ENDBRANCH   9  10
ENDBRANCH   1   9
TORSDOF 10
ENDMDL
MODEL 2
REMARK VINA RESULT:    -4.960      4.060      7.586
REMARK INTER + INTRA:          -8.300
REMARK INTER:                  -7.937
REMARK INTRA:                  -0.363
REMARK UNBOUND:                -0.440
REMARK SMILES CCCCCCCCCCCC(=O)[O-]
REMARK SMILES IDX 7 1 8 2 9 3 10 4 11 5 12 6 13 7 14 8 6 9 5 10 4 11 3 12 2 13
REMARK SMILES IDX 1 14
REMARK H PARENT
REMARK Flexibility Score: inf
ROOT
ATOM      1  C   UNL     1      -9.475  -2.542  -8.825  1.00  0.00     0.000 C 
ENDROOT
BRANCH   1   2
ATOM      2  C   UNL     1      -9.274  -4.018  -9.208  1.00  0.00     0.000 C 
BRANCH   2   3
ATOM      3  C   UNL     1     -10.597  -4.800  -9.255  1.00  0.00     0.000 C 
BRANCH   3   4
ATOM      4  C   UNL     1     -10.587  -6.032  -8.335  1.00  0.00     0.006 C 
BRANCH   4   5
ATOM      5  C   UNL     1      -9.790  -5.802  -7.045  1.00  0.00     0.053 C 
BRANCH   5   6
ATOM      6  C   UNL     1     -10.607  -6.186  -5.852  1.00  0.00     0.041 C 
ATOM      7  O   UNL     1     -10.102  -6.146  -4.699  1.00  0.00    -0.550 OA
ATOM      8  O   UNL     1     -11.940  -6.540  -6.008  1.00  0.00    -0.550 OA
ENDBRANCH   5   6
ENDBRANCH   4   5
ENDBRANCH   3   4
ENDBRANCH   2   3
ENDBRANCH   1   2
BRANCH   1   9
ATOM      9  C   UNL     1      -9.832  -1.659 -10.034  1.00  0.00     0.000 C 
BRANCH   9  10
ATOM     10  C   UNL     1     -11.103  -0.823  -9.804  1.00  0.00    -0.000 C 
BRANCH  10  11
ATOM     11  C   UNL     1     -10.815   0.688  -9.758  1.00  0.00    -0.000 C 
BRANCH  11  12
ATOM     12  C   UNL     1     -12.092   1.527  -9.604  1.00  0.00    -0.000 C 
BRANCH  12  13
ATOM     13  C   UNL     1     -11.798   3.006  -9.313  1.00  0.00    -0.003 C 
ATOM     14  C   UNL     1     -13.072   3.756  -8.937  1.00  0.00     0.004 C 
ENDBRANCH  12  13
ENDBRANCH  11  12
ENDBRANCH  10  11
ENDBRANCH   9  10
ENDBRANCH   1   9
TORSDOF 10
ENDMDL
MODEL 3
REMARK VINA RESULT:    -4.758     15.372     17.726
REMARK INTER + INTRA:          -7.979
REMARK INTER:                  -7.192
REMARK INTRA:                  -0.787
REMARK UNBOUND:                -0.440
REMARK SMILES CCCCCCCCCCCC(=O)[O-]
REMARK SMILES IDX 7 1 8 2 9 3 10 4 11 5 12 6 13 7 14 8 6 9 5 10 4 11 3 12 2 13
REMARK SMILES IDX 1 14
REMARK H PARENT
REMARK Flexibility Score: inf
ROOT
ATOM      1  C   UNL     1      -9.798   5.498   6.535  1.00  0.00     0.000 C 
ENDROOT
BRANCH   1   2
ATOM      2  C   UNL     1     -11.036   5.255   7.415  1.00  0.00     0.000 C 
BRANCH   2   3
ATOM      3  C   UNL     1     -11.237   3.767   7.750  1.00  0.00     0.000 C 
BRANCH   3   4
ATOM      4  C   UNL     1     -12.015   3.016   6.658  1.00  0.00     0.006 C 
BRANCH   4   5
ATOM      5  C   UNL     1     -13.160   3.849   6.067  1.00  0.00     0.053 C 
BRANCH   5   6
ATOM      6  C   UNL     1     -13.026   3.939   4.580  1.00  0.00     0.041 C 
ATOM      7  O   UNL     1     -13.890   4.555   3.902  1.00  0.00    -0.550 OA
ATOM      8  O   UNL     1     -11.920   3.385   3.947  1.00  0.00    -0.550 OA
ENDBRANCH   5   6
ENDBRANCH   4   5
ENDBRANCH   3   4
ENDBRANCH   2   3
ENDBRANCH   1   2
BRANCH   1   9
ATOM      9  C   UNL     1     -10.146   6.170   5.195  1.00  0.00     0.000 C 
BRANCH   9  10
ATOM     10  C   UNL     1      -9.278   7.407   4.909  1.00  0.00    -0.000 C 
BRANCH  10  11
ATOM     11  C   UNL     1     -10.014   8.725   5.207  1.00  0.00    -0.000 C 
BRANCH  11  12
ATOM     12  C   UNL     1      -9.075   9.818   5.740  1.00  0.00    -0.000 C 
BRANCH  12  13
ATOM     13  C   UNL     1      -7.704   9.268   6.159  1.00  0.00    -0.003 C 
ATOM     14  C   UNL     1      -6.603  10.298   5.922  1.00  0.00     0.004 C 
ENDBRANCH  12  13
ENDBRANCH  11  12
ENDBRANCH  10  11
ENDBRANCH   9  10
ENDBRANCH   1   9
TORSDOF 10
ENDMDL
MODEL 4
REMARK VINA RESULT:    -4.756     15.741     17.417
REMARK INTER + INTRA:          -7.976
REMARK INTER:                  -7.135
REMARK INTRA:                  -0.841
REMARK UNBOUND:                -0.440
REMARK SMILES CCCCCCCCCCCC(=O)[O-]
REMARK SMILES IDX 7 1 8 2 9 3 10 4 11 5 12 6 13 7 14 8 6 9 5 10 4 11 3 12 2 13
REMARK SMILES IDX 1 14
REMARK H PARENT
REMARK Flexibility Score: inf
ROOT
ATOM      1  C   UNL     1      -9.792   5.458   6.431  1.00  0.00     0.000 C 
ENDROOT
BRANCH   1   2
ATOM      2  C   UNL     1     -10.376   6.625   5.618  1.00  0.00     0.000 C 
BRANCH   2   3
ATOM      3  C   UNL     1      -9.289   7.445   4.901  1.00  0.00     0.000 C 
BRANCH   3   4
ATOM      4  C   UNL     1      -9.339   8.937   5.268  1.00  0.00     0.006 C 
BRANCH   4   5
ATOM      5  C   UNL     1      -8.024   9.666   4.963  1.00  0.00     0.053 C 
BRANCH   5   6
ATOM      6  C   UNL     1      -7.329  10.041   6.233  1.00  0.00     0.041 C 
ATOM      7  O   UNL     1      -7.940   9.982   7.332  1.00  0.00    -0.550 OA
ATOM      8  O   UNL     1      -5.990  10.409   6.210  1.00  0.00    -0.550 OA
ENDBRANCH   5   6
ENDBRANCH   4   5
ENDBRANCH   3   4
ENDBRANCH   2   3
ENDBRANCH   1   2
BRANCH   1   9
ATOM      9  C   UNL     1     -10.805   4.862   7.425  1.00  0.00     0.000 C 
BRANCH   9  10
ATOM     10  C   UNL     1     -11.241   3.437   7.045  1.00  0.00    -0.000 C 
BRANCH  10  11
ATOM     11  C   UNL     1     -12.610   3.406   6.344  1.00  0.00    -0.000 C 
BRANCH  11  12
ATOM     12  C   UNL     1     -12.490   3.433   4.813  1.00  0.00    -0.000 C 
BRANCH  12  13
ATOM     13  C   UNL     1     -13.423   4.466   4.164  1.00  0.00    -0.003 C 
ATOM     14  C   UNL     1     -13.886   5.504   5.182  1.00  0.00     0.004 C 
ENDBRANCH  12  13
ENDBRANCH  11  12
ENDBRANCH  10  11
ENDBRANCH   9  10
ENDBRANCH   1   9
TORSDOF 10
ENDMDL
MODEL 5
REMARK VINA RESULT:    -4.669     15.424     17.107
REMARK INTER + INTRA:          -7.838
REMARK INTER:                  -6.475
REMARK INTRA:                  -1.364
REMARK UNBOUND:                -0.440
REMARK SMILES CCCCCCCCCCCC(=O)[O-]
REMARK SMILES IDX 7 1 8 2 9 3 10 4 11 5 12 6 13 7 14 8 6 9 5 10 4 11 3 12 2 13
REMARK SMILES IDX 1 14
REMARK H PARENT
REMARK Flexibility Score: inf
ROOT
ATOM      1  C   UNL     1     -11.539   3.842   8.276  1.00  0.00     0.000 C 
ENDROOT
BRANCH   1   2
ATOM      2  C   UNL     1     -10.882   5.195   7.953  1.00  0.00     0.000 C 
BRANCH   2   3
ATOM      3  C   UNL     1     -10.015   5.140   6.684  1.00  0.00     0.000 C 
BRANCH   3   4
ATOM      4  C   UNL     1      -9.317   6.478   6.389  1.00  0.00     0.006 C 
BRANCH   4   5
ATOM      5  C   UNL     1      -9.676   7.040   5.008  1.00  0.00     0.053 C 
BRANCH   5   6
ATOM      6  C   UNL     1      -9.505   8.527   4.990  1.00  0.00     0.041 C 
ATOM      7  O   UNL     1      -8.358   9.033   5.105  1.00  0.00    -0.550 OA
ATOM      8  O   UNL     1     -10.605   9.351   4.795  1.00  0.00    -0.550 OA
ENDBRANCH   5   6
ENDBRANCH   4   5
ENDBRANCH   3   4
ENDBRANCH   2   3
ENDBRANCH   1   2
BRANCH   1   9
ATOM      9  C   UNL     1     -11.564   2.891   7.066  1.00  0.00     0.000 C 
BRANCH   9  10
ATOM     10  C   UNL     1     -12.849   3.025   6.232  1.00  0.00    -0.000 C 
BRANCH  10  11
ATOM     11  C   UNL     1     -12.571   3.471   4.786  1.00  0.00    -0.000 C 
BRANCH  11  12
ATOM     12  C   UNL     1     -13.330   4.751   4.406  1.00  0.00    -0.000 C 
BRANCH  12  13
ATOM     13  C   UNL     1     -13.867   5.507   5.631  1.00  0.00    -0.003 C 
ATOM     14  C   UNL     1     -13.260   6.904   5.722  1.00  0.00     0.004 C 
ENDBRANCH  12  13
ENDBRANCH  11  12
ENDBRANCH  10  11
ENDBRANCH   9  10
ENDBRANCH   1   9
TORSDOF 10
ENDMDL
MODEL 6
REMARK VINA RESULT:    -4.658     16.518     17.778
REMARK INTER + INTRA:          -7.821
REMARK INTER:                  -7.122
REMARK INTRA:                  -0.699
REMARK UNBOUND:                -0.440
REMARK SMILES CCCCCCCCCCCC(=O)[O-]
REMARK SMILES IDX 7 1 8 2 9 3 10 4 11 5 12 6 13 7 14 8 6 9 5 10 4 11 3 12 2 13
REMARK SMILES IDX 1 14
REMARK H PARENT
REMARK Flexibility Score: inf
ROOT
ATOM      1  C   UNL     1     -11.439   6.081   5.638  1.00  0.00     0.000 C 
ENDROOT
BRANCH   1   2
ATOM      2  C   UNL     1      -9.908   6.208   5.709  1.00  0.00     0.000 C 
BRANCH   2   3
ATOM      3  C   UNL     1      -9.372   7.361   4.842  1.00  0.00     0.000 C 
BRANCH   3   4
ATOM      4  C   UNL     1      -9.104   8.636   5.658  1.00  0.00     0.006 C 
BRANCH   4   5
ATOM      5  C   UNL     1      -7.872   9.405   5.165  1.00  0.00     0.053 C 
BRANCH   5   6
ATOM      6  C   UNL     1      -7.220  10.129   6.301  1.00  0.00     0.041 C 
ATOM      7  O   UNL     1      -7.819  10.249   7.402  1.00  0.00    -0.550 OA
ATOM      8  O   UNL     1      -5.932  10.628   6.159  1.00  0.00    -0.550 OA
ENDBRANCH   5   6
ENDBRANCH   4   5
ENDBRANCH   3   4
ENDBRANCH   2   3
ENDBRANCH   1   2
BRANCH   1   9
ATOM      9  C   UNL     1     -11.898   4.672   5.220  1.00  0.00     0.000 C 
BRANCH   9  10
ATOM     10  C   UNL     1     -13.238   4.271   5.861  1.00  0.00    -0.000 C 
BRANCH  10  11
ATOM     11  C   UNL     1     -13.103   3.057   6.797  1.00  0.00    -0.000 C 
BRANCH  11  12
ATOM     12  C   UNL     1     -11.756   3.027   7.535  1.00  0.00    -0.000 C 
BRANCH  12  13
ATOM     13  C   UNL     1     -11.867   3.503   8.990  1.00  0.00    -0.003 C 
ATOM     14  C   UNL     1     -11.195   4.860   9.177  1.00  0.00     0.004 C 
ENDBRANCH  12  13
ENDBRANCH  11  12
ENDBRANCH  10  11
ENDBRANCH   9  10
ENDBRANCH   1   9
TORSDOF 10
ENDMDL
MODEL 7
REMARK VINA RESULT:    -4.612     15.814     17.599
REMARK INTER + INTRA:          -7.749
REMARK INTER:                  -6.975
REMARK INTRA:                  -0.773
REMARK UNBOUND:                -0.440
REMARK SMILES CCCCCCCCCCCC(=O)[O-]
REMARK SMILES IDX 7 1 8 2 9 3 10 4 11 5 12 6 13 7 14 8 6 9 5 10 4 11 3 12 2 13
REMARK SMILES IDX 1 14
REMARK H PARENT
REMARK Flexibility Score: inf
ROOT
ATOM      1  C   UNL     1     -10.388   5.358   7.502  1.00  0.00     0.000 C 
ENDROOT
BRANCH   1   2
ATOM      2  C   UNL     1     -11.310   4.191   7.892  1.00  0.00     0.000 C 
BRANCH   2   3
ATOM      3  C   UNL     1     -11.210   3.009   6.912  1.00  0.00     0.000 C 
BRANCH   3   4
ATOM      4  C   UNL     1     -12.476   2.845   6.055  1.00  0.00     0.006 C 
BRANCH   4   5
ATOM      5  C   UNL     1     -13.485   3.980   6.266  1.00  0.00     0.053 C 
BRANCH   5   6
ATOM      6  C   UNL     1     -13.500   4.892   5.080  1.00  0.00     0.041 C 
ATOM      7  O   UNL     1     -13.487   6.140   5.240  1.00  0.00    -0.550 OA
ATOM      8  O   UNL     1     -13.480   4.362   3.796  1.00  0.00    -0.550 OA
ENDBRANCH   5   6
ENDBRANCH   4   5
ENDBRANCH   3   4
ENDBRANCH   2   3
ENDBRANCH   1   2
BRANCH   1   9
ATOM      9  C   UNL     1      -9.766   5.182   6.105  1.00  0.00     0.000 C 
BRANCH   9  10
ATOM     10  C   UNL     1      -9.926   6.431   5.222  1.00  0.00    -0.000 C 
BRANCH  10  11
ATOM     11  C   UNL     1      -9.123   7.633   5.749  1.00  0.00    -0.000 C 
BRANCH  11  12
ATOM     12  C   UNL     1      -9.461   8.937   5.011  1.00  0.00    -0.000 C 
BRANCH  12  13
ATOM     13  C   UNL     1      -8.352   9.992   5.135  1.00  0.00    -0.003 C 
ATOM     14  C   UNL     1      -7.169   9.453   5.934  1.00  0.00     0.004 C 
ENDBRANCH  12  13
ENDBRANCH  11  12
ENDBRANCH  10  11
ENDBRANCH   9  10
ENDBRANCH   1   9
TORSDOF 10
ENDMDL
MODEL 8
REMARK VINA RESULT:    -4.544     16.024     17.753
REMARK INTER + INTRA:          -7.640
REMARK INTER:                  -6.934
REMARK INTRA:                  -0.707
REMARK UNBOUND:                -0.440
REMARK SMILES CCCCCCCCCCCC(=O)[O-]
REMARK SMILES IDX 7 1 8 2 9 3 10 4 11 5 12 6 13 7 14 8 6 9 5 10 4 11 3 12 2 13
REMARK SMILES IDX 1 14
REMARK H PARENT
REMARK Flexibility Score: inf
ROOT
ATOM      1  C   UNL     1     -10.317   6.421   5.378  1.00  0.00     0.000 C 
ENDROOT
BRANCH   1   2
ATOM      2  C   UNL     1      -9.282   7.451   4.897  1.00  0.00     0.000 C 
BRANCH   2   3
ATOM      3  C   UNL     1      -9.830   8.888   4.913  1.00  0.00     0.000 C 
BRANCH   3   4
ATOM      4  C   UNL     1      -9.124   9.776   5.951  1.00  0.00     0.006 C 
BRANCH   4   5
ATOM      5  C   UNL     1      -7.676   9.344   6.213  1.00  0.00     0.053 C 
BRANCH   5   6
ATOM      6  C   UNL     1      -6.809  10.541   6.447  1.00  0.00     0.041 C 
ATOM      7  O   UNL     1      -7.094  11.363   7.357  1.00  0.00    -0.550 OA
ATOM      8  O   UNL     1      -5.658  10.724   5.691  1.00  0.00    -0.550 OA
ENDBRANCH   5   6
ENDBRANCH   4   5
ENDBRANCH   3   4
ENDBRANCH   2   3
ENDBRANCH   1   2
BRANCH   1   9
ATOM      9  C   UNL     1      -9.746   5.451   6.428  1.00  0.00     0.000 C 
BRANCH   9  10
ATOM     10  C   UNL     1     -10.833   4.852   7.337  1.00  0.00    -0.000 C 
BRANCH  10  11
ATOM     11  C   UNL     1     -11.315   3.475   6.849  1.00  0.00    -0.000 C 
BRANCH  11  12
ATOM     12  C   UNL     1     -12.842   3.406   6.690  1.00  0.00    -0.000 C 
BRANCH  12  13
ATOM     13  C   UNL     1     -13.393   4.512   5.778  1.00  0.00    -0.003 C 
ATOM     14  C   UNL     1     -13.123   4.196   4.309  1.00  0.00     0.004 C 
ENDBRANCH  12  13
ENDBRANCH  11  12
ENDBRANCH  10  11
ENDBRANCH   9  10
ENDBRANCH   1   9
TORSDOF 10
ENDMDL
MODEL 9
REMARK VINA RESULT:    -4.511     16.362     17.513
REMARK INTER + INTRA:          -7.588
REMARK INTER:                  -6.606
REMARK INTRA:                  -0.982
REMARK UNBOUND:                -0.440
REMARK SMILES CCCCCCCCCCCC(=O)[O-]
REMARK SMILES IDX 7 1 8 2 9 3 10 4 11 5 12 6 13 7 14 8 6 9 5 10 4 11 3 12 2 13
REMARK SMILES IDX 1 14
REMARK H PARENT
REMARK Flexibility Score: inf
ROOT
ATOM      1  C   UNL     1     -12.454   5.484   5.234  1.00  0.00     0.000 C 
ENDROOT
BRANCH   1   2
ATOM      2  C   UNL     1     -11.488   6.429   5.967  1.00  0.00     0.000 C 
BRANCH   2   3
ATOM      3  C   UNL     1     -10.012   6.103   5.678  1.00  0.00     0.000 C 
BRANCH   3   4
ATOM      4  C   UNL     1      -9.328   7.179   4.819  1.00  0.00     0.006 C 
BRANCH   4   5
ATOM      5  C   UNL     1      -9.866   8.588   5.095  1.00  0.00     0.053 C 
BRANCH   5   6
ATOM      6  C   UNL     1      -8.766   9.482   5.575  1.00  0.00     0.041 C 
ATOM      7  O   UNL     1      -8.608  10.622   5.065  1.00  0.00    -0.550 OA
ATOM      8  O   UNL     1      -7.945   9.075   6.619  1.00  0.00    -0.550 OA
ENDBRANCH   5   6
ENDBRANCH   4   5
ENDBRANCH   3   4
ENDBRANCH   2   3
ENDBRANCH   1   2
BRANCH   1   9
ATOM      9  C   UNL     1     -13.039   4.401   6.159  1.00  0.00     0.000 C 
BRANCH   9  10
ATOM     10  C   UNL     1     -12.211   3.105   6.152  1.00  0.00    -0.000 C 
BRANCH  10  11
ATOM     11  C   UNL     1     -11.341   2.954   7.412  1.00  0.00    -0.000 C 
BRANCH  11  12
ATOM     12  C   UNL     1     -12.172   2.662   8.672  1.00  0.00    -0.000 C 
BRANCH  12  13
ATOM     13  C   UNL     1     -11.956   3.705   9.778  1.00  0.00    -0.003 C 
ATOM     14  C   UNL     1     -11.089   4.859   9.284  1.00  0.00     0.004 C 
ENDBRANCH  12  13
ENDBRANCH  11  12
ENDBRANCH  10  11
ENDBRANCH   9  10
ENDBRANCH   1   9
TORSDOF 10
ENDMDL
