MODEL 1
REMARK VINA RESULT:    -6.849      0.000      0.000
REMARK INTER + INTRA:          -8.479
REMARK INTER:                  -8.250
REMARK INTRA:                  -0.229
REMARK UNBOUND:                -0.229
REMARK SMILES O=c1c(O)c(-c2ccc(O)c(O)c2)oc2cc(O)cc(O)c12
REMARK SMILES IDX 5 1 3 2 2 3 1 4 22 5 20 6 19 7 17 8 16 9 15 10 14 11 6 12
REMARK SMILES IDX 7 13 8 14 9 15 13 16 11 17 10 18 12 20 4 22 21 24 18 26
REMARK H PARENT 10 19 12 21 4 23 21 25 18 27
REMARK Flexibility Score: inf
ROOT
ATOM      1  C   UNL     1      28.074   9.000  33.312  1.00  0.00     0.180 A 
ATOM      2  C   UNL     1      27.380   9.913  32.493  1.00  0.00     0.208 A 
ATOM      3  C   UNL     1      27.160  11.215  32.966  1.00  0.00     0.238 A 
ATOM      4  O   UNL     1      26.549  12.044  32.238  1.00  0.00    -0.285 OA
ATOM      5  C   UNL     1      27.612  11.577  34.251  1.00  0.00     0.111 A 
ATOM      6  C   UNL     1      27.426  12.867  34.804  1.00  0.00     0.134 A 
ATOM      7  C   UNL     1      27.899  13.146  36.095  1.00  0.00     0.093 A 
ATOM      8  C   UNL     1      28.554  12.160  36.842  1.00  0.00     0.123 A 
ATOM      9  C   UNL     1      28.741  10.888  36.301  1.00  0.00     0.094 A 
ATOM     10  C   UNL     1      28.278  10.590  35.016  1.00  0.00     0.146 A 
ATOM     11  O   UNL     1      28.474   9.372  34.525  1.00  0.00    -0.452 OA
ENDROOT
BRANCH   1  12
ATOM     12  C   UNL     1      28.363   7.615  32.876  1.00  0.00     0.025 A 
ATOM     13  C   UNL     1      27.345   6.655  32.763  1.00  0.00     0.016 A 
ATOM     14  C   UNL     1      27.639   5.363  32.326  1.00  0.00     0.051 A 
ATOM     15  C   UNL     1      28.947   5.005  31.982  1.00  0.00     0.157 A 
ATOM     16  C   UNL     1      29.673   7.265  32.510  1.00  0.00     0.062 A 
ATOM     17  C   UNL     1      29.978   5.971  32.072  1.00  0.00     0.158 A 
BRANCH  15  18
ATOM     18  O   UNL     1      29.175   3.694  31.557  1.00  0.00    -0.504 OA
ATOM     19  H   UNL     1      29.257   3.421  30.588  1.00  0.00     0.293 HD
ENDBRANCH  15  18
BRANCH  17  20
ATOM     20  O   UNL     1      31.304   5.691  31.736  1.00  0.00    -0.504 OA
ATOM     21  H   UNL     1      31.778   6.080  30.934  1.00  0.00     0.293 HD
ENDBRANCH  17  20
ENDBRANCH   1  12
BRANCH   2  22
ATOM     22  O   UNL     1      26.898   9.515  31.243  1.00  0.00    -0.502 OA
ATOM     23  H   UNL     1      26.012   9.038  31.131  1.00  0.00     0.293 HD
ENDBRANCH   2  22
BRANCH   6  24
ATOM     24  O   UNL     1      26.776  13.870  34.084  1.00  0.00    -0.507 OA
ATOM     25  H   UNL     1      25.843  14.180  34.325  1.00  0.00     0.293 HD
ENDBRANCH   6  24
BRANCH   8  26
ATOM     26  O   UNL     1      29.023  12.437  38.124  1.00  0.00    -0.508 OA
ATOM     27  H   UNL     1      29.452  13.326  38.352  1.00  0.00     0.293 HD
ENDBRANCH   8  26
TORSDOF 6
ENDMDL
MODEL 2
REMARK VINA RESULT:    -6.372      3.667      7.038
REMARK INTER + INTRA:          -7.904
REMARK INTER:                  -7.599
REMARK INTRA:                  -0.305
REMARK UNBOUND:                -0.229
REMARK SMILES O=c1c(O)c(-c2ccc(O)c(O)c2)oc2cc(O)cc(O)c12
REMARK SMILES IDX 5 1 3 2 2 3 1 4 22 5 20 6 19 7 17 8 16 9 15 10 14 11 6 12
REMARK SMILES IDX 7 13 8 14 9 15 13 16 11 17 10 18 12 20 4 22 21 24 18 26
REMARK H PARENT 10 19 12 21 4 23 21 25 18 27
REMARK Flexibility Score: inf
ROOT
ATOM      1  C   UNL     1      28.226   3.239  30.740  1.00  0.00     0.180 A 
ATOM      2  C   UNL     1      29.616   3.300  30.516  1.00  0.00     0.208 A 
ATOM      3  C   UNL     1      30.332   4.404  31.002  1.00  0.00     0.238 A 
ATOM      4  O   UNL     1      31.578   4.464  30.817  1.00  0.00    -0.285 OA
ATOM      5  C   UNL     1      29.650   5.435  31.679  1.00  0.00     0.111 A 
ATOM      6  C   UNL     1      30.298   6.584  32.195  1.00  0.00     0.134 A 
ATOM      7  C   UNL     1      29.546   7.571  32.850  1.00  0.00     0.093 A 
ATOM      8  C   UNL     1      28.161   7.430  32.998  1.00  0.00     0.123 A 
ATOM      9  C   UNL     1      27.519   6.300  32.492  1.00  0.00     0.094 A 
ATOM     10  C   UNL     1      28.250   5.304  31.837  1.00  0.00     0.146 A 
ATOM     11  O   UNL     1      27.614   4.237  31.370  1.00  0.00    -0.452 OA
ENDROOT
BRANCH   1  12
ATOM     12  C   UNL     1      27.405   2.097  30.276  1.00  0.00     0.025 A 
ATOM     13  C   UNL     1      27.377   0.882  30.979  1.00  0.00     0.016 A 
ATOM     14  C   UNL     1      26.576  -0.172  30.535  1.00  0.00     0.051 A 
ATOM     15  C   UNL     1      25.779  -0.031  29.394  1.00  0.00     0.157 A 
ATOM     16  C   UNL     1      26.589   2.248  29.143  1.00  0.00     0.062 A 
ATOM     17  C   UNL     1      25.782   1.197  28.690  1.00  0.00     0.158 A 
BRANCH  15  18
ATOM     18  O   UNL     1      25.004  -1.125  29.001  1.00  0.00    -0.504 OA
ATOM     19  H   UNL     1      24.705  -1.859  29.627  1.00  0.00     0.293 HD
ENDBRANCH  15  18
BRANCH  17  20
ATOM     20  O   UNL     1      25.007   1.414  27.550  1.00  0.00    -0.504 OA
ATOM     21  H   UNL     1      24.601   0.676  26.994  1.00  0.00     0.293 HD
ENDBRANCH  17  20
ENDBRANCH   1  12
BRANCH   2  22
ATOM     22  O   UNL     1      30.261   2.288  29.799  1.00  0.00    -0.502 OA
ATOM     23  H   UNL     1      29.754   1.534  29.352  1.00  0.00     0.293 HD
ENDBRANCH   2  22
BRANCH   6  24
ATOM     24  O   UNL     1      31.676   6.752  32.062  1.00  0.00    -0.507 OA
ATOM     25  H   UNL     1      32.100   7.671  32.021  1.00  0.00     0.293 HD
ENDBRANCH   6  24
BRANCH   8  26
ATOM     26  O   UNL     1      27.415   8.411  33.648  1.00  0.00    -0.508 OA
ATOM     27  H   UNL     1      27.809   9.317  33.871  1.00  0.00     0.293 HD
ENDBRANCH   8  26
TORSDOF 6
ENDMDL
MODEL 3
REMARK VINA RESULT:    -5.888     13.481     15.767
REMARK INTER + INTRA:          -7.322
REMARK INTER:                  -7.022
REMARK INTRA:                  -0.300
REMARK UNBOUND:                -0.229
REMARK SMILES O=c1c(O)c(-c2ccc(O)c(O)c2)oc2cc(O)cc(O)c12
REMARK SMILES IDX 5 1 3 2 2 3 1 4 22 5 20 6 19 7 17 8 16 9 15 10 14 11 6 12
REMARK SMILES IDX 7 13 8 14 9 15 13 16 11 17 10 18 12 20 4 22 21 24 18 26
REMARK H PARENT 10 19 12 21 4 23 21 25 18 27
REMARK Flexibility Score: inf
ROOT
ATOM      1  C   UNL     1      21.960   2.988  22.293  1.00  0.00     0.180 A 
ATOM      2  C   UNL     1      21.504   2.870  23.621  1.00  0.00     0.208 A 
ATOM      3  C   UNL     1      22.137   1.957  24.477  1.00  0.00     0.238 A 
ATOM      4  O   UNL     1      21.744   1.851  25.670  1.00  0.00    -0.285 OA
ATOM      5  C   UNL     1      23.196   1.163  23.990  1.00  0.00     0.111 A 
ATOM      6  C   UNL     1      23.884   0.216  24.786  1.00  0.00     0.134 A 
ATOM      7  C   UNL     1      24.922  -0.542  24.224  1.00  0.00     0.093 A 
ATOM      8  C   UNL     1      25.285  -0.371  22.883  1.00  0.00     0.123 A 
ATOM      9  C   UNL     1      24.610   0.562  22.095  1.00  0.00     0.094 A 
ATOM     10  C   UNL     1      23.573   1.329  22.636  1.00  0.00     0.146 A 
ATOM     11  O   UNL     1      22.952   2.212  21.864  1.00  0.00    -0.452 OA
ENDROOT
BRANCH   1  12
ATOM     12  C   UNL     1      21.357   3.943  21.335  1.00  0.00     0.025 A 
ATOM     13  C   UNL     1      21.974   5.168  21.037  1.00  0.00     0.016 A 
ATOM     14  C   UNL     1      21.398   6.041  20.113  1.00  0.00     0.051 A 
ATOM     15  C   UNL     1      20.206   5.706  19.459  1.00  0.00     0.157 A 
ATOM     16  C   UNL     1      20.174   3.594  20.665  1.00  0.00     0.062 A 
ATOM     17  C   UNL     1      19.588   4.463  19.737  1.00  0.00     0.158 A 
BRANCH  15  18
ATOM     18  O   UNL     1      19.680   6.625  18.549  1.00  0.00    -0.504 OA
ATOM     19  H   UNL     1      18.721   6.941  18.557  1.00  0.00     0.293 HD
ENDBRANCH  15  18
BRANCH  17  20
ATOM     20  O   UNL     1      18.404   4.056  19.118  1.00  0.00    -0.504 OA
ATOM     21  H   UNL     1      18.101   3.095  19.057  1.00  0.00     0.293 HD
ENDBRANCH  17  20
ENDBRANCH   1  12
BRANCH   2  22
ATOM     22  O   UNL     1      20.420   3.633  24.064  1.00  0.00    -0.502 OA
ATOM     23  H   UNL     1      20.133   4.487  23.601  1.00  0.00     0.293 HD
ENDBRANCH   2  22
BRANCH   6  24
ATOM     24  O   UNL     1      23.544   0.022  26.125  1.00  0.00    -0.507 OA
ATOM     25  H   UNL     1      22.586  -0.136  26.415  1.00  0.00     0.293 HD
ENDBRANCH   6  24
BRANCH   8  26
ATOM     26  O   UNL     1      26.315  -1.124  22.326  1.00  0.00    -0.508 OA
ATOM     27  H   UNL     1      27.106  -0.686  21.870  1.00  0.00     0.293 HD
ENDBRANCH   8  26
TORSDOF 6
ENDMDL
MODEL 4
REMARK VINA RESULT:    -5.871     13.106     15.520
REMARK INTER + INTRA:          -7.301
REMARK INTER:                  -7.070
REMARK INTRA:                  -0.231
REMARK UNBOUND:                -0.229
REMARK SMILES O=c1c(O)c(-c2ccc(O)c(O)c2)oc2cc(O)cc(O)c12
REMARK SMILES IDX 5 1 3 2 2 3 1 4 22 5 20 6 19 7 17 8 16 9 15 10 14 11 6 12
REMARK SMILES IDX 7 13 8 14 9 15 13 16 11 17 10 18 12 20 4 22 21 24 18 26
REMARK H PARENT 10 19 12 21 4 23 21 25 18 27
REMARK Flexibility Score: inf
ROOT
ATOM      1  C   UNL     1      22.855   2.085  22.165  1.00  0.00     0.180 A 
ATOM      2  C   UNL     1      22.659   1.738  23.517  1.00  0.00     0.208 A 
ATOM      3  C   UNL     1      23.761   1.314  24.274  1.00  0.00     0.238 A 
ATOM      4  O   UNL     1      23.599   1.011  25.488  1.00  0.00    -0.285 OA
ATOM      5  C   UNL     1      25.030   1.221  23.667  1.00  0.00     0.111 A 
ATOM      6  C   UNL     1      26.190   0.797  24.360  1.00  0.00     0.134 A 
ATOM      7  C   UNL     1      27.416   0.723  23.681  1.00  0.00     0.093 A 
ATOM      8  C   UNL     1      27.503   1.064  22.327  1.00  0.00     0.123 A 
ATOM      9  C   UNL     1      26.362   1.482  21.641  1.00  0.00     0.094 A 
ATOM     10  C   UNL     1      25.131   1.565  22.299  1.00  0.00     0.146 A 
ATOM     11  O   UNL     1      24.063   1.971  21.623  1.00  0.00    -0.452 OA
ENDROOT
BRANCH   1  12
ATOM     12  C   UNL     1      21.746   2.560  21.307  1.00  0.00     0.025 A 
ATOM     13  C   UNL     1      21.190   1.744  20.309  1.00  0.00     0.016 A 
ATOM     14  C   UNL     1      20.129   2.206  19.528  1.00  0.00     0.051 A 
ATOM     15  C   UNL     1      19.594   3.482  19.735  1.00  0.00     0.157 A 
ATOM     16  C   UNL     1      21.196   3.832  21.531  1.00  0.00     0.062 A 
ATOM     17  C   UNL     1      20.132   4.305  20.753  1.00  0.00     0.158 A 
BRANCH  15  18
ATOM     18  O   UNL     1      18.536   3.886  18.917  1.00  0.00    -0.504 OA
ATOM     19  H   UNL     1      18.643   4.165  17.953  1.00  0.00     0.293 HD
ENDBRANCH  15  18
BRANCH  17  20
ATOM     20  O   UNL     1      19.644   5.585  21.024  1.00  0.00    -0.504 OA
ATOM     21  H   UNL     1      19.555   5.971  21.952  1.00  0.00     0.293 HD
ENDBRANCH  17  20
ENDBRANCH   1  12
BRANCH   2  22
ATOM     22  O   UNL     1      21.381   1.792  24.081  1.00  0.00    -0.502 OA
ATOM     23  H   UNL     1      21.228   2.030  25.054  1.00  0.00     0.293 HD
ENDBRANCH   2  22
BRANCH   6  24
ATOM     24  O   UNL     1      26.135   0.450  25.709  1.00  0.00    -0.507 OA
ATOM     25  H   UNL     1      25.961  -0.502  26.009  1.00  0.00     0.293 HD
ENDBRANCH   6  24
BRANCH   8  26
ATOM     26  O   UNL     1      28.720   0.989  21.654  1.00  0.00    -0.508 OA
ATOM     27  H   UNL     1      29.473   0.397  21.983  1.00  0.00     0.293 HD
ENDBRANCH   8  26
TORSDOF 6
ENDMDL
MODEL 5
REMARK VINA RESULT:    -5.747      3.527      6.538
REMARK INTER + INTRA:          -7.152
REMARK INTER:                  -6.819
REMARK INTRA:                  -0.333
REMARK UNBOUND:                -0.229
REMARK SMILES O=c1c(O)c(-c2ccc(O)c(O)c2)oc2cc(O)cc(O)c12
REMARK SMILES IDX 5 1 3 2 2 3 1 4 22 5 20 6 19 7 17 8 16 9 15 10 14 11 6 12
REMARK SMILES IDX 7 13 8 14 9 15 13 16 11 17 10 18 12 20 4 22 21 24 18 26
REMARK H PARENT 10 19 12 21 4 23 21 25 18 27
REMARK Flexibility Score: inf
ROOT
ATOM      1  C   UNL     1      29.335   3.755  30.705  1.00  0.00     0.180 A 
ATOM      2  C   UNL     1      30.645   4.201  30.971  1.00  0.00     0.208 A 
ATOM      3  C   UNL     1      30.822   5.388  31.697  1.00  0.00     0.238 A 
ATOM      4  O   UNL     1      31.990   5.792  31.950  1.00  0.00    -0.285 OA
ATOM      5  C   UNL     1      29.695   6.118  32.126  1.00  0.00     0.111 A 
ATOM      6  C   UNL     1      29.788   7.326  32.859  1.00  0.00     0.134 A 
ATOM      7  C   UNL     1      28.617   7.999  33.242  1.00  0.00     0.093 A 
ATOM      8  C   UNL     1      27.359   7.486  32.906  1.00  0.00     0.123 A 
ATOM      9  C   UNL     1      27.263   6.296  32.185  1.00  0.00     0.094 A 
ATOM     10  C   UNL     1      28.417   5.610  31.794  1.00  0.00     0.146 A 
ATOM     11  O   UNL     1      28.296   4.477  31.113  1.00  0.00    -0.452 OA
ENDROOT
BRANCH   1  12
ATOM     12  C   UNL     1      29.067   2.502  29.962  1.00  0.00     0.025 A 
ATOM     13  C   UNL     1      29.011   1.261  30.616  1.00  0.00     0.016 A 
ATOM     14  C   UNL     1      28.732   0.097  29.897  1.00  0.00     0.051 A 
ATOM     15  C   UNL     1      28.491   0.149  28.520  1.00  0.00     0.157 A 
ATOM     16  C   UNL     1      28.804   2.560  28.584  1.00  0.00     0.062 A 
ATOM     17  C   UNL     1      28.524   1.397  27.855  1.00  0.00     0.158 A 
BRANCH  15  18
ATOM     18  O   UNL     1      28.223  -1.053  27.859  1.00  0.00    -0.504 OA
ATOM     19  H   UNL     1      28.286  -1.172  26.858  1.00  0.00     0.293 HD
ENDBRANCH  15  18
BRANCH  17  20
ATOM     20  O   UNL     1      28.285   1.529  26.485  1.00  0.00    -0.504 OA
ATOM     21  H   UNL     1      27.378   1.723  26.087  1.00  0.00     0.293 HD
ENDBRANCH  17  20
ENDBRANCH   1  12
BRANCH   2  22
ATOM     22  O   UNL     1      31.746   3.485  30.491  1.00  0.00    -0.502 OA
ATOM     23  H   UNL     1      32.410   3.884  29.840  1.00  0.00     0.293 HD
ENDBRANCH   2  22
BRANCH   6  24
ATOM     24  O   UNL     1      31.028   7.861  33.208  1.00  0.00    -0.507 OA
ATOM     25  H   UNL     1      31.247   8.839  33.060  1.00  0.00     0.293 HD
ENDBRANCH   6  24
BRANCH   8  26
ATOM     26  O   UNL     1      26.197   8.155  33.286  1.00  0.00    -0.508 OA
ATOM     27  H   UNL     1      25.297   7.928  32.879  1.00  0.00     0.293 HD
ENDBRANCH   8  26
TORSDOF 6
ENDMDL
MODEL 6
REMARK VINA RESULT:    -5.622      6.686      9.711
REMARK INTER + INTRA:          -7.001
REMARK INTER:                  -6.685
REMARK INTRA:                  -0.316
REMARK UNBOUND:                -0.229
REMARK SMILES O=c1c(O)c(-c2ccc(O)c(O)c2)oc2cc(O)cc(O)c12
REMARK SMILES IDX 5 1 3 2 2 3 1 4 22 5 20 6 19 7 17 8 16 9 15 10 14 11 6 12
REMARK SMILES IDX 7 13 8 14 9 15 13 16 11 17 10 18 12 20 4 22 21 24 18 26
REMARK H PARENT 10 19 12 21 4 23 21 25 18 27
REMARK Flexibility Score: inf
ROOT
ATOM      1  C   UNL     1      28.789   1.895  27.644  1.00  0.00     0.180 A 
ATOM      2  C   UNL     1      27.729   2.021  28.563  1.00  0.00     0.208 A 
ATOM      3  C   UNL     1      27.932   2.769  29.733  1.00  0.00     0.238 A 
ATOM      4  O   UNL     1      26.987   2.897  30.558  1.00  0.00    -0.285 OA
ATOM      5  C   UNL     1      29.190   3.356  29.976  1.00  0.00     0.111 A 
ATOM      6  C   UNL     1      29.477   4.121  31.133  1.00  0.00     0.134 A 
ATOM      7  C   UNL     1      30.759   4.666  31.306  1.00  0.00     0.093 A 
ATOM      8  C   UNL     1      31.756   4.461  30.345  1.00  0.00     0.123 A 
ATOM      9  C   UNL     1      31.477   3.709  29.203  1.00  0.00     0.094 A 
ATOM     10  C   UNL     1      30.206   3.158  29.011  1.00  0.00     0.146 A 
ATOM     11  O   UNL     1      29.967   2.452  27.913  1.00  0.00    -0.452 OA
ENDROOT
BRANCH   1  12
ATOM     12  C   UNL     1      28.647   1.140  26.378  1.00  0.00     0.025 A 
ATOM     13  C   UNL     1      29.010  -0.213  26.288  1.00  0.00     0.016 A 
ATOM     14  C   UNL     1      28.844  -0.910  25.090  1.00  0.00     0.051 A 
ATOM     15  C   UNL     1      28.302  -0.278  23.965  1.00  0.00     0.157 A 
ATOM     16  C   UNL     1      28.082   1.770  25.258  1.00  0.00     0.062 A 
ATOM     17  C   UNL     1      27.912   1.080  24.051  1.00  0.00     0.158 A 
BRANCH  15  18
ATOM     18  O   UNL     1      28.166  -1.031  22.796  1.00  0.00    -0.504 OA
ATOM     19  H   UNL     1      28.405  -0.691  21.876  1.00  0.00     0.293 HD
ENDBRANCH  15  18
BRANCH  17  20
ATOM     20  O   UNL     1      27.355   1.774  22.975  1.00  0.00    -0.504 OA
ATOM     21  H   UNL     1      26.519   1.485  22.489  1.00  0.00     0.293 HD
ENDBRANCH  17  20
ENDBRANCH   1  12
BRANCH   2  22
ATOM     22  O   UNL     1      26.506   1.387  28.322  1.00  0.00    -0.502 OA
ATOM     23  H   UNL     1      25.749   1.397  28.995  1.00  0.00     0.293 HD
ENDBRANCH   2  22
BRANCH   6  24
ATOM     24  O   UNL     1      28.505   4.341  32.108  1.00  0.00    -0.507 OA
ATOM     25  H   UNL     1      27.516   4.262  31.902  1.00  0.00     0.293 HD
ENDBRANCH   6  24
BRANCH   8  26
ATOM     26  O   UNL     1      33.028   5.002  30.517  1.00  0.00    -0.508 OA
ATOM     27  H   UNL     1      33.800   4.443  30.859  1.00  0.00     0.293 HD
ENDBRANCH   8  26
TORSDOF 6
ENDMDL
MODEL 7
REMARK VINA RESULT:    -5.617     13.554     16.043
REMARK INTER + INTRA:          -6.995
REMARK INTER:                  -6.727
REMARK INTRA:                  -0.269
REMARK UNBOUND:                -0.229
REMARK SMILES O=c1c(O)c(-c2ccc(O)c(O)c2)oc2cc(O)cc(O)c12
REMARK SMILES IDX 5 1 3 2 2 3 1 4 22 5 20 6 19 7 17 8 16 9 15 10 14 11 6 12
REMARK SMILES IDX 7 13 8 14 9 15 13 16 11 17 10 18 12 20 4 22 21 24 18 26
REMARK H PARENT 10 19 12 21 4 23 21 25 18 27
REMARK Flexibility Score: inf
ROOT
ATOM      1  C   UNL     1      22.571   2.570  21.115  1.00  0.00     0.180 A 
ATOM      2  C   UNL     1      21.631   1.705  20.519  1.00  0.00     0.208 A 
ATOM      3  C   UNL     1      20.631   2.251  19.701  1.00  0.00     0.238 A 
ATOM      4  O   UNL     1      19.791   1.486  19.154  1.00  0.00    -0.285 OA
ATOM      5  C   UNL     1      20.572   3.647  19.510  1.00  0.00     0.111 A 
ATOM      6  C   UNL     1      19.592   4.277  18.704  1.00  0.00     0.134 A 
ATOM      7  C   UNL     1      19.595   5.674  18.571  1.00  0.00     0.093 A 
ATOM      8  C   UNL     1      20.558   6.450  19.227  1.00  0.00     0.123 A 
ATOM      9  C   UNL     1      21.525   5.833  20.021  1.00  0.00     0.094 A 
ATOM     10  C   UNL     1      21.540   4.442  20.166  1.00  0.00     0.146 A 
ATOM     11  O   UNL     1      22.475   3.882  20.923  1.00  0.00    -0.452 OA
ENDROOT
BRANCH   1  12
ATOM     12  C   UNL     1      23.667   2.067  21.974  1.00  0.00     0.025 A 
ATOM     13  C   UNL     1      23.428   1.638  23.289  1.00  0.00     0.016 A 
ATOM     14  C   UNL     1      24.474   1.146  24.072  1.00  0.00     0.051 A 
ATOM     15  C   UNL     1      25.772   1.059  23.557  1.00  0.00     0.157 A 
ATOM     16  C   UNL     1      24.964   1.961  21.448  1.00  0.00     0.062 A 
ATOM     17  C   UNL     1      26.020   1.469  22.225  1.00  0.00     0.158 A 
BRANCH  15  18
ATOM     18  O   UNL     1      26.775   0.562  24.393  1.00  0.00    -0.504 OA
ATOM     19  H   UNL     1      26.644   0.365  25.375  1.00  0.00     0.293 HD
ENDBRANCH  15  18
BRANCH  17  20
ATOM     20  O   UNL     1      27.286   1.404  21.639  1.00  0.00    -0.504 OA
ATOM     21  H   UNL     1      27.528   0.778  20.885  1.00  0.00     0.293 HD
ENDBRANCH  17  20
ENDBRANCH   1  12
BRANCH   2  22
ATOM     22  O   UNL     1      21.683   0.330  20.765  1.00  0.00    -0.502 OA
ATOM     23  H   UNL     1      20.972  -0.151  21.303  1.00  0.00     0.293 HD
ENDBRANCH   2  22
BRANCH   6  24
ATOM     24  O   UNL     1      18.620   3.530  18.039  1.00  0.00    -0.507 OA
ATOM     25  H   UNL     1      18.852   2.929  17.257  1.00  0.00     0.293 HD
ENDBRANCH   6  24
BRANCH   8  26
ATOM     26  O   UNL     1      20.560   7.837  19.095  1.00  0.00    -0.508 OA
ATOM     27  H   UNL     1      19.929   8.311  18.460  1.00  0.00     0.293 HD
ENDBRANCH   8  26
TORSDOF 6
ENDMDL
MODEL 8
REMARK VINA RESULT:    -5.602     12.624     15.494
REMARK INTER + INTRA:          -6.977
REMARK INTER:                  -6.698
REMARK INTRA:                  -0.279
REMARK UNBOUND:                -0.229
REMARK SMILES O=c1c(O)c(-c2ccc(O)c(O)c2)oc2cc(O)cc(O)c12
REMARK SMILES IDX 5 1 3 2 2 3 1 4 22 5 20 6 19 7 17 8 16 9 15 10 14 11 6 12
REMARK SMILES IDX 7 13 8 14 9 15 13 16 11 17 10 18 12 20 4 22 21 24 18 26
REMARK H PARENT 10 19 12 21 4 23 21 25 18 27
REMARK Flexibility Score: inf
ROOT
ATOM      1  C   UNL     1      22.973   2.066  21.714  1.00  0.00     0.180 A 
ATOM      2  C   UNL     1      24.213   1.953  21.055  1.00  0.00     0.208 A 
ATOM      3  C   UNL     1      25.323   1.486  21.775  1.00  0.00     0.238 A 
ATOM      4  O   UNL     1      26.435   1.371  21.192  1.00  0.00    -0.285 OA
ATOM      5  C   UNL     1      25.183   1.162  23.139  1.00  0.00     0.111 A 
ATOM      6  C   UNL     1      26.253   0.689  23.937  1.00  0.00     0.134 A 
ATOM      7  C   UNL     1      26.035   0.397  25.292  1.00  0.00     0.093 A 
ATOM      8  C   UNL     1      24.769   0.568  25.862  1.00  0.00     0.123 A 
ATOM      9  C   UNL     1      23.711   1.033  25.080  1.00  0.00     0.094 A 
ATOM     10  C   UNL     1      23.907   1.329  23.728  1.00  0.00     0.146 A 
ATOM     11  O   UNL     1      22.882   1.765  23.006  1.00  0.00    -0.452 OA
ENDROOT
BRANCH   1  12
ATOM     12  C   UNL     1      21.752   2.532  21.018  1.00  0.00     0.025 A 
ATOM     13  C   UNL     1      21.059   1.704  20.121  1.00  0.00     0.016 A 
ATOM     14  C   UNL     1      19.897   2.157  19.495  1.00  0.00     0.051 A 
ATOM     15  C   UNL     1      19.395   3.436  19.760  1.00  0.00     0.157 A 
ATOM     16  C   UNL     1      21.239   3.808  21.302  1.00  0.00     0.062 A 
ATOM     17  C   UNL     1      20.074   4.272  20.679  1.00  0.00     0.158 A 
BRANCH  15  18
ATOM     18  O   UNL     1      18.230   3.830  19.098  1.00  0.00    -0.504 OA
ATOM     19  H   UNL     1      18.221   4.407  18.269  1.00  0.00     0.293 HD
ENDBRANCH  15  18
BRANCH  17  20
ATOM     20  O   UNL     1      19.629   5.556  21.001  1.00  0.00    -0.504 OA
ATOM     21  H   UNL     1      19.966   6.089  21.789  1.00  0.00     0.293 HD
ENDBRANCH  17  20
ENDBRANCH   1  12
BRANCH   2  22
ATOM     22  O   UNL     1      24.336   2.328  19.714  1.00  0.00    -0.502 OA
ATOM     23  H   UNL     1      23.554   2.684  19.177  1.00  0.00     0.293 HD
ENDBRANCH   2  22
BRANCH   6  24
ATOM     24  O   UNL     1      27.527   0.509  23.396  1.00  0.00    -0.507 OA
ATOM     25  H   UNL     1      28.135   1.293  23.193  1.00  0.00     0.293 HD
ENDBRANCH   6  24
BRANCH   8  26
ATOM     26  O   UNL     1      24.552   0.278  27.208  1.00  0.00    -0.508 OA
ATOM     27  H   UNL     1      23.688   0.529  27.672  1.00  0.00     0.293 HD
ENDBRANCH   8  26
TORSDOF 6
ENDMDL
MODEL 9
REMARK VINA RESULT:    -4.334      3.919      9.759
REMARK INTER + INTRA:          -5.449
REMARK INTER:                  -5.438
REMARK INTRA:                  -0.011
REMARK UNBOUND:                -0.229
REMARK SMILES O=c1c(O)c(-c2ccc(O)c(O)c2)oc2cc(O)cc(O)c12
REMARK SMILES IDX 5 1 3 2 2 3 1 4 22 5 20 6 19 7 17 8 16 9 15 10 14 11 6 12
REMARK SMILES IDX 7 13 8 14 9 15 13 16 11 17 10 18 12 20 4 22 21 24 18 26
REMARK H PARENT 10 19 12 21 4 23 21 25 18 27
REMARK Flexibility Score: inf
ROOT
ATOM      1  C   UNL     1      28.356   3.582  30.975  1.00  0.00     0.180 A 
ATOM      2  C   UNL     1      29.155   2.441  31.186  1.00  0.00     0.208 A 
ATOM      3  C   UNL     1      28.834   1.255  30.509  1.00  0.00     0.238 A 
ATOM      4  O   UNL     1      29.549   0.230  30.681  1.00  0.00    -0.285 OA
ATOM      5  C   UNL     1      27.713   1.220  29.655  1.00  0.00     0.111 A 
ATOM      6  C   UNL     1      27.319   0.063  28.940  1.00  0.00     0.134 A 
ATOM      7  C   UNL     1      26.184   0.108  28.116  1.00  0.00     0.093 A 
ATOM      8  C   UNL     1      25.438   1.286  27.994  1.00  0.00     0.123 A 
ATOM      9  C   UNL     1      25.823   2.428  28.696  1.00  0.00     0.094 A 
ATOM     10  C   UNL     1      26.951   2.405  29.521  1.00  0.00     0.146 A 
ATOM     11  O   UNL     1      27.297   3.509  30.173  1.00  0.00    -0.452 OA
ENDROOT
BRANCH   1  12
ATOM     12  C   UNL     1      28.642   4.876  31.637  1.00  0.00     0.025 A 
ATOM     13  C   UNL     1      29.929   5.435  31.625  1.00  0.00     0.016 A 
ATOM     14  C   UNL     1      30.169   6.667  32.235  1.00  0.00     0.051 A 
ATOM     15  C   UNL     1      29.131   7.371  32.856  1.00  0.00     0.157 A 
ATOM     16  C   UNL     1      27.594   5.589  32.240  1.00  0.00     0.062 A 
ATOM     17  C   UNL     1      27.824   6.826  32.856  1.00  0.00     0.158 A 
BRANCH  15  18
ATOM     18  O   UNL     1      29.438   8.596  33.452  1.00  0.00    -0.504 OA
ATOM     19  H   UNL     1      30.343   8.825  33.838  1.00  0.00     0.293 HD
ENDBRANCH  15  18
BRANCH  17  20
ATOM     20  O   UNL     1      26.737   7.474  33.446  1.00  0.00    -0.504 OA
ATOM     21  H   UNL     1      26.804   8.351  33.941  1.00  0.00     0.293 HD
ENDBRANCH  17  20
ENDBRANCH   1  12
BRANCH   2  22
ATOM     22  O   UNL     1      30.232   2.488  32.076  1.00  0.00    -0.502 OA
ATOM     23  H   UNL     1      31.110   2.934  31.841  1.00  0.00     0.293 HD
ENDBRANCH   2  22
BRANCH   6  24
ATOM     24  O   UNL     1      28.042  -1.125  29.042  1.00  0.00    -0.507 OA
ATOM     25  H   UNL     1      28.785  -1.241  29.722  1.00  0.00     0.293 HD
ENDBRANCH   6  24
BRANCH   8  26
ATOM     26  O   UNL     1      24.311   1.329  27.176  1.00  0.00    -0.508 OA
ATOM     27  H   UNL     1      23.905   2.208  26.878  1.00  0.00     0.293 HD
ENDBRANCH   8  26
TORSDOF 6
ENDMDL
