MODEL 1
REMARK VINA RESULT:    -4.794      0.000      0.000
REMARK INTER + INTRA:         -14.903
REMARK INTER:                 -10.961
REMARK INTRA:                  -3.943
REMARK UNBOUND:                -3.943
REMARK SMILES CCCCCCCCCCCCCCCCCCCCCCCC(=O)[O-]
REMARK SMILES IDX 13 1 14 2 15 3 16 4 17 5 18 6 19 7 20 8 21 9 22 10 23 11
REMARK SMILES IDX 24 12 25 13 26 14 12 15 11 16 10 17 9 18 8 19 7 20 6 21 5 22
REMARK SMILES IDX 4 23 3 24 2 25 1 26
REMARK H PARENT
REMARK Flexibility Score: inf
ROOT
ATOM      1  C   UNL     1      21.252  17.892  47.821  1.00  0.00     0.000 C 
ENDROOT
BRANCH   1   2
ATOM      2  C   UNL     1      20.848  18.444  49.197  1.00  0.00     0.000 C 
BRANCH   2   3
ATOM      3  C   UNL     1      20.181  19.828  49.107  1.00  0.00     0.000 C 
BRANCH   3   4
ATOM      4  C   UNL     1      20.009  20.310  47.658  1.00  0.00     0.000 C 
BRANCH   4   5
ATOM      5  C   UNL     1      18.576  20.786  47.359  1.00  0.00     0.000 C 
BRANCH   5   6
ATOM      6  C   UNL     1      18.306  20.932  45.852  1.00  0.00     0.000 C 
BRANCH   6   7
ATOM      7  C   UNL     1      19.295  20.126  44.992  1.00  0.00     0.000 C 
BRANCH   7   8
ATOM      8  C   UNL     1      18.822  19.993  43.527  1.00  0.00     0.000 C 
BRANCH   8   9
ATOM      9  C   UNL     1      17.859  18.813  43.287  1.00  0.00     0.000 C 
BRANCH   9  10
ATOM     10  C   UNL     1      16.384  19.208  43.079  1.00  0.00     0.006 C 
BRANCH  10  11
ATOM     11  C   UNL     1      16.177  20.421  42.155  1.00  0.00     0.053 C 
BRANCH  11  12
ATOM     12  C   UNL     1      15.642  21.604  42.902  1.00  0.00     0.041 C 
ATOM     13  O   UNL     1      15.228  21.473  44.085  1.00  0.00    -0.550 OA
ATOM     14  O   UNL     1      15.557  22.841  42.277  1.00  0.00    -0.550 OA
ENDBRANCH  11  12
ENDBRANCH  10  11
ENDBRANCH   9  10
ENDBRANCH   8   9
ENDBRANCH   7   8
ENDBRANCH   6   7
ENDBRANCH   5   6
ENDBRANCH   4   5
ENDBRANCH   3   4
ENDBRANCH   2   3
ENDBRANCH   1   2
BRANCH   1  15
ATOM     15  C   UNL     1      21.194  16.355  47.760  1.00  0.00     0.000 C 
BRANCH  15  16
ATOM     16  C   UNL     1      20.024  15.836  46.896  1.00  0.00     0.000 C 
BRANCH  16  17
ATOM     17  C   UNL     1      19.052  16.936  46.431  1.00  0.00     0.000 C 
BRANCH  17  18
ATOM     18  C   UNL     1      17.715  16.993  47.193  1.00  0.00    -0.000 C 
BRANCH  18  19
ATOM     19  C   UNL     1      16.548  17.647  46.423  1.00  0.00    -0.000 C 
BRANCH  19  20
ATOM     20  C   UNL     1      15.446  16.678  45.961  1.00  0.00    -0.000 C 
BRANCH  20  21
ATOM     21  C   UNL     1      15.932  15.690  44.891  1.00  0.00    -0.000 C 
BRANCH  21  22
ATOM     22  C   UNL     1      15.205  14.345  45.015  1.00  0.00    -0.000 C 
BRANCH  22  23
ATOM     23  C   UNL     1      15.449  13.710  46.392  1.00  0.00    -0.000 C 
BRANCH  23  24
ATOM     24  C   UNL     1      16.391  12.493  46.331  1.00  0.00    -0.000 C 
BRANCH  24  25
ATOM     25  C   UNL     1      17.888  12.825  46.466  1.00  0.00    -0.003 C 
ATOM     26  C   UNL     1      18.653  12.686  45.149  1.00  0.00     0.004 C 
ENDBRANCH  24  25
ENDBRANCH  23  24
ENDBRANCH  22  23
ENDBRANCH  21  22
ENDBRANCH  20  21
ENDBRANCH  19  20
ENDBRANCH  18  19
ENDBRANCH  17  18
ENDBRANCH  16  17
ENDBRANCH  15  16
ENDBRANCH   1  15
TORSDOF 22
ENDMDL
MODEL 2
REMARK VINA RESULT:    -4.767      1.867      5.409
REMARK INTER + INTRA:         -14.841
REMARK INTER:                 -10.287
REMARK INTRA:                  -4.554
REMARK UNBOUND:                -3.943
REMARK SMILES CCCCCCCCCCCCCCCCCCCCCCCC(=O)[O-]
REMARK SMILES IDX 13 1 14 2 15 3 16 4 17 5 18 6 19 7 20 8 21 9 22 10 23 11
REMARK SMILES IDX 24 12 25 13 26 14 12 15 11 16 10 17 9 18 8 19 7 20 6 21 5 22
REMARK SMILES IDX 4 23 3 24 2 25 1 26
REMARK H PARENT
REMARK Flexibility Score: inf
ROOT
ATOM      1  C   UNL     1      19.291  16.861  46.477  1.00  0.00     0.000 C 
ENDROOT
BRANCH   1   2
ATOM      2  C   UNL     1      18.001  16.715  47.300  1.00  0.00     0.000 C 
BRANCH   2   3
ATOM      3  C   UNL     1      16.936  17.761  46.924  1.00  0.00     0.000 C 
BRANCH   3   4
ATOM      4  C   UNL     1      16.017  17.288  45.786  1.00  0.00     0.000 C 
BRANCH   4   5
ATOM      5  C   UNL     1      15.423  15.893  46.047  1.00  0.00     0.000 C 
BRANCH   5   6
ATOM      6  C   UNL     1      15.650  14.926  44.872  1.00  0.00     0.000 C 
BRANCH   6   7
ATOM      7  C   UNL     1      16.642  15.478  43.834  1.00  0.00     0.000 C 
BRANCH   7   8
ATOM      8  C   UNL     1      15.962  15.784  42.481  1.00  0.00     0.000 C 
BRANCH   8   9
ATOM      9  C   UNL     1      14.444  15.514  42.472  1.00  0.00     0.000 C 
BRANCH   9  10
ATOM     10  C   UNL     1      13.558  16.775  42.458  1.00  0.00     0.006 C 
BRANCH  10  11
ATOM     11  C   UNL     1      12.681  16.947  43.711  1.00  0.00     0.053 C 
BRANCH  11  12
ATOM     12  C   UNL     1      12.587  18.382  44.131  1.00  0.00     0.041 C 
ATOM     13  O   UNL     1      12.375  19.281  43.275  1.00  0.00    -0.550 OA
ATOM     14  O   UNL     1      12.779  18.731  45.462  1.00  0.00    -0.550 OA
ENDBRANCH  11  12
ENDBRANCH  10  11
ENDBRANCH   9  10
ENDBRANCH   8   9
ENDBRANCH   7   8
ENDBRANCH   6   7
ENDBRANCH   5   6
ENDBRANCH   4   5
ENDBRANCH   3   4
ENDBRANCH   2   3
ENDBRANCH   1   2
BRANCH   1  15
ATOM     15  C   UNL     1      20.550  16.483  47.278  1.00  0.00     0.000 C 
BRANCH  15  16
ATOM     16  C   UNL     1      21.362  17.716  47.731  1.00  0.00     0.000 C 
BRANCH  16  17
ATOM     17  C   UNL     1      20.995  18.225  49.137  1.00  0.00     0.000 C 
BRANCH  17  18
ATOM     18  C   UNL     1      20.199  19.543  49.170  1.00  0.00    -0.000 C 
BRANCH  18  19
ATOM     19  C   UNL     1      20.013  20.233  47.802  1.00  0.00    -0.000 C 
BRANCH  19  20
ATOM     20  C   UNL     1      18.667  20.954  47.611  1.00  0.00    -0.000 C 
BRANCH  20  21
ATOM     21  C   UNL     1      18.244  21.045  46.137  1.00  0.00    -0.000 C 
BRANCH  21  22
ATOM     22  C   UNL     1      19.284  20.380  45.227  1.00  0.00    -0.000 C 
BRANCH  22  23
ATOM     23  C   UNL     1      18.807  20.359  43.767  1.00  0.00    -0.000 C 
BRANCH  23  24
ATOM     24  C   UNL     1      17.994  19.098  43.420  1.00  0.00    -0.000 C 
BRANCH  24  25
ATOM     25  C   UNL     1      16.629  19.368  42.761  1.00  0.00    -0.003 C 
ATOM     26  C   UNL     1      15.734  20.287  43.593  1.00  0.00     0.004 C 
ENDBRANCH  24  25
ENDBRANCH  23  24
ENDBRANCH  22  23
ENDBRANCH  21  22
ENDBRANCH  20  21
ENDBRANCH  19  20
ENDBRANCH  18  19
ENDBRANCH  17  18
ENDBRANCH  16  17
ENDBRANCH  15  16
ENDBRANCH   1  15
TORSDOF 22
ENDMDL
MODEL 3
REMARK VINA RESULT:    -4.709      2.735      6.225
REMARK INTER + INTRA:         -14.708
REMARK INTER:                 -10.464
REMARK INTRA:                  -4.243
REMARK UNBOUND:                -3.943
REMARK SMILES CCCCCCCCCCCCCCCCCCCCCCCC(=O)[O-]
REMARK SMILES IDX 13 1 14 2 15 3 16 4 17 5 18 6 19 7 20 8 21 9 22 10 23 11
REMARK SMILES IDX 24 12 25 13 26 14 12 15 11 16 10 17 9 18 8 19 7 20 6 21 5 22
REMARK SMILES IDX 4 23 3 24 2 25 1 26
REMARK H PARENT
REMARK Flexibility Score: inf
ROOT
ATOM      1  C   UNL     1      17.889  20.742  45.625  1.00  0.00     0.000 C 
ENDROOT
BRANCH   1   2
ATOM      2  C   UNL     1      18.253  20.790  47.117  1.00  0.00     0.000 C 
BRANCH   2   3
ATOM      3  C   UNL     1      19.753  20.552  47.369  1.00  0.00     0.000 C 
BRANCH   3   4
ATOM      4  C   UNL     1      20.061  20.212  48.836  1.00  0.00     0.000 C 
BRANCH   4   5
ATOM      5  C   UNL     1      20.663  18.805  49.002  1.00  0.00     0.000 C 
BRANCH   5   6
ATOM      6  C   UNL     1      21.056  18.170  47.657  1.00  0.00     0.000 C 
BRANCH   6   7
ATOM      7  C   UNL     1      20.470  16.759  47.474  1.00  0.00     0.000 C 
BRANCH   7   8
ATOM      8  C   UNL     1      19.214  16.760  46.575  1.00  0.00     0.000 C 
BRANCH   8   9
ATOM      9  C   UNL     1      17.938  17.249  47.289  1.00  0.00     0.000 C 
BRANCH   9  10
ATOM     10  C   UNL     1      16.696  16.360  47.086  1.00  0.00     0.006 C 
BRANCH  10  11
ATOM     11  C   UNL     1      16.856  15.288  45.994  1.00  0.00     0.053 C 
BRANCH  11  12
ATOM     12  C   UNL     1      16.140  14.020  46.349  1.00  0.00     0.041 C 
ATOM     13  O   UNL     1      14.920  14.047  46.662  1.00  0.00    -0.550 OA
ATOM     14  O   UNL     1      16.831  12.816  46.379  1.00  0.00    -0.550 OA
ENDBRANCH  11  12
ENDBRANCH  10  11
ENDBRANCH   9  10
ENDBRANCH   8   9
ENDBRANCH   7   8
ENDBRANCH   6   7
ENDBRANCH   5   6
ENDBRANCH   4   5
ENDBRANCH   3   4
ENDBRANCH   2   3
ENDBRANCH   1   2
BRANCH   1  15
ATOM     15  C   UNL     1      19.120  20.543  44.721  1.00  0.00     0.000 C 
BRANCH  15  16
ATOM     16  C   UNL     1      18.868  19.529  43.584  1.00  0.00     0.000 C 
BRANCH  16  17
ATOM     17  C   UNL     1      17.772  18.495  43.899  1.00  0.00     0.000 C 
BRANCH  17  18
ATOM     18  C   UNL     1      16.805  18.191  42.739  1.00  0.00    -0.000 C 
BRANCH  18  19
ATOM     19  C   UNL     1      15.349  17.896  43.158  1.00  0.00    -0.000 C 
BRANCH  19  20
ATOM     20  C   UNL     1      14.904  18.549  44.478  1.00  0.00    -0.000 C 
BRANCH  20  21
ATOM     21  C   UNL     1      13.498  19.162  44.394  1.00  0.00    -0.000 C 
BRANCH  21  22
ATOM     22  C   UNL     1      13.489  20.391  43.477  1.00  0.00    -0.000 C 
BRANCH  22  23
ATOM     23  C   UNL     1      14.604  21.375  43.862  1.00  0.00    -0.000 C 
BRANCH  23  24
ATOM     24  C   UNL     1      15.101  22.213  42.670  1.00  0.00    -0.000 C 
BRANCH  24  25
ATOM     25  C   UNL     1      16.490  21.819  42.135  1.00  0.00    -0.003 C 
ATOM     26  C   UNL     1      17.542  22.910  42.340  1.00  0.00     0.004 C 
ENDBRANCH  24  25
ENDBRANCH  23  24
ENDBRANCH  22  23
ENDBRANCH  21  22
ENDBRANCH  20  21
ENDBRANCH  19  20
ENDBRANCH  18  19
ENDBRANCH  17  18
ENDBRANCH  16  17
ENDBRANCH  15  16
ENDBRANCH   1  15
TORSDOF 22
ENDMDL
MODEL 4
REMARK VINA RESULT:    -4.707      1.696      3.843
REMARK INTER + INTRA:         -14.703
REMARK INTER:                 -10.995
REMARK INTRA:                  -3.708
REMARK UNBOUND:                -3.943
REMARK SMILES CCCCCCCCCCCCCCCCCCCCCCCC(=O)[O-]
REMARK SMILES IDX 13 1 14 2 15 3 16 4 17 5 18 6 19 7 20 8 21 9 22 10 23 11
REMARK SMILES IDX 24 12 25 13 26 14 12 15 11 16 10 17 9 18 8 19 7 20 6 21 5 22
REMARK SMILES IDX 4 23 3 24 2 25 1 26
REMARK H PARENT
REMARK Flexibility Score: inf
ROOT
ATOM      1  C   UNL     1      20.318  17.052  47.219  1.00  0.00     0.000 C 
ENDROOT
BRANCH   1   2
ATOM      2  C   UNL     1      21.229  18.182  47.722  1.00  0.00     0.000 C 
BRANCH   2   3
ATOM      3  C   UNL     1      20.611  18.964  48.895  1.00  0.00     0.000 C 
BRANCH   3   4
ATOM      4  C   UNL     1      20.349  20.439  48.550  1.00  0.00     0.000 C 
BRANCH   4   5
ATOM      5  C   UNL     1      18.848  20.766  48.456  1.00  0.00     0.000 C 
BRANCH   5   6
ATOM      6  C   UNL     1      18.316  20.683  47.015  1.00  0.00     0.000 C 
BRANCH   6   7
ATOM      7  C   UNL     1      19.409  20.946  45.964  1.00  0.00     0.000 C 
BRANCH   7   8
ATOM      8  C   UNL     1      19.558  19.774  44.969  1.00  0.00     0.000 C 
BRANCH   8   9
ATOM      9  C   UNL     1      18.660  19.897  43.722  1.00  0.00     0.000 C 
BRANCH   9  10
ATOM     10  C   UNL     1      17.280  19.222  43.844  1.00  0.00     0.006 C 
BRANCH  10  11
ATOM     11  C   UNL     1      16.252  19.687  42.798  1.00  0.00     0.053 C 
BRANCH  11  12
ATOM     12  C   UNL     1      15.186  20.545  43.409  1.00  0.00     0.041 C 
ATOM     13  O   UNL     1      15.376  21.781  43.559  1.00  0.00    -0.550 OA
ATOM     14  O   UNL     1      14.002  19.971  43.853  1.00  0.00    -0.550 OA
ENDBRANCH  11  12
ENDBRANCH  10  11
ENDBRANCH   9  10
ENDBRANCH   8   9
ENDBRANCH   7   8
ENDBRANCH   6   7
ENDBRANCH   5   6
ENDBRANCH   4   5
ENDBRANCH   3   4
ENDBRANCH   2   3
ENDBRANCH   1   2
BRANCH   1  15
ATOM     15  C   UNL     1      18.901  17.122  47.818  1.00  0.00     0.000 C 
BRANCH  15  16
ATOM     16  C   UNL     1      17.794  16.943  46.757  1.00  0.00     0.000 C 
BRANCH  16  17
ATOM     17  C   UNL     1      18.155  15.949  45.637  1.00  0.00     0.000 C 
BRANCH  17  18
ATOM     18  C   UNL     1      17.439  14.587  45.713  1.00  0.00    -0.000 C 
BRANCH  18  19
ATOM     19  C   UNL     1      18.370  13.357  45.750  1.00  0.00    -0.000 C 
BRANCH  19  20
ATOM     20  C   UNL     1      19.682  13.554  46.529  1.00  0.00    -0.000 C 
BRANCH  20  21
ATOM     21  C   UNL     1      20.530  12.275  46.598  1.00  0.00    -0.000 C 
BRANCH  21  22
ATOM     22  C   UNL     1      21.855  12.535  47.325  1.00  0.00    -0.000 C 
BRANCH  22  23
ATOM     23  C   UNL     1      21.824  13.879  48.067  1.00  0.00    -0.000 C 
BRANCH  23  24
ATOM     24  C   UNL     1      23.190  14.588  48.081  1.00  0.00    -0.000 C 
BRANCH  24  25
ATOM     25  C   UNL     1      23.359  15.649  49.184  1.00  0.00    -0.003 C 
ATOM     26  C   UNL     1      22.262  15.587  50.247  1.00  0.00     0.004 C 
ENDBRANCH  24  25
ENDBRANCH  23  24
ENDBRANCH  22  23
ENDBRANCH  21  22
ENDBRANCH  20  21
ENDBRANCH  19  20
ENDBRANCH  18  19
ENDBRANCH  17  18
ENDBRANCH  16  17
ENDBRANCH  15  16
ENDBRANCH   1  15
TORSDOF 22
ENDMDL
MODEL 5
REMARK VINA RESULT:    -4.682      1.691      3.756
REMARK INTER + INTRA:         -14.647
REMARK INTER:                 -11.006
REMARK INTRA:                  -3.641
REMARK UNBOUND:                -3.943
REMARK SMILES CCCCCCCCCCCCCCCCCCCCCCCC(=O)[O-]
REMARK SMILES IDX 13 1 14 2 15 3 16 4 17 5 18 6 19 7 20 8 21 9 22 10 23 11
REMARK SMILES IDX 24 12 25 13 26 14 12 15 11 16 10 17 9 18 8 19 7 20 6 21 5 22
REMARK SMILES IDX 4 23 3 24 2 25 1 26
REMARK H PARENT
REMARK Flexibility Score: inf
ROOT
ATOM      1  C   UNL     1      18.771  16.759  46.172  1.00  0.00     0.000 C 
ENDROOT
BRANCH   1   2
ATOM      2  C   UNL     1      20.050  16.241  46.848  1.00  0.00     0.000 C 
BRANCH   2   3
ATOM      3  C   UNL     1      20.227  16.786  48.277  1.00  0.00     0.000 C 
BRANCH   3   4
ATOM      4  C   UNL     1      21.090  18.057  48.323  1.00  0.00     0.000 C 
BRANCH   4   5
ATOM      5  C   UNL     1      20.740  18.965  49.514  1.00  0.00     0.000 C 
BRANCH   5   6
ATOM      6  C   UNL     1      19.818  20.130  49.116  1.00  0.00     0.000 C 
BRANCH   6   7
ATOM      7  C   UNL     1      19.968  20.526  47.637  1.00  0.00     0.000 C 
BRANCH   7   8
ATOM      8  C   UNL     1      18.641  21.035  47.030  1.00  0.00     0.000 C 
BRANCH   8   9
ATOM      9  C   UNL     1      18.667  21.165  45.494  1.00  0.00     0.000 C 
BRANCH   9  10
ATOM     10  C   UNL     1      19.232  19.942  44.747  1.00  0.00     0.006 C 
BRANCH  10  11
ATOM     11  C   UNL     1      18.624  19.715  43.351  1.00  0.00     0.053 C 
BRANCH  11  12
ATOM     12  C   UNL     1      17.476  18.753  43.393  1.00  0.00     0.041 C 
ATOM     13  O   UNL     1      16.455  19.014  44.083  1.00  0.00    -0.550 OA
ATOM     14  O   UNL     1      17.554  17.548  42.707  1.00  0.00    -0.550 OA
ENDBRANCH  11  12
ENDBRANCH  10  11
ENDBRANCH   9  10
ENDBRANCH   8   9
ENDBRANCH   7   8
ENDBRANCH   6   7
ENDBRANCH   5   6
ENDBRANCH   4   5
ENDBRANCH   3   4
ENDBRANCH   2   3
ENDBRANCH   1   2
BRANCH   1  15
ATOM     15  C   UNL     1      17.730  17.268  47.185  1.00  0.00     0.000 C 
BRANCH  15  16
ATOM     16  C   UNL     1      16.475  16.370  47.255  1.00  0.00     0.000 C 
BRANCH  16  17
ATOM     17  C   UNL     1      15.764  16.183  45.902  1.00  0.00     0.000 C 
BRANCH  17  18
ATOM     18  C   UNL     1      15.748  14.740  45.363  1.00  0.00    -0.000 C 
BRANCH  18  19
ATOM     19  C   UNL     1      15.792  13.637  46.441  1.00  0.00    -0.000 C 
BRANCH  19  20
ATOM     20  C   UNL     1      17.042  12.741  46.408  1.00  0.00    -0.000 C 
BRANCH  20  21
ATOM     21  C   UNL     1      18.132  13.275  45.465  1.00  0.00    -0.000 C 
BRANCH  21  22
ATOM     22  C   UNL     1      19.479  12.596  45.744  1.00  0.00    -0.000 C 
BRANCH  22  23
ATOM     23  C   UNL     1      19.424  11.773  47.040  1.00  0.00    -0.000 C 
BRANCH  23  24
ATOM     24  C   UNL     1      20.618  12.046  47.973  1.00  0.00    -0.000 C 
BRANCH  24  25
ATOM     25  C   UNL     1      21.812  12.756  47.309  1.00  0.00    -0.003 C 
ATOM     26  C   UNL     1      22.453  13.815  48.207  1.00  0.00     0.004 C 
ENDBRANCH  24  25
ENDBRANCH  23  24
ENDBRANCH  22  23
ENDBRANCH  21  22
ENDBRANCH  20  21
ENDBRANCH  19  20
ENDBRANCH  18  19
ENDBRANCH  17  18
ENDBRANCH  16  17
ENDBRANCH  15  16
ENDBRANCH   1  15
TORSDOF 22
ENDMDL
MODEL 6
REMARK VINA RESULT:    -4.671      4.650      8.426
REMARK INTER + INTRA:         -14.622
REMARK INTER:                 -11.303
REMARK INTRA:                  -3.319
REMARK UNBOUND:                -3.943
REMARK SMILES CCCCCCCCCCCCCCCCCCCCCCCC(=O)[O-]
REMARK SMILES IDX 13 1 14 2 15 3 16 4 17 5 18 6 19 7 20 8 21 9 22 10 23 11
REMARK SMILES IDX 24 12 25 13 26 14 12 15 11 16 10 17 9 18 8 19 7 20 6 21 5 22
REMARK SMILES IDX 4 23 3 24 2 25 1 26
REMARK H PARENT
REMARK Flexibility Score: inf
ROOT
ATOM      1  C   UNL     1      16.388  15.674  46.286  1.00  0.00     0.000 C 
ENDROOT
BRANCH   1   2
ATOM      2  C   UNL     1      16.621  17.074  46.877  1.00  0.00     0.000 C 
BRANCH   2   3
ATOM      3  C   UNL     1      18.047  17.253  47.429  1.00  0.00     0.000 C 
BRANCH   3   4
ATOM      4  C   UNL     1      19.127  16.748  46.458  1.00  0.00     0.000 C 
BRANCH   4   5
ATOM      5  C   UNL     1      20.297  16.060  47.182  1.00  0.00     0.000 C 
BRANCH   5   6
ATOM      6  C   UNL     1      21.391  17.053  47.611  1.00  0.00     0.000 C 
BRANCH   6   7
ATOM      7  C   UNL     1      21.502  17.189  49.139  1.00  0.00     0.000 C 
BRANCH   7   8
ATOM      8  C   UNL     1      21.668  15.821  49.837  1.00  0.00     0.000 C 
BRANCH   8   9
ATOM      9  C   UNL     1      22.953  15.069  49.437  1.00  0.00     0.000 C 
BRANCH   9  10
ATOM     10  C   UNL     1      24.251  15.623  50.056  1.00  0.00     0.006 C 
BRANCH  10  11
ATOM     11  C   UNL     1      25.025  14.611  50.918  1.00  0.00     0.053 C 
BRANCH  11  12
ATOM     12  C   UNL     1      26.202  14.042  50.186  1.00  0.00     0.041 C 
ATOM     13  O   UNL     1      27.339  14.024  50.730  1.00  0.00    -0.550 OA
ATOM     14  O   UNL     1      26.054  13.573  48.887  1.00  0.00    -0.550 OA
ENDBRANCH  11  12
ENDBRANCH  10  11
ENDBRANCH   9  10
ENDBRANCH   8   9
ENDBRANCH   7   8
ENDBRANCH   6   7
ENDBRANCH   5   6
ENDBRANCH   4   5
ENDBRANCH   3   4
ENDBRANCH   2   3
ENDBRANCH   1   2
BRANCH   1  15
ATOM     15  C   UNL     1      15.090  15.589  45.463  1.00  0.00     0.000 C 
BRANCH  15  16
ATOM     16  C   UNL     1      15.234  16.206  44.054  1.00  0.00     0.000 C 
BRANCH  16  17
ATOM     17  C   UNL     1      16.614  15.979  43.410  1.00  0.00     0.000 C 
BRANCH  17  18
ATOM     18  C   UNL     1      17.281  17.239  42.828  1.00  0.00    -0.000 C 
BRANCH  18  19
ATOM     19  C   UNL     1      16.791  18.576  43.423  1.00  0.00    -0.000 C 
BRANCH  19  20
ATOM     20  C   UNL     1      17.837  19.346  44.248  1.00  0.00    -0.000 C 
BRANCH  20  21
ATOM     21  C   UNL     1      17.319  20.704  44.746  1.00  0.00    -0.000 C 
BRANCH  21  22
ATOM     22  C   UNL     1      18.240  21.277  45.830  1.00  0.00    -0.000 C 
BRANCH  22  23
ATOM     23  C   UNL     1      19.622  20.609  45.791  1.00  0.00    -0.000 C 
BRANCH  23  24
ATOM     24  C   UNL     1      20.191  20.325  47.194  1.00  0.00    -0.000 C 
BRANCH  24  25
ATOM     25  C   UNL     1      19.226  20.622  48.356  1.00  0.00    -0.003 C 
ATOM     26  C   UNL     1      19.920  20.648  49.718  1.00  0.00     0.004 C 
ENDBRANCH  24  25
ENDBRANCH  23  24
ENDBRANCH  22  23
ENDBRANCH  21  22
ENDBRANCH  20  21
ENDBRANCH  19  20
ENDBRANCH  18  19
ENDBRANCH  17  18
ENDBRANCH  16  17
ENDBRANCH  15  16
ENDBRANCH   1  15
TORSDOF 22
ENDMDL
MODEL 7
REMARK VINA RESULT:    -4.650      4.016      7.355
REMARK INTER + INTRA:         -14.572
REMARK INTER:                 -11.237
REMARK INTRA:                  -3.335
REMARK UNBOUND:                -3.943
REMARK SMILES CCCCCCCCCCCCCCCCCCCCCCCC(=O)[O-]
REMARK SMILES IDX 13 1 14 2 15 3 16 4 17 5 18 6 19 7 20 8 21 9 22 10 23 11
REMARK SMILES IDX 24 12 25 13 26 14 12 15 11 16 10 17 9 18 8 19 7 20 6 21 5 22
REMARK SMILES IDX 4 23 3 24 2 25 1 26
REMARK H PARENT
REMARK Flexibility Score: inf
ROOT
ATOM      1  C   UNL     1      21.419  18.510  47.252  1.00  0.00     0.000 C 
ENDROOT
BRANCH   1   2
ATOM      2  C   UNL     1      20.688  17.168  47.408  1.00  0.00     0.000 C 
BRANCH   2   3
ATOM      3  C   UNL     1      21.051  16.445  48.718  1.00  0.00     0.000 C 
BRANCH   3   4
ATOM      4  C   UNL     1      21.070  17.389  49.931  1.00  0.00     0.000 C 
BRANCH   4   5
ATOM      5  C   UNL     1      21.400  16.658  51.244  1.00  0.00     0.000 C 
BRANCH   5   6
ATOM      6  C   UNL     1      22.211  15.371  51.014  1.00  0.00     0.000 C 
BRANCH   6   7
ATOM      7  C   UNL     1      23.702  15.541  51.353  1.00  0.00     0.000 C 
BRANCH   7   8
ATOM      8  C   UNL     1      24.597  15.495  50.095  1.00  0.00     0.000 C 
BRANCH   8   9
ATOM      9  C   UNL     1      24.550  14.149  49.345  1.00  0.00     0.000 C 
BRANCH   9  10
ATOM     10  C   UNL     1      23.937  14.211  47.933  1.00  0.00     0.006 C 
BRANCH  10  11
ATOM     11  C   UNL     1      23.874  12.855  47.209  1.00  0.00     0.053 C 
BRANCH  11  12
ATOM     12  C   UNL     1      22.462  12.412  46.976  1.00  0.00     0.041 C 
ATOM     13  O   UNL     1      22.227  11.305  46.423  1.00  0.00    -0.550 OA
ATOM     14  O   UNL     1      21.406  13.243  47.328  1.00  0.00    -0.550 OA
ENDBRANCH  11  12
ENDBRANCH  10  11
ENDBRANCH   9  10
ENDBRANCH   8   9
ENDBRANCH   7   8
ENDBRANCH   6   7
ENDBRANCH   5   6
ENDBRANCH   4   5
ENDBRANCH   3   4
ENDBRANCH   2   3
ENDBRANCH   1   2
BRANCH   1  15
ATOM     15  C   UNL     1      20.479  19.650  46.822  1.00  0.00     0.000 C 
BRANCH  15  16
ATOM     16  C   UNL     1      19.302  19.854  47.801  1.00  0.00     0.000 C 
BRANCH  16  17
ATOM     17  C   UNL     1      18.349  20.998  47.405  1.00  0.00     0.000 C 
BRANCH  17  18
ATOM     18  C   UNL     1      18.603  21.610  46.014  1.00  0.00    -0.000 C 
BRANCH  18  19
ATOM     19  C   UNL     1      17.347  21.782  45.133  1.00  0.00    -0.000 C 
BRANCH  19  20
ATOM     20  C   UNL     1      17.459  21.195  43.715  1.00  0.00    -0.000 C 
BRANCH  20  21
ATOM     21  C   UNL     1      18.540  20.110  43.604  1.00  0.00    -0.000 C 
BRANCH  21  22
ATOM     22  C   UNL     1      17.909  18.727  43.399  1.00  0.00    -0.000 C 
BRANCH  22  23
ATOM     23  C   UNL     1      18.029  17.871  44.669  1.00  0.00    -0.000 C 
BRANCH  23  24
ATOM     24  C   UNL     1      16.815  18.015  45.605  1.00  0.00    -0.000 C 
BRANCH  24  25
ATOM     25  C   UNL     1      16.917  17.229  46.925  1.00  0.00    -0.003 C 
ATOM     26  C   UNL     1      16.206  15.877  46.873  1.00  0.00     0.004 C 
ENDBRANCH  24  25
ENDBRANCH  23  24
ENDBRANCH  22  23
ENDBRANCH  21  22
ENDBRANCH  20  21
ENDBRANCH  19  20
ENDBRANCH  18  19
ENDBRANCH  17  18
ENDBRANCH  16  17
ENDBRANCH  15  16
ENDBRANCH   1  15
TORSDOF 22
ENDMDL
MODEL 8
REMARK VINA RESULT:    -4.644      1.696      4.670
REMARK INTER + INTRA:         -14.559
REMARK INTER:                 -10.051
REMARK INTRA:                  -4.509
REMARK UNBOUND:                -3.943
REMARK SMILES CCCCCCCCCCCCCCCCCCCCCCCC(=O)[O-]
REMARK SMILES IDX 13 1 14 2 15 3 16 4 17 5 18 6 19 7 20 8 21 9 22 10 23 11
REMARK SMILES IDX 24 12 25 13 26 14 12 15 11 16 10 17 9 18 8 19 7 20 6 21 5 22
REMARK SMILES IDX 4 23 3 24 2 25 1 26
REMARK H PARENT
REMARK Flexibility Score: inf
ROOT
ATOM      1  C   UNL     1      16.225  16.360  46.900  1.00  0.00     0.000 C 
ENDROOT
BRANCH   1   2
ATOM      2  C   UNL     1      17.622  16.930  47.188  1.00  0.00     0.000 C 
BRANCH   2   3
ATOM      3  C   UNL     1      18.688  16.414  46.204  1.00  0.00     0.000 C 
BRANCH   3   4
ATOM      4  C   UNL     1      19.998  16.018  46.903  1.00  0.00     0.000 C 
BRANCH   4   5
ATOM      5  C   UNL     1      20.374  16.981  48.043  1.00  0.00     0.000 C 
BRANCH   5   6
ATOM      6  C   UNL     1      21.519  17.934  47.656  1.00  0.00     0.000 C 
BRANCH   6   7
ATOM      7  C   UNL     1      21.016  19.218  46.974  1.00  0.00     0.000 C 
BRANCH   7   8
ATOM      8  C   UNL     1      19.847  19.870  47.746  1.00  0.00     0.000 C 
BRANCH   8   9
ATOM      9  C   UNL     1      18.878  20.668  46.850  1.00  0.00     0.000 C 
BRANCH   9  10
ATOM     10  C   UNL     1      18.628  20.059  45.457  1.00  0.00     0.006 C 
BRANCH  10  11
ATOM     11  C   UNL     1      18.769  21.056  44.294  1.00  0.00     0.053 C 
BRANCH  11  12
ATOM     12  C   UNL     1      17.464  21.285  43.595  1.00  0.00     0.041 C 
ATOM     13  O   UNL     1      17.424  21.364  42.338  1.00  0.00    -0.550 OA
ATOM     14  O   UNL     1      16.301  21.457  44.333  1.00  0.00    -0.550 OA
ENDBRANCH  11  12
ENDBRANCH  10  11
ENDBRANCH   9  10
ENDBRANCH   8   9
ENDBRANCH   7   8
ENDBRANCH   6   7
ENDBRANCH   5   6
ENDBRANCH   4   5
ENDBRANCH   3   4
ENDBRANCH   2   3
ENDBRANCH   1   2
BRANCH   1  15
ATOM     15  C   UNL     1      16.273  14.912  46.378  1.00  0.00     0.000 C 
BRANCH  15  16
ATOM     16  C   UNL     1      14.880  14.372  45.987  1.00  0.00     0.000 C 
BRANCH  16  17
ATOM     17  C   UNL     1      14.889  13.461  44.745  1.00  0.00     0.000 C 
BRANCH  17  18
ATOM     18  C   UNL     1      16.117  13.614  43.828  1.00  0.00    -0.000 C 
BRANCH  18  19
ATOM     19  C   UNL     1      15.822  14.180  42.423  1.00  0.00    -0.000 C 
BRANCH  19  20
ATOM     20  C   UNL     1      15.682  15.711  42.352  1.00  0.00    -0.000 C 
BRANCH  20  21
ATOM     21  C   UNL     1      16.877  16.447  42.977  1.00  0.00    -0.000 C 
BRANCH  21  22
ATOM     22  C   UNL     1      16.460  17.831  43.490  1.00  0.00    -0.000 C 
BRANCH  22  23
ATOM     23  C   UNL     1      14.980  18.109  43.189  1.00  0.00    -0.000 C 
BRANCH  23  24
ATOM     24  C   UNL     1      14.206  18.625  44.416  1.00  0.00    -0.000 C 
BRANCH  24  25
ATOM     25  C   UNL     1      13.281  17.589  45.081  1.00  0.00    -0.003 C 
ATOM     26  C   UNL     1      12.594  16.667  44.074  1.00  0.00     0.004 C 
ENDBRANCH  24  25
ENDBRANCH  23  24
ENDBRANCH  22  23
ENDBRANCH  21  22
ENDBRANCH  20  21
ENDBRANCH  19  20
ENDBRANCH  18  19
ENDBRANCH  17  18
ENDBRANCH  16  17
ENDBRANCH  15  16
ENDBRANCH   1  15
TORSDOF 22
ENDMDL
MODEL 9
REMARK VINA RESULT:    -4.605      2.679      5.541
REMARK INTER + INTRA:         -14.471
REMARK INTER:                 -10.509
REMARK INTRA:                  -3.963
REMARK UNBOUND:                -3.943
REMARK SMILES CCCCCCCCCCCCCCCCCCCCCCCC(=O)[O-]
REMARK SMILES IDX 13 1 14 2 15 3 16 4 17 5 18 6 19 7 20 8 21 9 22 10 23 11
REMARK SMILES IDX 24 12 25 13 26 14 12 15 11 16 10 17 9 18 8 19 7 20 6 21 5 22
REMARK SMILES IDX 4 23 3 24 2 25 1 26
REMARK H PARENT
REMARK Flexibility Score: inf
ROOT
ATOM      1  C   UNL     1      18.375  21.076  47.361  1.00  0.00     0.000 C 
ENDROOT
BRANCH   1   2
ATOM      2  C   UNL     1      19.806  20.542  47.533  1.00  0.00     0.000 C 
BRANCH   2   3
ATOM      3  C   UNL     1      20.055  19.955  48.933  1.00  0.00     0.000 C 
BRANCH   3   4
ATOM      4  C   UNL     1      20.714  18.567  48.886  1.00  0.00     0.000 C 
BRANCH   4   5
ATOM      5  C   UNL     1      20.910  18.055  47.448  1.00  0.00     0.000 C 
BRANCH   5   6
ATOM      6  C   UNL     1      20.736  16.531  47.336  1.00  0.00     0.000 C 
BRANCH   6   7
ATOM      7  C   UNL     1      19.414  16.134  46.655  1.00  0.00     0.000 C 
BRANCH   7   8
ATOM      8  C   UNL     1      18.723  17.336  45.975  1.00  0.00     0.000 C 
BRANCH   8   9
ATOM      9  C   UNL     1      17.304  17.622  46.507  1.00  0.00     0.000 C 
BRANCH   9  10
ATOM     10  C   UNL     1      16.610  16.425  47.185  1.00  0.00     0.006 C 
BRANCH  10  11
ATOM     11  C   UNL     1      15.522  15.755  46.328  1.00  0.00     0.053 C 
BRANCH  11  12
ATOM     12  C   UNL     1      15.925  14.379  45.891  1.00  0.00     0.041 C 
ATOM     13  O   UNL     1      16.948  14.216  45.174  1.00  0.00    -0.550 OA
ATOM     14  O   UNL     1      15.147  13.283  46.239  1.00  0.00    -0.550 OA
ENDBRANCH  11  12
ENDBRANCH  10  11
ENDBRANCH   9  10
ENDBRANCH   8   9
ENDBRANCH   7   8
ENDBRANCH   6   7
ENDBRANCH   5   6
ENDBRANCH   4   5
ENDBRANCH   3   4
ENDBRANCH   2   3
ENDBRANCH   1   2
BRANCH   1  15
ATOM     15  C   UNL     1      17.998  21.295  45.885  1.00  0.00     0.000 C 
BRANCH  15  16
ATOM     16  C   UNL     1      19.092  20.805  44.910  1.00  0.00     0.000 C 
BRANCH  16  17
ATOM     17  C   UNL     1      18.721  20.961  43.423  1.00  0.00     0.000 C 
BRANCH  17  18
ATOM     18  C   UNL     1      17.687  22.061  43.118  1.00  0.00    -0.000 C 
BRANCH  18  19
ATOM     19  C   UNL     1      16.377  21.569  42.467  1.00  0.00    -0.000 C 
BRANCH  19  20
ATOM     20  C   UNL     1      15.308  21.064  43.452  1.00  0.00    -0.000 C 
BRANCH  20  21
ATOM     21  C   UNL     1      15.415  19.556  43.725  1.00  0.00    -0.000 C 
BRANCH  21  22
ATOM     22  C   UNL     1      15.843  18.800  42.462  1.00  0.00    -0.000 C 
BRANCH  22  23
ATOM     23  C   UNL     1      16.656  17.546  42.818  1.00  0.00    -0.000 C 
BRANCH  23  24
ATOM     24  C   UNL     1      15.942  16.239  42.429  1.00  0.00    -0.000 C 
BRANCH  24  25
ATOM     25  C   UNL     1      14.588  16.426  41.720  1.00  0.00    -0.003 C 
ATOM     26  C   UNL     1      14.662  16.174  40.214  1.00  0.00     0.004 C 
ENDBRANCH  24  25
ENDBRANCH  23  24
ENDBRANCH  22  23
ENDBRANCH  21  22
ENDBRANCH  20  21
ENDBRANCH  19  20
ENDBRANCH  18  19
ENDBRANCH  17  18
ENDBRANCH  16  17
ENDBRANCH  15  16
ENDBRANCH   1  15
TORSDOF 22
ENDMDL
