MODEL 1
REMARK VINA RESULT:    -3.816      0.000      0.000
REMARK INTER + INTRA:          -5.559
REMARK INTER:                  -5.155
REMARK INTRA:                  -0.404
REMARK UNBOUND:                -0.404
REMARK SMILES CCCCCCCC(=O)[O-]
REMARK SMILES IDX 5 1 6 2 7 3 8 4 9 5 10 6 4 7 3 8 2 9 1 10
REMARK H PARENT
REMARK Flexibility Score: inf
ROOT
ATOM      1  C   UNL     1      59.946  -3.151  82.201  1.00  0.00     0.000 C 
ENDROOT
BRANCH   1   2
ATOM      2  C   UNL     1      60.149  -3.951  83.498  1.00  0.00     0.006 C 
BRANCH   2   3
ATOM      3  C   UNL     1      59.523  -5.350  83.435  1.00  0.00     0.053 C 
BRANCH   3   4
ATOM      4  C   UNL     1      58.272  -5.399  84.256  1.00  0.00     0.041 C 
ATOM      5  O   UNL     1      57.274  -4.705  83.931  1.00  0.00    -0.550 OA
ATOM      6  O   UNL     1      58.227  -6.174  85.409  1.00  0.00    -0.550 OA
ENDBRANCH   3   4
ENDBRANCH   2   3
ENDBRANCH   1   2
BRANCH   1   7
ATOM      7  C   UNL     1      60.031  -1.631  82.425  1.00  0.00     0.000 C 
BRANCH   7   8
ATOM      8  C   UNL     1      60.175  -1.261  83.910  1.00  0.00    -0.000 C 
BRANCH   8   9
ATOM      9  C   UNL     1      59.068  -0.314  84.396  1.00  0.00    -0.003 C 
ATOM     10  C   UNL     1      57.692  -0.958  84.250  1.00  0.00     0.004 C 
ENDBRANCH   8   9
ENDBRANCH   7   8
ENDBRANCH   1   7
TORSDOF 6
ENDMDL
MODEL 2
REMARK VINA RESULT:    -3.751      1.388      1.838
REMARK INTER + INTRA:          -5.471
REMARK INTER:                  -5.023
REMARK INTRA:                  -0.448
REMARK UNBOUND:                -0.404
REMARK SMILES CCCCCCCC(=O)[O-]
REMARK SMILES IDX 5 1 6 2 7 3 8 4 9 5 10 6 4 7 3 8 2 9 1 10
REMARK H PARENT
REMARK Flexibility Score: inf
ROOT
ATOM      1  C   UNL     1      60.375  -2.068  83.473  1.00  0.00     0.000 C 
ENDROOT
BRANCH   1   2
ATOM      2  C   UNL     1      59.635  -3.378  83.155  1.00  0.00     0.006 C 
BRANCH   2   3
ATOM      3  C   UNL     1      58.340  -3.150  82.367  1.00  0.00     0.053 C 
BRANCH   3   4
ATOM      4  C   UNL     1      57.183  -3.792  83.066  1.00  0.00     0.041 C 
ATOM      5  O   UNL     1      56.004  -3.524  82.718  1.00  0.00    -0.550 OA
ATOM      6  O   UNL     1      57.407  -4.650  84.136  1.00  0.00    -0.550 OA
ENDBRANCH   3   4
ENDBRANCH   2   3
ENDBRANCH   1   2
BRANCH   1   7
ATOM      7  C   UNL     1      59.428  -0.859  83.553  1.00  0.00     0.000 C 
BRANCH   7   8
ATOM      8  C   UNL     1      59.355  -0.258  84.965  1.00  0.00    -0.000 C 
BRANCH   8   9
ATOM      9  C   UNL     1      57.956   0.272  85.313  1.00  0.00    -0.003 C 
ATOM     10  C   UNL     1      56.871  -0.549  84.624  1.00  0.00     0.004 C 
ENDBRANCH   8   9
ENDBRANCH   7   8
ENDBRANCH   1   7
TORSDOF 6
ENDMDL
MODEL 3
REMARK VINA RESULT:    -3.735      2.311      2.963
REMARK INTER + INTRA:          -5.449
REMARK INTER:                  -5.009
REMARK INTRA:                  -0.440
REMARK UNBOUND:                -0.404
REMARK SMILES CCCCCCCC(=O)[O-]
REMARK SMILES IDX 5 1 6 2 7 3 8 4 9 5 10 6 4 7 3 8 2 9 1 10
REMARK H PARENT
REMARK Flexibility Score: inf
ROOT
ATOM      1  C   UNL     1      57.559  -4.444  84.060  1.00  0.00     0.000 C 
ENDROOT
BRANCH   1   2
ATOM      2  C   UNL     1      58.674  -5.383  83.571  1.00  0.00     0.006 C 
BRANCH   2   3
ATOM      3  C   UNL     1      60.069  -4.925  84.013  1.00  0.00     0.053 C 
BRANCH   3   4
ATOM      4  C   UNL     1      60.940  -4.679  82.821  1.00  0.00     0.041 C 
ATOM      5  O   UNL     1      60.719  -3.697  82.066  1.00  0.00    -0.550 OA
ATOM      6  O   UNL     1      61.966  -5.565  82.515  1.00  0.00    -0.550 OA
ENDBRANCH   3   4
ENDBRANCH   2   3
ENDBRANCH   1   2
BRANCH   1   7
ATOM      7  C   UNL     1      57.278  -3.297  83.074  1.00  0.00     0.000 C 
BRANCH   7   8
ATOM      8  C   UNL     1      57.350  -1.915  83.741  1.00  0.00    -0.000 C 
BRANCH   8   9
ATOM      9  C   UNL     1      58.753  -1.293  83.668  1.00  0.00    -0.003 C 
ATOM     10  C   UNL     1      58.945  -0.242  84.758  1.00  0.00     0.004 C 
ENDBRANCH   8   9
ENDBRANCH   7   8
ENDBRANCH   1   7
TORSDOF 6
ENDMDL
MODEL 4
REMARK VINA RESULT:    -3.685      2.700      4.494
REMARK INTER + INTRA:          -5.382
REMARK INTER:                  -4.884
REMARK INTRA:                  -0.498
REMARK UNBOUND:                -0.404
REMARK SMILES CCCCCCCC(=O)[O-]
REMARK SMILES IDX 5 1 6 2 7 3 8 4 9 5 10 6 4 7 3 8 2 9 1 10
REMARK H PARENT
REMARK Flexibility Score: inf
ROOT
ATOM      1  C   UNL     1      57.357  -2.249  83.780  1.00  0.00     0.000 C 
ENDROOT
BRANCH   1   2
ATOM      2  C   UNL     1      58.714  -1.657  83.365  1.00  0.00     0.006 C 
BRANCH   2   3
ATOM      3  C   UNL     1      59.172  -2.136  81.982  1.00  0.00     0.053 C 
BRANCH   3   4
ATOM      4  C   UNL     1      60.661  -2.047  81.865  1.00  0.00     0.041 C 
ATOM      5  O   UNL     1      61.185  -1.281  81.015  1.00  0.00    -0.550 OA
ATOM      6  O   UNL     1      61.470  -2.847  82.661  1.00  0.00    -0.550 OA
ENDBRANCH   3   4
ENDBRANCH   2   3
ENDBRANCH   1   2
BRANCH   1   7
ATOM      7  C   UNL     1      57.107  -3.638  83.168  1.00  0.00     0.000 C 
BRANCH   7   8
ATOM      8  C   UNL     1      57.619  -4.779  84.062  1.00  0.00    -0.000 C 
BRANCH   8   9
ATOM      9  C   UNL     1      58.874  -5.459  83.496  1.00  0.00    -0.003 C 
ATOM     10  C   UNL     1      60.023  -5.413  84.499  1.00  0.00     0.004 C 
ENDBRANCH   8   9
ENDBRANCH   7   8
ENDBRANCH   1   7
TORSDOF 6
ENDMDL
MODEL 5
REMARK VINA RESULT:    -3.656     13.555     14.465
REMARK INTER + INTRA:          -5.342
REMARK INTER:                  -4.854
REMARK INTRA:                  -0.488
REMARK UNBOUND:                -0.404
REMARK SMILES CCCCCCCC(=O)[O-]
REMARK SMILES IDX 5 1 6 2 7 3 8 4 9 5 10 6 4 7 3 8 2 9 1 10
REMARK H PARENT
REMARK Flexibility Score: inf
ROOT
ATOM      1  C   UNL     1      51.498  -2.874  73.333  1.00  0.00     0.000 C 
ENDROOT
BRANCH   1   2
ATOM      2  C   UNL     1      52.298  -1.565  73.424  1.00  0.00     0.006 C 
BRANCH   2   3
ATOM      3  C   UNL     1      53.126  -1.287  72.164  1.00  0.00     0.053 C 
BRANCH   3   4
ATOM      4  C   UNL     1      53.124   0.176  71.850  1.00  0.00     0.041 C 
ATOM      5  O   UNL     1      52.037   0.805  71.768  1.00  0.00    -0.550 OA
ATOM      6  O   UNL     1      54.322   0.834  71.597  1.00  0.00    -0.550 OA
ENDBRANCH   3   4
ENDBRANCH   2   3
ENDBRANCH   1   2
BRANCH   1   7
ATOM      7  C   UNL     1      50.445  -2.846  72.210  1.00  0.00     0.000 C 
BRANCH   7   8
ATOM      8  C   UNL     1      49.128  -2.191  72.653  1.00  0.00    -0.000 C 
BRANCH   8   9
ATOM      9  C   UNL     1      48.877  -0.839  71.968  1.00  0.00    -0.003 C 
ATOM     10  C   UNL     1      48.610   0.256  72.996  1.00  0.00     0.004 C 
ENDBRANCH   8   9
ENDBRANCH   7   8
ENDBRANCH   1   7
TORSDOF 6
ENDMDL
MODEL 6
REMARK VINA RESULT:    -3.641     11.897     12.579
REMARK INTER + INTRA:          -5.323
REMARK INTER:                  -5.047
REMARK INTRA:                  -0.276
REMARK UNBOUND:                -0.404
REMARK SMILES CCCCCCCC(=O)[O-]
REMARK SMILES IDX 5 1 6 2 7 3 8 4 9 5 10 6 4 7 3 8 2 9 1 10
REMARK H PARENT
REMARK Flexibility Score: inf
ROOT
ATOM      1  C   UNL     1      52.757  -1.791  73.280  1.00  0.00     0.000 C 
ENDROOT
BRANCH   1   2
ATOM      2  C   UNL     1      53.322  -3.110  72.729  1.00  0.00     0.006 C 
BRANCH   2   3
ATOM      3  C   UNL     1      53.460  -4.192  73.807  1.00  0.00     0.053 C 
BRANCH   3   4
ATOM      4  C   UNL     1      54.888  -4.326  74.233  1.00  0.00     0.041 C 
ATOM      5  O   UNL     1      55.334  -3.632  75.184  1.00  0.00    -0.550 OA
ATOM      6  O   UNL     1      55.741  -5.180  73.545  1.00  0.00    -0.550 OA
ENDBRANCH   3   4
ENDBRANCH   2   3
ENDBRANCH   1   2
BRANCH   1   7
ATOM      7  C   UNL     1      52.772  -0.660  72.237  1.00  0.00     0.000 C 
BRANCH   7   8
ATOM      8  C   UNL     1      51.461   0.141  72.216  1.00  0.00    -0.000 C 
BRANCH   8   9
ATOM      9  C   UNL     1      50.276  -0.645  72.796  1.00  0.00    -0.003 C 
ATOM     10  C   UNL     1      49.206  -0.888  71.735  1.00  0.00     0.004 C 
ENDBRANCH   8   9
ENDBRANCH   7   8
ENDBRANCH   1   7
TORSDOF 6
ENDMDL
MODEL 7
REMARK VINA RESULT:    -3.620     13.964     15.007
REMARK INTER + INTRA:          -5.294
REMARK INTER:                  -5.006
REMARK INTRA:                  -0.288
REMARK UNBOUND:                -0.404
REMARK SMILES CCCCCCCC(=O)[O-]
REMARK SMILES IDX 5 1 6 2 7 3 8 4 9 5 10 6 4 7 3 8 2 9 1 10
REMARK H PARENT
REMARK Flexibility Score: inf
ROOT
ATOM      1  C   UNL     1      49.770  -1.552  72.140  1.00  0.00     0.000 C 
ENDROOT
BRANCH   1   2
ATOM      2  C   UNL     1      48.721  -0.428  72.164  1.00  0.00     0.006 C 
BRANCH   2   3
ATOM      3  C   UNL     1      48.386   0.040  73.586  1.00  0.00     0.053 C 
BRANCH   3   4
ATOM      4  C   UNL     1      48.552   1.523  73.701  1.00  0.00     0.041 C 
ATOM      5  O   UNL     1      47.556   2.282  73.584  1.00  0.00    -0.550 OA
ATOM      6  O   UNL     1      49.816   2.068  73.886  1.00  0.00    -0.550 OA
ENDBRANCH   3   4
ENDBRANCH   2   3
ENDBRANCH   1   2
BRANCH   1   7
ATOM      7  C   UNL     1      51.061  -1.170  72.886  1.00  0.00     0.000 C 
BRANCH   7   8
ATOM      8  C   UNL     1      51.866  -0.085  72.154  1.00  0.00    -0.000 C 
BRANCH   8   9
ATOM      9  C   UNL     1      53.338  -0.475  71.948  1.00  0.00    -0.003 C 
ATOM     10  C   UNL     1      54.153   0.709  71.435  1.00  0.00     0.004 C 
ENDBRANCH   8   9
ENDBRANCH   7   8
ENDBRANCH   1   7
TORSDOF 6
ENDMDL
MODEL 8
REMARK VINA RESULT:    -3.615      2.128      4.288
REMARK INTER + INTRA:          -5.288
REMARK INTER:                  -5.026
REMARK INTRA:                  -0.262
REMARK UNBOUND:                -0.404
REMARK SMILES CCCCCCCC(=O)[O-]
REMARK SMILES IDX 5 1 6 2 7 3 8 4 9 5 10 6 4 7 3 8 2 9 1 10
REMARK H PARENT
REMARK Flexibility Score: inf
ROOT
ATOM      1  C   UNL     1      60.570  -1.896  83.584  1.00  0.00     0.000 C 
ENDROOT
BRANCH   1   2
ATOM      2  C   UNL     1      59.423  -0.922  83.268  1.00  0.00     0.006 C 
BRANCH   2   3
ATOM      3  C   UNL     1      58.801  -0.309  84.528  1.00  0.00     0.053 C 
BRANCH   3   4
ATOM      4  C   UNL     1      57.320  -0.528  84.539  1.00  0.00     0.041 C 
ATOM      5  O   UNL     1      56.792  -1.329  83.725  1.00  0.00    -0.550 OA
ATOM      6  O   UNL     1      56.518   0.193  85.414  1.00  0.00    -0.550 OA
ENDBRANCH   3   4
ENDBRANCH   2   3
ENDBRANCH   1   2
BRANCH   1   7
ATOM      7  C   UNL     1      60.523  -3.166  82.717  1.00  0.00     0.000 C 
BRANCH   7   8
ATOM      8  C   UNL     1      59.387  -4.117  83.124  1.00  0.00    -0.000 C 
BRANCH   8   9
ATOM      9  C   UNL     1      59.875  -5.283  83.999  1.00  0.00    -0.003 C 
ATOM     10  C   UNL     1      58.722  -5.894  84.790  1.00  0.00     0.004 C 
ENDBRANCH   8   9
ENDBRANCH   7   8
ENDBRANCH   1   7
TORSDOF 6
ENDMDL
MODEL 9
REMARK VINA RESULT:    -3.591     14.218     15.199
REMARK INTER + INTRA:          -5.254
REMARK INTER:                  -5.053
REMARK INTRA:                  -0.201
REMARK UNBOUND:                -0.404
REMARK SMILES CCCCCCCC(=O)[O-]
REMARK SMILES IDX 5 1 6 2 7 3 8 4 9 5 10 6 4 7 3 8 2 9 1 10
REMARK H PARENT
REMARK Flexibility Score: inf
ROOT
ATOM      1  C   UNL     1      49.533  -1.253  71.889  1.00  0.00     0.000 C 
ENDROOT
BRANCH   1   2
ATOM      2  C   UNL     1      50.468  -0.300  72.653  1.00  0.00     0.006 C 
BRANCH   2   3
ATOM      3  C   UNL     1      51.910  -0.815  72.724  1.00  0.00     0.053 C 
BRANCH   3   4
ATOM      4  C   UNL     1      52.798  -0.006  71.831  1.00  0.00     0.041 C 
ATOM      5  O   UNL     1      53.855  -0.507  71.366  1.00  0.00    -0.550 OA
ATOM      6  O   UNL     1      52.482   1.318  71.552  1.00  0.00    -0.550 OA
ENDBRANCH   3   4
ENDBRANCH   2   3
ENDBRANCH   1   2
BRANCH   1   7
ATOM      7  C   UNL     1      49.840  -2.734  72.173  1.00  0.00     0.000 C 
BRANCH   7   8
ATOM      8  C   UNL     1      48.759  -3.407  73.033  1.00  0.00    -0.000 C 
BRANCH   8   9
ATOM      9  C   UNL     1      48.558  -4.888  72.681  1.00  0.00    -0.003 C 
ATOM     10  C   UNL     1      47.107  -5.311  72.892  1.00  0.00     0.004 C 
ENDBRANCH   8   9
ENDBRANCH   7   8
ENDBRANCH   1   7
TORSDOF 6
ENDMDL
