MODEL 1
REMARK VINA RESULT:    -3.925      0.000      0.000
REMARK INTER + INTRA:          -8.054
REMARK INTER:                  -5.991
REMARK INTRA:                  -2.064
REMARK UNBOUND:                -2.064
REMARK SMILES CC(=O)CCC=C(C)CCC=C(C)CCC=C(C)C
REMARK SMILES IDX 10 1 11 2 12 3 13 4 14 5 15 6 16 7 18 8 17 9 19 10 9 11 7 12
REMARK SMILES IDX 6 13 8 14 5 15 4 16 2 17 3 18 1 19
REMARK H PARENT
REMARK Flexibility Score: inf
ROOT
ATOM      1  C   UNL     1      28.182  25.981  28.847  1.00  0.00     0.032 C 
ENDROOT
BRANCH   1   2
ATOM      2  C   UNL     1      28.433  27.450  29.090  1.00  0.00    -0.028 C 
ATOM      3  C   UNL     1      27.479  28.370  29.361  1.00  0.00    -0.077 C 
ATOM      4  C   UNL     1      27.906  29.805  29.537  1.00  0.00     0.039 C 
BRANCH   3   5
ATOM      5  C   UNL     1      26.012  28.023  29.554  1.00  0.00     0.034 C 
BRANCH   5   6
ATOM      6  C   UNL     1      25.265  27.932  28.215  1.00  0.00     0.032 C 
BRANCH   6   7
ATOM      7  C   UNL     1      23.768  27.873  28.405  1.00  0.00    -0.028 C 
ATOM      8  C   UNL     1      21.554  26.836  28.637  1.00  0.00     0.039 C 
ATOM      9  C   UNL     1      23.036  26.738  28.381  1.00  0.00    -0.080 C 
ATOM     10  C   UNL     1      23.657  25.389  28.106  1.00  0.00     0.039 C 
ENDBRANCH   6   7
ENDBRANCH   5   6
ENDBRANCH   3   5
ENDBRANCH   1   2
BRANCH   1  11
ATOM     11  C   UNL     1      28.769  25.512  27.505  1.00  0.00     0.034 C 
BRANCH  11  12
ATOM     12  C   UNL     1      27.758  25.631  26.378  1.00  0.00    -0.077 C 
ATOM     13  C   UNL     1      27.672  26.718  25.579  1.00  0.00    -0.028 C 
ATOM     14  C   UNL     1      26.778  24.507  26.162  1.00  0.00     0.039 C 
BRANCH  13  15
ATOM     15  C   UNL     1      28.610  27.902  25.623  1.00  0.00     0.035 C 
BRANCH  15  16
ATOM     16  C   UNL     1      27.846  29.232  25.633  1.00  0.00     0.079 C 
BRANCH  16  17
ATOM     17  C   UNL     1      28.243  30.109  24.476  1.00  0.00     0.130 C 
ATOM     18  O   UNL     1      28.179  31.324  24.589  1.00  0.00    -0.300 OA
ATOM     19  C   UNL     1      28.758  29.518  23.199  1.00  0.00     0.087 C 
ENDBRANCH  16  17
ENDBRANCH  15  16
ENDBRANCH  13  15
ENDBRANCH  11  12
ENDBRANCH   1  11
TORSDOF 9
ENDMDL
MODEL 2
REMARK VINA RESULT:    -3.894      2.283      4.450
REMARK INTER + INTRA:          -8.006
REMARK INTER:                  -6.729
REMARK INTRA:                  -1.277
REMARK UNBOUND:                -2.064
REMARK SMILES CC(=O)CCC=C(C)CCC=C(C)CCC=C(C)C
REMARK SMILES IDX 10 1 11 2 12 3 13 4 14 5 15 6 16 7 18 8 17 9 19 10 9 11 7 12
REMARK SMILES IDX 6 13 8 14 5 15 4 16 2 17 3 18 1 19
REMARK H PARENT
REMARK Flexibility Score: inf
ROOT
ATOM      1  C   UNL     1      27.106  28.403  25.920  1.00  0.00     0.032 C 
ENDROOT
BRANCH   1   2
ATOM      2  C   UNL     1      27.721  27.083  25.525  1.00  0.00    -0.028 C 
ATOM      3  C   UNL     1      28.425  26.271  26.348  1.00  0.00    -0.077 C 
ATOM      4  C   UNL     1      29.004  25.005  25.772  1.00  0.00     0.039 C 
BRANCH   3   5
ATOM      5  C   UNL     1      28.610  26.543  27.832  1.00  0.00     0.034 C 
BRANCH   5   6
ATOM      6  C   UNL     1      27.288  26.422  28.604  1.00  0.00     0.032 C 
BRANCH   6   7
ATOM      7  C   UNL     1      27.049  27.609  29.508  1.00  0.00    -0.028 C 
ATOM      8  C   UNL     1      25.779  29.412  30.589  1.00  0.00     0.039 C 
ATOM      9  C   UNL     1      25.878  28.276  29.603  1.00  0.00    -0.080 C 
ATOM     10  C   UNL     1      24.680  27.919  28.755  1.00  0.00     0.039 C 
ENDBRANCH   6   7
ENDBRANCH   5   6
ENDBRANCH   3   5
ENDBRANCH   1   2
BRANCH   1  11
ATOM     11  C   UNL     1      27.514  29.536  24.965  1.00  0.00     0.034 C 
BRANCH  11  12
ATOM     12  C   UNL     1      28.569  30.438  25.581  1.00  0.00    -0.077 C 
ATOM     13  C   UNL     1      29.125  31.478  24.920  1.00  0.00    -0.028 C 
ATOM     14  C   UNL     1      29.053  30.140  26.977  1.00  0.00     0.039 C 
BRANCH  13  15
ATOM     15  C   UNL     1      28.715  31.948  23.543  1.00  0.00     0.035 C 
BRANCH  15  16
ATOM     16  C   UNL     1      28.030  33.319  23.592  1.00  0.00     0.079 C 
BRANCH  16  17
ATOM     17  C   UNL     1      28.486  34.208  22.466  1.00  0.00     0.130 C 
ATOM     18  O   UNL     1      28.722  35.387  22.683  1.00  0.00    -0.300 OA
ATOM     19  C   UNL     1      28.697  33.660  21.086  1.00  0.00     0.087 C 
ENDBRANCH  16  17
ENDBRANCH  15  16
ENDBRANCH  13  15
ENDBRANCH  11  12
ENDBRANCH   1  11
TORSDOF 9
ENDMDL
MODEL 3
REMARK VINA RESULT:    -3.850      8.167     11.245
REMARK INTER + INTRA:          -7.939
REMARK INTER:                  -7.204
REMARK INTRA:                  -0.736
REMARK UNBOUND:                -2.064
REMARK SMILES CC(=O)CCC=C(C)CCC=C(C)CCC=C(C)C
REMARK SMILES IDX 10 1 11 2 12 3 13 4 14 5 15 6 16 7 18 8 17 9 19 10 9 11 7 12
REMARK SMILES IDX 6 13 8 14 5 15 4 16 2 17 3 18 1 19
REMARK H PARENT
REMARK Flexibility Score: inf
ROOT
ATOM      1  C   UNL     1      27.145  36.139  21.965  1.00  0.00     0.032 C 
ENDROOT
BRANCH   1   2
ATOM      2  C   UNL     1      27.922  35.946  23.245  1.00  0.00    -0.028 C 
ATOM      3  C   UNL     1      28.373  34.758  23.712  1.00  0.00    -0.077 C 
ATOM      4  C   UNL     1      29.099  34.744  25.032  1.00  0.00     0.039 C 
BRANCH   3   5
ATOM      5  C   UNL     1      28.236  33.452  22.947  1.00  0.00     0.034 C 
BRANCH   5   6
ATOM      6  C   UNL     1      29.115  32.344  23.546  1.00  0.00     0.032 C 
BRANCH   6   7
ATOM      7  C   UNL     1      28.298  31.304  24.274  1.00  0.00    -0.028 C 
ATOM      8  C   UNL     1      27.448  29.064  24.817  1.00  0.00     0.039 C 
ATOM      9  C   UNL     1      28.277  29.989  23.964  1.00  0.00    -0.080 C 
ATOM     10  C   UNL     1      29.052  29.430  22.794  1.00  0.00     0.039 C 
ENDBRANCH   6   7
ENDBRANCH   5   6
ENDBRANCH   3   5
ENDBRANCH   1   2
BRANCH   1  11
ATOM     11  C   UNL     1      27.536  37.442  21.248  1.00  0.00     0.034 C 
BRANCH  11  12
ATOM     12  C   UNL     1      26.332  38.119  20.617  1.00  0.00    -0.077 C 
ATOM     13  C   UNL     1      26.421  39.266  19.907  1.00  0.00    -0.028 C 
ATOM     14  C   UNL     1      24.968  37.510  20.820  1.00  0.00     0.039 C 
BRANCH  13  15
ATOM     15  C   UNL     1      27.712  39.972  19.562  1.00  0.00     0.035 C 
BRANCH  15  16
ATOM     16  C   UNL     1      27.455  41.339  18.915  1.00  0.00     0.079 C 
BRANCH  16  17
ATOM     17  C   UNL     1      27.423  42.441  19.940  1.00  0.00     0.130 C 
ATOM     18  O   UNL     1      26.560  43.304  19.872  1.00  0.00    -0.300 OA
ATOM     19  C   UNL     1      28.408  42.475  21.069  1.00  0.00     0.087 C 
ENDBRANCH  16  17
ENDBRANCH  15  16
ENDBRANCH  13  15
ENDBRANCH  11  12
ENDBRANCH   1  11
TORSDOF 9
ENDMDL
MODEL 4
REMARK VINA RESULT:    -3.847      2.390      5.934
REMARK INTER + INTRA:          -7.935
REMARK INTER:                  -6.052
REMARK INTRA:                  -1.884
REMARK UNBOUND:                -2.064
REMARK SMILES CC(=O)CCC=C(C)CCC=C(C)CCC=C(C)C
REMARK SMILES IDX 10 1 11 2 12 3 13 4 14 5 15 6 16 7 18 8 17 9 19 10 9 11 7 12
REMARK SMILES IDX 6 13 8 14 5 15 4 16 2 17 3 18 1 19
REMARK H PARENT
REMARK Flexibility Score: inf
ROOT
ATOM      1  C   UNL     1      26.980  26.747  30.223  1.00  0.00     0.032 C 
ENDROOT
BRANCH   1   2
ATOM      2  C   UNL     1      26.176  25.715  29.470  1.00  0.00    -0.028 C 
ATOM      3  C   UNL     1      26.491  25.217  28.251  1.00  0.00    -0.077 C 
ATOM      4  C   UNL     1      25.549  24.219  27.628  1.00  0.00     0.039 C 
BRANCH   3   5
ATOM      5  C   UNL     1      27.769  25.568  27.509  1.00  0.00     0.034 C 
BRANCH   5   6
ATOM      6  C   UNL     1      27.505  26.521  26.334  1.00  0.00     0.032 C 
BRANCH   6   7
ATOM      7  C   UNL     1      28.280  27.811  26.466  1.00  0.00    -0.028 C 
ATOM      8  C   UNL     1      28.749  30.208  26.203  1.00  0.00     0.039 C 
ATOM      9  C   UNL     1      27.892  28.996  25.945  1.00  0.00    -0.080 C 
ATOM     10  C   UNL     1      26.637  29.134  25.116  1.00  0.00     0.039 C 
ENDBRANCH   6   7
ENDBRANCH   5   6
ENDBRANCH   3   5
ENDBRANCH   1   2
BRANCH   1  11
ATOM     11  C   UNL     1      26.760  28.164  29.668  1.00  0.00     0.034 C 
BRANCH  11  12
ATOM     12  C   UNL     1      25.460  28.768  30.168  1.00  0.00    -0.077 C 
ATOM     13  C   UNL     1      24.351  28.865  29.401  1.00  0.00    -0.028 C 
ATOM     14  C   UNL     1      25.410  29.322  31.568  1.00  0.00     0.039 C 
BRANCH  13  15
ATOM     15  C   UNL     1      24.214  28.309  28.002  1.00  0.00     0.035 C 
BRANCH  15  16
ATOM     16  C   UNL     1      22.745  28.092  27.619  1.00  0.00     0.079 C 
BRANCH  16  17
ATOM     17  C   UNL     1      22.207  26.805  28.187  1.00  0.00     0.130 C 
ATOM     18  O   UNL     1      22.756  25.749  27.914  1.00  0.00    -0.300 OA
ATOM     19  C   UNL     1      21.031  26.803  29.117  1.00  0.00     0.087 C 
ENDBRANCH  16  17
ENDBRANCH  15  16
ENDBRANCH  13  15
ENDBRANCH  11  12
ENDBRANCH   1  11
TORSDOF 9
ENDMDL
MODEL 5
REMARK VINA RESULT:    -3.763      2.445      6.226
REMARK INTER + INTRA:          -7.807
REMARK INTER:                  -6.585
REMARK INTRA:                  -1.222
REMARK UNBOUND:                -2.064
REMARK SMILES CC(=O)CCC=C(C)CCC=C(C)CCC=C(C)C
REMARK SMILES IDX 10 1 11 2 12 3 13 4 14 5 15 6 16 7 18 8 17 9 19 10 9 11 7 12
REMARK SMILES IDX 6 13 8 14 5 15 4 16 2 17 3 18 1 19
REMARK H PARENT
REMARK Flexibility Score: inf
ROOT
ATOM      1  C   UNL     1      28.714  27.771  27.191  1.00  0.00     0.032 C 
ENDROOT
BRANCH   1   2
ATOM      2  C   UNL     1      27.548  28.149  26.310  1.00  0.00    -0.028 C 
ATOM      3  C   UNL     1      27.570  29.105  25.352  1.00  0.00    -0.077 C 
ATOM      4  C   UNL     1      26.297  29.378  24.593  1.00  0.00     0.039 C 
BRANCH   3   5
ATOM      5  C   UNL     1      28.823  29.873  24.966  1.00  0.00     0.034 C 
BRANCH   5   6
ATOM      6  C   UNL     1      28.581  30.790  23.758  1.00  0.00     0.032 C 
BRANCH   6   7
ATOM      7  C   UNL     1      28.447  32.238  24.164  1.00  0.00    -0.028 C 
ATOM      8  C   UNL     1      28.314  34.672  23.861  1.00  0.00     0.039 C 
ATOM      9  C   UNL     1      28.518  33.284  23.311  1.00  0.00    -0.080 C 
ATOM     10  C   UNL     1      28.797  33.099  21.838  1.00  0.00     0.039 C 
ENDBRANCH   6   7
ENDBRANCH   5   6
ENDBRANCH   3   5
ENDBRANCH   1   2
BRANCH   1  11
ATOM     11  C   UNL     1      28.427  26.505  28.014  1.00  0.00     0.034 C 
BRANCH  11  12
ATOM     12  C   UNL     1      27.641  25.481  27.213  1.00  0.00    -0.077 C 
ATOM     13  C   UNL     1      26.431  25.016  27.600  1.00  0.00    -0.028 C 
ATOM     14  C   UNL     1      28.248  24.926  25.951  1.00  0.00     0.039 C 
BRANCH  13  15
ATOM     15  C   UNL     1      25.658  25.509  28.802  1.00  0.00     0.035 C 
BRANCH  15  16
ATOM     16  C   UNL     1      24.397  26.277  28.388  1.00  0.00     0.079 C 
BRANCH  16  17
ATOM     17  C   UNL     1      24.542  27.755  28.634  1.00  0.00     0.130 C 
ATOM     18  O   UNL     1      23.742  28.532  28.136  1.00  0.00    -0.300 OA
ATOM     19  C   UNL     1      25.630  28.289  29.517  1.00  0.00     0.087 C 
ENDBRANCH  16  17
ENDBRANCH  15  16
ENDBRANCH  13  15
ENDBRANCH  11  12
ENDBRANCH   1  11
TORSDOF 9
ENDMDL
MODEL 6
REMARK VINA RESULT:    -3.749      2.374      6.511
REMARK INTER + INTRA:          -7.786
REMARK INTER:                  -6.812
REMARK INTRA:                  -0.974
REMARK UNBOUND:                -2.064
REMARK SMILES CC(=O)CCC=C(C)CCC=C(C)CCC=C(C)C
REMARK SMILES IDX 10 1 11 2 12 3 13 4 14 5 15 6 16 7 18 8 17 9 19 10 9 11 7 12
REMARK SMILES IDX 6 13 8 14 5 15 4 16 2 17 3 18 1 19
REMARK H PARENT
REMARK Flexibility Score: inf
ROOT
ATOM      1  C   UNL     1      28.957  28.120  27.471  1.00  0.00     0.032 C 
ENDROOT
BRANCH   1   2
ATOM      2  C   UNL     1      27.902  28.279  26.403  1.00  0.00    -0.028 C 
ATOM      3  C   UNL     1      27.805  29.326  25.551  1.00  0.00    -0.077 C 
ATOM      4  C   UNL     1      26.661  29.341  24.571  1.00  0.00     0.039 C 
BRANCH   3   5
ATOM      5  C   UNL     1      28.822  30.454  25.493  1.00  0.00     0.034 C 
BRANCH   5   6
ATOM      6  C   UNL     1      28.810  31.166  24.133  1.00  0.00     0.032 C 
BRANCH   6   7
ATOM      7  C   UNL     1      28.412  32.618  24.257  1.00  0.00    -0.028 C 
ATOM      8  C   UNL     1      27.922  34.904  23.504  1.00  0.00     0.039 C 
ATOM      9  C   UNL     1      28.390  33.498  23.232  1.00  0.00    -0.080 C 
ATOM     10  C   UNL     1      28.821  33.113  21.837  1.00  0.00     0.039 C 
ENDBRANCH   6   7
ENDBRANCH   5   6
ENDBRANCH   3   5
ENDBRANCH   1   2
BRANCH   1  11
ATOM     11  C   UNL     1      28.426  28.500  28.863  1.00  0.00     0.034 C 
BRANCH  11  12
ATOM     12  C   UNL     1      27.537  27.414  29.442  1.00  0.00    -0.077 C 
ATOM     13  C   UNL     1      26.345  27.673  30.026  1.00  0.00    -0.028 C 
ATOM     14  C   UNL     1      28.016  25.986  29.401  1.00  0.00     0.039 C 
BRANCH  13  15
ATOM     15  C   UNL     1      25.693  29.035  30.097  1.00  0.00     0.035 C 
BRANCH  15  16
ATOM     16  C   UNL     1      24.177  28.949  29.884  1.00  0.00     0.079 C 
BRANCH  16  17
ATOM     17  C   UNL     1      23.837  28.373  28.535  1.00  0.00     0.130 C 
ATOM     18  O   UNL     1      24.612  28.521  27.602  1.00  0.00    -0.300 OA
ATOM     19  C   UNL     1      22.582  27.581  28.326  1.00  0.00     0.087 C 
ENDBRANCH  16  17
ENDBRANCH  15  16
ENDBRANCH  13  15
ENDBRANCH  11  12
ENDBRANCH   1  11
TORSDOF 9
ENDMDL
MODEL 7
REMARK VINA RESULT:    -3.748     10.951     14.727
REMARK INTER + INTRA:          -7.784
REMARK INTER:                  -6.691
REMARK INTRA:                  -1.094
REMARK UNBOUND:                -2.064
REMARK SMILES CC(=O)CCC=C(C)CCC=C(C)CCC=C(C)C
REMARK SMILES IDX 10 1 11 2 12 3 13 4 14 5 15 6 16 7 18 8 17 9 19 10 9 11 7 12
REMARK SMILES IDX 6 13 8 14 5 15 4 16 2 17 3 18 1 19
REMARK H PARENT
REMARK Flexibility Score: inf
ROOT
ATOM      1  C   UNL     1      27.360  40.474  20.568  1.00  0.00     0.032 C 
ENDROOT
BRANCH   1   2
ATOM      2  C   UNL     1      27.339  41.634  19.602  1.00  0.00    -0.028 C 
ATOM      3  C   UNL     1      26.869  42.873  19.880  1.00  0.00    -0.077 C 
ATOM      4  C   UNL     1      26.889  43.902  18.780  1.00  0.00     0.039 C 
BRANCH   3   5
ATOM      5  C   UNL     1      26.377  43.291  21.255  1.00  0.00     0.034 C 
BRANCH   5   6
ATOM      6  C   UNL     1      27.459  44.040  22.046  1.00  0.00     0.032 C 
BRANCH   6   7
ATOM      7  C   UNL     1      28.265  43.111  22.923  1.00  0.00    -0.028 C 
ATOM      8  C   UNL     1      28.879  41.887  24.962  1.00  0.00     0.039 C 
ATOM      9  C   UNL     1      28.015  42.882  24.231  1.00  0.00    -0.080 C 
ATOM     10  C   UNL     1      26.906  43.592  24.971  1.00  0.00     0.039 C 
ENDBRANCH   6   7
ENDBRANCH   5   6
ENDBRANCH   3   5
ENDBRANCH   1   2
BRANCH   1  11
ATOM     11  C   UNL     1      26.690  39.223  19.976  1.00  0.00     0.034 C 
BRANCH  11  12
ATOM     12  C   UNL     1      27.698  38.315  19.294  1.00  0.00    -0.077 C 
ATOM     13  C   UNL     1      28.389  37.357  19.953  1.00  0.00    -0.028 C 
ATOM     14  C   UNL     1      27.974  38.511  17.826  1.00  0.00     0.039 C 
BRANCH  13  15
ATOM     15  C   UNL     1      28.191  36.992  21.406  1.00  0.00     0.035 C 
BRANCH  15  16
ATOM     16  C   UNL     1      28.075  35.474  21.598  1.00  0.00     0.079 C 
BRANCH  16  17
ATOM     17  C   UNL     1      27.690  35.121  23.010  1.00  0.00     0.130 C 
ATOM     18  O   UNL     1      27.010  35.899  23.663  1.00  0.00    -0.300 OA
ATOM     19  C   UNL     1      28.093  33.811  23.617  1.00  0.00     0.087 C 
ENDBRANCH  16  17
ENDBRANCH  15  16
ENDBRANCH  13  15
ENDBRANCH  11  12
ENDBRANCH   1  11
TORSDOF 9
ENDMDL
MODEL 8
REMARK VINA RESULT:    -3.742     10.825     14.367
REMARK INTER + INTRA:          -7.774
REMARK INTER:                  -6.402
REMARK INTRA:                  -1.372
REMARK UNBOUND:                -2.064
REMARK SMILES CC(=O)CCC=C(C)CCC=C(C)CCC=C(C)C
REMARK SMILES IDX 10 1 11 2 12 3 13 4 14 5 15 6 16 7 18 8 17 9 19 10 9 11 7 12
REMARK SMILES IDX 6 13 8 14 5 15 4 16 2 17 3 18 1 19
REMARK H PARENT
REMARK Flexibility Score: inf
ROOT
ATOM      1  C   UNL     1      28.531  39.808  21.841  1.00  0.00     0.032 C 
ENDROOT
BRANCH   1   2
ATOM      2  C   UNL     1      28.133  39.614  20.397  1.00  0.00    -0.028 C 
ATOM      3  C   UNL     1      28.416  38.522  19.649  1.00  0.00    -0.077 C 
ATOM      4  C   UNL     1      27.975  38.515  18.208  1.00  0.00     0.039 C 
BRANCH   3   5
ATOM      5  C   UNL     1      29.102  37.284  20.202  1.00  0.00     0.034 C 
BRANCH   5   6
ATOM      6  C   UNL     1      28.098  36.163  20.508  1.00  0.00     0.032 C 
BRANCH   6   7
ATOM      7  C   UNL     1      27.551  36.259  21.912  1.00  0.00    -0.028 C 
ATOM      8  C   UNL     1      27.146  35.576  24.236  1.00  0.00     0.039 C 
ATOM      9  C   UNL     1      27.709  35.313  22.863  1.00  0.00    -0.080 C 
ATOM     10  C   UNL     1      28.425  34.012  22.588  1.00  0.00     0.039 C 
ENDBRANCH   6   7
ENDBRANCH   5   6
ENDBRANCH   3   5
ENDBRANCH   1   2
BRANCH   1  11
ATOM     11  C   UNL     1      29.073  41.222  22.102  1.00  0.00     0.034 C 
BRANCH  11  12
ATOM     12  C   UNL     1      28.316  41.916  23.220  1.00  0.00    -0.077 C 
ATOM     13  C   UNL     1      27.165  42.597  23.018  1.00  0.00    -0.028 C 
ATOM     14  C   UNL     1      28.889  41.882  24.614  1.00  0.00     0.039 C 
BRANCH  13  15
ATOM     15  C   UNL     1      26.429  42.679  21.701  1.00  0.00     0.035 C 
BRANCH  15  16
ATOM     16  C   UNL     1      26.608  44.050  21.036  1.00  0.00     0.079 C 
BRANCH  16  17
ATOM     17  C   UNL     1      27.201  43.925  19.658  1.00  0.00     0.130 C 
ATOM     18  O   UNL     1      26.476  44.011  18.678  1.00  0.00    -0.300 OA
ATOM     19  C   UNL     1      28.675  43.738  19.465  1.00  0.00     0.087 C 
ENDBRANCH  16  17
ENDBRANCH  15  16
ENDBRANCH  13  15
ENDBRANCH  11  12
ENDBRANCH   1  11
TORSDOF 9
ENDMDL
MODEL 9
REMARK VINA RESULT:    -3.657     11.115     14.838
REMARK INTER + INTRA:          -7.645
REMARK INTER:                  -5.961
REMARK INTRA:                  -1.684
REMARK UNBOUND:                -2.064
REMARK SMILES CC(=O)CCC=C(C)CCC=C(C)CCC=C(C)C
REMARK SMILES IDX 10 1 11 2 12 3 13 4 14 5 15 6 16 7 18 8 17 9 19 10 9 11 7 12
REMARK SMILES IDX 6 13 8 14 5 15 4 16 2 17 3 18 1 19
REMARK H PARENT
REMARK Flexibility Score: inf
ROOT
ATOM      1  C   UNL     1      26.499  40.750  21.434  1.00  0.00     0.032 C 
ENDROOT
BRANCH   1   2
ATOM      2  C   UNL     1      26.527  40.088  20.078  1.00  0.00    -0.028 C 
ATOM      3  C   UNL     1      27.486  39.235  19.645  1.00  0.00    -0.077 C 
ATOM      4  C   UNL     1      27.376  38.698  18.242  1.00  0.00     0.039 C 
BRANCH   3   5
ATOM      5  C   UNL     1      28.630  38.751  20.519  1.00  0.00     0.034 C 
BRANCH   5   6
ATOM      6  C   UNL     1      28.757  37.220  20.498  1.00  0.00     0.032 C 
BRANCH   6   7
ATOM      7  C   UNL     1      28.483  36.610  21.852  1.00  0.00    -0.028 C 
ATOM      8  C   UNL     1      27.142  35.658  23.676  1.00  0.00     0.039 C 
ATOM      9  C   UNL     1      27.252  36.311  22.323  1.00  0.00    -0.080 C 
ATOM     10  C   UNL     1      25.998  36.615  21.538  1.00  0.00     0.039 C 
ENDBRANCH   6   7
ENDBRANCH   5   6
ENDBRANCH   3   5
ENDBRANCH   1   2
BRANCH   1  11
ATOM     11  C   UNL     1      26.195  42.253  21.333  1.00  0.00     0.034 C 
BRANCH  11  12
ATOM     12  C   UNL     1      27.257  42.988  20.534  1.00  0.00    -0.077 C 
ATOM     13  C   UNL     1      28.530  43.138  20.966  1.00  0.00    -0.028 C 
ATOM     14  C   UNL     1      26.872  43.615  19.219  1.00  0.00     0.039 C 
BRANCH  13  15
ATOM     15  C   UNL     1      29.094  42.526  22.227  1.00  0.00     0.035 C 
BRANCH  15  16
ATOM     16  C   UNL     1      29.054  43.511  23.403  1.00  0.00     0.079 C 
BRANCH  16  17
ATOM     17  C   UNL     1      28.249  42.969  24.553  1.00  0.00     0.130 C 
ATOM     18  O   UNL     1      28.737  42.121  25.286  1.00  0.00    -0.300 OA
ATOM     19  C   UNL     1      26.871  43.483  24.842  1.00  0.00     0.087 C 
ENDBRANCH  16  17
ENDBRANCH  15  16
ENDBRANCH  13  15
ENDBRANCH  11  12
ENDBRANCH   1  11
TORSDOF 9
ENDMDL
