MODEL 1
REMARK VINA RESULT:    -6.384      0.000      0.000
REMARK INTER + INTRA:          -8.621
REMARK INTER:                  -8.064
REMARK INTRA:                  -0.557
REMARK UNBOUND:                -0.557
REMARK SMILES O=C(C=Cc1ccc(O)cc1)c1ccc(O)cc1O
REMARK SMILES IDX 4 1 3 2 5 3 6 4 7 5 8 6 11 7 10 8 9 9 2 11 1 12 12 13 18 14
REMARK SMILES IDX 13 15 17 16 14 17 15 18 19 19 16 21
REMARK H PARENT 9 10 19 20 16 22
REMARK Flexibility Score: inf
ROOT
ATOM      1  C   UNL     1     -15.183  -2.204  -6.002  1.00  0.00     0.012 C 
ATOM      2  C   UNL     1     -16.096  -2.950  -5.364  1.00  0.00     0.053 C 
ENDROOT
BRANCH   1   3
ATOM      3  C   UNL     1     -15.489  -0.902  -6.644  1.00  0.00    -0.025 A 
ATOM      4  C   UNL     1     -15.853  -0.889  -8.002  1.00  0.00     0.012 A 
ATOM      5  C   UNL     1     -16.139   0.316  -8.650  1.00  0.00     0.047 A 
ATOM      6  C   UNL     1     -16.055   1.528  -7.953  1.00  0.00     0.115 A 
ATOM      7  C   UNL     1     -15.391   0.325  -5.955  1.00  0.00     0.012 A 
ATOM      8  C   UNL     1     -15.678   1.528  -6.608  1.00  0.00     0.047 A 
BRANCH   6   9
ATOM      9  O   UNL     1     -16.338   2.734  -8.588  1.00  0.00    -0.508 OA
ATOM     10  H   UNL     1     -15.600   3.361  -8.888  1.00  0.00     0.293 HD
ENDBRANCH   6   9
ENDBRANCH   1   3
BRANCH   2  11
ATOM     11  C   UNL     1     -15.758  -4.252  -4.749  1.00  0.00     0.189 C 
ATOM     12  O   UNL     1     -14.900  -4.306  -3.825  1.00  0.00    -0.289 OA
BRANCH  11  13
ATOM     13  C   UNL     1     -16.372  -5.510  -5.234  1.00  0.00     0.064 A 
ATOM     14  C   UNL     1     -15.683  -6.390  -6.099  1.00  0.00     0.130 A 
ATOM     15  C   UNL     1     -17.686  -5.824  -4.845  1.00  0.00     0.020 A 
ATOM     16  C   UNL     1     -16.300  -7.578  -6.522  1.00  0.00     0.093 A 
ATOM     17  C   UNL     1     -18.293  -7.005  -5.278  1.00  0.00     0.047 A 
ATOM     18  C   UNL     1     -17.600  -7.887  -6.114  1.00  0.00     0.119 A 
BRANCH  14  19
ATOM     19  O   UNL     1     -14.404  -6.078  -6.558  1.00  0.00    -0.507 OA
ATOM     20  H   UNL     1     -14.023  -5.142  -6.478  1.00  0.00     0.293 HD
ENDBRANCH  14  19
BRANCH  18  21
ATOM     21  O   UNL     1     -18.194  -9.070  -6.548  1.00  0.00    -0.508 OA
ATOM     22  H   UNL     1     -17.638  -9.860  -6.855  1.00  0.00     0.293 HD
ENDBRANCH  18  21
ENDBRANCH  11  13
ENDBRANCH   2  11
TORSDOF 6
ENDMDL
MODEL 2
REMARK VINA RESULT:    -6.186      7.907     10.414
REMARK INTER + INTRA:          -8.371
REMARK INTER:                  -7.710
REMARK INTRA:                  -0.661
REMARK UNBOUND:                -0.557
REMARK SMILES O=C(C=Cc1ccc(O)cc1)c1ccc(O)cc1O
REMARK SMILES IDX 4 1 3 2 5 3 6 4 7 5 8 6 11 7 10 8 9 9 2 11 1 12 12 13 18 14
REMARK SMILES IDX 13 15 17 16 14 17 15 18 19 19 16 21
REMARK H PARENT 9 10 19 20 16 22
REMARK Flexibility Score: inf
ROOT
ATOM      1  C   UNL     1      -8.896  -8.112  -4.028  1.00  0.00     0.012 C 
ATOM      2  C   UNL     1      -8.463  -6.880  -4.334  1.00  0.00     0.053 C 
ENDROOT
BRANCH   1   3
ATOM      3  C   UNL     1      -9.985  -8.384  -3.058  1.00  0.00    -0.025 A 
ATOM      4  C   UNL     1     -11.279  -8.623  -3.549  1.00  0.00     0.012 A 
ATOM      5  C   UNL     1     -12.338  -8.873  -2.671  1.00  0.00     0.047 A 
ATOM      6  C   UNL     1     -12.120  -8.876  -1.287  1.00  0.00     0.115 A 
ATOM      7  C   UNL     1      -9.778  -8.372  -1.663  1.00  0.00     0.012 A 
ATOM      8  C   UNL     1     -10.840  -8.622  -0.789  1.00  0.00     0.047 A 
BRANCH   6   9
ATOM      9  O   UNL     1     -13.167  -9.124  -0.403  1.00  0.00    -0.508 OA
ATOM     10  H   UNL     1     -13.164  -9.934   0.206  1.00  0.00     0.293 HD
ENDBRANCH   6   9
ENDBRANCH   1   3
BRANCH   2  11
ATOM     11  C   UNL     1      -7.364  -6.648  -5.296  1.00  0.00     0.189 C 
ATOM     12  O   UNL     1      -6.186  -6.481  -4.875  1.00  0.00    -0.289 OA
BRANCH  11  13
ATOM     13  C   UNL     1      -7.627  -6.554  -6.751  1.00  0.00     0.064 A 
ATOM     14  C   UNL     1      -6.698  -7.020  -7.708  1.00  0.00     0.130 A 
ATOM     15  C   UNL     1      -8.824  -5.961  -7.192  1.00  0.00     0.020 A 
ATOM     16  C   UNL     1      -6.998  -6.923  -9.077  1.00  0.00     0.093 A 
ATOM     17  C   UNL     1      -9.109  -5.864  -8.556  1.00  0.00     0.047 A 
ATOM     18  C   UNL     1      -8.198  -6.348  -9.501  1.00  0.00     0.119 A 
BRANCH  14  19
ATOM     19  O   UNL     1      -5.473  -7.553  -7.308  1.00  0.00    -0.507 OA
ATOM     20  H   UNL     1      -5.409  -8.244  -6.570  1.00  0.00     0.293 HD
ENDBRANCH  14  19
BRANCH  18  21
ATOM     21  O   UNL     1      -8.474  -6.260 -10.864  1.00  0.00    -0.508 OA
ATOM     22  H   UNL     1      -8.632  -7.088 -11.427  1.00  0.00     0.293 HD
ENDBRANCH  18  21
ENDBRANCH  11  13
ENDBRANCH   2  11
TORSDOF 6
ENDMDL
MODEL 3
REMARK VINA RESULT:    -5.997      6.131      9.451
REMARK INTER + INTRA:          -8.132
REMARK INTER:                  -7.472
REMARK INTRA:                  -0.661
REMARK UNBOUND:                -0.557
REMARK SMILES O=C(C=Cc1ccc(O)cc1)c1ccc(O)cc1O
REMARK SMILES IDX 4 1 3 2 5 3 6 4 7 5 8 6 11 7 10 8 9 9 2 11 1 12 12 13 18 14
REMARK SMILES IDX 13 15 17 16 14 17 15 18 19 19 16 21
REMARK H PARENT 9 10 19 20 16 22
REMARK Flexibility Score: inf
ROOT
ATOM      1  C   UNL     1     -13.373  -8.417  -0.792  1.00  0.00     0.012 C 
ATOM      2  C   UNL     1     -14.439  -7.647  -0.528  1.00  0.00     0.053 C 
ENDROOT
BRANCH   1   3
ATOM      3  C   UNL     1     -12.233  -8.590   0.141  1.00  0.00    -0.025 A 
ATOM      4  C   UNL     1     -12.501  -8.958   1.470  1.00  0.00     0.012 A 
ATOM      5  C   UNL     1     -11.458  -9.123   2.387  1.00  0.00     0.047 A 
ATOM      6  C   UNL     1     -10.132  -8.910   1.990  1.00  0.00     0.115 A 
ATOM      7  C   UNL     1     -10.896  -8.362  -0.245  1.00  0.00     0.012 A 
ATOM      8  C   UNL     1      -9.856  -8.528   0.675  1.00  0.00     0.047 A 
BRANCH   6   9
ATOM      9  O   UNL     1      -9.085  -9.072   2.894  1.00  0.00    -0.508 OA
ATOM     10  H   UNL     1      -9.102  -8.633   3.807  1.00  0.00     0.293 HD
ENDBRANCH   6   9
ENDBRANCH   1   3
BRANCH   2  11
ATOM     11  C   UNL     1     -15.552  -7.485  -1.489  1.00  0.00     0.189 C 
ATOM     12  O   UNL     1     -16.433  -8.383  -1.586  1.00  0.00    -0.289 OA
BRANCH  11  13
ATOM     13  C   UNL     1     -15.624  -6.306  -2.383  1.00  0.00     0.064 A 
ATOM     14  C   UNL     1     -15.482  -6.424  -3.784  1.00  0.00     0.130 A 
ATOM     15  C   UNL     1     -15.813  -5.032  -1.821  1.00  0.00     0.020 A 
ATOM     16  C   UNL     1     -15.572  -5.281  -4.594  1.00  0.00     0.093 A 
ATOM     17  C   UNL     1     -15.894  -3.900  -2.635  1.00  0.00     0.047 A 
ATOM     18  C   UNL     1     -15.779  -4.022  -4.024  1.00  0.00     0.119 A 
BRANCH  14  19
ATOM     19  O   UNL     1     -15.228  -7.664  -4.370  1.00  0.00    -0.507 OA
ATOM     20  H   UNL     1     -15.566  -7.895  -5.296  1.00  0.00     0.293 HD
ENDBRANCH  14  19
BRANCH  18  21
ATOM     21  O   UNL     1     -15.863  -2.900  -4.846  1.00  0.00    -0.508 OA
ATOM     22  H   UNL     1     -15.308  -2.819  -5.689  1.00  0.00     0.293 HD
ENDBRANCH  18  21
ENDBRANCH  11  13
ENDBRANCH   2  11
TORSDOF 6
ENDMDL
MODEL 4
REMARK VINA RESULT:    -5.983      6.133      9.423
REMARK INTER + INTRA:          -8.114
REMARK INTER:                  -7.492
REMARK INTRA:                  -0.623
REMARK UNBOUND:                -0.557
REMARK SMILES O=C(C=Cc1ccc(O)cc1)c1ccc(O)cc1O
REMARK SMILES IDX 4 1 3 2 5 3 6 4 7 5 8 6 11 7 10 8 9 9 2 11 1 12 12 13 18 14
REMARK SMILES IDX 13 15 17 16 14 17 15 18 19 19 16 21
REMARK H PARENT 9 10 19 20 16 22
REMARK Flexibility Score: inf
ROOT
ATOM      1  C   UNL     1     -13.292  -8.631  -0.796  1.00  0.00     0.012 C 
ATOM      2  C   UNL     1     -14.234  -7.677  -0.824  1.00  0.00     0.053 C 
ENDROOT
BRANCH   1   3
ATOM      3  C   UNL     1     -12.213  -8.692   0.221  1.00  0.00    -0.025 A 
ATOM      4  C   UNL     1     -10.897  -8.398  -0.175  1.00  0.00     0.012 A 
ATOM      5  C   UNL     1      -9.848  -8.453   0.748  1.00  0.00     0.047 A 
ATOM      6  C   UNL     1     -10.098  -8.815   2.077  1.00  0.00     0.115 A 
ATOM      7  C   UNL     1     -12.452  -9.071   1.558  1.00  0.00     0.012 A 
ATOM      8  C   UNL     1     -11.400  -9.125   2.477  1.00  0.00     0.047 A 
BRANCH   6   9
ATOM      9  O   UNL     1      -9.061  -8.873   3.005  1.00  0.00    -0.508 OA
ATOM     10  H   UNL     1      -8.120  -9.135   2.732  1.00  0.00     0.293 HD
ENDBRANCH   6   9
ENDBRANCH   1   3
BRANCH   2  11
ATOM     11  C   UNL     1     -15.286  -7.639  -1.863  1.00  0.00     0.189 C 
ATOM     12  O   UNL     1     -15.987  -8.665  -2.085  1.00  0.00    -0.289 OA
BRANCH  11  13
ATOM     13  C   UNL     1     -15.499  -6.430  -2.692  1.00  0.00     0.064 A 
ATOM     14  C   UNL     1     -15.630  -6.503  -4.097  1.00  0.00     0.130 A 
ATOM     15  C   UNL     1     -15.546  -5.172  -2.066  1.00  0.00     0.020 A 
ATOM     16  C   UNL     1     -15.845  -5.332  -4.840  1.00  0.00     0.093 A 
ATOM     17  C   UNL     1     -15.754  -4.012  -2.815  1.00  0.00     0.047 A 
ATOM     18  C   UNL     1     -15.908  -4.090  -4.204  1.00  0.00     0.119 A 
BRANCH  14  19
ATOM     19  O   UNL     1     -15.522  -7.727  -4.757  1.00  0.00    -0.507 OA
ATOM     20  H   UNL     1     -15.050  -8.519  -4.338  1.00  0.00     0.293 HD
ENDBRANCH  14  19
BRANCH  18  21
ATOM     21  O   UNL     1     -16.120  -2.939  -4.961  1.00  0.00    -0.508 OA
ATOM     22  H   UNL     1     -15.355  -2.456  -5.416  1.00  0.00     0.293 HD
ENDBRANCH  18  21
ENDBRANCH  11  13
ENDBRANCH   2  11
TORSDOF 6
ENDMDL
MODEL 5
REMARK VINA RESULT:    -5.889      1.103      2.014
REMARK INTER + INTRA:          -7.995
REMARK INTER:                  -7.477
REMARK INTRA:                  -0.518
REMARK UNBOUND:                -0.557
REMARK SMILES O=C(C=Cc1ccc(O)cc1)c1ccc(O)cc1O
REMARK SMILES IDX 4 1 3 2 5 3 6 4 7 5 8 6 11 7 10 8 9 9 2 11 1 12 12 13 18 14
REMARK SMILES IDX 13 15 17 16 14 17 15 18 19 19 16 21
REMARK H PARENT 9 10 19 20 16 22
REMARK Flexibility Score: inf
ROOT
ATOM      1  C   UNL     1     -15.389  -2.371  -5.901  1.00  0.00     0.012 C 
ATOM      2  C   UNL     1     -16.363  -3.018  -5.244  1.00  0.00     0.053 C 
ENDROOT
BRANCH   1   3
ATOM      3  C   UNL     1     -15.574  -1.051  -6.553  1.00  0.00    -0.025 A 
ATOM      4  C   UNL     1     -15.395   0.111  -5.783  1.00  0.00     0.012 A 
ATOM      5  C   UNL     1     -15.569   1.376  -6.353  1.00  0.00     0.047 A 
ATOM      6  C   UNL     1     -15.937   1.496  -7.699  1.00  0.00     0.115 A 
ATOM      7  C   UNL     1     -15.960  -0.920  -7.903  1.00  0.00     0.012 A 
ATOM      8  C   UNL     1     -16.133   0.347  -8.469  1.00  0.00     0.047 A 
BRANCH   6   9
ATOM      9  O   UNL     1     -16.112   2.751  -8.278  1.00  0.00    -0.508 OA
ATOM     10  H   UNL     1     -15.533   3.063  -9.049  1.00  0.00     0.293 HD
ENDBRANCH   6   9
ENDBRANCH   1   3
BRANCH   2  11
ATOM     11  C   UNL     1     -16.146  -4.341  -4.618  1.00  0.00     0.189 C 
ATOM     12  O   UNL     1     -15.792  -4.413  -3.409  1.00  0.00    -0.289 OA
BRANCH  11  13
ATOM     13  C   UNL     1     -16.286  -5.590  -5.402  1.00  0.00     0.064 A 
ATOM     14  C   UNL     1     -17.527  -6.255  -5.529  1.00  0.00     0.130 A 
ATOM     15  C   UNL     1     -15.149  -6.143  -6.016  1.00  0.00     0.020 A 
ATOM     16  C   UNL     1     -17.615  -7.429  -6.294  1.00  0.00     0.093 A 
ATOM     17  C   UNL     1     -15.246  -7.315  -6.770  1.00  0.00     0.047 A 
ATOM     18  C   UNL     1     -16.480  -7.958  -6.914  1.00  0.00     0.119 A 
BRANCH  14  19
ATOM     19  O   UNL     1     -18.662  -5.771  -4.879  1.00  0.00    -0.507 OA
ATOM     20  H   UNL     1     -18.945  -6.119  -3.970  1.00  0.00     0.293 HD
ENDBRANCH  14  19
BRANCH  18  21
ATOM     21  O   UNL     1     -16.590  -9.125  -7.667  1.00  0.00    -0.508 OA
ATOM     22  H   UNL     1     -15.946  -9.897  -7.544  1.00  0.00     0.293 HD
ENDBRANCH  18  21
ENDBRANCH  11  13
ENDBRANCH   2  11
TORSDOF 6
ENDMDL
MODEL 6
REMARK VINA RESULT:    -5.507      2.032      2.479
REMARK INTER + INTRA:          -7.513
REMARK INTER:                  -7.091
REMARK INTRA:                  -0.422
REMARK UNBOUND:                -0.557
REMARK SMILES O=C(C=Cc1ccc(O)cc1)c1ccc(O)cc1O
REMARK SMILES IDX 4 1 3 2 5 3 6 4 7 5 8 6 11 7 10 8 9 9 2 11 1 12 12 13 18 14
REMARK SMILES IDX 13 15 17 16 14 17 15 18 19 19 16 21
REMARK H PARENT 9 10 19 20 16 22
REMARK Flexibility Score: inf
ROOT
ATOM      1  C   UNL     1     -15.131  -2.685  -5.955  1.00  0.00     0.012 C 
ATOM      2  C   UNL     1     -16.010  -3.422  -5.261  1.00  0.00     0.053 C 
ENDROOT
BRANCH   1   3
ATOM      3  C   UNL     1     -15.416  -1.316  -6.450  1.00  0.00    -0.025 A 
ATOM      4  C   UNL     1     -15.726  -1.144  -7.810  1.00  0.00     0.012 A 
ATOM      5  C   UNL     1     -15.991   0.130  -8.323  1.00  0.00     0.047 A 
ATOM      6  C   UNL     1     -15.938   1.251  -7.486  1.00  0.00     0.115 A 
ATOM      7  C   UNL     1     -15.349  -0.179  -5.619  1.00  0.00     0.012 A 
ATOM      8  C   UNL     1     -15.615   1.092  -6.137  1.00  0.00     0.047 A 
BRANCH   6   9
ATOM      9  O   UNL     1     -16.201   2.524  -7.986  1.00  0.00    -0.508 OA
ATOM     10  H   UNL     1     -16.923   3.112  -7.585  1.00  0.00     0.293 HD
ENDBRANCH   6   9
ENDBRANCH   1   3
BRANCH   2  11
ATOM     11  C   UNL     1     -15.696  -4.791  -4.796  1.00  0.00     0.189 C 
ATOM     12  O   UNL     1     -14.662  -5.377  -5.219  1.00  0.00    -0.289 OA
BRANCH  11  13
ATOM     13  C   UNL     1     -16.606  -5.513  -3.876  1.00  0.00     0.064 A 
ATOM     14  C   UNL     1     -17.728  -6.231  -4.350  1.00  0.00     0.130 A 
ATOM     15  C   UNL     1     -16.362  -5.462  -2.493  1.00  0.00     0.020 A 
ATOM     16  C   UNL     1     -18.554  -6.913  -3.442  1.00  0.00     0.093 A 
ATOM     17  C   UNL     1     -17.195  -6.138  -1.598  1.00  0.00     0.047 A 
ATOM     18  C   UNL     1     -18.290  -6.869  -2.071  1.00  0.00     0.119 A 
BRANCH  14  19
ATOM     19  O   UNL     1     -18.037  -6.248  -5.709  1.00  0.00    -0.507 OA
ATOM     20  H   UNL     1     -17.560  -5.650  -6.372  1.00  0.00     0.293 HD
ENDBRANCH  14  19
BRANCH  18  21
ATOM     21  O   UNL     1     -19.125  -7.550  -1.188  1.00  0.00    -0.508 OA
ATOM     22  H   UNL     1     -20.102  -7.712  -1.401  1.00  0.00     0.293 HD
ENDBRANCH  18  21
ENDBRANCH  11  13
ENDBRANCH   2  11
TORSDOF 6
ENDMDL
MODEL 7
REMARK VINA RESULT:    -5.380      5.544      8.857
REMARK INTER + INTRA:          -7.352
REMARK INTER:                  -6.743
REMARK INTRA:                  -0.610
REMARK UNBOUND:                -0.557
REMARK SMILES O=C(C=Cc1ccc(O)cc1)c1ccc(O)cc1O
REMARK SMILES IDX 4 1 3 2 5 3 6 4 7 5 8 6 11 7 10 8 9 9 2 11 1 12 12 13 18 14
REMARK SMILES IDX 13 15 17 16 14 17 15 18 19 19 16 21
REMARK H PARENT 9 10 19 20 16 22
REMARK Flexibility Score: inf
ROOT
ATOM      1  C   UNL     1     -11.724  -8.777  -2.628  1.00  0.00     0.012 C 
ATOM      2  C   UNL     1     -12.951  -8.745  -3.168  1.00  0.00     0.053 C 
ENDROOT
BRANCH   1   3
ATOM      3  C   UNL     1     -11.468  -8.774  -1.167  1.00  0.00    -0.025 A 
ATOM      4  C   UNL     1     -12.517  -9.124  -0.299  1.00  0.00     0.012 A 
ATOM      5  C   UNL     1     -12.324  -9.125   1.086  1.00  0.00     0.047 A 
ATOM      6  C   UNL     1     -11.083  -8.764   1.624  1.00  0.00     0.115 A 
ATOM      7  C   UNL     1     -10.227  -8.396  -0.615  1.00  0.00     0.012 A 
ATOM      8  C   UNL     1     -10.039  -8.398   0.771  1.00  0.00     0.047 A 
BRANCH   6   9
ATOM      9  O   UNL     1     -10.879  -8.761   3.002  1.00  0.00    -0.508 OA
ATOM     10  H   UNL     1     -11.261  -8.031   3.592  1.00  0.00     0.293 HD
ENDBRANCH   6   9
ENDBRANCH   1   3
BRANCH   2  11
ATOM     11  C   UNL     1     -13.168  -8.734  -4.631  1.00  0.00     0.189 C 
ATOM     12  O   UNL     1     -12.218  -9.024  -5.409  1.00  0.00    -0.289 OA
BRANCH  11  13
ATOM     13  C   UNL     1     -14.473  -8.335  -5.208  1.00  0.00     0.064 A 
ATOM     14  C   UNL     1     -14.561  -7.561  -6.387  1.00  0.00     0.130 A 
ATOM     15  C   UNL     1     -15.656  -8.714  -4.549  1.00  0.00     0.020 A 
ATOM     16  C   UNL     1     -15.821  -7.219  -6.905  1.00  0.00     0.093 A 
ATOM     17  C   UNL     1     -16.904  -8.362  -5.069  1.00  0.00     0.047 A 
ATOM     18  C   UNL     1     -16.989  -7.618  -6.251  1.00  0.00     0.119 A 
BRANCH  14  19
ATOM     19  O   UNL     1     -13.408  -7.111  -7.029  1.00  0.00    -0.507 OA
ATOM     20  H   UNL     1     -12.938  -7.669  -7.732  1.00  0.00     0.293 HD
ENDBRANCH  14  19
BRANCH  18  21
ATOM     21  O   UNL     1     -18.228  -7.265  -6.780  1.00  0.00    -0.508 OA
ATOM     22  H   UNL     1     -19.081  -7.362  -6.243  1.00  0.00     0.293 HD
ENDBRANCH  18  21
ENDBRANCH  11  13
ENDBRANCH   2  11
TORSDOF 6
ENDMDL
MODEL 8
REMARK VINA RESULT:    -5.222      6.418      8.872
REMARK INTER + INTRA:          -7.152
REMARK INTER:                  -6.685
REMARK INTRA:                  -0.468
REMARK UNBOUND:                -0.557
REMARK SMILES O=C(C=Cc1ccc(O)cc1)c1ccc(O)cc1O
REMARK SMILES IDX 4 1 3 2 5 3 6 4 7 5 8 6 11 7 10 8 9 9 2 11 1 12 12 13 18 14
REMARK SMILES IDX 13 15 17 16 14 17 15 18 19 19 16 21
REMARK H PARENT 9 10 19 20 16 22
REMARK Flexibility Score: inf
ROOT
ATOM      1  C   UNL     1     -14.487  -7.770  -2.370  1.00  0.00     0.012 C 
ATOM      2  C   UNL     1     -13.766  -8.736  -1.783  1.00  0.00     0.053 C 
ENDROOT
BRANCH   1   3
ATOM      3  C   UNL     1     -14.586  -7.597  -3.841  1.00  0.00    -0.025 A 
ATOM      4  C   UNL     1     -13.944  -8.529  -4.673  1.00  0.00     0.012 A 
ATOM      5  C   UNL     1     -14.002  -8.400  -6.064  1.00  0.00     0.047 A 
ATOM      6  C   UNL     1     -14.693  -7.328  -6.643  1.00  0.00     0.115 A 
ATOM      7  C   UNL     1     -15.266  -6.512  -4.432  1.00  0.00     0.012 A 
ATOM      8  C   UNL     1     -15.321  -6.387  -5.824  1.00  0.00     0.047 A 
BRANCH   6   9
ATOM      9  O   UNL     1     -14.758  -7.189  -8.027  1.00  0.00    -0.508 OA
ATOM     10  H   UNL     1     -14.484  -6.328  -8.486  1.00  0.00     0.293 HD
ENDBRANCH   6   9
ENDBRANCH   1   3
BRANCH   2  11
ATOM     11  C   UNL     1     -13.677  -8.869  -0.312  1.00  0.00     0.189 C 
ATOM     12  O   UNL     1     -14.732  -8.982   0.372  1.00  0.00    -0.289 OA
BRANCH  11  13
ATOM     13  C   UNL     1     -12.370  -8.818   0.383  1.00  0.00     0.064 A 
ATOM     14  C   UNL     1     -12.268  -8.943   1.787  1.00  0.00     0.130 A 
ATOM     15  C   UNL     1     -11.202  -8.614  -0.372  1.00  0.00     0.020 A 
ATOM     16  C   UNL     1     -11.006  -8.903   2.401  1.00  0.00     0.093 A 
ATOM     17  C   UNL     1      -9.952  -8.569   0.250  1.00  0.00     0.047 A 
ATOM     18  C   UNL     1      -9.851  -8.718   1.637  1.00  0.00     0.119 A 
BRANCH  14  19
ATOM     19  O   UNL     1     -13.412  -9.080   2.573  1.00  0.00    -0.507 OA
ATOM     20  H   UNL     1     -14.320  -9.262   2.164  1.00  0.00     0.293 HD
ENDBRANCH  14  19
BRANCH  18  21
ATOM     21  O   UNL     1      -8.609  -8.679   2.268  1.00  0.00    -0.508 OA
ATOM     22  H   UNL     1      -7.801  -9.148   1.875  1.00  0.00     0.293 HD
ENDBRANCH  18  21
ENDBRANCH  11  13
ENDBRANCH   2  11
TORSDOF 6
ENDMDL
MODEL 9
REMARK VINA RESULT:    -5.087      6.425      8.284
REMARK INTER + INTRA:          -6.982
REMARK INTER:                  -6.445
REMARK INTRA:                  -0.537
REMARK UNBOUND:                -0.557
REMARK SMILES O=C(C=Cc1ccc(O)cc1)c1ccc(O)cc1O
REMARK SMILES IDX 4 1 3 2 5 3 6 4 7 5 8 6 11 7 10 8 9 9 2 11 1 12 12 13 18 14
REMARK SMILES IDX 13 15 17 16 14 17 15 18 19 19 16 21
REMARK H PARENT 9 10 19 20 16 22
REMARK Flexibility Score: inf
ROOT
ATOM      1  C   UNL     1     -15.270  -6.754  -0.948  1.00  0.00     0.012 C 
ATOM      2  C   UNL     1     -14.367  -7.742  -1.024  1.00  0.00     0.053 C 
ENDROOT
BRANCH   1   3
ATOM      3  C   UNL     1     -15.672  -5.917  -2.105  1.00  0.00    -0.025 A 
ATOM      4  C   UNL     1     -16.357  -6.526  -3.171  1.00  0.00     0.012 A 
ATOM      5  C   UNL     1     -16.745  -5.778  -4.286  1.00  0.00     0.047 A 
ATOM      6  C   UNL     1     -16.445  -4.412  -4.357  1.00  0.00     0.115 A 
ATOM      7  C   UNL     1     -15.359  -4.545  -2.193  1.00  0.00     0.012 A 
ATOM      8  C   UNL     1     -15.750  -3.801  -3.311  1.00  0.00     0.047 A 
BRANCH   6   9
ATOM      9  O   UNL     1     -16.827  -3.657  -5.463  1.00  0.00    -0.508 OA
ATOM     10  H   UNL     1     -17.550  -3.977  -6.098  1.00  0.00     0.293 HD
ENDBRANCH   6   9
ENDBRANCH   1   3
BRANCH   2  11
ATOM     11  C   UNL     1     -13.979  -8.547   0.155  1.00  0.00     0.189 C 
ATOM     12  O   UNL     1     -14.867  -9.125   0.841  1.00  0.00    -0.289 OA
BRANCH  11  13
ATOM     13  C   UNL     1     -12.564  -8.646   0.581  1.00  0.00     0.064 A 
ATOM     14  C   UNL     1     -12.207  -8.944   1.916  1.00  0.00     0.130 A 
ATOM     15  C   UNL     1     -11.548  -8.412  -0.361  1.00  0.00     0.020 A 
ATOM     16  C   UNL     1     -10.852  -9.042   2.271  1.00  0.00     0.093 A 
ATOM     17  C   UNL     1     -10.203  -8.505   0.004  1.00  0.00     0.047 A 
ATOM     18  C   UNL     1      -9.852  -8.825   1.320  1.00  0.00     0.119 A 
BRANCH  14  19
ATOM     19  O   UNL     1     -13.188  -9.117   2.892  1.00  0.00    -0.507 OA
ATOM     20  H   UNL     1     -14.061  -9.590   2.692  1.00  0.00     0.293 HD
ENDBRANCH  14  19
BRANCH  18  21
ATOM     21  O   UNL     1      -8.514  -8.925   1.694  1.00  0.00    -0.508 OA
ATOM     22  H   UNL     1      -7.767  -8.868   1.012  1.00  0.00     0.293 HD
ENDBRANCH  18  21
ENDBRANCH  11  13
ENDBRANCH   2  11
TORSDOF 6
ENDMDL
