MODEL 1
REMARK VINA RESULT:    -4.443      0.000      0.000
REMARK INTER + INTRA:          -6.580
REMARK INTER:                  -6.131
REMARK INTRA:                  -0.449
REMARK UNBOUND:                -0.449
REMARK SMILES CCCCCCCCO
REMARK SMILES IDX 5 1 4 2 3 3 2 4 1 5 6 6 7 7 8 8 9 9
REMARK H PARENT 9 10
REMARK Flexibility Score: inf
ROOT
ATOM      1  C   UNL     1       1.083  -7.643  -0.516  1.00  0.00     0.000 C 
ENDROOT
BRANCH   1   2
ATOM      2  C   UNL     1       2.065  -6.482  -0.285  1.00  0.00    -0.000 C 
BRANCH   2   3
ATOM      3  C   UNL     1       1.923  -5.371  -1.337  1.00  0.00    -0.000 C 
BRANCH   3   4
ATOM      4  C   UNL     1       2.205  -5.866  -2.764  1.00  0.00    -0.003 C 
ATOM      5  C   UNL     1       3.667  -6.269  -2.927  1.00  0.00     0.004 C 
ENDBRANCH   3   4
ENDBRANCH   2   3
ENDBRANCH   1   2
BRANCH   1   6
ATOM      6  C   UNL     1       1.683  -9.007  -0.136  1.00  0.00     0.002 C 
BRANCH   6   7
ATOM      7  C   UNL     1       3.166  -8.915   0.252  1.00  0.00     0.028 C 
BRANCH   7   8
ATOM      8  C   UNL     1       3.434  -9.552   1.620  1.00  0.00     0.156 C 
BRANCH   8   9
ATOM      9  O   UNL     1       2.360  -9.330   2.495  1.00  0.00    -0.396 OA
ATOM     10  H   UNL     1       1.563  -9.155   1.929  1.00  0.00     0.210 HD
ENDBRANCH   8   9
ENDBRANCH   7   8
ENDBRANCH   6   7
ENDBRANCH   1   6
TORSDOF 7
ENDMDL
MODEL 2
REMARK VINA RESULT:    -4.349      7.168      8.516
REMARK INTER + INTRA:          -6.450
REMARK INTER:                  -6.016
REMARK INTRA:                  -0.433
REMARK UNBOUND:                -0.449
REMARK SMILES CCCCCCCCO
REMARK SMILES IDX 5 1 4 2 3 3 2 4 1 5 6 6 7 7 8 8 9 9
REMARK H PARENT 9 10
REMARK Flexibility Score: inf
ROOT
ATOM      1  C   UNL     1      -3.106  -7.398   2.545  1.00  0.00     0.000 C 
ENDROOT
BRANCH   1   2
ATOM      2  C   UNL     1      -3.877  -6.069   2.460  1.00  0.00    -0.000 C 
BRANCH   2   3
ATOM      3  C   UNL     1      -3.615  -5.156   3.669  1.00  0.00    -0.000 C 
BRANCH   3   4
ATOM      4  C   UNL     1      -4.909  -4.589   4.274  1.00  0.00    -0.003 C 
ATOM      5  C   UNL     1      -5.708  -5.679   4.982  1.00  0.00     0.004 C 
ENDBRANCH   3   4
ENDBRANCH   2   3
ENDBRANCH   1   2
BRANCH   1   6
ATOM      6  C   UNL     1      -4.003  -8.617   2.277  1.00  0.00     0.002 C 
BRANCH   6   7
ATOM      7  C   UNL     1      -5.463  -8.230   1.999  1.00  0.00     0.028 C 
BRANCH   7   8
ATOM      8  C   UNL     1      -5.995  -8.904   0.729  1.00  0.00     0.156 C 
BRANCH   8   9
ATOM      9  O   UNL     1      -5.311  -8.446  -0.406  1.00  0.00    -0.396 OA
ATOM     10  H   UNL     1      -5.716  -7.572  -0.649  1.00  0.00     0.210 HD
ENDBRANCH   8   9
ENDBRANCH   7   8
ENDBRANCH   6   7
ENDBRANCH   1   6
TORSDOF 7
ENDMDL
MODEL 3
REMARK VINA RESULT:    -4.264      2.765      4.674
REMARK INTER + INTRA:          -6.333
REMARK INTER:                  -6.068
REMARK INTRA:                  -0.265
REMARK UNBOUND:                -0.449
REMARK SMILES CCCCCCCCO
REMARK SMILES IDX 5 1 4 2 3 3 2 4 1 5 6 6 7 7 8 8 9 9
REMARK H PARENT 9 10
REMARK Flexibility Score: inf
ROOT
ATOM      1  C   UNL     1       0.996  -6.295  -1.165  1.00  0.00     0.000 C 
ENDROOT
BRANCH   1   2
ATOM      2  C   UNL     1       1.791  -7.142  -0.157  1.00  0.00    -0.000 C 
BRANCH   2   3
ATOM      3  C   UNL     1       1.119  -8.491   0.142  1.00  0.00    -0.000 C 
BRANCH   3   4
ATOM      4  C   UNL     1      -0.319  -8.568  -0.395  1.00  0.00    -0.003 C 
ATOM      5  C   UNL     1      -1.333  -8.533   0.744  1.00  0.00     0.004 C 
ENDBRANCH   3   4
ENDBRANCH   2   3
ENDBRANCH   1   2
BRANCH   1   6
ATOM      6  C   UNL     1       1.870  -5.248  -1.875  1.00  0.00     0.002 C 
BRANCH   6   7
ATOM      7  C   UNL     1       3.366  -5.593  -1.827  1.00  0.00     0.028 C 
BRANCH   7   8
ATOM      8  C   UNL     1       3.843  -6.230  -3.137  1.00  0.00     0.156 C 
BRANCH   8   9
ATOM      9  O   UNL     1       2.786  -6.341  -4.053  1.00  0.00    -0.396 OA
ATOM     10  H   UNL     1       2.991  -7.124  -4.629  1.00  0.00     0.210 HD
ENDBRANCH   8   9
ENDBRANCH   7   8
ENDBRANCH   6   7
ENDBRANCH   1   6
TORSDOF 7
ENDMDL
MODEL 4
REMARK VINA RESULT:    -4.255      7.392      8.827
REMARK INTER + INTRA:          -6.321
REMARK INTER:                  -5.984
REMARK INTRA:                  -0.336
REMARK UNBOUND:                -0.449
REMARK SMILES CCCCCCCCO
REMARK SMILES IDX 5 1 4 2 3 3 2 4 1 5 6 6 7 7 8 8 9 9
REMARK H PARENT 9 10
REMARK Flexibility Score: inf
ROOT
ATOM      1  C   UNL     1      -3.965  -6.090   2.355  1.00  0.00     0.000 C 
ENDROOT
BRANCH   1   2
ATOM      2  C   UNL     1      -3.392  -7.512   2.482  1.00  0.00    -0.000 C 
BRANCH   2   3
ATOM      3  C   UNL     1      -4.455  -8.600   2.262  1.00  0.00    -0.000 C 
BRANCH   3   4
ATOM      4  C   UNL     1      -5.854  -8.017   2.006  1.00  0.00    -0.003 C 
ATOM      5  C   UNL     1      -6.578  -8.791   0.908  1.00  0.00     0.004 C 
ENDBRANCH   3   4
ENDBRANCH   2   3
ENDBRANCH   1   2
BRANCH   1   6
ATOM      6  C   UNL     1      -3.566  -5.187   3.533  1.00  0.00     0.002 C 
BRANCH   6   7
ATOM      7  C   UNL     1      -4.771  -4.478   4.172  1.00  0.00     0.028 C 
BRANCH   7   8
ATOM      8  C   UNL     1      -5.617  -5.443   5.009  1.00  0.00     0.156 C 
BRANCH   8   9
ATOM      9  O   UNL     1      -4.968  -5.767   6.210  1.00  0.00    -0.396 OA
ATOM     10  H   UNL     1      -4.280  -6.447   5.986  1.00  0.00     0.210 HD
ENDBRANCH   8   9
ENDBRANCH   7   8
ENDBRANCH   6   7
ENDBRANCH   1   6
TORSDOF 7
ENDMDL
MODEL 5
REMARK VINA RESULT:    -4.251      2.209      2.819
REMARK INTER + INTRA:          -6.315
REMARK INTER:                  -6.134
REMARK INTRA:                  -0.181
REMARK UNBOUND:                -0.449
REMARK SMILES CCCCCCCCO
REMARK SMILES IDX 5 1 4 2 3 3 2 4 1 5 6 6 7 7 8 8 9 9
REMARK H PARENT 9 10
REMARK Flexibility Score: inf
ROOT
ATOM      1  C   UNL     1       0.933  -7.269  -0.683  1.00  0.00     0.000 C 
ENDROOT
BRANCH   1   2
ATOM      2  C   UNL     1       2.287  -6.776  -0.145  1.00  0.00    -0.000 C 
BRANCH   2   3
ATOM      3  C   UNL     1       2.772  -5.497  -0.847  1.00  0.00    -0.000 C 
BRANCH   3   4
ATOM      4  C   UNL     1       2.446  -5.486  -2.349  1.00  0.00    -0.003 C 
ATOM      5  C   UNL     1       3.522  -6.214  -3.149  1.00  0.00     0.004 C 
ENDBRANCH   3   4
ENDBRANCH   2   3
ENDBRANCH   1   2
BRANCH   1   6
ATOM      6  C   UNL     1       0.522  -8.626  -0.089  1.00  0.00     0.002 C 
BRANCH   6   7
ATOM      7  C   UNL     1      -0.991  -8.879  -0.177  1.00  0.00     0.028 C 
BRANCH   7   8
ATOM      8  C   UNL     1      -1.705  -8.504   1.126  1.00  0.00     0.156 C 
BRANCH   8   9
ATOM      9  O   UNL     1      -2.360  -9.616   1.676  1.00  0.00    -0.396 OA
ATOM     10  H   UNL     1      -3.214  -9.282   2.057  1.00  0.00     0.210 HD
ENDBRANCH   8   9
ENDBRANCH   7   8
ENDBRANCH   6   7
ENDBRANCH   1   6
TORSDOF 7
ENDMDL
MODEL 6
REMARK VINA RESULT:    -4.245      7.076      8.370
REMARK INTER + INTRA:          -6.307
REMARK INTER:                  -6.002
REMARK INTRA:                  -0.305
REMARK UNBOUND:                -0.449
REMARK SMILES CCCCCCCCO
REMARK SMILES IDX 5 1 4 2 3 3 2 4 1 5 6 6 7 7 8 8 9 9
REMARK H PARENT 9 10
REMARK Flexibility Score: inf
ROOT
ATOM      1  C   UNL     1      -3.463  -5.336   3.071  1.00  0.00     0.000 C 
ENDROOT
BRANCH   1   2
ATOM      2  C   UNL     1      -4.248  -6.293   2.158  1.00  0.00    -0.000 C 
BRANCH   2   3
ATOM      3  C   UNL     1      -3.970  -7.771   2.474  1.00  0.00    -0.000 C 
BRANCH   3   4
ATOM      4  C   UNL     1      -2.470  -8.105   2.473  1.00  0.00    -0.003 C 
ATOM      5  C   UNL     1      -1.976  -8.406   1.061  1.00  0.00     0.004 C 
ENDBRANCH   3   4
ENDBRANCH   2   3
ENDBRANCH   1   2
BRANCH   1   6
ATOM      6  C   UNL     1      -4.379  -4.523   4.000  1.00  0.00     0.002 C 
BRANCH   6   7
ATOM      7  C   UNL     1      -5.816  -5.065   4.040  1.00  0.00     0.028 C 
BRANCH   7   8
ATOM      8  C   UNL     1      -6.111  -5.790   5.357  1.00  0.00     0.156 C 
BRANCH   8   9
ATOM      9  O   UNL     1      -5.008  -5.729   6.222  1.00  0.00    -0.396 OA
ATOM     10  H   UNL     1      -5.120  -4.908   6.768  1.00  0.00     0.210 HD
ENDBRANCH   8   9
ENDBRANCH   7   8
ENDBRANCH   6   7
ENDBRANCH   1   6
TORSDOF 7
ENDMDL
MODEL 7
REMARK VINA RESULT:    -4.233      2.484      4.487
REMARK INTER + INTRA:          -6.290
REMARK INTER:                  -5.941
REMARK INTRA:                  -0.349
REMARK UNBOUND:                -0.449
REMARK SMILES CCCCCCCCO
REMARK SMILES IDX 5 1 4 2 3 3 2 4 1 5 6 6 7 7 8 8 9 9
REMARK H PARENT 9 10
REMARK Flexibility Score: inf
ROOT
ATOM      1  C   UNL     1       1.054  -7.192  -0.871  1.00  0.00     0.000 C 
ENDROOT
BRANCH   1   2
ATOM      2  C   UNL     1       1.007  -8.422   0.053  1.00  0.00    -0.000 C 
BRANCH   2   3
ATOM      3  C   UNL     1       2.245  -9.320  -0.096  1.00  0.00    -0.000 C 
BRANCH   3   4
ATOM      4  C   UNL     1       3.047  -9.445   1.209  1.00  0.00    -0.003 C 
ATOM      5  C   UNL     1       4.501  -9.034   1.001  1.00  0.00     0.004 C 
ENDBRANCH   3   4
ENDBRANCH   2   3
ENDBRANCH   1   2
BRANCH   1   6
ATOM      6  C   UNL     1       2.221  -6.248  -0.537  1.00  0.00     0.002 C 
BRANCH   6   7
ATOM      7  C   UNL     1       2.668  -5.408  -1.743  1.00  0.00     0.028 C 
BRANCH   7   8
ATOM      8  C   UNL     1       3.456  -6.245  -2.756  1.00  0.00     0.156 C 
BRANCH   8   9
ATOM      9  O   UNL     1       2.764  -6.345  -3.972  1.00  0.00    -0.396 OA
ATOM     10  H   UNL     1       3.022  -7.214  -4.375  1.00  0.00     0.210 HD
ENDBRANCH   8   9
ENDBRANCH   7   8
ENDBRANCH   6   7
ENDBRANCH   1   6
TORSDOF 7
ENDMDL
MODEL 8
REMARK VINA RESULT:    -4.131      1.887      2.488
REMARK INTER + INTRA:          -6.150
REMARK INTER:                  -5.847
REMARK INTRA:                  -0.302
REMARK UNBOUND:                -0.449
REMARK SMILES CCCCCCCCO
REMARK SMILES IDX 5 1 4 2 3 3 2 4 1 5 6 6 7 7 8 8 9 9
REMARK H PARENT 9 10
REMARK Flexibility Score: inf
ROOT
ATOM      1  C   UNL     1       2.609  -7.197  -0.475  1.00  0.00     0.000 C 
ENDROOT
BRANCH   1   2
ATOM      2  C   UNL     1       1.996  -5.804  -0.705  1.00  0.00    -0.000 C 
BRANCH   2   3
ATOM      3  C   UNL     1       2.445  -5.174  -2.033  1.00  0.00    -0.000 C 
BRANCH   3   4
ATOM      4  C   UNL     1       3.076  -6.196  -2.991  1.00  0.00    -0.003 C 
ATOM      5  C   UNL     1       4.543  -5.870  -3.252  1.00  0.00     0.004 C 
ENDBRANCH   3   4
ENDBRANCH   2   3
ENDBRANCH   1   2
BRANCH   1   6
ATOM      6  C   UNL     1       1.573  -8.222   0.014  1.00  0.00     0.002 C 
BRANCH   6   7
ATOM      7  C   UNL     1       0.160  -7.939  -0.519  1.00  0.00     0.028 C 
BRANCH   7   8
ATOM      8  C   UNL     1      -0.834  -9.024  -0.092  1.00  0.00     0.156 C 
BRANCH   8   9
ATOM      9  O   UNL     1      -0.375 -10.298  -0.460  1.00  0.00    -0.396 OA
ATOM     10  H   UNL     1       0.557 -10.370  -0.127  1.00  0.00     0.210 HD
ENDBRANCH   8   9
ENDBRANCH   7   8
ENDBRANCH   6   7
ENDBRANCH   1   6
TORSDOF 7
ENDMDL
MODEL 9
REMARK VINA RESULT:    -3.994      6.243      7.489
REMARK INTER + INTRA:          -5.960
REMARK INTER:                  -5.694
REMARK INTRA:                  -0.266
REMARK UNBOUND:                -0.449
REMARK SMILES CCCCCCCCO
REMARK SMILES IDX 5 1 4 2 3 3 2 4 1 5 6 6 7 7 8 8 9 9
REMARK H PARENT 9 10
REMARK Flexibility Score: inf
ROOT
ATOM      1  C   UNL     1      -4.881  -8.032   2.487  1.00  0.00     0.000 C 
ENDROOT
BRANCH   1   2
ATOM      2  C   UNL     1      -5.410  -6.609   2.736  1.00  0.00    -0.000 C 
BRANCH   2   3
ATOM      3  C   UNL     1      -4.324  -5.536   2.561  1.00  0.00    -0.000 C 
BRANCH   3   4
ATOM      4  C   UNL     1      -4.075  -4.731   3.846  1.00  0.00    -0.003 C 
ATOM      5  C   UNL     1      -5.107  -5.072   4.917  1.00  0.00     0.004 C 
ENDBRANCH   3   4
ENDBRANCH   2   3
ENDBRANCH   1   2
BRANCH   1   6
ATOM      6  C   UNL     1      -3.761  -8.069   1.434  1.00  0.00     0.002 C 
BRANCH   6   7
ATOM      7  C   UNL     1      -2.429  -8.583   2.002  1.00  0.00     0.028 C 
BRANCH   7   8
ATOM      8  C   UNL     1      -1.303  -8.503   0.965  1.00  0.00     0.156 C 
BRANCH   8   9
ATOM      9  O   UNL     1      -1.757  -8.907  -0.300  1.00  0.00    -0.396 OA
ATOM     10  H   UNL     1      -2.275  -8.146  -0.671  1.00  0.00     0.210 HD
ENDBRANCH   8   9
ENDBRANCH   7   8
ENDBRANCH   6   7
ENDBRANCH   1   6
TORSDOF 7
ENDMDL
