MODEL 1
REMARK VINA RESULT:    -3.972      0.000      0.000
REMARK INTER + INTRA:          -4.271
REMARK INTER:                  -4.901
REMARK INTRA:                   0.630
REMARK UNBOUND:                 0.630
REMARK SMILES C=C1[C@H]2CC[C@@H]3[C@H]2C(C)(C)CCC[C@]13C
REMARK SMILES IDX 14 1 6 2 7 3 3 4 2 5 1 6 4 7 5 8 15 9 8 10 9 11 10 12 11 13
REMARK SMILES IDX 13 15 12 16
REMARK H PARENT
REMARK Flexibility Score: 80.00
ROOT
ATOM      1  C   UNL     1     134.736 136.813 130.300  1.00  0.00    -0.008 C 
ATOM      2  C   UNL     1     134.350 135.298 130.524  1.00  0.00     0.003 C 
ATOM      3  C   UNL     1     134.195 135.157 132.053  1.00  0.00     0.006 C 
ATOM      4  C   UNL     1     133.230 136.338 132.162  1.00  0.00     0.019 C 
ATOM      5  C   UNL     1     133.984 137.428 131.453  1.00  0.00    -0.068 C 
ATOM      6  C   UNL     1     133.916 138.731 131.752  1.00  0.00     0.009 C 
ATOM      7  C   UNL     1     132.102 135.887 131.204  1.00  0.00     0.008 C 
ATOM      8  C   UNL     1     132.865 135.077 130.125  1.00  0.00     0.005 C 
ATOM      9  C   UNL     1     134.232 137.389 128.948  1.00  0.00     0.016 C 
ENDROOT
BRANCH   3  10
ATOM     10  C   UNL     1     135.485 135.101 132.978  1.00  0.00    -0.032 C 
ATOM     11  C   UNL     1     135.295 135.937 134.270  1.00  0.00     0.011 C 
ATOM     12  C   UNL     1     135.676 133.629 133.441  1.00  0.00     0.011 C 
BRANCH  10  13
ATOM     13  C   UNL     1     136.817 135.484 132.272  1.00  0.00     0.007 CG0
ATOM     14  G   UNL     1     136.908 136.916 131.753  1.00  0.00     0.000 G0
ENDBRANCH  10  13
ENDBRANCH   3  10
BRANCH   1  15
ATOM     15  C   UNL     1     136.267 137.059 130.364  1.00  0.00     0.011 C 
BRANCH  15  16
ATOM     16  C   UNL     1     136.910 136.913 131.741  1.00  0.00     0.001 CG0
ATOM     17  G   UNL     1     136.832 135.485 132.273  1.00  0.00     0.000 G0
ENDBRANCH  15  16
ENDBRANCH   1  15
TORSDOF 0
ENDMDL
MODEL 2
REMARK VINA RESULT:    -3.910      2.929      5.500
REMARK INTER + INTRA:          -4.195
REMARK INTER:                  -4.825
REMARK INTRA:                   0.630
REMARK UNBOUND:                 0.630
REMARK SMILES C=C1[C@H]2CC[C@@H]3[C@H]2C(C)(C)CCC[C@]13C
REMARK SMILES IDX 14 1 6 2 7 3 3 4 2 5 1 6 4 7 5 8 15 9 8 10 9 11 10 12 11 13
REMARK SMILES IDX 13 15 12 16
REMARK H PARENT
REMARK Flexibility Score: 80.00
ROOT
ATOM      1  C   UNL     1     138.884 136.777 130.367  1.00  0.00    -0.008 C 
ATOM      2  C   UNL     1     139.125 138.336 130.439  1.00  0.00     0.003 C 
ATOM      3  C   UNL     1     139.359 138.625 131.937  1.00  0.00     0.006 C 
ATOM      4  C   UNL     1     140.446 137.558 132.073  1.00  0.00     0.019 C 
ATOM      5  C   UNL     1     139.766 136.342 131.510  1.00  0.00    -0.068 C 
ATOM      6  C   UNL     1     139.987 135.083 131.907  1.00  0.00     0.009 C 
ATOM      7  C   UNL     1     141.459 138.031 131.004  1.00  0.00     0.008 C 
ATOM      8  C   UNL     1     140.552 138.665 129.919  1.00  0.00     0.005 C 
ATOM      9  C   UNL     1     139.360 136.137 129.034  1.00  0.00     0.016 C 
ENDROOT
BRANCH   3  10
ATOM     10  C   UNL     1     138.131 138.635 132.944  1.00  0.00    -0.032 C 
ATOM     11  C   UNL     1     138.485 137.937 134.282  1.00  0.00     0.011 C 
ATOM     12  C   UNL     1     137.820 140.117 133.300  1.00  0.00     0.011 C 
BRANCH  10  13
ATOM     13  C   UNL     1     136.803 138.067 132.366  1.00  0.00     0.007 CG0
ATOM     14  G   UNL     1     136.830 136.595 131.962  1.00  0.00     0.000 G0
ENDBRANCH  10  13
ENDBRANCH   3  10
BRANCH   1  15
ATOM     15  C   UNL     1     137.394 136.389 130.559  1.00  0.00     0.011 C 
BRANCH  15  16
ATOM     16  C   UNL     1     136.825 136.598 131.960  1.00  0.00     0.001 CG0
ATOM     17  G   UNL     1     136.807 138.067 132.370  1.00  0.00     0.000 G0
ENDBRANCH  15  16
ENDBRANCH   1  15
TORSDOF 0
ENDMDL
MODEL 3
REMARK VINA RESULT:    -3.910      2.205      3.852
REMARK INTER + INTRA:          -4.194
REMARK INTER:                  -4.824
REMARK INTRA:                   0.630
REMARK UNBOUND:                 0.630
REMARK SMILES C=C1[C@H]2CC[C@@H]3[C@H]2C(C)(C)CCC[C@]13C
REMARK SMILES IDX 14 1 6 2 7 3 3 4 2 5 1 6 4 7 5 8 15 9 8 10 9 11 10 12 11 13
REMARK SMILES IDX 13 15 12 16
REMARK H PARENT
REMARK Flexibility Score: 80.00
ROOT
ATOM      1  C   UNL     1     136.826 134.842 130.353  1.00  0.00    -0.008 C 
ATOM      2  C   UNL     1     138.343 134.470 130.582  1.00  0.00     0.003 C 
ATOM      3  C   UNL     1     138.478 134.307 132.111  1.00  0.00     0.006 C 
ATOM      4  C   UNL     1     137.306 133.330 132.208  1.00  0.00     0.019 C 
ATOM      5  C   UNL     1     136.213 134.077 131.499  1.00  0.00    -0.068 C 
ATOM      6  C   UNL     1     134.909 133.994 131.790  1.00  0.00     0.009 C 
ATOM      7  C   UNL     1     137.773 132.212 131.246  1.00  0.00     0.008 C 
ATOM      8  C   UNL     1     138.581 132.989 130.175  1.00  0.00     0.005 C 
ATOM      9  C   UNL     1     136.262 134.340 128.995  1.00  0.00     0.016 C 
ENDROOT
BRANCH   3  10
ATOM     10  C   UNL     1     138.516 135.592 133.044  1.00  0.00    -0.032 C 
ATOM     11  C   UNL     1     137.677 135.386 134.331  1.00  0.00     0.011 C 
ATOM     12  C   UNL     1     139.984 135.794 133.514  1.00  0.00     0.011 C 
BRANCH  10  13
ATOM     13  C   UNL     1     138.124 136.924 132.344  1.00  0.00     0.007 CG0
ATOM     14  G   UNL     1     136.697 136.998 131.807  1.00  0.00     0.000 G0
ENDBRANCH  10  13
ENDBRANCH   3  10
BRANCH   1  15
ATOM     15  C   UNL     1     136.564 136.370 130.425  1.00  0.00     0.011 C 
BRANCH  15  16
ATOM     16  C   UNL     1     136.698 137.006 131.806  1.00  0.00     0.001 CG0
ATOM     17  G   UNL     1     138.123 136.932 132.346  1.00  0.00     0.000 G0
ENDBRANCH  15  16
ENDBRANCH   1  15
TORSDOF 0
ENDMDL
MODEL 4
REMARK VINA RESULT:    -3.845      2.183      3.799
REMARK INTER + INTRA:          -4.114
REMARK INTER:                  -4.744
REMARK INTRA:                   0.630
REMARK UNBOUND:                 0.630
REMARK SMILES C=C1[C@H]2CC[C@@H]3[C@H]2C(C)(C)CCC[C@]13C
REMARK SMILES IDX 14 1 6 2 7 3 3 4 2 5 1 6 4 7 5 8 15 9 8 10 9 11 10 12 11 13
REMARK SMILES IDX 13 15 12 16
REMARK H PARENT
REMARK Flexibility Score: 80.00
ROOT
ATOM      1  C   UNL     1     137.033 138.780 130.439  1.00  0.00    -0.008 C 
ATOM      2  C   UNL     1     135.483 139.035 130.278  1.00  0.00     0.003 C 
ATOM      3  C   UNL     1     134.974 139.261 131.717  1.00  0.00     0.006 C 
ATOM      4  C   UNL     1     136.017 140.337 132.022  1.00  0.00     0.019 C 
ATOM      5  C   UNL     1     137.298 139.650 131.642  1.00  0.00    -0.068 C 
ATOM      6  C   UNL     1     138.484 139.856 132.227  1.00  0.00     0.009 C 
ATOM      7  C   UNL     1     135.718 141.363 130.903  1.00  0.00     0.008 C 
ATOM      8  C   UNL     1     135.248 140.469 129.727  1.00  0.00     0.005 C 
ATOM      9  C   UNL     1     137.871 139.260 129.222  1.00  0.00     0.016 C 
ENDROOT
BRANCH   3  10
ATOM     10  C   UNL     1     134.801 138.026 132.700  1.00  0.00    -0.032 C 
ATOM     11  C   UNL     1     135.292 138.364 134.131  1.00  0.00     0.011 C 
ATOM     12  C   UNL     1     133.281 137.726 132.825  1.00  0.00     0.011 C 
BRANCH  10  13
ATOM     13  C   UNL     1     135.440 136.697 132.203  1.00  0.00     0.007 CG0
ATOM     14  G   UNL     1     136.956 136.715 132.022  1.00  0.00     0.000 G0
ENDBRANCH  10  13
ENDBRANCH   3  10
BRANCH   1  15
ATOM     15  C   UNL     1     137.375 137.285 130.675  1.00  0.00     0.011 C 
BRANCH  15  16
ATOM     16  C   UNL     1     136.954 136.708 132.023  1.00  0.00     0.001 CG0
ATOM     17  G   UNL     1     135.438 136.694 132.204  1.00  0.00     0.000 G0
ENDBRANCH  15  16
ENDBRANCH   1  15
TORSDOF 0
ENDMDL
MODEL 5
REMARK VINA RESULT:    -3.815      3.335      5.176
REMARK INTER + INTRA:          -4.078
REMARK INTER:                  -4.700
REMARK INTRA:                   0.622
REMARK UNBOUND:                 0.630
REMARK SMILES C=C1[C@H]2CC[C@@H]3[C@H]2C(C)(C)CCC[C@]13C
REMARK SMILES IDX 14 1 6 2 7 3 3 4 2 5 1 6 4 7 5 8 15 9 8 10 9 11 10 12 11 13
REMARK SMILES IDX 13 15 12 16
REMARK H PARENT
REMARK Flexibility Score: 80.00
ROOT
ATOM      1  C   UNL     1     138.766 138.399 131.768  1.00  0.00    -0.008 C 
ATOM      2  C   UNL     1     138.180 137.612 133.006  1.00  0.00     0.003 C 
ATOM      3  C   UNL     1     138.873 136.234 132.955  1.00  0.00     0.006 C 
ATOM      4  C   UNL     1     140.277 136.834 132.877  1.00  0.00     0.019 C 
ATOM      5  C   UNL     1     140.147 137.793 131.727  1.00  0.00    -0.068 C 
ATOM      6  C   UNL     1     141.129 138.112 130.876  1.00  0.00     0.009 C 
ATOM      7  C   UNL     1     140.304 137.690 134.165  1.00  0.00     0.008 C 
ATOM      8  C   UNL     1     138.830 138.144 134.313  1.00  0.00     0.005 C 
ATOM      9  C   UNL     1     138.849 139.934 131.991  1.00  0.00     0.016 C 
ENDROOT
BRANCH   3  10
ATOM     10  C   UNL     1     138.413 135.155 131.885  1.00  0.00    -0.032 C 
ATOM     11  C   UNL     1     139.626 134.412 131.267  1.00  0.00     0.011 C 
ATOM     12  C   UNL     1     137.578 134.074 132.627  1.00  0.00     0.011 C 
BRANCH  10  13
ATOM     13  C   UNL     1     137.477 135.697 130.766  1.00  0.00     0.007 CG0
ATOM     14  G   UNL     1     138.074 136.772 129.862  1.00  0.00     0.000 G0
ENDBRANCH  10  13
ENDBRANCH   3  10
BRANCH   1  15
ATOM     15  C   UNL     1     137.954 138.164 130.467  1.00  0.00     0.011 C 
BRANCH  15  16
ATOM     16  C   UNL     1     138.065 136.771 129.852  1.00  0.00     0.001 CG0
ATOM     17  G   UNL     1     137.481 135.688 130.754  1.00  0.00     0.000 G0
ENDBRANCH  15  16
ENDBRANCH   1  15
TORSDOF 0
ENDMDL
MODEL 6
REMARK VINA RESULT:    -3.813      3.020      5.185
REMARK INTER + INTRA:          -4.075
REMARK INTER:                  -4.713
REMARK INTRA:                   0.638
REMARK UNBOUND:                 0.630
REMARK SMILES C=C1[C@H]2CC[C@@H]3[C@H]2C(C)(C)CCC[C@]13C
REMARK SMILES IDX 14 1 6 2 7 3 3 4 2 5 1 6 4 7 5 8 15 9 8 10 9 11 10 12 11 13
REMARK SMILES IDX 13 15 12 16
REMARK H PARENT
REMARK Flexibility Score: 80.00
ROOT
ATOM      1  C   UNL     1     136.967 138.060 131.747  1.00  0.00    -0.008 C 
ATOM      2  C   UNL     1     138.210 137.964 132.717  1.00  0.00     0.003 C 
ATOM      3  C   UNL     1     139.312 138.791 132.022  1.00  0.00     0.006 C 
ATOM      4  C   UNL     1     138.419 140.021 131.853  1.00  0.00     0.019 C 
ATOM      5  C   UNL     1     137.206 139.439 131.185  1.00  0.00    -0.068 C 
ATOM      6  C   UNL     1     136.426 140.085 130.308  1.00  0.00     0.009 C 
ATOM      7  C   UNL     1     138.022 140.301 133.322  1.00  0.00     0.008 C 
ATOM      8  C   UNL     1     137.979 138.884 133.948  1.00  0.00     0.005 C 
ATOM      9  C   UNL     1     135.600 137.997 132.481  1.00  0.00     0.016 C 
ENDROOT
BRANCH   3  10
ATOM     10  C   UNL     1     140.080 138.192 130.767  1.00  0.00    -0.032 C 
ATOM     11  C   UNL     1     140.287 139.261 129.663  1.00  0.00     0.011 C 
ATOM     12  C   UNL     1     141.503 137.774 131.234  1.00  0.00     0.011 C 
BRANCH  10  13
ATOM     13  C   UNL     1     139.451 136.902 130.167  1.00  0.00     0.007 CG0
ATOM     14  G   UNL     1     138.045 137.052 129.592  1.00  0.00     0.000 G0
ENDBRANCH  10  13
ENDBRANCH   3  10
BRANCH   1  15
ATOM     15  C   UNL     1     136.962 136.948 130.664  1.00  0.00     0.011 C 
BRANCH  15  16
ATOM     16  C   UNL     1     138.047 137.052 129.595  1.00  0.00     0.001 CG0
ATOM     17  G   UNL     1     139.451 136.900 130.172  1.00  0.00     0.000 G0
ENDBRANCH  15  16
ENDBRANCH   1  15
TORSDOF 0
ENDMDL
MODEL 7
REMARK VINA RESULT:    -3.811      3.092      5.447
REMARK INTER + INTRA:          -4.073
REMARK INTER:                  -4.708
REMARK INTRA:                   0.635
REMARK UNBOUND:                 0.630
REMARK SMILES C=C1[C@H]2CC[C@@H]3[C@H]2C(C)(C)CCC[C@]13C
REMARK SMILES IDX 14 1 6 2 7 3 3 4 2 5 1 6 4 7 5 8 15 9 8 10 9 11 10 12 11 13
REMARK SMILES IDX 13 15 12 16
REMARK H PARENT
REMARK Flexibility Score: 80.00
ROOT
ATOM      1  C   UNL     1     138.503 137.138 130.969  1.00  0.00    -0.008 C 
ATOM      2  C   UNL     1     138.103 138.353 130.042  1.00  0.00     0.003 C 
ATOM      3  C   UNL     1     138.230 139.594 130.950  1.00  0.00     0.006 C 
ATOM      4  C   UNL     1     139.655 139.250 131.386  1.00  0.00     0.019 C 
ATOM      5  C   UNL     1     139.507 137.831 131.857  1.00  0.00    -0.068 C 
ATOM      6  C   UNL     1     140.219 137.267 132.840  1.00  0.00     0.009 C 
ATOM      7  C   UNL     1     140.375 139.189 130.019  1.00  0.00     0.008 C 
ATOM      8  C   UNL     1     139.271 138.667 129.066  1.00  0.00     0.005 C 
ATOM      9  C   UNL     1     139.171 135.965 130.200  1.00  0.00     0.016 C 
ENDROOT
BRANCH   3  10
ATOM     10  C   UNL     1     137.118 139.893 132.044  1.00  0.00    -0.032 C 
ATOM     11  C   UNL     1     137.746 140.369 133.379  1.00  0.00     0.011 C 
ATOM     12  C   UNL     1     136.250 141.076 131.530  1.00  0.00     0.011 C 
BRANCH  10  13
ATOM     13  C   UNL     1     136.116 138.730 132.297  1.00  0.00     0.007 CG0
ATOM     14  G   UNL     1     136.717 137.444 132.858  1.00  0.00     0.000 G0
ENDBRANCH  10  13
ENDBRANCH   3  10
BRANCH   1  15
ATOM     15  C   UNL     1     137.295 136.553 131.747  1.00  0.00     0.011 C 
BRANCH  15  16
ATOM     16  C   UNL     1     136.717 137.439 132.847  1.00  0.00     0.001 CG0
ATOM     17  G   UNL     1     136.119 138.732 132.300  1.00  0.00     0.000 G0
ENDBRANCH  15  16
ENDBRANCH   1  15
TORSDOF 0
ENDMDL
MODEL 8
REMARK VINA RESULT:    -3.795      2.235      4.540
REMARK INTER + INTRA:          -4.053
REMARK INTER:                  -4.680
REMARK INTRA:                   0.627
REMARK UNBOUND:                 0.630
REMARK SMILES C=C1[C@H]2CC[C@@H]3[C@H]2C(C)(C)CCC[C@]13C
REMARK SMILES IDX 14 1 6 2 7 3 3 4 2 5 1 6 4 7 5 8 15 9 8 10 9 11 10 12 11 13
REMARK SMILES IDX 13 15 12 16
REMARK H PARENT
REMARK Flexibility Score: 80.00
ROOT
ATOM      1  C   UNL     1     138.346 135.218 131.281  1.00  0.00    -0.008 C 
ATOM      2  C   UNL     1     137.120 134.577 132.043  1.00  0.00     0.003 C 
ATOM      3  C   UNL     1     136.199 134.046 130.924  1.00  0.00     0.006 C 
ATOM      4  C   UNL     1     137.320 133.261 130.241  1.00  0.00     0.019 C 
ATOM      5  C   UNL     1     138.384 134.309 130.077  1.00  0.00    -0.068 C 
ATOM      6  C   UNL     1     139.267 134.359 129.073  1.00  0.00     0.009 C 
ATOM      7  C   UNL     1     137.781 132.340 131.395  1.00  0.00     0.008 C 
ATOM      8  C   UNL     1     137.544 133.213 132.653  1.00  0.00     0.005 C 
ATOM      9  C   UNL     1     139.680 135.135 132.071  1.00  0.00     0.016 C 
ENDROOT
BRANCH   3  10
ATOM     10  C   UNL     1     135.313 135.058 130.080  1.00  0.00    -0.032 C 
ATOM     11  C   UNL     1     135.306 134.689 128.574  1.00  0.00     0.011 C 
ATOM     12  C   UNL     1     133.842 134.922 130.564  1.00  0.00     0.011 C 
BRANCH  10  13
ATOM     13  C   UNL     1     135.669 136.561 130.271  1.00  0.00     0.007 CG0
ATOM     14  G   UNL     1     137.076 136.971 129.845  1.00  0.00     0.000 G0
ENDBRANCH  10  13
ENDBRANCH   3  10
BRANCH   1  15
ATOM     15  C   UNL     1     138.115 136.709 130.917  1.00  0.00     0.011 C 
BRANCH  15  16
ATOM     16  C   UNL     1     137.068 136.980 129.840  1.00  0.00     0.001 CG0
ATOM     17  G   UNL     1     135.665 136.567 130.274  1.00  0.00     0.000 G0
ENDBRANCH  15  16
ENDBRANCH   1  15
TORSDOF 0
ENDMDL
MODEL 9
REMARK VINA RESULT:    -3.793      1.627      2.174
REMARK INTER + INTRA:          -4.051
REMARK INTER:                  -4.675
REMARK INTRA:                   0.624
REMARK UNBOUND:                 0.630
REMARK SMILES C=C1[C@H]2CC[C@@H]3[C@H]2C(C)(C)CCC[C@]13C
REMARK SMILES IDX 14 1 6 2 7 3 3 4 2 5 1 6 4 7 5 8 15 9 8 10 9 11 10 12 11 13
REMARK SMILES IDX 13 15 12 16
REMARK H PARENT
REMARK Flexibility Score: 80.00
ROOT
ATOM      1  C   UNL     1     135.301 136.975 131.706  1.00  0.00    -0.008 C 
ATOM      2  C   UNL     1     134.610 135.658 132.236  1.00  0.00     0.003 C 
ATOM      3  C   UNL     1     133.605 136.146 133.301  1.00  0.00     0.006 C 
ATOM      4  C   UNL     1     132.957 137.165 132.364  1.00  0.00     0.019 C 
ATOM      5  C   UNL     1     134.147 137.934 131.862  1.00  0.00    -0.068 C 
ATOM      6  C   UNL     1     134.141 139.230 131.529  1.00  0.00     0.009 C 
ATOM      7  C   UNL     1     132.502 136.250 131.203  1.00  0.00     0.008 C 
ATOM      8  C   UNL     1     133.590 135.146 131.181  1.00  0.00     0.005 C 
ATOM      9  C   UNL     1     135.743 136.888 130.219  1.00  0.00     0.016 C 
ENDROOT
BRANCH   3  10
ATOM     10  C   UNL     1     134.126 136.605 134.730  1.00  0.00    -0.032 C 
ATOM     11  C   UNL     1     133.386 137.874 135.225  1.00  0.00     0.011 C 
ATOM     12  C   UNL     1     133.780 135.480 135.747  1.00  0.00     0.011 C 
BRANCH  10  13
ATOM     13  C   UNL     1     135.666 136.794 134.838  1.00  0.00     0.007 CG0
ATOM     14  G   UNL     1     136.269 137.872 133.942  1.00  0.00     0.000 G0
ENDBRANCH  10  13
ENDBRANCH   3  10
BRANCH   1  15
ATOM     15  C   UNL     1     136.549 137.375 132.536  1.00  0.00     0.011 C 
BRANCH  15  16
ATOM     16  C   UNL     1     136.277 137.872 133.954  1.00  0.00     0.001 CG0
ATOM     17  G   UNL     1     135.660 136.794 134.841  1.00  0.00     0.000 G0
ENDBRANCH  15  16
ENDBRANCH   1  15
TORSDOF 0
ENDMDL
