MODEL 1
REMARK VINA RESULT:    -3.818      0.000      0.000
REMARK INTER + INTRA:          -8.747
REMARK INTER:                  -6.720
REMARK INTRA:                  -2.026
REMARK UNBOUND:                -2.026
REMARK SMILES CCCCCCCCCCCCCCC(=O)[O-]
REMARK SMILES IDX 9 1 10 2 11 3 12 4 13 5 14 6 15 7 16 8 17 9 8 10 7 11 6 12
REMARK SMILES IDX 5 13 4 14 3 15 2 16 1 17
REMARK H PARENT
REMARK Flexibility Score: inf
ROOT
ATOM      1  C   UNL     1      12.761  25.948  33.771  1.00  0.00     0.000 C 
ENDROOT
BRANCH   1   2
ATOM      2  C   UNL     1      13.364  25.265  35.012  1.00  0.00     0.000 C 
BRANCH   2   3
ATOM      3  C   UNL     1      14.766  24.692  34.745  1.00  0.00     0.000 C 
BRANCH   3   4
ATOM      4  C   UNL     1      14.985  24.332  33.264  1.00  0.00     0.000 C 
BRANCH   4   5
ATOM      5  C   UNL     1      15.812  23.044  33.084  1.00  0.00     0.006 C 
BRANCH   5   6
ATOM      6  C   UNL     1      16.442  22.505  34.381  1.00  0.00     0.053 C 
BRANCH   6   7
ATOM      7  C   UNL     1      15.905  21.156  34.758  1.00  0.00     0.041 C 
ATOM      8  O   UNL     1      15.592  20.327  33.863  1.00  0.00    -0.550 OA
ATOM      9  O   UNL     1      15.724  20.825  36.097  1.00  0.00    -0.550 OA
ENDBRANCH   6   7
ENDBRANCH   5   6
ENDBRANCH   4   5
ENDBRANCH   3   4
ENDBRANCH   2   3
ENDBRANCH   1   2
BRANCH   1  10
ATOM     10  C   UNL     1      11.864  27.143  34.138  1.00  0.00     0.000 C 
BRANCH  10  11
ATOM     11  C   UNL     1      11.761  27.361  35.660  1.00  0.00    -0.000 C 
BRANCH  11  12
ATOM     12  C   UNL     1      11.776  28.851  36.039  1.00  0.00    -0.000 C 
BRANCH  12  13
ATOM     13  C   UNL     1      13.199  29.440  36.037  1.00  0.00    -0.000 C 
BRANCH  13  14
ATOM     14  C   UNL     1      14.206  28.556  36.790  1.00  0.00    -0.000 C 
BRANCH  14  15
ATOM     15  C   UNL     1      15.393  28.129  35.910  1.00  0.00    -0.000 C 
BRANCH  15  16
ATOM     16  C   UNL     1      15.296  28.687  34.481  1.00  0.00    -0.003 C 
ATOM     17  C   UNL     1      16.141  27.901  33.478  1.00  0.00     0.004 C 
ENDBRANCH  15  16
ENDBRANCH  14  15
ENDBRANCH  13  14
ENDBRANCH  12  13
ENDBRANCH  11  12
ENDBRANCH  10  11
ENDBRANCH   1  10
TORSDOF 13
ENDMDL
MODEL 2
REMARK VINA RESULT:    -3.800      1.198      2.173
REMARK INTER + INTRA:          -8.714
REMARK INTER:                  -6.899
REMARK INTRA:                  -1.815
REMARK UNBOUND:                -2.026
REMARK SMILES CCCCCCCCCCCCCCC(=O)[O-]
REMARK SMILES IDX 9 1 10 2 11 3 12 4 13 5 14 6 15 7 16 8 17 9 8 10 7 11 6 12
REMARK SMILES IDX 5 13 4 14 3 15 2 16 1 17
REMARK H PARENT
REMARK Flexibility Score: inf
ROOT
ATOM      1  C   UNL     1      12.373  26.613  34.107  1.00  0.00     0.000 C 
ENDROOT
BRANCH   1   2
ATOM      2  C   UNL     1      12.841  25.319  33.417  1.00  0.00     0.000 C 
BRANCH   2   3
ATOM      3  C   UNL     1      14.122  24.746  34.048  1.00  0.00     0.000 C 
BRANCH   3   4
ATOM      4  C   UNL     1      15.037  24.067  33.013  1.00  0.00     0.000 C 
BRANCH   4   5
ATOM      5  C   UNL     1      16.181  23.268  33.669  1.00  0.00     0.006 C 
BRANCH   5   6
ATOM      6  C   UNL     1      15.813  21.822  34.043  1.00  0.00     0.053 C 
BRANCH   6   7
ATOM      7  C   UNL     1      15.658  21.638  35.525  1.00  0.00     0.041 C 
ATOM      8  O   UNL     1      15.253  20.539  35.987  1.00  0.00    -0.550 OA
ATOM      9  O   UNL     1      15.936  22.689  36.393  1.00  0.00    -0.550 OA
ENDBRANCH   6   7
ENDBRANCH   5   6
ENDBRANCH   4   5
ENDBRANCH   3   4
ENDBRANCH   2   3
ENDBRANCH   1   2
BRANCH   1  10
ATOM     10  C   UNL     1      12.869  26.716  35.559  1.00  0.00     0.000 C 
BRANCH  10  11
ATOM     11  C   UNL     1      13.393  28.122  35.908  1.00  0.00    -0.000 C 
BRANCH  11  12
ATOM     12  C   UNL     1      14.599  28.527  35.045  1.00  0.00    -0.000 C 
BRANCH  12  13
ATOM     13  C   UNL     1      15.887  27.791  35.459  1.00  0.00    -0.000 C 
BRANCH  13  14
ATOM     14  C   UNL     1      16.702  27.301  34.251  1.00  0.00    -0.000 C 
BRANCH  14  15
ATOM     15  C   UNL     1      16.048  27.668  32.907  1.00  0.00    -0.000 C 
BRANCH  15  16
ATOM     16  C   UNL     1      16.959  28.542  32.031  1.00  0.00    -0.003 C 
ATOM     17  C   UNL     1      16.690  30.038  32.206  1.00  0.00     0.004 C 
ENDBRANCH  15  16
ENDBRANCH  14  15
ENDBRANCH  13  14
ENDBRANCH  12  13
ENDBRANCH  11  12
ENDBRANCH  10  11
ENDBRANCH   1  10
TORSDOF 13
ENDMDL
MODEL 3
REMARK VINA RESULT:    -3.785      3.117      5.985
REMARK INTER + INTRA:          -8.689
REMARK INTER:                  -6.536
REMARK INTRA:                  -2.153
REMARK UNBOUND:                -2.026
REMARK SMILES CCCCCCCCCCCCCCC(=O)[O-]
REMARK SMILES IDX 9 1 10 2 11 3 12 4 13 5 14 6 15 7 16 8 17 9 8 10 7 11 6 12
REMARK SMILES IDX 5 13 4 14 3 15 2 16 1 17
REMARK H PARENT
REMARK Flexibility Score: inf
ROOT
ATOM      1  C   UNL     1      12.802  25.251  33.413  1.00  0.00     0.000 C 
ENDROOT
BRANCH   1   2
ATOM      2  C   UNL     1      12.603  26.446  34.364  1.00  0.00     0.000 C 
BRANCH   2   3
ATOM      3  C   UNL     1      13.091  26.148  35.792  1.00  0.00     0.000 C 
BRANCH   3   4
ATOM      4  C   UNL     1      14.313  26.996  36.187  1.00  0.00     0.000 C 
BRANCH   4   5
ATOM      5  C   UNL     1      14.757  27.954  35.064  1.00  0.00     0.006 C 
BRANCH   5   6
ATOM      6  C   UNL     1      16.227  27.798  34.638  1.00  0.00     0.053 C 
BRANCH   6   7
ATOM      7  C   UNL     1      16.477  28.317  33.252  1.00  0.00     0.041 C 
ATOM      8  O   UNL     1      16.244  29.524  32.976  1.00  0.00    -0.550 OA
ATOM      9  O   UNL     1      16.942  27.462  32.258  1.00  0.00    -0.550 OA
ENDBRANCH   6   7
ENDBRANCH   5   6
ENDBRANCH   4   5
ENDBRANCH   3   4
ENDBRANCH   2   3
ENDBRANCH   1   2
BRANCH   1  10
ATOM     10  C   UNL     1      14.219  25.208  32.816  1.00  0.00     0.000 C 
BRANCH  10  11
ATOM     11  C   UNL     1      14.962  23.899  33.148  1.00  0.00    -0.000 C 
BRANCH  11  12
ATOM     12  C   UNL     1      16.351  24.153  33.755  1.00  0.00    -0.000 C 
BRANCH  12  13
ATOM     13  C   UNL     1      16.357  23.997  35.287  1.00  0.00    -0.000 C 
BRANCH  13  14
ATOM     14  C   UNL     1      15.261  23.043  35.788  1.00  0.00    -0.000 C 
BRANCH  14  15
ATOM     15  C   UNL     1      15.834  21.776  36.447  1.00  0.00    -0.000 C 
BRANCH  15  16
ATOM     16  C   UNL     1      15.389  20.491  35.734  1.00  0.00    -0.003 C 
ATOM     17  C   UNL     1      15.847  20.433  34.275  1.00  0.00     0.004 C 
ENDBRANCH  15  16
ENDBRANCH  14  15
ENDBRANCH  13  14
ENDBRANCH  12  13
ENDBRANCH  11  12
ENDBRANCH  10  11
ENDBRANCH   1  10
TORSDOF 13
ENDMDL
MODEL 4
REMARK VINA RESULT:    -3.758      3.669      6.737
REMARK INTER + INTRA:          -8.640
REMARK INTER:                  -6.955
REMARK INTRA:                  -1.685
REMARK UNBOUND:                -2.026
REMARK SMILES CCCCCCCCCCCCCCC(=O)[O-]
REMARK SMILES IDX 9 1 10 2 11 3 12 4 13 5 14 6 15 7 16 8 17 9 8 10 7 11 6 12
REMARK SMILES IDX 5 13 4 14 3 15 2 16 1 17
REMARK H PARENT
REMARK Flexibility Score: inf
ROOT
ATOM      1  C   UNL     1      14.870  23.804  33.319  1.00  0.00     0.000 C 
ENDROOT
BRANCH   1   2
ATOM      2  C   UNL     1      13.978  25.019  33.003  1.00  0.00     0.000 C 
BRANCH   2   3
ATOM      3  C   UNL     1      14.662  26.354  33.345  1.00  0.00     0.000 C 
BRANCH   3   4
ATOM      4  C   UNL     1      13.882  27.164  34.395  1.00  0.00     0.000 C 
BRANCH   4   5
ATOM      5  C   UNL     1      12.598  26.449  34.861  1.00  0.00     0.006 C 
BRANCH   5   6
ATOM      6  C   UNL     1      11.838  27.175  35.985  1.00  0.00     0.053 C 
BRANCH   6   7
ATOM      7  C   UNL     1      11.532  28.602  35.637  1.00  0.00     0.041 C 
ATOM      8  O   UNL     1      10.683  28.868  34.746  1.00  0.00    -0.550 OA
ATOM      9  O   UNL     1      12.205  29.637  36.278  1.00  0.00    -0.550 OA
ENDBRANCH   6   7
ENDBRANCH   5   6
ENDBRANCH   4   5
ENDBRANCH   3   4
ENDBRANCH   2   3
ENDBRANCH   1   2
BRANCH   1  10
ATOM     10  C   UNL     1      16.247  24.214  33.869  1.00  0.00     0.000 C 
BRANCH  10  11
ATOM     11  C   UNL     1      16.389  23.935  35.378  1.00  0.00    -0.000 C 
BRANCH  11  12
ATOM     12  C   UNL     1      15.049  23.563  36.032  1.00  0.00    -0.000 C 
BRANCH  12  13
ATOM     13  C   UNL     1      15.186  22.385  37.014  1.00  0.00    -0.000 C 
BRANCH  13  14
ATOM     14  C   UNL     1      16.043  21.241  36.449  1.00  0.00    -0.000 C 
BRANCH  14  15
ATOM     15  C   UNL     1      15.197  20.129  35.805  1.00  0.00    -0.000 C 
BRANCH  15  16
ATOM     16  C   UNL     1      15.636  19.818  34.365  1.00  0.00    -0.003 C 
ATOM     17  C   UNL     1      16.897  20.578  33.953  1.00  0.00     0.004 C 
ENDBRANCH  15  16
ENDBRANCH  14  15
ENDBRANCH  13  14
ENDBRANCH  12  13
ENDBRANCH  11  12
ENDBRANCH  10  11
ENDBRANCH   1  10
TORSDOF 13
ENDMDL
MODEL 5
REMARK VINA RESULT:    -3.690      3.325      5.967
REMARK INTER + INTRA:          -8.521
REMARK INTER:                  -6.965
REMARK INTRA:                  -1.557
REMARK UNBOUND:                -2.026
REMARK SMILES CCCCCCCCCCCCCCC(=O)[O-]
REMARK SMILES IDX 9 1 10 2 11 3 12 4 13 5 14 6 15 7 16 8 17 9 8 10 7 11 6 12
REMARK SMILES IDX 5 13 4 14 3 15 2 16 1 17
REMARK H PARENT
REMARK Flexibility Score: inf
ROOT
ATOM      1  C   UNL     1      12.917  26.815  35.386  1.00  0.00     0.000 C 
ENDROOT
BRANCH   1   2
ATOM      2  C   UNL     1      13.099  28.314  35.686  1.00  0.00     0.000 C 
BRANCH   2   3
ATOM      3  C   UNL     1      14.546  28.786  35.463  1.00  0.00     0.000 C 
BRANCH   3   4
ATOM      4  C   UNL     1      15.555  27.623  35.475  1.00  0.00     0.000 C 
BRANCH   4   5
ATOM      5  C   UNL     1      16.687  27.810  34.446  1.00  0.00     0.006 C 
BRANCH   5   6
ATOM      6  C   UNL     1      16.257  27.605  32.983  1.00  0.00     0.053 C 
BRANCH   6   7
ATOM      7  C   UNL     1      16.784  28.678  32.077  1.00  0.00     0.041 C 
ATOM      8  O   UNL     1      17.085  28.409  30.884  1.00  0.00    -0.550 OA
ATOM      9  O   UNL     1      16.969  29.971  32.558  1.00  0.00    -0.550 OA
ENDBRANCH   6   7
ENDBRANCH   5   6
ENDBRANCH   4   5
ENDBRANCH   3   4
ENDBRANCH   2   3
ENDBRANCH   1   2
BRANCH   1  10
ATOM     10  C   UNL     1      12.307  26.565  33.996  1.00  0.00     0.000 C 
BRANCH  10  11
ATOM     11  C   UNL     1      12.789  25.243  33.367  1.00  0.00    -0.000 C 
BRANCH  11  12
ATOM     12  C   UNL     1      14.055  24.699  34.049  1.00  0.00    -0.000 C 
BRANCH  12  13
ATOM     13  C   UNL     1      15.072  24.143  33.035  1.00  0.00    -0.000 C 
BRANCH  13  14
ATOM     14  C   UNL     1      15.908  22.989  33.609  1.00  0.00    -0.000 C 
BRANCH  14  15
ATOM     15  C   UNL     1      15.630  22.741  35.102  1.00  0.00    -0.000 C 
BRANCH  15  16
ATOM     16  C   UNL     1      15.695  21.251  35.471  1.00  0.00    -0.003 C 
ATOM     17  C   UNL     1      15.631  20.334  34.249  1.00  0.00     0.004 C 
ENDBRANCH  15  16
ENDBRANCH  14  15
ENDBRANCH  13  14
ENDBRANCH  12  13
ENDBRANCH  11  12
ENDBRANCH  10  11
ENDBRANCH   1  10
TORSDOF 13
ENDMDL
MODEL 6
REMARK VINA RESULT:    -3.632      3.613      6.817
REMARK INTER + INTRA:          -8.418
REMARK INTER:                  -6.882
REMARK INTRA:                  -1.536
REMARK UNBOUND:                -2.026
REMARK SMILES CCCCCCCCCCCCCCC(=O)[O-]
REMARK SMILES IDX 9 1 10 2 11 3 12 4 13 5 14 6 15 7 16 8 17 9 8 10 7 11 6 12
REMARK SMILES IDX 5 13 4 14 3 15 2 16 1 17
REMARK H PARENT
REMARK Flexibility Score: inf
ROOT
ATOM      1  C   UNL     1      15.214  26.675  33.242  1.00  0.00     0.000 C 
ENDROOT
BRANCH   1   2
ATOM      2  C   UNL     1      14.155  25.581  33.017  1.00  0.00     0.000 C 
BRANCH   2   3
ATOM      3  C   UNL     1      12.924  25.759  33.922  1.00  0.00     0.000 C 
BRANCH   3   4
ATOM      4  C   UNL     1      13.249  25.543  35.411  1.00  0.00     0.000 C 
BRANCH   4   5
ATOM      5  C   UNL     1      12.678  26.657  36.310  1.00  0.00     0.006 C 
BRANCH   5   6
ATOM      6  C   UNL     1      13.065  28.083  35.880  1.00  0.00     0.053 C 
BRANCH   6   7
ATOM      7  C   UNL     1      11.871  28.982  35.747  1.00  0.00     0.041 C 
ATOM      8  O   UNL     1      10.873  28.613  35.073  1.00  0.00    -0.550 OA
ATOM      9  O   UNL     1      11.872  30.239  36.343  1.00  0.00    -0.550 OA
ENDBRANCH   6   7
ENDBRANCH   5   6
ENDBRANCH   4   5
ENDBRANCH   3   4
ENDBRANCH   2   3
ENDBRANCH   1   2
BRANCH   1  10
ATOM     10  C   UNL     1      16.617  26.093  33.483  1.00  0.00     0.000 C 
BRANCH  10  11
ATOM     11  C   UNL     1      16.931  25.904  34.980  1.00  0.00    -0.000 C 
BRANCH  11  12
ATOM     12  C   UNL     1      16.862  24.430  35.410  1.00  0.00    -0.000 C 
BRANCH  12  13
ATOM     13  C   UNL     1      16.934  23.468  34.210  1.00  0.00    -0.000 C 
BRANCH  13  14
ATOM     14  C   UNL     1      15.740  22.502  34.154  1.00  0.00    -0.000 C 
BRANCH  14  15
ATOM     15  C   UNL     1      16.161  21.056  33.838  1.00  0.00    -0.000 C 
BRANCH  15  16
ATOM     16  C   UNL     1      15.932  20.106  35.024  1.00  0.00    -0.003 C 
ATOM     17  C   UNL     1      15.175  18.837  34.629  1.00  0.00     0.004 C 
ENDBRANCH  15  16
ENDBRANCH  14  15
ENDBRANCH  13  14
ENDBRANCH  12  13
ENDBRANCH  11  12
ENDBRANCH  10  11
ENDBRANCH   1  10
TORSDOF 13
ENDMDL
MODEL 7
REMARK VINA RESULT:    -3.577      1.570      3.426
REMARK INTER + INTRA:          -8.322
REMARK INTER:                  -6.118
REMARK INTRA:                  -2.203
REMARK UNBOUND:                -2.026
REMARK SMILES CCCCCCCCCCCCCCC(=O)[O-]
REMARK SMILES IDX 9 1 10 2 11 3 12 4 13 5 14 6 15 7 16 8 17 9 8 10 7 11 6 12
REMARK SMILES IDX 5 13 4 14 3 15 2 16 1 17
REMARK H PARENT
REMARK Flexibility Score: inf
ROOT
ATOM      1  C   UNL     1      12.978  26.578  34.357  1.00  0.00     0.000 C 
ENDROOT
BRANCH   1   2
ATOM      2  C   UNL     1      12.676  26.389  35.855  1.00  0.00     0.000 C 
BRANCH   2   3
ATOM      3  C   UNL     1      13.889  25.856  36.636  1.00  0.00     0.000 C 
BRANCH   3   4
ATOM      4  C   UNL     1      13.688  24.411  37.125  1.00  0.00     0.000 C 
BRANCH   4   5
ATOM      5  C   UNL     1      14.937  23.534  36.910  1.00  0.00     0.006 C 
BRANCH   5   6
ATOM      6  C   UNL     1      14.678  22.020  37.011  1.00  0.00     0.053 C 
BRANCH   6   7
ATOM      7  C   UNL     1      15.533  21.231  36.064  1.00  0.00     0.041 C 
ATOM      8  O   UNL     1      16.617  21.710  35.640  1.00  0.00    -0.550 OA
ATOM      9  O   UNL     1      15.118  19.976  35.628  1.00  0.00    -0.550 OA
ENDBRANCH   6   7
ENDBRANCH   5   6
ENDBRANCH   4   5
ENDBRANCH   3   4
ENDBRANCH   2   3
ENDBRANCH   1   2
BRANCH   1  10
ATOM     10  C   UNL     1      12.981  25.246  33.587  1.00  0.00     0.000 C 
BRANCH  10  11
ATOM     11  C   UNL     1      14.244  25.063  32.724  1.00  0.00    -0.000 C 
BRANCH  11  12
ATOM     12  C   UNL     1      15.242  24.076  33.351  1.00  0.00    -0.000 C 
BRANCH  12  13
ATOM     13  C   UNL     1      16.527  24.774  33.834  1.00  0.00    -0.000 C 
BRANCH  13  14
ATOM     14  C   UNL     1      16.636  26.223  33.336  1.00  0.00    -0.000 C 
BRANCH  14  15
ATOM     15  C   UNL     1      16.591  27.248  34.483  1.00  0.00    -0.000 C 
BRANCH  15  16
ATOM     16  C   UNL     1      15.992  28.594  34.044  1.00  0.00    -0.003 C 
ATOM     17  C   UNL     1      15.312  29.342  35.191  1.00  0.00     0.004 C 
ENDBRANCH  15  16
ENDBRANCH  14  15
ENDBRANCH  13  14
ENDBRANCH  12  13
ENDBRANCH  11  12
ENDBRANCH  10  11
ENDBRANCH   1  10
TORSDOF 13
ENDMDL
MODEL 8
REMARK VINA RESULT:    -3.577      4.316      9.065
REMARK INTER + INTRA:          -8.321
REMARK INTER:                  -7.895
REMARK INTRA:                  -0.427
REMARK UNBOUND:                -2.026
REMARK SMILES CCCCCCCCCCCCCCC(=O)[O-]
REMARK SMILES IDX 9 1 10 2 11 3 12 4 13 5 14 6 15 7 16 8 17 9 8 10 7 11 6 12
REMARK SMILES IDX 5 13 4 14 3 15 2 16 1 17
REMARK H PARENT
REMARK Flexibility Score: inf
ROOT
ATOM      1  C   UNL     1      16.707  22.545  33.968  1.00  0.00     0.000 C 
ENDROOT
BRANCH   1   2
ATOM      2  C   UNL     1      15.242  23.019  33.946  1.00  0.00     0.000 C 
BRANCH   2   3
ATOM      3  C   UNL     1      15.081  24.404  33.298  1.00  0.00     0.000 C 
BRANCH   3   4
ATOM      4  C   UNL     1      14.441  25.431  34.250  1.00  0.00     0.000 C 
BRANCH   4   5
ATOM      5  C   UNL     1      12.904  25.465  34.137  1.00  0.00     0.006 C 
BRANCH   5   6
ATOM      6  C   UNL     1      12.307  26.877  34.004  1.00  0.00     0.053 C 
BRANCH   6   7
ATOM      7  C   UNL     1      11.740  27.381  35.298  1.00  0.00     0.041 C 
ATOM      8  O   UNL     1      11.036  28.425  35.317  1.00  0.00    -0.550 OA
ATOM      9  O   UNL     1      12.011  26.712  36.488  1.00  0.00    -0.550 OA
ENDBRANCH   6   7
ENDBRANCH   5   6
ENDBRANCH   4   5
ENDBRANCH   3   4
ENDBRANCH   2   3
ENDBRANCH   1   2
BRANCH   1  10
ATOM     10  C   UNL     1      16.836  21.027  33.759  1.00  0.00     0.000 C 
BRANCH  10  11
ATOM     11  C   UNL     1      15.545  20.268  34.123  1.00  0.00    -0.000 C 
BRANCH  11  12
ATOM     12  C   UNL     1      15.795  19.147  35.146  1.00  0.00    -0.000 C 
BRANCH  12  13
ATOM     13  C   UNL     1      16.217  17.827  34.475  1.00  0.00    -0.000 C 
BRANCH  13  14
ATOM     14  C   UNL     1      15.279  16.661  34.823  1.00  0.00    -0.000 C 
BRANCH  14  15
ATOM     15  C   UNL     1      15.627  15.371  34.059  1.00  0.00    -0.000 C 
BRANCH  15  16
ATOM     16  C   UNL     1      14.385  14.529  33.731  1.00  0.00    -0.003 C 
ATOM     17  C   UNL     1      14.614  13.562  32.568  1.00  0.00     0.004 C 
ENDBRANCH  15  16
ENDBRANCH  14  15
ENDBRANCH  13  14
ENDBRANCH  12  13
ENDBRANCH  11  12
ENDBRANCH  10  11
ENDBRANCH   1  10
TORSDOF 13
ENDMDL
MODEL 9
REMARK VINA RESULT:    -3.553      3.069      6.704
REMARK INTER + INTRA:          -8.280
REMARK INTER:                  -7.027
REMARK INTRA:                  -1.253
REMARK UNBOUND:                -2.026
REMARK SMILES CCCCCCCCCCCCCCC(=O)[O-]
REMARK SMILES IDX 9 1 10 2 11 3 12 4 13 5 14 6 15 7 16 8 17 9 8 10 7 11 6 12
REMARK SMILES IDX 5 13 4 14 3 15 2 16 1 17
REMARK H PARENT
REMARK Flexibility Score: inf
ROOT
ATOM      1  C   UNL     1      12.810  25.790  33.840  1.00  0.00     0.000 C 
ENDROOT
BRANCH   1   2
ATOM      2  C   UNL     1      11.852  26.981  34.032  1.00  0.00     0.000 C 
BRANCH   2   3
ATOM      3  C   UNL     1      11.732  27.408  35.505  1.00  0.00     0.000 C 
BRANCH   3   4
ATOM      4  C   UNL     1      11.450  28.913  35.662  1.00  0.00     0.000 C 
BRANCH   4   5
ATOM      5  C   UNL     1      12.677  29.694  36.175  1.00  0.00     0.006 C 
BRANCH   5   6
ATOM      6  C   UNL     1      13.946  28.842  36.350  1.00  0.00     0.053 C 
BRANCH   6   7
ATOM      7  C   UNL     1      15.003  29.180  35.340  1.00  0.00     0.041 C 
ATOM      8  O   UNL     1      15.646  30.259  35.434  1.00  0.00    -0.550 OA
ATOM      9  O   UNL     1      15.259  28.316  34.280  1.00  0.00    -0.550 OA
ENDBRANCH   6   7
ENDBRANCH   5   6
ENDBRANCH   4   5
ENDBRANCH   3   4
ENDBRANCH   2   3
ENDBRANCH   1   2
BRANCH   1  10
ATOM     10  C   UNL     1      13.449  25.333  35.163  1.00  0.00     0.000 C 
BRANCH  10  11
ATOM     11  C   UNL     1      14.896  24.835  34.981  1.00  0.00    -0.000 C 
BRANCH  11  12
ATOM     12  C   UNL     1      15.342  24.863  33.510  1.00  0.00    -0.000 C 
BRANCH  12  13
ATOM     13  C   UNL     1      15.536  23.450  32.932  1.00  0.00    -0.000 C 
BRANCH  13  14
ATOM     14  C   UNL     1      15.747  22.388  34.023  1.00  0.00    -0.000 C 
BRANCH  14  15
ATOM     15  C   UNL     1      16.766  21.311  33.612  1.00  0.00    -0.000 C 
BRANCH  15  16
ATOM     16  C   UNL     1      16.669  20.049  34.484  1.00  0.00    -0.003 C 
ATOM     17  C   UNL     1      15.270  19.431  34.478  1.00  0.00     0.004 C 
ENDBRANCH  15  16
ENDBRANCH  14  15
ENDBRANCH  13  14
ENDBRANCH  12  13
ENDBRANCH  11  12
ENDBRANCH  10  11
ENDBRANCH   1  10
TORSDOF 13
ENDMDL
