MODEL 1
REMARK VINA RESULT:    -3.912      0.000      0.000
REMARK INTER + INTRA:         -12.590
REMARK INTER:                  -8.943
REMARK INTRA:                  -3.648
REMARK UNBOUND:                -3.648
REMARK SMILES CCCCCCCCCCCCCCCCCCCCCCCC(=O)[O-]
REMARK SMILES IDX 13 1 14 2 15 3 16 4 17 5 18 6 19 7 20 8 21 9 22 10 23 11
REMARK SMILES IDX 24 12 25 13 26 14 12 15 11 16 10 17 9 18 8 19 7 20 6 21 5 22
REMARK SMILES IDX 4 23 3 24 2 25 1 26
REMARK H PARENT
REMARK Flexibility Score: inf
ROOT
ATOM      1  C   UNL     1      76.814  82.150  78.321  1.00  0.00     0.000 C 
ENDROOT
BRANCH   1   2
ATOM      2  C   UNL     1      78.000  81.221  78.642  1.00  0.00     0.000 C 
BRANCH   2   3
ATOM      3  C   UNL     1      78.872  80.838  77.429  1.00  0.00     0.000 C 
BRANCH   3   4
ATOM      4  C   UNL     1      79.965  81.860  77.058  1.00  0.00     0.000 C 
BRANCH   4   5
ATOM      5  C   UNL     1      79.785  82.533  75.685  1.00  0.00     0.000 C 
BRANCH   5   6
ATOM      6  C   UNL     1      78.746  81.823  74.805  1.00  0.00     0.000 C 
BRANCH   6   7
ATOM      7  C   UNL     1      77.657  82.800  74.341  1.00  0.00     0.000 C 
BRANCH   7   8
ATOM      8  C   UNL     1      76.266  82.319  74.781  1.00  0.00     0.000 C 
BRANCH   8   9
ATOM      9  C   UNL     1      75.322  83.479  75.136  1.00  0.00     0.000 C 
BRANCH   9  10
ATOM     10  C   UNL     1      73.846  83.148  74.853  1.00  0.00     0.006 C 
BRANCH  10  11
ATOM     11  C   UNL     1      73.073  82.812  76.136  1.00  0.00     0.053 C 
BRANCH  11  12
ATOM     12  C   UNL     1      72.554  81.406  76.122  1.00  0.00     0.041 C 
ATOM     13  O   UNL     1      72.930  80.602  75.229  1.00  0.00    -0.550 OA
ATOM     14  O   UNL     1      71.684  80.975  77.115  1.00  0.00    -0.550 OA
ENDBRANCH  11  12
ENDBRANCH  10  11
ENDBRANCH   9  10
ENDBRANCH   8   9
ENDBRANCH   7   8
ENDBRANCH   6   7
ENDBRANCH   5   6
ENDBRANCH   4   5
ENDBRANCH   3   4
ENDBRANCH   2   3
ENDBRANCH   1   2
BRANCH   1  15
ATOM     15  C   UNL     1      75.468  81.576  78.785  1.00  0.00     0.000 C 
BRANCH  15  16
ATOM     16  C   UNL     1      75.226  80.185  78.186  1.00  0.00     0.000 C 
BRANCH  16  17
ATOM     17  C   UNL     1      74.779  79.190  79.268  1.00  0.00     0.000 C 
BRANCH  17  18
ATOM     18  C   UNL     1      75.308  79.552  80.665  1.00  0.00    -0.000 C 
BRANCH  18  19
ATOM     19  C   UNL     1      76.223  78.466  81.252  1.00  0.00    -0.000 C 
BRANCH  19  20
ATOM     20  C   UNL     1      76.944  77.646  80.169  1.00  0.00    -0.000 C 
BRANCH  20  21
ATOM     21  C   UNL     1      78.409  77.305  80.516  1.00  0.00    -0.000 C 
BRANCH  21  22
ATOM     22  C   UNL     1      79.396  77.812  79.449  1.00  0.00    -0.000 C 
BRANCH  22  23
ATOM     23  C   UNL     1      80.750  78.242  80.043  1.00  0.00    -0.000 C 
BRANCH  23  24
ATOM     24  C   UNL     1      81.579  79.200  79.162  1.00  0.00    -0.000 C 
BRANCH  24  25
ATOM     25  C   UNL     1      81.956  80.533  79.828  1.00  0.00    -0.003 C 
ATOM     26  C   UNL     1      83.180  81.193  79.193  1.00  0.00     0.004 C 
ENDBRANCH  24  25
ENDBRANCH  23  24
ENDBRANCH  22  23
ENDBRANCH  21  22
ENDBRANCH  20  21
ENDBRANCH  19  20
ENDBRANCH  18  19
ENDBRANCH  17  18
ENDBRANCH  16  17
ENDBRANCH  15  16
ENDBRANCH   1  15
TORSDOF 22
ENDMDL
MODEL 2
REMARK VINA RESULT:    -3.879      2.068      4.848
REMARK INTER + INTRA:         -12.514
REMARK INTER:                  -8.340
REMARK INTRA:                  -4.175
REMARK UNBOUND:                -3.648
REMARK SMILES CCCCCCCCCCCCCCCCCCCCCCCC(=O)[O-]
REMARK SMILES IDX 13 1 14 2 15 3 16 4 17 5 18 6 19 7 20 8 21 9 22 10 23 11
REMARK SMILES IDX 24 12 25 13 26 14 12 15 11 16 10 17 9 18 8 19 7 20 6 21 5 22
REMARK SMILES IDX 4 23 3 24 2 25 1 26
REMARK H PARENT
REMARK Flexibility Score: inf
ROOT
ATOM      1  C   UNL     1      81.337  81.004  79.161  1.00  0.00     0.000 C 
ENDROOT
BRANCH   1   2
ATOM      2  C   UNL     1      82.481  80.006  78.906  1.00  0.00     0.000 C 
BRANCH   2   3
ATOM      3  C   UNL     1      83.257  80.227  77.593  1.00  0.00     0.000 C 
BRANCH   3   4
ATOM      4  C   UNL     1      82.589  79.647  76.330  1.00  0.00     0.000 C 
BRANCH   4   5
ATOM      5  C   UNL     1      81.957  80.692  75.392  1.00  0.00     0.000 C 
BRANCH   5   6
ATOM      6  C   UNL     1      82.355  82.131  75.748  1.00  0.00     0.000 C 
BRANCH   6   7
ATOM      7  C   UNL     1      81.163  83.086  75.597  1.00  0.00     0.000 C 
BRANCH   7   8
ATOM      8  C   UNL     1      79.842  82.305  75.527  1.00  0.00     0.000 C 
BRANCH   8   9
ATOM      9  C   UNL     1      79.285  82.208  74.098  1.00  0.00     0.000 C 
BRANCH   9  10
ATOM     10  C   UNL     1      77.751  82.313  74.052  1.00  0.00     0.006 C 
BRANCH  10  11
ATOM     11  C   UNL     1      77.178  82.961  75.320  1.00  0.00     0.053 C 
BRANCH  11  12
ATOM     12  C   UNL     1      76.212  84.060  74.997  1.00  0.00     0.041 C 
ATOM     13  O   UNL     1      76.616  85.249  74.901  1.00  0.00    -0.550 OA
ATOM     14  O   UNL     1      74.874  83.766  74.768  1.00  0.00    -0.550 OA
ENDBRANCH  11  12
ENDBRANCH  10  11
ENDBRANCH   9  10
ENDBRANCH   8   9
ENDBRANCH   7   8
ENDBRANCH   6   7
ENDBRANCH   5   6
ENDBRANCH   4   5
ENDBRANCH   3   4
ENDBRANCH   2   3
ENDBRANCH   1   2
BRANCH   1  15
ATOM     15  C   UNL     1      79.968  80.462  78.727  1.00  0.00     0.000 C 
BRANCH  15  16
ATOM     16  C   UNL     1      79.898  78.940  78.902  1.00  0.00     0.000 C 
BRANCH  16  17
ATOM     17  C   UNL     1      79.046  78.298  77.796  1.00  0.00     0.000 C 
BRANCH  17  18
ATOM     18  C   UNL     1      78.399  79.336  76.865  1.00  0.00    -0.000 C 
BRANCH  18  19
ATOM     19  C   UNL     1      77.007  78.907  76.375  1.00  0.00    -0.000 C 
BRANCH  19  20
ATOM     20  C   UNL     1      75.871  79.711  77.030  1.00  0.00    -0.000 C 
BRANCH  20  21
ATOM     21  C   UNL     1      76.347  80.987  77.756  1.00  0.00    -0.000 C 
BRANCH  21  22
ATOM     22  C   UNL     1      75.693  81.151  79.140  1.00  0.00    -0.000 C 
BRANCH  22  23
ATOM     23  C   UNL     1      75.125  79.832  79.694  1.00  0.00    -0.000 C 
BRANCH  23  24
ATOM     24  C   UNL     1      75.844  79.280  80.942  1.00  0.00    -0.000 C 
BRANCH  24  25
ATOM     25  C   UNL     1      76.730  78.048  80.690  1.00  0.00    -0.003 C 
ATOM     26  C   UNL     1      76.118  77.067  79.691  1.00  0.00     0.004 C 
ENDBRANCH  24  25
ENDBRANCH  23  24
ENDBRANCH  22  23
ENDBRANCH  21  22
ENDBRANCH  20  21
ENDBRANCH  19  20
ENDBRANCH  18  19
ENDBRANCH  17  18
ENDBRANCH  16  17
ENDBRANCH  15  16
ENDBRANCH   1  15
TORSDOF 22
ENDMDL
MODEL 3
REMARK VINA RESULT:    -3.866      2.278      6.360
REMARK INTER + INTRA:         -12.486
REMARK INTER:                  -9.331
REMARK INTRA:                  -3.154
REMARK UNBOUND:                -3.648
REMARK SMILES CCCCCCCCCCCCCCCCCCCCCCCC(=O)[O-]
REMARK SMILES IDX 13 1 14 2 15 3 16 4 17 5 18 6 19 7 20 8 21 9 22 10 23 11
REMARK SMILES IDX 24 12 25 13 26 14 12 15 11 16 10 17 9 18 8 19 7 20 6 21 5 22
REMARK SMILES IDX 4 23 3 24 2 25 1 26
REMARK H PARENT
REMARK Flexibility Score: inf
ROOT
ATOM      1  C   UNL     1      75.609  81.398  78.893  1.00  0.00     0.000 C 
ENDROOT
BRANCH   1   2
ATOM      2  C   UNL     1      77.054  81.837  78.596  1.00  0.00     0.000 C 
BRANCH   2   3
ATOM      3  C   UNL     1      78.047  80.684  78.349  1.00  0.00     0.000 C 
BRANCH   3   4
ATOM      4  C   UNL     1      79.537  81.070  78.436  1.00  0.00     0.000 C 
BRANCH   4   5
ATOM      5  C   UNL     1      80.464  80.301  77.478  1.00  0.00     0.000 C 
BRANCH   5   6
ATOM      6  C   UNL     1      81.626  81.159  76.957  1.00  0.00     0.000 C 
BRANCH   6   7
ATOM      7  C   UNL     1      81.108  82.437  76.284  1.00  0.00     0.000 C 
BRANCH   7   8
ATOM      8  C   UNL     1      80.919  82.223  74.774  1.00  0.00     0.000 C 
BRANCH   8   9
ATOM      9  C   UNL     1      79.439  82.212  74.357  1.00  0.00     0.000 C 
BRANCH   9  10
ATOM     10  C   UNL     1      78.545  83.003  75.328  1.00  0.00     0.006 C 
BRANCH  10  11
ATOM     11  C   UNL     1      77.057  82.685  75.132  1.00  0.00     0.053 C 
BRANCH  11  12
ATOM     12  C   UNL     1      76.235  83.930  74.988  1.00  0.00     0.041 C 
ATOM     13  O   UNL     1      76.799  85.043  74.819  1.00  0.00    -0.550 OA
ATOM     14  O   UNL     1      74.848  83.856  75.007  1.00  0.00    -0.550 OA
ENDBRANCH  11  12
ENDBRANCH  10  11
ENDBRANCH   9  10
ENDBRANCH   8   9
ENDBRANCH   7   8
ENDBRANCH   6   7
ENDBRANCH   5   6
ENDBRANCH   4   5
ENDBRANCH   3   4
ENDBRANCH   2   3
ENDBRANCH   1   2
BRANCH   1  15
ATOM     15  C   UNL     1      75.539  80.184  79.831  1.00  0.00     0.000 C 
BRANCH  15  16
ATOM     16  C   UNL     1      74.887  78.985  79.132  1.00  0.00     0.000 C 
BRANCH  16  17
ATOM     17  C   UNL     1      74.091  79.434  77.896  1.00  0.00     0.000 C 
BRANCH  17  18
ATOM     18  C   UNL     1      74.523  78.707  76.613  1.00  0.00    -0.000 C 
BRANCH  18  19
ATOM     19  C   UNL     1      75.399  79.582  75.702  1.00  0.00    -0.000 C 
BRANCH  19  20
ATOM     20  C   UNL     1      74.786  79.790  74.307  1.00  0.00    -0.000 C 
BRANCH  20  21
ATOM     21  C   UNL     1      73.668  80.854  74.269  1.00  0.00    -0.000 C 
BRANCH  21  22
ATOM     22  C   UNL     1      72.295  80.248  73.930  1.00  0.00    -0.000 C 
BRANCH  22  23
ATOM     23  C   UNL     1      71.130  81.221  74.191  1.00  0.00    -0.000 C 
BRANCH  23  24
ATOM     24  C   UNL     1      71.502  82.495  74.976  1.00  0.00    -0.000 C 
BRANCH  24  25
ATOM     25  C   UNL     1      70.946  82.562  76.408  1.00  0.00    -0.003 C 
ATOM     26  C   UNL     1      69.940  81.452  76.710  1.00  0.00     0.004 C 
ENDBRANCH  24  25
ENDBRANCH  23  24
ENDBRANCH  22  23
ENDBRANCH  21  22
ENDBRANCH  20  21
ENDBRANCH  19  20
ENDBRANCH  18  19
ENDBRANCH  17  18
ENDBRANCH  16  17
ENDBRANCH  15  16
ENDBRANCH   1  15
TORSDOF 22
ENDMDL
MODEL 4
REMARK VINA RESULT:    -3.784      2.506      4.823
REMARK INTER + INTRA:         -12.299
REMARK INTER:                  -8.052
REMARK INTRA:                  -4.247
REMARK UNBOUND:                -3.648
REMARK SMILES CCCCCCCCCCCCCCCCCCCCCCCC(=O)[O-]
REMARK SMILES IDX 13 1 14 2 15 3 16 4 17 5 18 6 19 7 20 8 21 9 22 10 23 11
REMARK SMILES IDX 24 12 25 13 26 14 12 15 11 16 10 17 9 18 8 19 7 20 6 21 5 22
REMARK SMILES IDX 4 23 3 24 2 25 1 26
REMARK H PARENT
REMARK Flexibility Score: inf
ROOT
ATOM      1  C   UNL     1      74.860  83.225  74.861  1.00  0.00     0.000 C 
ENDROOT
BRANCH   1   2
ATOM      2  C   UNL     1      73.366  82.867  74.751  1.00  0.00     0.000 C 
BRANCH   2   3
ATOM      3  C   UNL     1      72.645  82.665  76.098  1.00  0.00     0.000 C 
BRANCH   3   4
ATOM      4  C   UNL     1      72.325  81.201  76.458  1.00  0.00     0.000 C 
BRANCH   4   5
ATOM      5  C   UNL     1      72.583  80.183  75.332  1.00  0.00     0.000 C 
BRANCH   5   6
ATOM      6  C   UNL     1      73.852  79.350  75.562  1.00  0.00     0.000 C 
BRANCH   6   7
ATOM      7  C   UNL     1      74.351  78.733  74.248  1.00  0.00     0.000 C 
BRANCH   7   8
ATOM      8  C   UNL     1      75.636  79.427  73.770  1.00  0.00     0.000 C 
BRANCH   8   9
ATOM      9  C   UNL     1      76.659  79.625  74.899  1.00  0.00     0.000 C 
BRANCH   9  10
ATOM     10  C   UNL     1      77.954  80.300  74.414  1.00  0.00     0.006 C 
BRANCH  10  11
ATOM     11  C   UNL     1      77.684  81.660  73.756  1.00  0.00     0.053 C 
BRANCH  11  12
ATOM     12  C   UNL     1      78.716  82.678  74.138  1.00  0.00     0.041 C 
ATOM     13  O   UNL     1      78.364  83.839  74.475  1.00  0.00    -0.550 OA
ATOM     14  O   UNL     1      80.061  82.333  74.154  1.00  0.00    -0.550 OA
ENDBRANCH  11  12
ENDBRANCH  10  11
ENDBRANCH   9  10
ENDBRANCH   8   9
ENDBRANCH   7   8
ENDBRANCH   6   7
ENDBRANCH   5   6
ENDBRANCH   4   5
ENDBRANCH   3   4
ENDBRANCH   2   3
ENDBRANCH   1   2
BRANCH   1  15
ATOM     15  C   UNL     1      75.287  83.549  76.300  1.00  0.00     0.000 C 
BRANCH  15  16
ATOM     16  C   UNL     1      76.093  82.394  76.908  1.00  0.00     0.000 C 
BRANCH  16  17
ATOM     17  C   UNL     1      75.653  82.119  78.355  1.00  0.00     0.000 C 
BRANCH  17  18
ATOM     18  C   UNL     1      75.286  80.646  78.597  1.00  0.00    -0.000 C 
BRANCH  18  19
ATOM     19  C   UNL     1      76.358  79.892  79.398  1.00  0.00    -0.000 C 
BRANCH  19  20
ATOM     20  C   UNL     1      77.059  78.798  78.574  1.00  0.00    -0.000 C 
BRANCH  20  21
ATOM     21  C   UNL     1      78.558  79.069  78.326  1.00  0.00    -0.000 C 
BRANCH  21  22
ATOM     22  C   UNL     1      78.959  80.512  78.680  1.00  0.00    -0.000 C 
BRANCH  22  23
ATOM     23  C   UNL     1      79.651  81.244  77.515  1.00  0.00    -0.000 C 
BRANCH  23  24
ATOM     24  C   UNL     1      81.172  81.442  77.675  1.00  0.00    -0.000 C 
BRANCH  24  25
ATOM     25  C   UNL     1      81.868  80.417  78.586  1.00  0.00    -0.003 C 
ATOM     26  C   UNL     1      82.361  81.024  79.899  1.00  0.00     0.004 C 
ENDBRANCH  24  25
ENDBRANCH  23  24
ENDBRANCH  22  23
ENDBRANCH  21  22
ENDBRANCH  20  21
ENDBRANCH  19  20
ENDBRANCH  18  19
ENDBRANCH  17  18
ENDBRANCH  16  17
ENDBRANCH  15  16
ENDBRANCH   1  15
TORSDOF 22
ENDMDL
MODEL 5
REMARK VINA RESULT:    -3.757      2.500      4.318
REMARK INTER + INTRA:         -12.236
REMARK INTER:                  -8.563
REMARK INTRA:                  -3.673
REMARK UNBOUND:                -3.648
REMARK SMILES CCCCCCCCCCCCCCCCCCCCCCCC(=O)[O-]
REMARK SMILES IDX 13 1 14 2 15 3 16 4 17 5 18 6 19 7 20 8 21 9 22 10 23 11
REMARK SMILES IDX 24 12 25 13 26 14 12 15 11 16 10 17 9 18 8 19 7 20 6 21 5 22
REMARK SMILES IDX 4 23 3 24 2 25 1 26
REMARK H PARENT
REMARK Flexibility Score: inf
ROOT
ATOM      1  C   UNL     1      76.019  82.275  77.125  1.00  0.00     0.000 C 
ENDROOT
BRANCH   1   2
ATOM      2  C   UNL     1      75.432  83.508  76.415  1.00  0.00     0.000 C 
BRANCH   2   3
ATOM      3  C   UNL     1      75.118  83.309  74.919  1.00  0.00     0.000 C 
BRANCH   3   4
ATOM      4  C   UNL     1      73.681  82.844  74.606  1.00  0.00     0.000 C 
BRANCH   4   5
ATOM      5  C   UNL     1      73.457  81.323  74.692  1.00  0.00     0.000 C 
BRANCH   5   6
ATOM      6  C   UNL     1      74.402  80.530  73.778  1.00  0.00     0.000 C 
BRANCH   6   7
ATOM      7  C   UNL     1      75.258  79.548  74.590  1.00  0.00     0.000 C 
BRANCH   7   8
ATOM      8  C   UNL     1      76.755  79.818  74.373  1.00  0.00     0.000 C 
BRANCH   8   9
ATOM      9  C   UNL     1      77.020  80.820  73.239  1.00  0.00     0.000 C 
BRANCH   9  10
ATOM     10  C   UNL     1      78.348  81.576  73.415  1.00  0.00     0.006 C 
BRANCH  10  11
ATOM     11  C   UNL     1      78.626  81.923  74.884  1.00  0.00     0.053 C 
BRANCH  11  12
ATOM     12  C   UNL     1      79.217  83.293  75.031  1.00  0.00     0.041 C 
ATOM     13  O   UNL     1      80.443  83.428  75.284  1.00  0.00    -0.550 OA
ATOM     14  O   UNL     1      78.422  84.417  74.853  1.00  0.00    -0.550 OA
ENDBRANCH  11  12
ENDBRANCH  10  11
ENDBRANCH   9  10
ENDBRANCH   8   9
ENDBRANCH   7   8
ENDBRANCH   6   7
ENDBRANCH   5   6
ENDBRANCH   4   5
ENDBRANCH   3   4
ENDBRANCH   2   3
ENDBRANCH   1   2
BRANCH   1  15
ATOM     15  C   UNL     1      75.127  81.766  78.266  1.00  0.00     0.000 C 
BRANCH  15  16
ATOM     16  C   UNL     1      74.830  80.269  78.107  1.00  0.00     0.000 C 
BRANCH  16  17
ATOM     17  C   UNL     1      74.959  79.537  79.452  1.00  0.00     0.000 C 
BRANCH  17  18
ATOM     18  C   UNL     1      76.373  79.631  80.048  1.00  0.00    -0.000 C 
BRANCH  18  19
ATOM     19  C   UNL     1      77.235  78.401  79.725  1.00  0.00    -0.000 C 
BRANCH  19  20
ATOM     20  C   UNL     1      78.549  78.766  79.012  1.00  0.00    -0.000 C 
BRANCH  20  21
ATOM     21  C   UNL     1      78.465  80.056  78.170  1.00  0.00    -0.000 C 
BRANCH  21  22
ATOM     22  C   UNL     1      79.692  80.965  78.368  1.00  0.00    -0.000 C 
BRANCH  22  23
ATOM     23  C   UNL     1      80.870  80.589  77.450  1.00  0.00    -0.000 C 
BRANCH  23  24
ATOM     24  C   UNL     1      82.182  81.353  77.719  1.00  0.00    -0.000 C 
BRANCH  24  25
ATOM     25  C   UNL     1      83.011  80.824  78.901  1.00  0.00    -0.003 C 
ATOM     26  C   UNL     1      82.361  81.100  80.256  1.00  0.00     0.004 C 
ENDBRANCH  24  25
ENDBRANCH  23  24
ENDBRANCH  22  23
ENDBRANCH  21  22
ENDBRANCH  20  21
ENDBRANCH  19  20
ENDBRANCH  18  19
ENDBRANCH  17  18
ENDBRANCH  16  17
ENDBRANCH  15  16
ENDBRANCH   1  15
TORSDOF 22
ENDMDL
MODEL 6
REMARK VINA RESULT:    -3.737      1.777      4.392
REMARK INTER + INTRA:         -12.191
REMARK INTER:                  -8.139
REMARK INTRA:                  -4.053
REMARK UNBOUND:                -3.648
REMARK SMILES CCCCCCCCCCCCCCCCCCCCCCCC(=O)[O-]
REMARK SMILES IDX 13 1 14 2 15 3 16 4 17 5 18 6 19 7 20 8 21 9 22 10 23 11
REMARK SMILES IDX 24 12 25 13 26 14 12 15 11 16 10 17 9 18 8 19 7 20 6 21 5 22
REMARK SMILES IDX 4 23 3 24 2 25 1 26
REMARK H PARENT
REMARK Flexibility Score: inf
ROOT
ATOM      1  C   UNL     1      76.685  78.097  76.836  1.00  0.00     0.000 C 
ENDROOT
BRANCH   1   2
ATOM      2  C   UNL     1      78.125  78.116  77.382  1.00  0.00     0.000 C 
BRANCH   2   3
ATOM      3  C   UNL     1      78.326  78.961  78.656  1.00  0.00     0.000 C 
BRANCH   3   4
ATOM      4  C   UNL     1      77.158  79.904  79.009  1.00  0.00     0.000 C 
BRANCH   4   5
ATOM      5  C   UNL     1      77.427  81.397  78.746  1.00  0.00     0.000 C 
BRANCH   5   6
ATOM      6  C   UNL     1      76.210  82.126  78.158  1.00  0.00     0.000 C 
BRANCH   6   7
ATOM      7  C   UNL     1      74.980  81.210  78.130  1.00  0.00     0.000 C 
BRANCH   7   8
ATOM      8  C   UNL     1      74.147  81.450  76.860  1.00  0.00     0.000 C 
BRANCH   8   9
ATOM      9  C   UNL     1      74.478  82.787  76.178  1.00  0.00     0.000 C 
BRANCH   9  10
ATOM     10  C   UNL     1      73.487  83.138  75.054  1.00  0.00     0.006 C 
BRANCH  10  11
ATOM     11  C   UNL     1      72.110  82.500  75.277  1.00  0.00     0.053 C 
BRANCH  11  12
ATOM     12  C   UNL     1      71.650  81.733  74.074  1.00  0.00     0.041 C 
ATOM     13  O   UNL     1      72.224  80.661  73.750  1.00  0.00    -0.550 OA
ATOM     14  O   UNL     1      70.565  82.185  73.334  1.00  0.00    -0.550 OA
ENDBRANCH  11  12
ENDBRANCH  10  11
ENDBRANCH   9  10
ENDBRANCH   8   9
ENDBRANCH   7   8
ENDBRANCH   6   7
ENDBRANCH   5   6
ENDBRANCH   4   5
ENDBRANCH   3   4
ENDBRANCH   2   3
ENDBRANCH   1   2
BRANCH   1  15
ATOM     15  C   UNL     1      76.597  78.572  75.379  1.00  0.00     0.000 C 
BRANCH  15  16
ATOM     16  C   UNL     1      77.355  79.891  75.183  1.00  0.00     0.000 C 
BRANCH  16  17
ATOM     17  C   UNL     1      76.685  80.754  74.102  1.00  0.00     0.000 C 
BRANCH  17  18
ATOM     18  C   UNL     1      77.288  82.165  74.009  1.00  0.00    -0.000 C 
BRANCH  18  19
ATOM     19  C   UNL     1      78.098  82.548  75.257  1.00  0.00    -0.000 C 
BRANCH  19  20
ATOM     20  C   UNL     1      79.359  83.363  74.923  1.00  0.00    -0.000 C 
BRANCH  20  21
ATOM     21  C   UNL     1      80.582  83.007  75.794  1.00  0.00    -0.000 C 
BRANCH  21  22
ATOM     22  C   UNL     1      80.588  81.526  76.216  1.00  0.00    -0.000 C 
BRANCH  22  23
ATOM     23  C   UNL     1      81.701  81.197  77.228  1.00  0.00    -0.000 C 
BRANCH  23  24
ATOM     24  C   UNL     1      81.247  81.114  78.700  1.00  0.00    -0.000 C 
BRANCH  24  25
ATOM     25  C   UNL     1      82.229  80.401  79.644  1.00  0.00    -0.003 C 
ATOM     26  C   UNL     1      83.014  81.367  80.529  1.00  0.00     0.004 C 
ENDBRANCH  24  25
ENDBRANCH  23  24
ENDBRANCH  22  23
ENDBRANCH  21  22
ENDBRANCH  20  21
ENDBRANCH  19  20
ENDBRANCH  18  19
ENDBRANCH  17  18
ENDBRANCH  16  17
ENDBRANCH  15  16
ENDBRANCH   1  15
TORSDOF 22
ENDMDL
MODEL 7
REMARK VINA RESULT:    -3.732      2.078      4.269
REMARK INTER + INTRA:         -12.179
REMARK INTER:                  -7.820
REMARK INTRA:                  -4.359
REMARK UNBOUND:                -3.648
REMARK SMILES CCCCCCCCCCCCCCCCCCCCCCCC(=O)[O-]
REMARK SMILES IDX 13 1 14 2 15 3 16 4 17 5 18 6 19 7 20 8 21 9 22 10 23 11
REMARK SMILES IDX 24 12 25 13 26 14 12 15 11 16 10 17 9 18 8 19 7 20 6 21 5 22
REMARK SMILES IDX 4 23 3 24 2 25 1 26
REMARK H PARENT
REMARK Flexibility Score: inf
ROOT
ATOM      1  C   UNL     1      76.456  78.056  78.081  1.00  0.00     0.000 C 
ENDROOT
BRANCH   1   2
ATOM      2  C   UNL     1      76.911  78.215  76.618  1.00  0.00     0.000 C 
BRANCH   2   3
ATOM      3  C   UNL     1      75.916  78.959  75.706  1.00  0.00     0.000 C 
BRANCH   3   4
ATOM      4  C   UNL     1      76.557  79.894  74.661  1.00  0.00     0.000 C 
BRANCH   4   5
ATOM      5  C   UNL     1      75.559  80.728  73.837  1.00  0.00     0.000 C 
BRANCH   5   6
ATOM      6  C   UNL     1      74.668  79.867  72.931  1.00  0.00     0.000 C 
BRANCH   6   7
ATOM      7  C   UNL     1      73.183  80.183  73.158  1.00  0.00     0.000 C 
BRANCH   7   8
ATOM      8  C   UNL     1      72.662  79.487  74.424  1.00  0.00     0.000 C 
BRANCH   8   9
ATOM      9  C   UNL     1      71.929  80.450  75.372  1.00  0.00     0.000 C 
BRANCH   9  10
ATOM     10  C   UNL     1      72.867  81.081  76.415  1.00  0.00     0.006 C 
BRANCH  10  11
ATOM     11  C   UNL     1      72.740  82.610  76.456  1.00  0.00     0.053 C 
BRANCH  11  12
ATOM     12  C   UNL     1      73.703  83.276  75.521  1.00  0.00     0.041 C 
ATOM     13  O   UNL     1      74.858  83.583  75.917  1.00  0.00    -0.550 OA
ATOM     14  O   UNL     1      73.337  83.523  74.205  1.00  0.00    -0.550 OA
ENDBRANCH  11  12
ENDBRANCH  10  11
ENDBRANCH   9  10
ENDBRANCH   8   9
ENDBRANCH   7   8
ENDBRANCH   6   7
ENDBRANCH   5   6
ENDBRANCH   4   5
ENDBRANCH   3   4
ENDBRANCH   2   3
ENDBRANCH   1   2
BRANCH   1  15
ATOM     15  C   UNL     1      74.930  78.100  78.237  1.00  0.00     0.000 C 
BRANCH  15  16
ATOM     16  C   UNL     1      74.492  79.339  79.029  1.00  0.00     0.000 C 
BRANCH  16  17
ATOM     17  C   UNL     1      75.708  80.175  79.457  1.00  0.00     0.000 C 
BRANCH  17  18
ATOM     18  C   UNL     1      75.732  81.568  78.806  1.00  0.00    -0.000 C 
BRANCH  18  19
ATOM     19  C   UNL     1      76.976  81.792  77.933  1.00  0.00    -0.000 C 
BRANCH  19  20
ATOM     20  C   UNL     1      78.282  81.391  78.642  1.00  0.00    -0.000 C 
BRANCH  20  21
ATOM     21  C   UNL     1      79.316  80.722  77.712  1.00  0.00    -0.000 C 
BRANCH  21  22
ATOM     22  C   UNL     1      80.702  81.387  77.805  1.00  0.00    -0.000 C 
BRANCH  22  23
ATOM     23  C   UNL     1      81.209  81.904  76.446  1.00  0.00    -0.000 C 
BRANCH  23  24
ATOM     24  C   UNL     1      80.458  83.130  75.888  1.00  0.00    -0.000 C 
BRANCH  24  25
ATOM     25  C   UNL     1      79.623  82.861  74.625  1.00  0.00    -0.003 C 
ATOM     26  C   UNL     1      78.166  83.296  74.769  1.00  0.00     0.004 C 
ENDBRANCH  24  25
ENDBRANCH  23  24
ENDBRANCH  22  23
ENDBRANCH  21  22
ENDBRANCH  20  21
ENDBRANCH  19  20
ENDBRANCH  18  19
ENDBRANCH  17  18
ENDBRANCH  16  17
ENDBRANCH  15  16
ENDBRANCH   1  15
TORSDOF 22
ENDMDL
MODEL 8
REMARK VINA RESULT:    -3.721      2.734      5.210
REMARK INTER + INTRA:         -12.153
REMARK INTER:                  -8.023
REMARK INTRA:                  -4.130
REMARK UNBOUND:                -3.648
REMARK SMILES CCCCCCCCCCCCCCCCCCCCCCCC(=O)[O-]
REMARK SMILES IDX 13 1 14 2 15 3 16 4 17 5 18 6 19 7 20 8 21 9 22 10 23 11
REMARK SMILES IDX 24 12 25 13 26 14 12 15 11 16 10 17 9 18 8 19 7 20 6 21 5 22
REMARK SMILES IDX 4 23 3 24 2 25 1 26
REMARK H PARENT
REMARK Flexibility Score: inf
ROOT
ATOM      1  C   UNL     1      78.349  81.233  78.341  1.00  0.00     0.000 C 
ENDROOT
BRANCH   1   2
ATOM      2  C   UNL     1      77.152  80.661  79.121  1.00  0.00     0.000 C 
BRANCH   2   3
ATOM      3  C   UNL     1      75.768  81.088  78.594  1.00  0.00     0.000 C 
BRANCH   3   4
ATOM      4  C   UNL     1      74.879  79.940  78.078  1.00  0.00     0.000 C 
BRANCH   4   5
ATOM      5  C   UNL     1      73.675  80.382  77.226  1.00  0.00     0.000 C 
BRANCH   5   6
ATOM      6  C   UNL     1      73.386  79.425  76.061  1.00  0.00     0.000 C 
BRANCH   6   7
ATOM      7  C   UNL     1      73.155  80.199  74.757  1.00  0.00     0.000 C 
BRANCH   7   8
ATOM      8  C   UNL     1      74.191  81.322  74.595  1.00  0.00     0.000 C 
BRANCH   8   9
ATOM      9  C   UNL     1      73.554  82.721  74.578  1.00  0.00     0.000 C 
BRANCH   9  10
ATOM     10  C   UNL     1      74.262  83.705  75.525  1.00  0.00     0.006 C 
BRANCH  10  11
ATOM     11  C   UNL     1      75.711  83.290  75.813  1.00  0.00     0.053 C 
BRANCH  11  12
ATOM     12  C   UNL     1      76.682  84.003  74.922  1.00  0.00     0.041 C 
ATOM     13  O   UNL     1      76.697  85.262  74.883  1.00  0.00    -0.550 OA
ATOM     14  O   UNL     1      77.592  83.279  74.162  1.00  0.00    -0.550 OA
ENDBRANCH  11  12
ENDBRANCH  10  11
ENDBRANCH   9  10
ENDBRANCH   8   9
ENDBRANCH   7   8
ENDBRANCH   6   7
ENDBRANCH   5   6
ENDBRANCH   4   5
ENDBRANCH   3   4
ENDBRANCH   2   3
ENDBRANCH   1   2
BRANCH   1  15
ATOM     15  C   UNL     1      79.524  80.249  78.250  1.00  0.00     0.000 C 
BRANCH  15  16
ATOM     16  C   UNL     1      79.507  79.491  76.916  1.00  0.00     0.000 C 
BRANCH  16  17
ATOM     17  C   UNL     1      78.462  78.365  76.938  1.00  0.00     0.000 C 
BRANCH  17  18
ATOM     18  C   UNL     1      77.530  78.393  75.715  1.00  0.00    -0.000 C 
BRANCH  18  19
ATOM     19  C   UNL     1      77.396  79.797  75.105  1.00  0.00    -0.000 C 
BRANCH  19  20
ATOM     20  C   UNL     1      77.410  79.782  73.567  1.00  0.00    -0.000 C 
BRANCH  20  21
ATOM     21  C   UNL     1      78.550  78.934  72.962  1.00  0.00    -0.000 C 
BRANCH  21  22
ATOM     22  C   UNL     1      79.695  79.801  72.410  1.00  0.00    -0.000 C 
BRANCH  22  23
ATOM     23  C   UNL     1      80.661  80.287  73.507  1.00  0.00    -0.000 C 
BRANCH  23  24
ATOM     24  C   UNL     1      80.609  81.799  73.805  1.00  0.00    -0.000 C 
BRANCH  24  25
ATOM     25  C   UNL     1      81.257  82.222  75.134  1.00  0.00    -0.003 C 
ATOM     26  C   UNL     1      80.583  83.438  75.766  1.00  0.00     0.004 C 
ENDBRANCH  24  25
ENDBRANCH  23  24
ENDBRANCH  22  23
ENDBRANCH  21  22
ENDBRANCH  20  21
ENDBRANCH  19  20
ENDBRANCH  18  19
ENDBRANCH  17  18
ENDBRANCH  16  17
ENDBRANCH  15  16
ENDBRANCH   1  15
TORSDOF 22
ENDMDL
MODEL 9
REMARK VINA RESULT:    -3.688      1.494      5.432
REMARK INTER + INTRA:         -12.078
REMARK INTER:                  -8.233
REMARK INTRA:                  -3.845
REMARK UNBOUND:                -3.648
REMARK SMILES CCCCCCCCCCCCCCCCCCCCCCCC(=O)[O-]
REMARK SMILES IDX 13 1 14 2 15 3 16 4 17 5 18 6 19 7 20 8 21 9 22 10 23 11
REMARK SMILES IDX 24 12 25 13 26 14 12 15 11 16 10 17 9 18 8 19 7 20 6 21 5 22
REMARK SMILES IDX 4 23 3 24 2 25 1 26
REMARK H PARENT
REMARK Flexibility Score: inf
ROOT
ATOM      1  C   UNL     1      78.821  81.047  78.272  1.00  0.00     0.000 C 
ENDROOT
BRANCH   1   2
ATOM      2  C   UNL     1      78.606  79.611  77.762  1.00  0.00     0.000 C 
BRANCH   2   3
ATOM      3  C   UNL     1      77.477  78.832  78.467  1.00  0.00     0.000 C 
BRANCH   3   4
ATOM      4  C   UNL     1      76.777  79.588  79.614  1.00  0.00     0.000 C 
BRANCH   4   5
ATOM      5  C   UNL     1      75.246  79.689  79.485  1.00  0.00     0.000 C 
BRANCH   5   6
ATOM      6  C   UNL     1      74.804  80.505  78.262  1.00  0.00     0.000 C 
BRANCH   6   7
ATOM      7  C   UNL     1      75.329  81.944  78.341  1.00  0.00     0.000 C 
BRANCH   7   8
ATOM      8  C   UNL     1      75.905  82.393  76.989  1.00  0.00     0.000 C 
BRANCH   8   9
ATOM      9  C   UNL     1      75.549  81.431  75.844  1.00  0.00     0.000 C 
BRANCH   9  10
ATOM     10  C   UNL     1      74.947  82.156  74.628  1.00  0.00     0.006 C 
BRANCH  10  11
ATOM     11  C   UNL     1      73.806  83.102  75.026  1.00  0.00     0.053 C 
BRANCH  11  12
ATOM     12  C   UNL     1      72.655  82.361  75.636  1.00  0.00     0.041 C 
ATOM     13  O   UNL     1      72.204  82.709  76.760  1.00  0.00    -0.550 OA
ATOM     14  O   UNL     1      72.060  81.311  74.949  1.00  0.00    -0.550 OA
ENDBRANCH  11  12
ENDBRANCH  10  11
ENDBRANCH   9  10
ENDBRANCH   8   9
ENDBRANCH   7   8
ENDBRANCH   6   7
ENDBRANCH   5   6
ENDBRANCH   4   5
ENDBRANCH   3   4
ENDBRANCH   2   3
ENDBRANCH   1   2
BRANCH   1  15
ATOM     15  C   UNL     1      80.250  81.292  78.775  1.00  0.00     0.000 C 
BRANCH  15  16
ATOM     16  C   UNL     1      81.057  79.987  78.799  1.00  0.00     0.000 C 
BRANCH  16  17
ATOM     17  C   UNL     1      82.199  80.066  79.824  1.00  0.00     0.000 C 
BRANCH  17  18
ATOM     18  C   UNL     1      83.332  81.006  79.381  1.00  0.00    -0.000 C 
BRANCH  18  19
ATOM     19  C   UNL     1      84.166  80.428  78.227  1.00  0.00    -0.000 C 
BRANCH  19  20
ATOM     20  C   UNL     1      84.252  81.378  77.020  1.00  0.00    -0.000 C 
BRANCH  20  21
ATOM     21  C   UNL     1      83.082  81.230  76.025  1.00  0.00    -0.000 C 
BRANCH  21  22
ATOM     22  C   UNL     1      82.267  82.528  75.883  1.00  0.00    -0.000 C 
BRANCH  22  23
ATOM     23  C   UNL     1      80.887  82.301  75.237  1.00  0.00    -0.000 C 
BRANCH  23  24
ATOM     24  C   UNL     1      79.837  83.392  75.532  1.00  0.00    -0.000 C 
BRANCH  24  25
ATOM     25  C   UNL     1      78.578  83.337  74.650  1.00  0.00    -0.003 C 
ATOM     26  C   UNL     1      78.581  82.158  73.679  1.00  0.00     0.004 C 
ENDBRANCH  24  25
ENDBRANCH  23  24
ENDBRANCH  22  23
ENDBRANCH  21  22
ENDBRANCH  20  21
ENDBRANCH  19  20
ENDBRANCH  18  19
ENDBRANCH  17  18
ENDBRANCH  16  17
ENDBRANCH  15  16
ENDBRANCH   1  15
TORSDOF 22
ENDMDL
