MODEL 1
REMARK VINA RESULT:    -3.717      0.000      0.000
REMARK INTER + INTRA:          -5.663
REMARK INTER:                  -5.021
REMARK INTRA:                  -0.642
REMARK UNBOUND:                -0.642
REMARK SMILES C[C@H](O)[C@H](O)[C@H](O)[C@@H](O)C=O
REMARK SMILES IDX 4 1 2 2 1 3 3 4 6 6 8 7 10 8 11 9 9 10 7 12 5 14
REMARK H PARENT 3 5 9 11 7 13 5 15
REMARK Flexibility Score: inf
ROOT
ATOM      1  C   UNL     1     -24.294   6.591 -29.795  1.00  0.00     0.174 C 
ENDROOT
BRANCH   1   2
ATOM      2  C   UNL     1     -24.940   7.913 -29.299  1.00  0.00     0.142 C 
ATOM      3  C   UNL     1     -24.822   8.125 -27.786  1.00  0.00     0.041 C 
BRANCH   2   4
ATOM      4  O   UNL     1     -26.302   7.931 -29.645  1.00  0.00    -0.391 OA
ATOM      5  H   UNL     1     -26.348   7.914 -30.636  1.00  0.00     0.211 HD
ENDBRANCH   2   4
ENDBRANCH   1   2
BRANCH   1   6
ATOM      6  C   UNL     1     -25.071   5.909 -30.960  1.00  0.00     0.181 C 
BRANCH   6   7
ATOM      7  C   UNL     1     -24.135   5.482 -32.120  1.00  0.00     0.209 C 
BRANCH   7   8
ATOM      8  C   UNL     1     -24.929   5.087 -33.334  1.00  0.00     0.258 C 
ATOM      9  O   UNL     1     -26.148   5.028 -33.291  1.00  0.00    -0.300 OA
ENDBRANCH   7   8
BRANCH   7  10
ATOM     10  O   UNL     1     -23.317   4.404 -31.739  1.00  0.00    -0.383 OA
ATOM     11  H   UNL     1     -22.502   4.441 -32.303  1.00  0.00     0.211 HD
ENDBRANCH   7  10
ENDBRANCH   6   7
BRANCH   6  12
ATOM     12  O   UNL     1     -25.821   4.813 -30.493  1.00  0.00    -0.387 OA
ATOM     13  H   UNL     1     -26.671   4.787 -31.006  1.00  0.00     0.211 HD
ENDBRANCH   6  12
ENDBRANCH   1   6
BRANCH   1  14
ATOM     14  O   UNL     1     -22.940   6.789 -30.121  1.00  0.00    -0.388 OA
ATOM     15  H   UNL     1     -22.691   6.127 -30.817  1.00  0.00     0.211 HD
ENDBRANCH   1  14
TORSDOF 8
ENDMDL
MODEL 2
REMARK VINA RESULT:    -3.652      1.022      4.372
REMARK INTER + INTRA:          -5.575
REMARK INTER:                  -5.070
REMARK INTRA:                  -0.505
REMARK UNBOUND:                -0.642
REMARK SMILES C[C@H](O)[C@H](O)[C@H](O)[C@@H](O)C=O
REMARK SMILES IDX 4 1 2 2 1 3 3 4 6 6 8 7 10 8 11 9 9 10 7 12 5 14
REMARK H PARENT 3 5 9 11 7 13 5 15
REMARK Flexibility Score: inf
ROOT
ATOM      1  C   UNL     1     -24.929   5.543 -31.136  1.00  0.00     0.174 C 
ENDROOT
BRANCH   1   2
ATOM      2  C   UNL     1     -24.373   5.485 -32.585  1.00  0.00     0.142 C 
ATOM      3  C   UNL     1     -25.421   5.088 -33.630  1.00  0.00     0.041 C 
BRANCH   2   4
ATOM      4  O   UNL     1     -23.313   4.565 -32.646  1.00  0.00    -0.391 OA
ATOM      5  H   UNL     1     -22.970   4.456 -31.721  1.00  0.00     0.211 HD
ENDBRANCH   2   4
ENDBRANCH   1   2
BRANCH   1   6
ATOM      6  C   UNL     1     -24.249   6.624 -30.245  1.00  0.00     0.181 C 
BRANCH   6   7
ATOM      7  C   UNL     1     -24.689   6.523 -28.761  1.00  0.00     0.209 C 
BRANCH   7   8
ATOM      8  C   UNL     1     -25.622   7.646 -28.400  1.00  0.00     0.258 C 
ATOM      9  O   UNL     1     -26.375   8.124 -29.234  1.00  0.00    -0.300 OA
ENDBRANCH   7   8
BRANCH   7  10
ATOM     10  O   UNL     1     -23.578   6.558 -27.900  1.00  0.00    -0.383 OA
ATOM     11  H   UNL     1     -23.710   7.324 -27.283  1.00  0.00     0.211 HD
ENDBRANCH   7  10
ENDBRANCH   6   7
BRANCH   6  12
ATOM     12  O   UNL     1     -22.847   6.560 -30.356  1.00  0.00    -0.387 OA
ATOM     13  H   UNL     1     -22.492   7.480 -30.240  1.00  0.00     0.211 HD
ENDBRANCH   6  12
ENDBRANCH   1   6
BRANCH   1  14
ATOM     14  O   UNL     1     -26.329   5.684 -31.145  1.00  0.00    -0.388 OA
ATOM     15  H   UNL     1     -26.545   6.621 -30.898  1.00  0.00     0.211 HD
ENDBRANCH   1  14
TORSDOF 8
ENDMDL
MODEL 3
REMARK VINA RESULT:    -3.616     14.432     15.933
REMARK INTER + INTRA:          -5.527
REMARK INTER:                  -5.034
REMARK INTRA:                  -0.493
REMARK UNBOUND:                -0.642
REMARK SMILES C[C@H](O)[C@H](O)[C@H](O)[C@@H](O)C=O
REMARK SMILES IDX 4 1 2 2 1 3 3 4 6 6 8 7 10 8 11 9 9 10 7 12 5 14
REMARK H PARENT 3 5 9 11 7 13 5 15
REMARK Flexibility Score: inf
ROOT
ATOM      1  C   UNL     1     -33.422  -6.617 -31.602  1.00  0.00     0.174 C 
ENDROOT
BRANCH   1   2
ATOM      2  C   UNL     1     -33.639  -8.023 -30.979  1.00  0.00     0.142 C 
ATOM      3  C   UNL     1     -32.476  -8.490 -30.096  1.00  0.00     0.041 C 
BRANCH   2   4
ATOM      4  O   UNL     1     -33.829  -8.968 -32.000  1.00  0.00    -0.391 OA
ATOM      5  H   UNL     1     -34.285  -8.498 -32.747  1.00  0.00     0.211 HD
ENDBRANCH   2   4
ENDBRANCH   1   2
BRANCH   1   6
ATOM      6  C   UNL     1     -34.735  -5.937 -32.091  1.00  0.00     0.181 C 
BRANCH   6   7
ATOM      7  C   UNL     1     -34.606  -5.379 -33.532  1.00  0.00     0.209 C 
BRANCH   7   8
ATOM      8  C   UNL     1     -34.074  -3.972 -33.517  1.00  0.00     0.258 C 
ATOM      9  O   UNL     1     -33.767  -3.432 -32.466  1.00  0.00    -0.300 OA
ENDBRANCH   7   8
BRANCH   7  10
ATOM     10  O   UNL     1     -35.846  -5.391 -34.193  1.00  0.00    -0.383 OA
ATOM     11  H   UNL     1     -35.883  -4.580 -34.763  1.00  0.00     0.211 HD
ENDBRANCH   7  10
ENDBRANCH   6   7
BRANCH   6  12
ATOM     12  O   UNL     1     -35.827  -6.821 -31.993  1.00  0.00    -0.387 OA
ATOM     13  H   UNL     1     -36.491  -6.413 -31.378  1.00  0.00     0.211 HD
ENDBRANCH   6  12
ENDBRANCH   1   6
BRANCH   1  14
ATOM     14  O   UNL     1     -32.704  -5.787 -30.722  1.00  0.00    -0.388 OA
ATOM     15  H   UNL     1     -31.756  -6.080 -30.727  1.00  0.00     0.211 HD
ENDBRANCH   1  14
TORSDOF 8
ENDMDL
MODEL 4
REMARK VINA RESULT:    -3.577      1.033      2.329
REMARK INTER + INTRA:          -5.473
REMARK INTER:                  -4.724
REMARK INTRA:                  -0.749
REMARK UNBOUND:                -0.642
REMARK SMILES C[C@H](O)[C@H](O)[C@H](O)[C@@H](O)C=O
REMARK SMILES IDX 4 1 2 2 1 3 3 4 6 6 8 7 10 8 11 9 9 10 7 12 5 14
REMARK H PARENT 3 5 9 11 7 13 5 15
REMARK Flexibility Score: inf
ROOT
ATOM      1  C   UNL     1     -25.149   6.258 -30.465  1.00  0.00     0.174 C 
ENDROOT
BRANCH   1   2
ATOM      2  C   UNL     1     -24.150   6.743 -29.380  1.00  0.00     0.142 C 
ATOM      3  C   UNL     1     -24.554   8.066 -28.720  1.00  0.00     0.041 C 
BRANCH   2   4
ATOM      4  O   UNL     1     -22.876   6.902 -29.950  1.00  0.00    -0.391 OA
ATOM      5  H   UNL     1     -22.475   7.713 -29.542  1.00  0.00     0.211 HD
ENDBRANCH   2   4
ENDBRANCH   1   2
BRANCH   1   6
ATOM      6  C   UNL     1     -24.942   4.774 -30.892  1.00  0.00     0.181 C 
BRANCH   6   7
ATOM      7  C   UNL     1     -25.278   4.541 -32.388  1.00  0.00     0.209 C 
BRANCH   7   8
ATOM      8  C   UNL     1     -24.174   5.051 -33.272  1.00  0.00     0.258 C 
ATOM      9  O   UNL     1     -23.209   4.350 -33.534  1.00  0.00    -0.300 OA
ENDBRANCH   7   8
BRANCH   7  10
ATOM     10  O   UNL     1     -26.479   5.179 -32.742  1.00  0.00    -0.383 OA
ATOM     11  H   UNL     1     -26.237   6.010 -33.228  1.00  0.00     0.211 HD
ENDBRANCH   7  10
ENDBRANCH   6   7
BRANCH   6  12
ATOM     12  O   UNL     1     -23.634   4.343 -30.599  1.00  0.00    -0.387 OA
ATOM     13  H   UNL     1     -23.650   3.353 -30.531  1.00  0.00     0.211 HD
ENDBRANCH   6  12
ENDBRANCH   1   6
BRANCH   1  14
ATOM     14  O   UNL     1     -26.476   6.503 -30.066  1.00  0.00    -0.388 OA
ATOM     15  H   UNL     1     -27.078   6.008 -30.681  1.00  0.00     0.211 HD
ENDBRANCH   1  14
TORSDOF 8
ENDMDL
MODEL 5
REMARK VINA RESULT:    -3.532      0.926      4.134
REMARK INTER + INTRA:          -5.412
REMARK INTER:                  -4.688
REMARK INTRA:                  -0.724
REMARK UNBOUND:                -0.642
REMARK SMILES C[C@H](O)[C@H](O)[C@H](O)[C@@H](O)C=O
REMARK SMILES IDX 4 1 2 2 1 3 3 4 6 6 8 7 10 8 11 9 9 10 7 12 5 14
REMARK H PARENT 3 5 9 11 7 13 5 15
REMARK Flexibility Score: inf
ROOT
ATOM      1  C   UNL     1     -24.092   5.189 -31.568  1.00  0.00     0.174 C 
ENDROOT
BRANCH   1   2
ATOM      2  C   UNL     1     -24.939   4.581 -32.718  1.00  0.00     0.142 C 
ATOM      3  C   UNL     1     -24.159   3.606 -33.607  1.00  0.00     0.041 C 
BRANCH   2   4
ATOM      4  O   UNL     1     -25.447   5.611 -33.526  1.00  0.00    -0.391 OA
ATOM      5  H   UNL     1     -25.392   5.296 -34.466  1.00  0.00     0.211 HD
ENDBRANCH   2   4
ENDBRANCH   1   2
BRANCH   1   6
ATOM      6  C   UNL     1     -24.935   5.653 -30.343  1.00  0.00     0.181 C 
BRANCH   6   7
ATOM      7  C   UNL     1     -24.151   6.626 -29.425  1.00  0.00     0.209 C 
BRANCH   7   8
ATOM      8  C   UNL     1     -24.871   7.939 -29.293  1.00  0.00     0.258 C 
ATOM      9  O   UNL     1     -25.841   8.049 -28.559  1.00  0.00    -0.300 OA
ENDBRANCH   7   8
BRANCH   7  10
ATOM     10  O   UNL     1     -22.858   6.862 -29.924  1.00  0.00    -0.383 OA
ATOM     11  H   UNL     1     -22.267   7.022 -29.143  1.00  0.00     0.211 HD
ENDBRANCH   7  10
ENDBRANCH   6   7
BRANCH   6  12
ATOM     12  O   UNL     1     -26.151   6.228 -30.757  1.00  0.00    -0.387 OA
ATOM     13  H   UNL     1     -26.253   7.094 -30.283  1.00  0.00     0.211 HD
ENDBRANCH   6  12
ENDBRANCH   1   6
BRANCH   1  14
ATOM     14  O   UNL     1     -23.063   4.308 -31.186  1.00  0.00    -0.388 OA
ATOM     15  H   UNL     1     -22.515   4.111 -31.989  1.00  0.00     0.211 HD
ENDBRANCH   1  14
TORSDOF 8
ENDMDL
MODEL 6
REMARK VINA RESULT:    -3.522      1.376      4.580
REMARK INTER + INTRA:          -5.399
REMARK INTER:                  -4.647
REMARK INTRA:                  -0.752
REMARK UNBOUND:                -0.642
REMARK SMILES C[C@H](O)[C@H](O)[C@H](O)[C@@H](O)C=O
REMARK SMILES IDX 4 1 2 2 1 3 3 4 6 6 8 7 10 8 11 9 9 10 7 12 5 14
REMARK H PARENT 3 5 9 11 7 13 5 15
REMARK Flexibility Score: inf
ROOT
ATOM      1  C   UNL     1     -24.925   5.543 -30.532  1.00  0.00     0.174 C 
ENDROOT
BRANCH   1   2
ATOM      2  C   UNL     1     -24.021   4.544 -31.304  1.00  0.00     0.142 C 
ATOM      3  C   UNL     1     -24.767   3.307 -31.815  1.00  0.00     0.041 C 
BRANCH   2   4
ATOM      4  O   UNL     1     -22.972   4.118 -30.473  1.00  0.00    -0.391 OA
ATOM      5  H   UNL     1     -23.380   3.585 -29.742  1.00  0.00     0.211 HD
ENDBRANCH   2   4
ENDBRANCH   1   2
BRANCH   1   6
ATOM      6  C   UNL     1     -24.287   6.951 -30.340  1.00  0.00     0.181 C 
BRANCH   6   7
ATOM      7  C   UNL     1     -25.057   7.808 -29.303  1.00  0.00     0.209 C 
BRANCH   7   8
ATOM      8  C   UNL     1     -25.036   7.158 -27.947  1.00  0.00     0.258 C 
ATOM      9  O   UNL     1     -24.003   7.102 -27.297  1.00  0.00    -0.300 OA
ENDBRANCH   7   8
BRANCH   7  10
ATOM     10  O   UNL     1     -26.392   8.000 -29.696  1.00  0.00    -0.383 OA
ATOM     11  H   UNL     1     -26.948   7.963 -28.875  1.00  0.00     0.211 HD
ENDBRANCH   7  10
ENDBRANCH   6   7
BRANCH   6  12
ATOM     12  O   UNL     1     -22.927   6.844 -29.991  1.00  0.00    -0.387 OA
ATOM     13  H   UNL     1     -22.862   6.918 -29.003  1.00  0.00     0.211 HD
ENDBRANCH   6  12
ENDBRANCH   1   6
BRANCH   1  14
ATOM     14  O   UNL     1     -26.198   5.627 -31.128  1.00  0.00    -0.388 OA
ATOM     15  H   UNL     1     -26.080   5.953 -32.058  1.00  0.00     0.211 HD
ENDBRANCH   1  14
TORSDOF 8
ENDMDL
MODEL 7
REMARK VINA RESULT:    -3.494      2.027      3.100
REMARK INTER + INTRA:          -5.362
REMARK INTER:                  -4.834
REMARK INTRA:                  -0.528
REMARK UNBOUND:                -0.642
REMARK SMILES C[C@H](O)[C@H](O)[C@H](O)[C@@H](O)C=O
REMARK SMILES IDX 4 1 2 2 1 3 3 4 6 6 8 7 10 8 11 9 9 10 7 12 5 14
REMARK H PARENT 3 5 9 11 7 13 5 15
REMARK Flexibility Score: inf
ROOT
ATOM      1  C   UNL     1     -23.978   5.444 -31.419  1.00  0.00     0.174 C 
ENDROOT
BRANCH   1   2
ATOM      2  C   UNL     1     -23.983   6.103 -30.013  1.00  0.00     0.142 C 
ATOM      3  C   UNL     1     -25.244   6.922 -29.721  1.00  0.00     0.041 C 
BRANCH   2   4
ATOM      4  O   UNL     1     -22.866   6.945 -29.883  1.00  0.00    -0.391 OA
ATOM      5  H   UNL     1     -23.197   7.878 -29.956  1.00  0.00     0.211 HD
ENDBRANCH   2   4
ENDBRANCH   1   2
BRANCH   1   6
ATOM      6  C   UNL     1     -23.723   3.908 -31.393  1.00  0.00     0.181 C 
BRANCH   6   7
ATOM      7  C   UNL     1     -23.481   3.329 -32.811  1.00  0.00     0.209 C 
BRANCH   7   8
ATOM      8  C   UNL     1     -22.548   2.151 -32.759  1.00  0.00     0.258 C 
ATOM      9  O   UNL     1     -22.877   1.118 -32.196  1.00  0.00    -0.300 OA
ENDBRANCH   7   8
BRANCH   7  10
ATOM     10  O   UNL     1     -22.942   4.302 -33.670  1.00  0.00    -0.383 OA
ATOM     11  H   UNL     1     -22.054   3.971 -33.966  1.00  0.00     0.211 HD
ENDBRANCH   7  10
ENDBRANCH   6   7
BRANCH   6  12
ATOM     12  O   UNL     1     -22.653   3.590 -30.534  1.00  0.00    -0.387 OA
ATOM     13  H   UNL     1     -21.840   3.482 -31.092  1.00  0.00     0.211 HD
ENDBRANCH   6  12
ENDBRANCH   1   6
BRANCH   1  14
ATOM     14  O   UNL     1     -25.155   5.762 -32.122  1.00  0.00    -0.388 OA
ATOM     15  H   UNL     1     -25.758   4.975 -32.084  1.00  0.00     0.211 HD
ENDBRANCH   1  14
TORSDOF 8
ENDMDL
MODEL 8
REMARK VINA RESULT:    -3.432     13.587     15.206
REMARK INTER + INTRA:          -5.278
REMARK INTER:                  -4.684
REMARK INTRA:                  -0.594
REMARK UNBOUND:                -0.642
REMARK SMILES C[C@H](O)[C@H](O)[C@H](O)[C@@H](O)C=O
REMARK SMILES IDX 4 1 2 2 1 3 3 4 6 6 8 7 10 8 11 9 9 10 7 12 5 14
REMARK H PARENT 3 5 9 11 7 13 5 15
REMARK Flexibility Score: inf
ROOT
ATOM      1  C   UNL     1     -33.891  -5.016 -33.065  1.00  0.00     0.174 C 
ENDROOT
BRANCH   1   2
ATOM      2  C   UNL     1     -32.878  -3.849 -33.222  1.00  0.00     0.142 C 
ATOM      3  C   UNL     1     -33.513  -2.547 -33.721  1.00  0.00     0.041 C 
BRANCH   2   4
ATOM      4  O   UNL     1     -31.865  -4.222 -34.120  1.00  0.00    -0.391 OA
ATOM      5  H   UNL     1     -31.957  -3.639 -34.918  1.00  0.00     0.211 HD
ENDBRANCH   2   4
ENDBRANCH   1   2
BRANCH   1   6
ATOM      6  C   UNL     1     -34.606  -5.046 -31.681  1.00  0.00     0.181 C 
BRANCH   6   7
ATOM      7  C   UNL     1     -35.133  -6.460 -31.324  1.00  0.00     0.209 C 
BRANCH   7   8
ATOM      8  C   UNL     1     -34.017  -7.467 -31.328  1.00  0.00     0.258 C 
ATOM      9  O   UNL     1     -33.043  -7.323 -30.605  1.00  0.00    -0.300 OA
ENDBRANCH   7   8
BRANCH   7  10
ATOM     10  O   UNL     1     -36.125  -6.874 -32.230  1.00  0.00    -0.383 OA
ATOM     11  H   UNL     1     -35.724  -6.842 -33.137  1.00  0.00     0.211 HD
ENDBRANCH   7  10
ENDBRANCH   6   7
BRANCH   6  12
ATOM     12  O   UNL     1     -33.761  -4.556 -30.667  1.00  0.00    -0.387 OA
ATOM     13  H   UNL     1     -32.826  -4.624 -30.994  1.00  0.00     0.211 HD
ENDBRANCH   6  12
ENDBRANCH   1   6
BRANCH   1  14
ATOM     14  O   UNL     1     -34.815  -5.020 -34.126  1.00  0.00    -0.388 OA
ATOM     15  H   UNL     1     -34.821  -5.929 -34.524  1.00  0.00     0.211 HD
ENDBRANCH   1  14
TORSDOF 8
ENDMDL
MODEL 9
REMARK VINA RESULT:    -3.430      1.512      2.200
REMARK INTER + INTRA:          -5.275
REMARK INTER:                  -4.555
REMARK INTRA:                  -0.720
REMARK UNBOUND:                -0.642
REMARK SMILES C[C@H](O)[C@H](O)[C@H](O)[C@@H](O)C=O
REMARK SMILES IDX 4 1 2 2 1 3 3 4 6 6 8 7 10 8 11 9 9 10 7 12 5 14
REMARK H PARENT 3 5 9 11 7 13 5 15
REMARK Flexibility Score: inf
ROOT
ATOM      1  C   UNL     1     -24.518   5.823 -28.629  1.00  0.00     0.174 C 
ENDROOT
BRANCH   1   2
ATOM      2  C   UNL     1     -24.109   7.293 -28.339  1.00  0.00     0.142 C 
ATOM      3  C   UNL     1     -24.686   7.846 -27.031  1.00  0.00     0.041 C 
BRANCH   2   4
ATOM      4  O   UNL     1     -24.530   8.117 -29.395  1.00  0.00    -0.391 OA
ATOM      5  H   UNL     1     -25.437   7.810 -29.657  1.00  0.00     0.211 HD
ENDBRANCH   2   4
ENDBRANCH   1   2
BRANCH   1   6
ATOM      6  C   UNL     1     -23.994   5.282 -29.992  1.00  0.00     0.181 C 
BRANCH   6   7
ATOM      7  C   UNL     1     -25.132   5.103 -31.030  1.00  0.00     0.209 C 
BRANCH   7   8
ATOM      8  C   UNL     1     -24.622   5.316 -32.428  1.00  0.00     0.258 C 
ATOM      9  O   UNL     1     -23.597   4.774 -32.809  1.00  0.00    -0.300 OA
ENDBRANCH   7   8
BRANCH   7  10
ATOM     10  O   UNL     1     -26.185   6.001 -30.785  1.00  0.00    -0.383 OA
ATOM     11  H   UNL     1     -26.640   6.162 -31.652  1.00  0.00     0.211 HD
ENDBRANCH   7  10
ENDBRANCH   6   7
BRANCH   6  12
ATOM     12  O   UNL     1     -22.975   6.108 -30.504  1.00  0.00    -0.387 OA
ATOM     13  H   UNL     1     -22.394   6.376 -29.746  1.00  0.00     0.211 HD
ENDBRANCH   6  12
ENDBRANCH   1   6
BRANCH   1  14
ATOM     14  O   UNL     1     -24.150   4.983 -27.561  1.00  0.00    -0.388 OA
ATOM     15  H   UNL     1     -24.468   5.401 -26.719  1.00  0.00     0.211 HD
ENDBRANCH   1  14
TORSDOF 8
ENDMDL
