MODEL 1
REMARK VINA RESULT:    -7.525      0.000      0.000
REMARK INTER + INTRA:         -22.788
REMARK INTER:                 -17.863
REMARK INTRA:                  -4.924
REMARK UNBOUND:                -4.924
REMARK SMILES O=C(OC[C@H]1O[C@H](OC(=O)c2cc(O)c(O)c(O)c2)[C@H](OC(=O)c2cc(O)c(O)c(O)c2)[C@@H](OC(=O)c2cc(O)c(O)c(O)c2)[C@H]1OC(=O)c1cc(O)c(O)c(O)c1)c1cc(O)c(O)c(O)c1
REMARK SMILES IDX 5 1 46 2 33 3 20 4 7 5 6 6 4 7 3 8 2 9 1 10 59 11 60 12
REMARK SMILES IDX 61 13 67 14 63 15 65 16 62 17 64 19 66 21 47 23 48 24 49 25
REMARK SMILES IDX 50 26 58 27 51 28 56 29 52 30 54 31 57 32 53 34 55 36 34 38
REMARK SMILES IDX 35 39 36 40 37 41 45 42 38 43 43 44 39 45 41 46 44 47 40 49
REMARK SMILES IDX 42 51 8 53 9 54 10 55 11 56 19 57 12 58 17 59 13 60 15 61
REMARK SMILES IDX 18 62 14 64 16 66 21 68 22 69 23 70 24 71 32 72 25 73 30 74
REMARK SMILES IDX 26 75 28 76 31 77 27 79 29 81
REMARK H PARENT 62 18 64 20 66 22 57 33 53 35 55 37 44 48 40 50 42 52 18 63
REMARK H PARENT 14 65 16 67 31 78 27 80 29 82
REMARK Flexibility Score: inf
ROOT
ATOM      1  C   UNL     1      14.696  24.778  42.320  1.00  0.00     0.205 C 
ATOM      2  C   UNL     1      14.830  24.821  43.853  1.00  0.00     0.254 C 
ATOM      3  C   UNL     1      13.731  23.925  44.435  1.00  0.00     0.267 C 
ATOM      4  C   UNL     1      13.870  22.501  43.866  1.00  0.00     0.290 C 
ATOM      5  C   UNL     1      13.917  22.561  42.322  1.00  0.00     0.357 C 
ATOM      6  O   UNL     1      14.916  23.456  41.848  1.00  0.00    -0.329 OA
ENDROOT
BRANCH   1   7
ATOM      7  C   UNL     1      15.679  25.735  41.620  1.00  0.00     0.269 C 
BRANCH   7   8
ATOM      8  O   UNL     1      16.391  25.028  40.609  1.00  0.00    -0.459 OA
BRANCH   8   9
ATOM      9  C   UNL     1      17.774  25.166  40.429  1.00  0.00     0.338 C 
ATOM     10  O   UNL     1      18.371  26.179  40.894  1.00  0.00    -0.246 OA
BRANCH   9  11
ATOM     11  C   UNL     1      18.525  24.147  39.668  1.00  0.00     0.067 A 
ATOM     12  C   UNL     1      18.155  23.831  38.354  1.00  0.00     0.066 A 
ATOM     13  C   UNL     1      18.822  22.833  37.640  1.00  0.00     0.162 A 
ATOM     14  C   UNL     1      19.593  23.450  40.269  1.00  0.00     0.066 A 
ATOM     15  C   UNL     1      19.869  22.109  38.257  1.00  0.00     0.200 A 
ATOM     16  C   UNL     1      20.252  22.431  39.572  1.00  0.00     0.162 A 
BRANCH  13  17
ATOM     17  O   UNL     1      18.421  22.602  36.323  1.00  0.00    -0.504 OA
ATOM     18  H   UNL     1      19.036  22.682  35.532  1.00  0.00     0.293 HD
ENDBRANCH  13  17
BRANCH  15  19
ATOM     19  O   UNL     1      20.540  21.071  37.602  1.00  0.00    -0.502 OA
ATOM     20  H   UNL     1      20.093  20.247  37.231  1.00  0.00     0.293 HD
ENDBRANCH  15  19
BRANCH  16  21
ATOM     21  O   UNL     1      21.286  21.746  40.210  1.00  0.00    -0.504 OA
ATOM     22  H   UNL     1      21.108  21.035  40.909  1.00  0.00     0.293 HD
ENDBRANCH  16  21
ENDBRANCH   9  11
ENDBRANCH   8   9
ENDBRANCH   7   8
ENDBRANCH   1   7
BRANCH   2  23
ATOM     23  O   UNL     1      16.103  24.313  44.254  1.00  0.00    -0.452 OA
BRANCH  23  24
ATOM     24  C   UNL     1      16.843  24.807  45.337  1.00  0.00     0.338 C 
ATOM     25  O   UNL     1      16.784  24.227  46.452  1.00  0.00    -0.246 OA
BRANCH  24  26
ATOM     26  C   UNL     1      17.702  25.997  45.151  1.00  0.00     0.067 A 
ATOM     27  C   UNL     1      18.825  25.951  44.304  1.00  0.00     0.066 A 
ATOM     28  C   UNL     1      17.435  27.176  45.866  1.00  0.00     0.066 A 
ATOM     29  C   UNL     1      19.675  27.063  44.184  1.00  0.00     0.162 A 
ATOM     30  C   UNL     1      18.274  28.289  45.742  1.00  0.00     0.162 A 
ATOM     31  C   UNL     1      19.397  28.237  44.904  1.00  0.00     0.200 A 
BRANCH  29  32
ATOM     32  O   UNL     1      20.796  27.002  43.360  1.00  0.00    -0.504 OA
ATOM     33  H   UNL     1      21.495  26.276  43.470  1.00  0.00     0.293 HD
ENDBRANCH  29  32
BRANCH  30  34
ATOM     34  O   UNL     1      17.976  29.439  46.469  1.00  0.00    -0.504 OA
ATOM     35  H   UNL     1      18.327  30.353  46.201  1.00  0.00     0.293 HD
ENDBRANCH  30  34
BRANCH  31  36
ATOM     36  O   UNL     1      20.226  29.353  44.805  1.00  0.00    -0.502 OA
ATOM     37  H   UNL     1      20.997  29.512  45.439  1.00  0.00     0.293 HD
ENDBRANCH  31  36
ENDBRANCH  24  26
ENDBRANCH  23  24
ENDBRANCH   2  23
BRANCH   3  38
ATOM     38  O   UNL     1      13.795  23.921  45.861  1.00  0.00    -0.450 OA
BRANCH  38  39
ATOM     39  C   UNL     1      13.312  24.980  46.642  1.00  0.00     0.338 C 
ATOM     40  O   UNL     1      12.250  25.575  46.312  1.00  0.00    -0.246 OA
BRANCH  39  41
ATOM     41  C   UNL     1      14.034  25.390  47.867  1.00  0.00     0.067 A 
ATOM     42  C   UNL     1      14.583  26.681  47.969  1.00  0.00     0.066 A 
ATOM     43  C   UNL     1      14.175  24.497  48.941  1.00  0.00     0.066 A 
ATOM     44  C   UNL     1      15.266  27.072  49.123  1.00  0.00     0.162 A 
ATOM     45  C   UNL     1      14.860  24.876  50.100  1.00  0.00     0.162 A 
ATOM     46  C   UNL     1      15.423  26.175  50.192  1.00  0.00     0.200 A 
BRANCH  44  47
ATOM     47  O   UNL     1      15.793  28.362  49.212  1.00  0.00    -0.504 OA
ATOM     48  H   UNL     1      15.719  28.912  50.064  1.00  0.00     0.293 HD
ENDBRANCH  44  47
BRANCH  45  49
ATOM     49  O   UNL     1      14.961  23.936  51.126  1.00  0.00    -0.504 OA
ATOM     50  H   UNL     1      15.794  23.787  51.677  1.00  0.00     0.293 HD
ENDBRANCH  45  49
BRANCH  46  51
ATOM     51  O   UNL     1      16.140  26.612  51.309  1.00  0.00    -0.502 OA
ATOM     52  H   UNL     1      16.842  27.343  51.276  1.00  0.00     0.293 HD
ENDBRANCH  46  51
ENDBRANCH  39  41
ENDBRANCH  38  39
ENDBRANCH   3  38
BRANCH   5  53
ATOM     53  O   UNL     1      12.635  22.904  41.797  1.00  0.00    -0.428 OA
BRANCH  53  54
ATOM     54  C   UNL     1      12.221  22.573  40.502  1.00  0.00     0.340 C 
ATOM     55  O   UNL     1      11.877  21.397  40.220  1.00  0.00    -0.246 OA
BRANCH  54  56
ATOM     56  C   UNL     1      12.185  23.619  39.468  1.00  0.00     0.067 A 
ATOM     57  C   UNL     1      12.208  23.284  38.108  1.00  0.00     0.066 A 
ATOM     58  C   UNL     1      12.112  24.966  39.840  1.00  0.00     0.066 A 
ATOM     59  C   UNL     1      12.126  24.273  37.120  1.00  0.00     0.162 A 
ATOM     60  C   UNL     1      12.059  25.970  38.873  1.00  0.00     0.162 A 
ATOM     61  C   UNL     1      12.049  25.637  37.502  1.00  0.00     0.200 A 
BRANCH  59  62
ATOM     62  O   UNL     1      12.120  23.854  35.786  1.00  0.00    -0.504 OA
ATOM     63  H   UNL     1      11.455  24.180  35.093  1.00  0.00     0.293 HD
ENDBRANCH  59  62
BRANCH  60  64
ATOM     64  O   UNL     1      12.025  27.299  39.296  1.00  0.00    -0.504 OA
ATOM     65  H   UNL     1      12.390  28.054  38.724  1.00  0.00     0.293 HD
ENDBRANCH  60  64
BRANCH  61  66
ATOM     66  O   UNL     1      11.957  26.672  36.560  1.00  0.00    -0.502 OA
ATOM     67  H   UNL     1      12.755  27.127  36.137  1.00  0.00     0.293 HD
ENDBRANCH  61  66
ENDBRANCH  54  56
ENDBRANCH  53  54
ENDBRANCH   5  53
BRANCH   4  68
ATOM     68  O   UNL     1      12.746  21.708  44.246  1.00  0.00    -0.448 OA
BRANCH  68  69
ATOM     69  C   UNL     1      12.828  20.376  44.662  1.00  0.00     0.339 C 
ATOM     70  O   UNL     1      11.875  19.579  44.436  1.00  0.00    -0.246 OA
BRANCH  69  71
ATOM     71  C   UNL     1      14.032  19.911  45.382  1.00  0.00     0.067 A 
ATOM     72  C   UNL     1      15.025  19.174  44.725  1.00  0.00     0.066 A 
ATOM     73  C   UNL     1      14.201  20.212  46.743  1.00  0.00     0.066 A 
ATOM     74  C   UNL     1      16.177  18.753  45.406  1.00  0.00     0.162 A 
ATOM     75  C   UNL     1      15.347  19.801  47.431  1.00  0.00     0.162 A 
ATOM     76  C   UNL     1      16.341  19.070  46.764  1.00  0.00     0.200 A 
BRANCH  74  77
ATOM     77  O   UNL     1      17.165  18.030  44.735  1.00  0.00    -0.504 OA
ATOM     78  H   UNL     1      18.150  18.168  44.935  1.00  0.00     0.293 HD
ENDBRANCH  74  77
BRANCH  75  79
ATOM     79  O   UNL     1      15.482  20.132  48.780  1.00  0.00    -0.504 OA
ATOM     80  H   UNL     1      14.689  20.193  49.404  1.00  0.00     0.293 HD
ENDBRANCH  75  79
BRANCH  76  81
ATOM     81  O   UNL     1      17.483  18.664  47.458  1.00  0.00    -0.502 OA
ATOM     82  H   UNL     1      17.485  17.870  48.081  1.00  0.00     0.293 HD
ENDBRANCH  76  81
ENDBRANCH  69  71
ENDBRANCH  68  69
ENDBRANCH   4  68
TORSDOF 31
ENDMDL
MODEL 2
REMARK VINA RESULT:    -7.406      2.619      6.152
REMARK INTER + INTRA:         -22.505
REMARK INTER:                 -16.908
REMARK INTRA:                  -5.597
REMARK UNBOUND:                -4.924
REMARK SMILES O=C(OC[C@H]1O[C@H](OC(=O)c2cc(O)c(O)c(O)c2)[C@H](OC(=O)c2cc(O)c(O)c(O)c2)[C@@H](OC(=O)c2cc(O)c(O)c(O)c2)[C@H]1OC(=O)c1cc(O)c(O)c(O)c1)c1cc(O)c(O)c(O)c1
REMARK SMILES IDX 5 1 46 2 33 3 20 4 7 5 6 6 4 7 3 8 2 9 1 10 59 11 60 12
REMARK SMILES IDX 61 13 67 14 63 15 65 16 62 17 64 19 66 21 47 23 48 24 49 25
REMARK SMILES IDX 50 26 58 27 51 28 56 29 52 30 54 31 57 32 53 34 55 36 34 38
REMARK SMILES IDX 35 39 36 40 37 41 45 42 38 43 43 44 39 45 41 46 44 47 40 49
REMARK SMILES IDX 42 51 8 53 9 54 10 55 11 56 19 57 12 58 17 59 13 60 15 61
REMARK SMILES IDX 18 62 14 64 16 66 21 68 22 69 23 70 24 71 32 72 25 73 30 74
REMARK SMILES IDX 26 75 28 76 31 77 27 79 29 81
REMARK H PARENT 62 18 64 20 66 22 57 33 53 35 55 37 44 48 40 50 42 52 18 63
REMARK H PARENT 14 65 16 67 31 78 27 80 29 82
REMARK Flexibility Score: inf
ROOT
ATOM      1  C   UNL     1      17.658  25.731  42.341  1.00  0.00     0.205 C 
ATOM      2  C   UNL     1      16.481  25.765  43.333  1.00  0.00     0.254 C 
ATOM      3  C   UNL     1      15.549  24.601  42.979  1.00  0.00     0.267 C 
ATOM      4  C   UNL     1      16.333  23.276  43.032  1.00  0.00     0.290 C 
ATOM      5  C   UNL     1      17.602  23.389  42.157  1.00  0.00     0.357 C 
ATOM      6  O   UNL     1      18.391  24.523  42.495  1.00  0.00    -0.329 OA
ENDROOT
BRANCH   1   7
ATOM      7  C   UNL     1      18.611  26.927  42.524  1.00  0.00     0.269 C 
BRANCH   7   8
ATOM      8  O   UNL     1      19.959  26.482  42.410  1.00  0.00    -0.459 OA
BRANCH   8   9
ATOM      9  C   UNL     1      20.687  26.591  41.218  1.00  0.00     0.338 C 
ATOM     10  O   UNL     1      21.037  25.547  40.595  1.00  0.00    -0.246 OA
BRANCH   9  11
ATOM     11  C   UNL     1      21.074  27.923  40.708  1.00  0.00     0.067 A 
ATOM     12  C   UNL     1      20.648  28.346  39.442  1.00  0.00     0.066 A 
ATOM     13  C   UNL     1      21.048  29.581  38.926  1.00  0.00     0.162 A 
ATOM     14  C   UNL     1      21.910  28.764  41.471  1.00  0.00     0.066 A 
ATOM     15  C   UNL     1      21.917  30.407  39.676  1.00  0.00     0.200 A 
ATOM     16  C   UNL     1      22.338  29.991  40.952  1.00  0.00     0.162 A 
BRANCH  13  17
ATOM     17  O   UNL     1      20.552  29.950  37.675  1.00  0.00    -0.504 OA
ATOM     18  H   UNL     1      19.642  30.355  37.534  1.00  0.00     0.293 HD
ENDBRANCH  13  17
BRANCH  15  19
ATOM     19  O   UNL     1      22.382  31.632  39.187  1.00  0.00    -0.502 OA
ATOM     20  H   UNL     1      22.527  32.455  39.752  1.00  0.00     0.293 HD
ENDBRANCH  15  19
BRANCH  16  21
ATOM     21  O   UNL     1      23.187  30.783  41.725  1.00  0.00    -0.504 OA
ATOM     22  H   UNL     1      22.863  31.271  42.552  1.00  0.00     0.293 HD
ENDBRANCH  16  21
ENDBRANCH   9  11
ENDBRANCH   8   9
ENDBRANCH   7   8
ENDBRANCH   1   7
BRANCH   2  23
ATOM     23  O   UNL     1      16.954  25.591  44.670  1.00  0.00    -0.452 OA
BRANCH  23  24
ATOM     24  C   UNL     1      16.853  26.563  45.674  1.00  0.00     0.338 C 
ATOM     25  O   UNL     1      17.383  27.692  45.509  1.00  0.00    -0.246 OA
BRANCH  24  26
ATOM     26  C   UNL     1      16.104  26.256  46.913  1.00  0.00     0.067 A 
ATOM     27  C   UNL     1      15.898  27.243  47.895  1.00  0.00     0.066 A 
ATOM     28  C   UNL     1      15.636  24.953  47.147  1.00  0.00     0.066 A 
ATOM     29  C   UNL     1      15.247  26.928  49.099  1.00  0.00     0.162 A 
ATOM     30  C   UNL     1      14.977  24.637  48.340  1.00  0.00     0.162 A 
ATOM     31  C   UNL     1      14.782  25.621  49.321  1.00  0.00     0.200 A 
BRANCH  29  32
ATOM     32  O   UNL     1      15.066  27.905  50.075  1.00  0.00    -0.504 OA
ATOM     33  H   UNL     1      15.458  27.804  51.004  1.00  0.00     0.293 HD
ENDBRANCH  29  32
BRANCH  30  34
ATOM     34  O   UNL     1      14.530  23.333  48.536  1.00  0.00    -0.504 OA
ATOM     35  H   UNL     1      13.557  23.071  48.408  1.00  0.00     0.293 HD
ENDBRANCH  30  34
BRANCH  31  36
ATOM     36  O   UNL     1      14.134  25.281  50.507  1.00  0.00    -0.502 OA
ATOM     37  H   UNL     1      14.602  25.300  51.404  1.00  0.00     0.293 HD
ENDBRANCH  31  36
ENDBRANCH  24  26
ENDBRANCH  23  24
ENDBRANCH   2  23
BRANCH   3  38
ATOM     38  O   UNL     1      14.428  24.574  43.862  1.00  0.00    -0.450 OA
BRANCH  38  39
ATOM     39  C   UNL     1      13.104  24.592  43.403  1.00  0.00     0.338 C 
ATOM     40  O   UNL     1      12.151  24.679  44.225  1.00  0.00    -0.246 OA
BRANCH  39  41
ATOM     41  C   UNL     1      12.819  24.531  41.952  1.00  0.00     0.067 A 
ATOM     42  C   UNL     1      12.814  25.705  41.179  1.00  0.00     0.066 A 
ATOM     43  C   UNL     1      12.555  23.299  41.332  1.00  0.00     0.066 A 
ATOM     44  C   UNL     1      12.545  25.652  39.809  1.00  0.00     0.162 A 
ATOM     45  C   UNL     1      12.280  23.233  39.962  1.00  0.00     0.162 A 
ATOM     46  C   UNL     1      12.264  24.423  39.189  1.00  0.00     0.200 A 
BRANCH  44  47
ATOM     47  O   UNL     1      12.558  26.827  39.055  1.00  0.00    -0.504 OA
ATOM     48  H   UNL     1      12.143  26.871  38.127  1.00  0.00     0.293 HD
ENDBRANCH  44  47
BRANCH  45  49
ATOM     49  O   UNL     1      12.026  21.975  39.415  1.00  0.00    -0.504 OA
ATOM     50  H   UNL     1      11.204  21.425  39.618  1.00  0.00     0.293 HD
ENDBRANCH  45  49
BRANCH  46  51
ATOM     51  O   UNL     1      11.975  24.434  37.822  1.00  0.00    -0.502 OA
ATOM     52  H   UNL     1      12.331  23.747  37.167  1.00  0.00     0.293 HD
ENDBRANCH  46  51
ENDBRANCH  39  41
ENDBRANCH  38  39
ENDBRANCH   3  38
BRANCH   5  53
ATOM     53  O   UNL     1      17.254  23.405  40.773  1.00  0.00    -0.428 OA
BRANCH  53  54
ATOM     54  C   UNL     1      18.156  23.736  39.757  1.00  0.00     0.340 C 
ATOM     55  O   UNL     1      19.295  23.204  39.712  1.00  0.00    -0.246 OA
BRANCH  54  56
ATOM     56  C   UNL     1      17.760  24.711  38.729  1.00  0.00     0.067 A 
ATOM     57  C   UNL     1      18.712  25.537  38.118  1.00  0.00     0.066 A 
ATOM     58  C   UNL     1      16.418  24.810  38.342  1.00  0.00     0.066 A 
ATOM     59  C   UNL     1      18.345  26.434  37.107  1.00  0.00     0.162 A 
ATOM     60  C   UNL     1      16.026  25.717  37.357  1.00  0.00     0.162 A 
ATOM     61  C   UNL     1      16.985  26.528  36.716  1.00  0.00     0.200 A 
BRANCH  59  62
ATOM     62  O   UNL     1      19.361  27.198  36.523  1.00  0.00    -0.504 OA
ATOM     63  H   UNL     1      19.800  26.975  35.637  1.00  0.00     0.293 HD
ENDBRANCH  59  62
BRANCH  60  64
ATOM     64  O   UNL     1      14.672  25.803  37.033  1.00  0.00    -0.504 OA
ATOM     65  H   UNL     1      13.945  25.715  37.736  1.00  0.00     0.293 HD
ENDBRANCH  60  64
BRANCH  61  66
ATOM     66  O   UNL     1      16.558  27.401  35.704  1.00  0.00    -0.502 OA
ATOM     67  H   UNL     1      16.612  28.409  35.764  1.00  0.00     0.293 HD
ENDBRANCH  61  66
ENDBRANCH  54  56
ENDBRANCH  53  54
ENDBRANCH   5  53
BRANCH   4  68
ATOM     68  O   UNL     1      15.533  22.212  42.521  1.00  0.00    -0.448 OA
BRANCH  68  69
ATOM     69  C   UNL     1      14.832  21.302  43.317  1.00  0.00     0.339 C 
ATOM     70  O   UNL     1      13.612  21.066  43.092  1.00  0.00    -0.246 OA
BRANCH  69  71
ATOM     71  C   UNL     1      15.526  20.628  44.436  1.00  0.00     0.067 A 
ATOM     72  C   UNL     1      15.484  21.157  45.732  1.00  0.00     0.066 A 
ATOM     73  C   UNL     1      16.234  19.436  44.212  1.00  0.00     0.066 A 
ATOM     74  C   UNL     1      16.125  20.503  46.795  1.00  0.00     0.162 A 
ATOM     75  C   UNL     1      16.873  18.775  45.264  1.00  0.00     0.162 A 
ATOM     76  C   UNL     1      16.820  19.305  46.562  1.00  0.00     0.200 A 
BRANCH  74  77
ATOM     77  O   UNL     1      16.064  21.033  48.084  1.00  0.00    -0.504 OA
ATOM     78  H   UNL     1      16.021  22.034  48.244  1.00  0.00     0.293 HD
ENDBRANCH  74  77
BRANCH  75  79
ATOM     79  O   UNL     1      17.556  17.586  45.002  1.00  0.00    -0.504 OA
ATOM     80  H   UNL     1      17.324  16.716  45.463  1.00  0.00     0.293 HD
ENDBRANCH  75  79
BRANCH  76  81
ATOM     81  O   UNL     1      17.461  18.637  47.608  1.00  0.00    -0.502 OA
ATOM     82  H   UNL     1      18.164  17.931  47.451  1.00  0.00     0.293 HD
ENDBRANCH  76  81
ENDBRANCH  69  71
ENDBRANCH  68  69
ENDBRANCH   4  68
TORSDOF 31
ENDMDL
MODEL 3
REMARK VINA RESULT:    -7.342      2.052      9.429
REMARK INTER + INTRA:         -22.352
REMARK INTER:                 -17.352
REMARK INTRA:                  -5.000
REMARK UNBOUND:                -4.924
REMARK SMILES O=C(OC[C@H]1O[C@H](OC(=O)c2cc(O)c(O)c(O)c2)[C@H](OC(=O)c2cc(O)c(O)c(O)c2)[C@@H](OC(=O)c2cc(O)c(O)c(O)c2)[C@H]1OC(=O)c1cc(O)c(O)c(O)c1)c1cc(O)c(O)c(O)c1
REMARK SMILES IDX 5 1 46 2 33 3 20 4 7 5 6 6 4 7 3 8 2 9 1 10 59 11 60 12
REMARK SMILES IDX 61 13 67 14 63 15 65 16 62 17 64 19 66 21 47 23 48 24 49 25
REMARK SMILES IDX 50 26 58 27 51 28 56 29 52 30 54 31 57 32 53 34 55 36 34 38
REMARK SMILES IDX 35 39 36 40 37 41 45 42 38 43 43 44 39 45 41 46 44 47 40 49
REMARK SMILES IDX 42 51 8 53 9 54 10 55 11 56 19 57 12 58 17 59 13 60 15 61
REMARK SMILES IDX 18 62 14 64 16 66 21 68 22 69 23 70 24 71 32 72 25 73 30 74
REMARK SMILES IDX 26 75 28 76 31 77 27 79 29 81
REMARK H PARENT 62 18 64 20 66 22 57 33 53 35 55 37 44 48 40 50 42 52 18 63
REMARK H PARENT 14 65 16 67 31 78 27 80 29 82
REMARK Flexibility Score: inf
ROOT
ATOM      1  C   UNL     1      15.990  23.183  44.477  1.00  0.00     0.205 C 
ATOM      2  C   UNL     1      16.750  24.334  43.794  1.00  0.00     0.254 C 
ATOM      3  C   UNL     1      16.363  24.325  42.311  1.00  0.00     0.267 C 
ATOM      4  C   UNL     1      14.835  24.458  42.175  1.00  0.00     0.290 C 
ATOM      5  C   UNL     1      14.141  23.382  43.041  1.00  0.00     0.357 C 
ATOM      6  O   UNL     1      14.589  23.404  44.391  1.00  0.00    -0.329 OA
ENDROOT
BRANCH   1   7
ATOM      7  C   UNL     1      16.386  23.017  45.956  1.00  0.00     0.269 C 
BRANCH   7   8
ATOM      8  O   UNL     1      15.535  22.054  46.569  1.00  0.00    -0.459 OA
BRANCH   8   9
ATOM      9  C   UNL     1      15.114  22.165  47.901  1.00  0.00     0.338 C 
ATOM     10  O   UNL     1      14.070  22.824  48.179  1.00  0.00    -0.246 OA
BRANCH   9  11
ATOM     11  C   UNL     1      15.906  21.542  48.981  1.00  0.00     0.067 A 
ATOM     12  C   UNL     1      15.477  21.627  50.313  1.00  0.00     0.066 A 
ATOM     13  C   UNL     1      16.241  21.088  51.350  1.00  0.00     0.162 A 
ATOM     14  C   UNL     1      17.124  20.894  48.690  1.00  0.00     0.066 A 
ATOM     15  C   UNL     1      17.481  20.471  51.060  1.00  0.00     0.200 A 
ATOM     16  C   UNL     1      17.911  20.373  49.724  1.00  0.00     0.162 A 
BRANCH  13  17
ATOM     17  O   UNL     1      15.729  21.178  52.645  1.00  0.00    -0.504 OA
ATOM     18  H   UNL     1      15.668  20.396  53.275  1.00  0.00     0.293 HD
ENDBRANCH  13  17
BRANCH  15  19
ATOM     19  O   UNL     1      18.305  19.955  52.066  1.00  0.00    -0.502 OA
ATOM     20  H   UNL     1      18.004  19.764  53.009  1.00  0.00     0.293 HD
ENDBRANCH  15  19
BRANCH  16  21
ATOM     21  O   UNL     1      19.123  19.764  49.399  1.00  0.00    -0.504 OA
ATOM     22  H   UNL     1      19.224  19.171  48.584  1.00  0.00     0.293 HD
ENDBRANCH  16  21
ENDBRANCH   9  11
ENDBRANCH   8   9
ENDBRANCH   7   8
ENDBRANCH   1   7
BRANCH   2  23
ATOM     23  O   UNL     1      16.369  25.587  44.365  1.00  0.00    -0.452 OA
BRANCH  23  24
ATOM     24  C   UNL     1      16.918  26.117  45.541  1.00  0.00     0.338 C 
ATOM     25  O   UNL     1      18.155  26.336  45.610  1.00  0.00    -0.246 OA
BRANCH  24  26
ATOM     26  C   UNL     1      16.031  26.431  46.682  1.00  0.00     0.067 A 
ATOM     27  C   UNL     1      14.764  25.828  46.798  1.00  0.00     0.066 A 
ATOM     28  C   UNL     1      16.424  27.381  47.639  1.00  0.00     0.066 A 
ATOM     29  C   UNL     1      13.899  26.182  47.847  1.00  0.00     0.162 A 
ATOM     30  C   UNL     1      15.570  27.728  48.690  1.00  0.00     0.162 A 
ATOM     31  C   UNL     1      14.304  27.133  48.797  1.00  0.00     0.200 A 
BRANCH  29  32
ATOM     32  O   UNL     1      12.638  25.597  47.942  1.00  0.00    -0.504 OA
ATOM     33  H   UNL     1      12.308  24.935  47.250  1.00  0.00     0.293 HD
ENDBRANCH  29  32
BRANCH  30  34
ATOM     34  O   UNL     1      15.996  28.677  49.617  1.00  0.00    -0.504 OA
ATOM     35  H   UNL     1      16.137  28.449  50.596  1.00  0.00     0.293 HD
ENDBRANCH  30  34
BRANCH  31  36
ATOM     36  O   UNL     1      13.464  27.503  49.846  1.00  0.00    -0.502 OA
ATOM     37  H   UNL     1      13.702  27.336  50.815  1.00  0.00     0.293 HD
ENDBRANCH  31  36
ENDBRANCH  24  26
ENDBRANCH  23  24
ENDBRANCH   2  23
BRANCH   3  38
ATOM     38  O   UNL     1      17.037  25.371  41.613  1.00  0.00    -0.450 OA
BRANCH  38  39
ATOM     39  C   UNL     1      18.408  25.323  41.321  1.00  0.00     0.338 C 
ATOM     40  O   UNL     1      19.202  26.124  41.884  1.00  0.00    -0.246 OA
BRANCH  39  41
ATOM     41  C   UNL     1      18.929  24.319  40.367  1.00  0.00     0.067 A 
ATOM     42  C   UNL     1      19.921  23.407  40.767  1.00  0.00     0.066 A 
ATOM     43  C   UNL     1      18.436  24.264  39.053  1.00  0.00     0.066 A 
ATOM     44  C   UNL     1      20.418  22.458  39.869  1.00  0.00     0.162 A 
ATOM     45  C   UNL     1      18.927  23.322  38.144  1.00  0.00     0.162 A 
ATOM     46  C   UNL     1      19.938  22.412  38.550  1.00  0.00     0.200 A 
BRANCH  44  47
ATOM     47  O   UNL     1      21.394  21.552  40.289  1.00  0.00    -0.504 OA
ATOM     48  H   UNL     1      22.385  21.739  40.162  1.00  0.00     0.293 HD
ENDBRANCH  44  47
BRANCH  45  49
ATOM     49  O   UNL     1      18.390  23.327  36.856  1.00  0.00    -0.504 OA
ATOM     50  H   UNL     1      17.505  23.748  36.614  1.00  0.00     0.293 HD
ENDBRANCH  45  49
BRANCH  46  51
ATOM     51  O   UNL     1      20.491  21.461  37.689  1.00  0.00    -0.502 OA
ATOM     52  H   UNL     1      20.229  21.367  36.713  1.00  0.00     0.293 HD
ENDBRANCH  46  51
ENDBRANCH  39  41
ENDBRANCH  38  39
ENDBRANCH   3  38
BRANCH   5  53
ATOM     53  O   UNL     1      14.319  22.088  42.466  1.00  0.00    -0.428 OA
BRANCH  53  54
ATOM     54  C   UNL     1      13.639  20.949  42.910  1.00  0.00     0.340 C 
ATOM     55  O   UNL     1      12.540  20.617  42.397  1.00  0.00    -0.246 OA
BRANCH  54  56
ATOM     56  C   UNL     1      14.226  20.132  43.985  1.00  0.00     0.067 A 
ATOM     57  C   UNL     1      15.544  19.668  43.894  1.00  0.00     0.066 A 
ATOM     58  C   UNL     1      13.468  19.824  45.120  1.00  0.00     0.066 A 
ATOM     59  C   UNL     1      16.122  18.930  44.935  1.00  0.00     0.162 A 
ATOM     60  C   UNL     1      14.013  19.066  46.156  1.00  0.00     0.162 A 
ATOM     61  C   UNL     1      15.350  18.624  46.086  1.00  0.00     0.200 A 
BRANCH  59  62
ATOM     62  O   UNL     1      17.454  18.533  44.783  1.00  0.00    -0.504 OA
ATOM     63  H   UNL     1      18.168  18.659  45.491  1.00  0.00     0.293 HD
ENDBRANCH  59  62
BRANCH  60  64
ATOM     64  O   UNL     1      13.205  18.756  47.250  1.00  0.00    -0.504 OA
ATOM     65  H   UNL     1      12.433  18.101  47.178  1.00  0.00     0.293 HD
ENDBRANCH  60  64
BRANCH  61  66
ATOM     66  O   UNL     1      15.875  17.896  47.164  1.00  0.00    -0.502 OA
ATOM     67  H   UNL     1      16.637  17.236  47.086  1.00  0.00     0.293 HD
ENDBRANCH  61  66
ENDBRANCH  54  56
ENDBRANCH  53  54
ENDBRANCH   5  53
BRANCH   4  68
ATOM     68  O   UNL     1      14.443  24.258  40.818  1.00  0.00    -0.448 OA
BRANCH  68  69
ATOM     69  C   UNL     1      13.520  25.059  40.140  1.00  0.00     0.339 C 
ATOM     70  O   UNL     1      12.430  25.382  40.691  1.00  0.00    -0.246 OA
BRANCH  69  71
ATOM     71  C   UNL     1      13.822  25.514  38.766  1.00  0.00     0.067 A 
ATOM     72  C   UNL     1      12.844  26.141  37.984  1.00  0.00     0.066 A 
ATOM     73  C   UNL     1      15.105  25.329  38.228  1.00  0.00     0.066 A 
ATOM     74  C   UNL     1      13.141  26.591  36.689  1.00  0.00     0.162 A 
ATOM     75  C   UNL     1      15.413  25.777  36.940  1.00  0.00     0.162 A 
ATOM     76  C   UNL     1      14.431  26.411  36.164  1.00  0.00     0.200 A 
BRANCH  74  77
ATOM     77  O   UNL     1      12.161  27.226  35.924  1.00  0.00    -0.504 OA
ATOM     78  H   UNL     1      11.192  26.927  35.950  1.00  0.00     0.293 HD
ENDBRANCH  74  77
BRANCH  75  79
ATOM     79  O   UNL     1      16.704  25.584  36.446  1.00  0.00    -0.504 OA
ATOM     80  H   UNL     1      17.134  26.225  35.792  1.00  0.00     0.293 HD
ENDBRANCH  75  79
BRANCH  76  81
ATOM     81  O   UNL     1      14.747  26.856  34.879  1.00  0.00    -0.502 OA
ATOM     82  H   UNL     1      15.470  26.430  34.319  1.00  0.00     0.293 HD
ENDBRANCH  76  81
ENDBRANCH  69  71
ENDBRANCH  68  69
ENDBRANCH   4  68
TORSDOF 31
ENDMDL
MODEL 4
REMARK VINA RESULT:    -7.247      3.573      7.878
REMARK INTER + INTRA:         -22.127
REMARK INTER:                 -16.187
REMARK INTRA:                  -5.940
REMARK UNBOUND:                -4.924
REMARK SMILES O=C(OC[C@H]1O[C@H](OC(=O)c2cc(O)c(O)c(O)c2)[C@H](OC(=O)c2cc(O)c(O)c(O)c2)[C@@H](OC(=O)c2cc(O)c(O)c(O)c2)[C@H]1OC(=O)c1cc(O)c(O)c(O)c1)c1cc(O)c(O)c(O)c1
REMARK SMILES IDX 5 1 46 2 33 3 20 4 7 5 6 6 4 7 3 8 2 9 1 10 59 11 60 12
REMARK SMILES IDX 61 13 67 14 63 15 65 16 62 17 64 19 66 21 47 23 48 24 49 25
REMARK SMILES IDX 50 26 58 27 51 28 56 29 52 30 54 31 57 32 53 34 55 36 34 38
REMARK SMILES IDX 35 39 36 40 37 41 45 42 38 43 43 44 39 45 41 46 44 47 40 49
REMARK SMILES IDX 42 51 8 53 9 54 10 55 11 56 19 57 12 58 17 59 13 60 15 61
REMARK SMILES IDX 18 62 14 64 16 66 21 68 22 69 23 70 24 71 32 72 25 73 30 74
REMARK SMILES IDX 26 75 28 76 31 77 27 79 29 81
REMARK H PARENT 62 18 64 20 66 22 57 33 53 35 55 37 44 48 40 50 42 52 18 63
REMARK H PARENT 14 65 16 67 31 78 27 80 29 82
REMARK Flexibility Score: inf
ROOT
ATOM      1  C   UNL     1      14.629  24.637  46.473  1.00  0.00     0.205 C 
ATOM      2  C   UNL     1      15.069  26.064  46.847  1.00  0.00     0.254 C 
ATOM      3  C   UNL     1      14.660  26.305  48.305  1.00  0.00     0.267 C 
ATOM      4  C   UNL     1      15.300  25.231  49.204  1.00  0.00     0.290 C 
ATOM      5  C   UNL     1      14.966  23.826  48.653  1.00  0.00     0.357 C 
ATOM      6  O   UNL     1      15.313  23.689  47.280  1.00  0.00    -0.329 OA
ENDROOT
BRANCH   1   7
ATOM      7  C   UNL     1      14.883  24.316  44.989  1.00  0.00     0.269 C 
BRANCH   7   8
ATOM      8  O   UNL     1      16.064  23.529  44.870  1.00  0.00    -0.459 OA
BRANCH   8   9
ATOM      9  C   UNL     1      16.199  22.521  43.905  1.00  0.00     0.338 C 
ATOM     10  O   UNL     1      16.539  22.821  42.724  1.00  0.00    -0.246 OA
BRANCH   9  11
ATOM     11  C   UNL     1      15.912  21.116  44.259  1.00  0.00     0.067 A 
ATOM     12  C   UNL     1      14.619  20.734  44.642  1.00  0.00     0.066 A 
ATOM     13  C   UNL     1      14.343  19.421  45.030  1.00  0.00     0.162 A 
ATOM     14  C   UNL     1      16.942  20.154  44.259  1.00  0.00     0.066 A 
ATOM     15  C   UNL     1      15.386  18.466  45.065  1.00  0.00     0.200 A 
ATOM     16  C   UNL     1      16.683  18.842  44.670  1.00  0.00     0.162 A 
BRANCH  13  17
ATOM     17  O   UNL     1      13.024  19.108  45.361  1.00  0.00    -0.504 OA
ATOM     18  H   UNL     1      12.694  18.169  45.506  1.00  0.00     0.293 HD
ENDBRANCH  13  17
BRANCH  15  19
ATOM     19  O   UNL     1      15.173  17.149  45.487  1.00  0.00    -0.502 OA
ATOM     20  H   UNL     1      15.195  16.847  46.449  1.00  0.00     0.293 HD
ENDBRANCH  15  19
BRANCH  16  21
ATOM     21  O   UNL     1      17.735  17.926  44.682  1.00  0.00    -0.504 OA
ATOM     22  H   UNL     1      18.635  18.147  45.090  1.00  0.00     0.293 HD
ENDBRANCH  16  21
ENDBRANCH   9  11
ENDBRANCH   8   9
ENDBRANCH   7   8
ENDBRANCH   1   7
BRANCH   2  23
ATOM     23  O   UNL     1      16.487  26.191  46.736  1.00  0.00    -0.452 OA
BRANCH  23  24
ATOM     24  C   UNL     1      17.134  27.213  46.027  1.00  0.00     0.338 C 
ATOM     25  O   UNL     1      17.219  28.364  46.527  1.00  0.00    -0.246 OA
BRANCH  24  26
ATOM     26  C   UNL     1      17.728  26.919  44.704  1.00  0.00     0.067 A 
ATOM     27  C   UNL     1      19.091  27.165  44.455  1.00  0.00     0.066 A 
ATOM     28  C   UNL     1      16.919  26.442  43.660  1.00  0.00     0.066 A 
ATOM     29  C   UNL     1      19.633  26.949  43.177  1.00  0.00     0.162 A 
ATOM     30  C   UNL     1      17.457  26.216  42.389  1.00  0.00     0.162 A 
ATOM     31  C   UNL     1      18.814  26.470  42.141  1.00  0.00     0.200 A 
BRANCH  29  32
ATOM     32  O   UNL     1      20.978  27.215  42.932  1.00  0.00    -0.504 OA
ATOM     33  H   UNL     1      21.712  26.752  43.455  1.00  0.00     0.293 HD
ENDBRANCH  29  32
BRANCH  30  34
ATOM     34  O   UNL     1      16.621  25.743  41.380  1.00  0.00    -0.504 OA
ATOM     35  H   UNL     1      15.623  25.930  41.374  1.00  0.00     0.293 HD
ENDBRANCH  30  34
BRANCH  31  36
ATOM     36  O   UNL     1      19.326  26.249  40.864  1.00  0.00    -0.502 OA
ATOM     37  H   UNL     1      20.253  25.875  40.710  1.00  0.00     0.293 HD
ENDBRANCH  31  36
ENDBRANCH  24  26
ENDBRANCH  23  24
ENDBRANCH   2  23
BRANCH   3  38
ATOM     38  O   UNL     1      15.038  27.617  48.718  1.00  0.00    -0.450 OA
BRANCH  38  39
ATOM     39  C   UNL     1      14.213  28.425  49.513  1.00  0.00     0.338 C 
ATOM     40  O   UNL     1      13.057  28.734  49.114  1.00  0.00    -0.246 OA
BRANCH  39  41
ATOM     41  C   UNL     1      14.687  28.901  50.832  1.00  0.00     0.067 A 
ATOM     42  C   UNL     1      13.870  28.772  51.969  1.00  0.00     0.066 A 
ATOM     43  C   UNL     1      15.958  29.483  50.962  1.00  0.00     0.066 A 
ATOM     44  C   UNL     1      14.313  29.221  53.216  1.00  0.00     0.162 A 
ATOM     45  C   UNL     1      16.411  29.940  52.204  1.00  0.00     0.162 A 
ATOM     46  C   UNL     1      15.577  29.818  53.346  1.00  0.00     0.200 A 
BRANCH  44  47
ATOM     47  O   UNL     1      13.492  29.071  54.336  1.00  0.00    -0.504 OA
ATOM     48  H   UNL     1      12.804  29.775  54.591  1.00  0.00     0.293 HD
ENDBRANCH  44  47
BRANCH  45  49
ATOM     49  O   UNL     1      17.684  30.507  52.258  1.00  0.00    -0.504 OA
ATOM     50  H   UNL     1      18.528  30.032  51.970  1.00  0.00     0.293 HD
ENDBRANCH  45  49
BRANCH  46  51
ATOM     51  O   UNL     1      15.955  30.273  54.612  1.00  0.00    -0.502 OA
ATOM     52  H   UNL     1      16.479  31.127  54.768  1.00  0.00     0.293 HD
ENDBRANCH  46  51
ENDBRANCH  39  41
ENDBRANCH  38  39
ENDBRANCH   3  38
BRANCH   5  53
ATOM     53  O   UNL     1      13.588  23.522  48.863  1.00  0.00    -0.428 OA
BRANCH  53  54
ATOM     54  C   UNL     1      13.147  22.475  49.680  1.00  0.00     0.340 C 
ATOM     55  O   UNL     1      12.120  22.607  50.393  1.00  0.00    -0.246 OA
BRANCH  54  56
ATOM     56  C   UNL     1      13.895  21.208  49.695  1.00  0.00     0.067 A 
ATOM     57  C   UNL     1      15.024  21.050  50.509  1.00  0.00     0.066 A 
ATOM     58  C   UNL     1      13.470  20.138  48.899  1.00  0.00     0.066 A 
ATOM     59  C   UNL     1      15.711  19.831  50.561  1.00  0.00     0.162 A 
ATOM     60  C   UNL     1      14.156  18.924  48.913  1.00  0.00     0.162 A 
ATOM     61  C   UNL     1      15.274  18.748  49.755  1.00  0.00     0.200 A 
BRANCH  59  62
ATOM     62  O   UNL     1      16.807  19.744  51.425  1.00  0.00    -0.504 OA
ATOM     63  H   UNL     1      16.866  20.224  52.316  1.00  0.00     0.293 HD
ENDBRANCH  59  62
BRANCH  60  64
ATOM     64  O   UNL     1      13.714  17.900  48.074  1.00  0.00    -0.504 OA
ATOM     65  H   UNL     1      12.980  17.257  48.352  1.00  0.00     0.293 HD
ENDBRANCH  60  64
BRANCH  61  66
ATOM     66  O   UNL     1      15.915  17.501  49.770  1.00  0.00    -0.502 OA
ATOM     67  H   UNL     1      15.811  16.801  49.047  1.00  0.00     0.293 HD
ENDBRANCH  61  66
ENDBRANCH  54  56
ENDBRANCH  53  54
ENDBRANCH   5  53
BRANCH   4  68
ATOM     68  O   UNL     1      14.778  25.324  50.528  1.00  0.00    -0.448 OA
BRANCH  68  69
ATOM     69  C   UNL     1      15.556  25.248  51.688  1.00  0.00     0.339 C 
ATOM     70  O   UNL     1      16.373  26.170  51.967  1.00  0.00    -0.246 OA
BRANCH  69  71
ATOM     71  C   UNL     1      15.426  24.074  52.576  1.00  0.00     0.067 A 
ATOM     72  C   UNL     1      14.177  23.684  53.076  1.00  0.00     0.066 A 
ATOM     73  C   UNL     1      16.561  23.325  52.926  1.00  0.00     0.066 A 
ATOM     74  C   UNL     1      14.055  22.556  53.900  1.00  0.00     0.162 A 
ATOM     75  C   UNL     1      16.450  22.198  53.745  1.00  0.00     0.162 A 
ATOM     76  C   UNL     1      15.195  21.807  54.235  1.00  0.00     0.200 A 
BRANCH  74  77
ATOM     77  O   UNL     1      12.803  22.170  54.380  1.00  0.00    -0.504 OA
ATOM     78  H   UNL     1      12.094  22.854  54.623  1.00  0.00     0.293 HD
ENDBRANCH  74  77
BRANCH  75  79
ATOM     79  O   UNL     1      17.601  21.473  54.059  1.00  0.00    -0.504 OA
ATOM     80  H   UNL     1      17.666  20.474  53.919  1.00  0.00     0.293 HD
ENDBRANCH  75  79
BRANCH  76  81
ATOM     81  O   UNL     1      15.093  20.679  55.052  1.00  0.00    -0.502 OA
ATOM     82  H   UNL     1      15.789  20.444  55.743  1.00  0.00     0.293 HD
ENDBRANCH  76  81
ENDBRANCH  69  71
ENDBRANCH  68  69
ENDBRANCH   4  68
TORSDOF 31
ENDMDL
MODEL 5
REMARK VINA RESULT:    -7.202      2.285      7.381
REMARK INTER + INTRA:         -22.020
REMARK INTER:                 -15.007
REMARK INTRA:                  -7.013
REMARK UNBOUND:                -4.924
REMARK SMILES O=C(OC[C@H]1O[C@H](OC(=O)c2cc(O)c(O)c(O)c2)[C@H](OC(=O)c2cc(O)c(O)c(O)c2)[C@@H](OC(=O)c2cc(O)c(O)c(O)c2)[C@H]1OC(=O)c1cc(O)c(O)c(O)c1)c1cc(O)c(O)c(O)c1
REMARK SMILES IDX 5 1 46 2 33 3 20 4 7 5 6 6 4 7 3 8 2 9 1 10 59 11 60 12
REMARK SMILES IDX 61 13 67 14 63 15 65 16 62 17 64 19 66 21 47 23 48 24 49 25
REMARK SMILES IDX 50 26 58 27 51 28 56 29 52 30 54 31 57 32 53 34 55 36 34 38
REMARK SMILES IDX 35 39 36 40 37 41 45 42 38 43 43 44 39 45 41 46 44 47 40 49
REMARK SMILES IDX 42 51 8 53 9 54 10 55 11 56 19 57 12 58 17 59 13 60 15 61
REMARK SMILES IDX 18 62 14 64 16 66 21 68 22 69 23 70 24 71 32 72 25 73 30 74
REMARK SMILES IDX 26 75 28 76 31 77 27 79 29 81
REMARK H PARENT 62 18 64 20 66 22 57 33 53 35 55 37 44 48 40 50 42 52 18 63
REMARK H PARENT 14 65 16 67 31 78 27 80 29 82
REMARK Flexibility Score: inf
ROOT
ATOM      1  C   UNL     1      13.983  24.006  42.942  1.00  0.00     0.205 C 
ATOM      2  C   UNL     1      14.423  23.908  44.414  1.00  0.00     0.254 C 
ATOM      3  C   UNL     1      15.955  23.925  44.438  1.00  0.00     0.267 C 
ATOM      4  C   UNL     1      16.470  25.201  43.748  1.00  0.00     0.290 C 
ATOM      5  C   UNL     1      15.835  25.324  42.344  1.00  0.00     0.357 C 
ATOM      6  O   UNL     1      14.415  25.240  42.385  1.00  0.00    -0.329 OA
ENDROOT
BRANCH   1   7
ATOM      7  C   UNL     1      12.457  23.884  42.778  1.00  0.00     0.269 C 
BRANCH   7   8
ATOM      8  O   UNL     1      12.033  22.599  43.220  1.00  0.00    -0.459 OA
BRANCH   8   9
ATOM      9  C   UNL     1      12.585  21.412  42.717  1.00  0.00     0.338 C 
ATOM     10  O   UNL     1      12.415  21.104  41.502  1.00  0.00    -0.246 OA
BRANCH   9  11
ATOM     11  C   UNL     1      13.336  20.509  43.613  1.00  0.00     0.067 A 
ATOM     12  C   UNL     1      12.671  19.810  44.629  1.00  0.00     0.066 A 
ATOM     13  C   UNL     1      13.374  18.993  45.517  1.00  0.00     0.162 A 
ATOM     14  C   UNL     1      14.733  20.374  43.485  1.00  0.00     0.066 A 
ATOM     15  C   UNL     1      14.781  18.887  45.410  1.00  0.00     0.200 A 
ATOM     16  C   UNL     1      15.451  19.579  44.384  1.00  0.00     0.162 A 
BRANCH  13  17
ATOM     17  O   UNL     1      12.638  18.298  46.478  1.00  0.00    -0.504 OA
ATOM     18  H   UNL     1      12.216  17.399  46.315  1.00  0.00     0.293 HD
ENDBRANCH  13  17
BRANCH  15  19
ATOM     19  O   UNL     1      15.537  18.117  46.301  1.00  0.00    -0.502 OA
ATOM     20  H   UNL     1      16.151  17.366  46.026  1.00  0.00     0.293 HD
ENDBRANCH  15  19
BRANCH  16  21
ATOM     21  O   UNL     1      16.836  19.492  44.242  1.00  0.00    -0.504 OA
ATOM     22  H   UNL     1      17.343  20.058  43.573  1.00  0.00     0.293 HD
ENDBRANCH  16  21
ENDBRANCH   9  11
ENDBRANCH   8   9
ENDBRANCH   7   8
ENDBRANCH   1   7
BRANCH   2  23
ATOM     23  O   UNL     1      13.935  25.030  45.152  1.00  0.00    -0.452 OA
BRANCH  23  24
ATOM     24  C   UNL     1      13.085  24.933  46.262  1.00  0.00     0.338 C 
ATOM     25  O   UNL     1      12.108  24.141  46.236  1.00  0.00    -0.246 OA
BRANCH  24  26
ATOM     26  C   UNL     1      13.359  25.753  47.464  1.00  0.00     0.067 A 
ATOM     27  C   UNL     1      14.518  26.546  47.547  1.00  0.00     0.066 A 
ATOM     28  C   UNL     1      12.486  25.704  48.563  1.00  0.00     0.066 A 
ATOM     29  C   UNL     1      14.808  27.267  48.717  1.00  0.00     0.162 A 
ATOM     30  C   UNL     1      12.765  26.429  49.726  1.00  0.00     0.162 A 
ATOM     31  C   UNL     1      13.926  27.211  49.809  1.00  0.00     0.200 A 
BRANCH  29  32
ATOM     32  O   UNL     1      15.968  28.033  48.799  1.00  0.00    -0.504 OA
ATOM     33  H   UNL     1      15.940  29.008  49.072  1.00  0.00     0.293 HD
ENDBRANCH  29  32
BRANCH  30  34
ATOM     34  O   UNL     1      11.875  26.352  50.795  1.00  0.00    -0.504 OA
ATOM     35  H   UNL     1      11.298  25.533  50.959  1.00  0.00     0.293 HD
ENDBRANCH  30  34
BRANCH  31  36
ATOM     36  O   UNL     1      14.190  27.916  50.982  1.00  0.00    -0.502 OA
ATOM     37  H   UNL     1      14.151  27.481  51.895  1.00  0.00     0.293 HD
ENDBRANCH  31  36
ENDBRANCH  24  26
ENDBRANCH  23  24
ENDBRANCH   2  23
BRANCH   3  38
ATOM     38  O   UNL     1      16.433  23.834  45.780  1.00  0.00    -0.450 OA
BRANCH  38  39
ATOM     39  C   UNL     1      16.352  22.653  46.532  1.00  0.00     0.338 C 
ATOM     40  O   UNL     1      17.115  21.683  46.268  1.00  0.00    -0.246 OA
BRANCH  39  41
ATOM     41  C   UNL     1      15.389  22.548  47.650  1.00  0.00     0.067 A 
ATOM     42  C   UNL     1      15.593  23.276  48.835  1.00  0.00     0.066 A 
ATOM     43  C   UNL     1      14.258  21.723  47.538  1.00  0.00     0.066 A 
ATOM     44  C   UNL     1      14.686  23.179  49.893  1.00  0.00     0.162 A 
ATOM     45  C   UNL     1      13.345  21.614  48.591  1.00  0.00     0.162 A 
ATOM     46  C   UNL     1      13.564  22.342  49.790  1.00  0.00     0.200 A 
BRANCH  44  47
ATOM     47  O   UNL     1      14.899  23.920  51.057  1.00  0.00    -0.504 OA
ATOM     48  H   UNL     1      15.110  24.915  51.025  1.00  0.00     0.293 HD
ENDBRANCH  44  47
BRANCH  45  49
ATOM     49  O   UNL     1      12.246  20.775  48.408  1.00  0.00    -0.504 OA
ATOM     50  H   UNL     1      11.533  20.920  47.708  1.00  0.00     0.293 HD
ENDBRANCH  45  49
BRANCH  46  51
ATOM     51  O   UNL     1      12.706  22.263  50.891  1.00  0.00    -0.502 OA
ATOM     52  H   UNL     1      11.706  22.115  50.814  1.00  0.00     0.293 HD
ENDBRANCH  46  51
ENDBRANCH  39  41
ENDBRANCH  38  39
ENDBRANCH   3  38
BRANCH   5  53
ATOM     53  O   UNL     1      16.378  24.342  41.463  1.00  0.00    -0.428 OA
BRANCH  53  54
ATOM     54  C   UNL     1      16.581  24.562  40.097  1.00  0.00     0.340 C 
ATOM     55  O   UNL     1      15.861  25.378  39.465  1.00  0.00    -0.246 OA
BRANCH  54  56
ATOM     56  C   UNL     1      17.653  23.834  39.400  1.00  0.00     0.067 A 
ATOM     57  C   UNL     1      18.826  23.468  40.071  1.00  0.00     0.066 A 
ATOM     58  C   UNL     1      17.498  23.486  38.053  1.00  0.00     0.066 A 
ATOM     59  C   UNL     1      19.828  22.734  39.425  1.00  0.00     0.162 A 
ATOM     60  C   UNL     1      18.496  22.780  37.381  1.00  0.00     0.162 A 
ATOM     61  C   UNL     1      19.665  22.381  38.061  1.00  0.00     0.200 A 
BRANCH  59  62
ATOM     62  O   UNL     1      20.954  22.379  40.175  1.00  0.00    -0.504 OA
ATOM     63  H   UNL     1      21.865  22.189  39.775  1.00  0.00     0.293 HD
ENDBRANCH  59  62
BRANCH  60  64
ATOM     64  O   UNL     1      18.310  22.489  36.029  1.00  0.00    -0.504 OA
ATOM     65  H   UNL     1      17.636  22.991  35.460  1.00  0.00     0.293 HD
ENDBRANCH  60  64
BRANCH  61  66
ATOM     66  O   UNL     1      20.630  21.640  37.362  1.00  0.00    -0.502 OA
ATOM     67  H   UNL     1      20.661  20.629  37.338  1.00  0.00     0.293 HD
ENDBRANCH  61  66
ENDBRANCH  54  56
ENDBRANCH  53  54
ENDBRANCH   5  53
BRANCH   4  68
ATOM     68  O   UNL     1      17.886  25.139  43.592  1.00  0.00    -0.448 OA
BRANCH  68  69
ATOM     69  C   UNL     1      18.752  26.210  43.832  1.00  0.00     0.339 C 
ATOM     70  O   UNL     1      18.920  26.641  45.007  1.00  0.00    -0.246 OA
BRANCH  69  71
ATOM     71  C   UNL     1      19.457  26.844  42.698  1.00  0.00     0.067 A 
ATOM     72  C   UNL     1      20.582  27.651  42.910  1.00  0.00     0.066 A 
ATOM     73  C   UNL     1      19.009  26.637  41.384  1.00  0.00     0.066 A 
ATOM     74  C   UNL     1      21.262  28.233  41.830  1.00  0.00     0.162 A 
ATOM     75  C   UNL     1      19.681  27.210  40.300  1.00  0.00     0.162 A 
ATOM     76  C   UNL     1      20.812  28.010  40.518  1.00  0.00     0.200 A 
BRANCH  74  77
ATOM     77  O   UNL     1      22.389  29.024  42.054  1.00  0.00    -0.504 OA
ATOM     78  H   UNL     1      22.539  29.890  41.547  1.00  0.00     0.293 HD
ENDBRANCH  74  77
BRANCH  75  79
ATOM     79  O   UNL     1      19.211  26.969  39.008  1.00  0.00    -0.504 OA
ATOM     80  H   UNL     1      19.810  26.627  38.269  1.00  0.00     0.293 HD
ENDBRANCH  75  79
BRANCH  76  81
ATOM     81  O   UNL     1      21.478  28.578  39.430  1.00  0.00    -0.502 OA
ATOM     82  H   UNL     1      21.000  29.115  38.722  1.00  0.00     0.293 HD
ENDBRANCH  76  81
ENDBRANCH  69  71
ENDBRANCH  68  69
ENDBRANCH   4  68
TORSDOF 31
ENDMDL
MODEL 6
REMARK VINA RESULT:    -7.147      2.803      8.927
REMARK INTER + INTRA:         -21.891
REMARK INTER:                 -15.480
REMARK INTRA:                  -6.411
REMARK UNBOUND:                -4.924
REMARK SMILES O=C(OC[C@H]1O[C@H](OC(=O)c2cc(O)c(O)c(O)c2)[C@H](OC(=O)c2cc(O)c(O)c(O)c2)[C@@H](OC(=O)c2cc(O)c(O)c(O)c2)[C@H]1OC(=O)c1cc(O)c(O)c(O)c1)c1cc(O)c(O)c(O)c1
REMARK SMILES IDX 5 1 46 2 33 3 20 4 7 5 6 6 4 7 3 8 2 9 1 10 59 11 60 12
REMARK SMILES IDX 61 13 67 14 63 15 65 16 62 17 64 19 66 21 47 23 48 24 49 25
REMARK SMILES IDX 50 26 58 27 51 28 56 29 52 30 54 31 57 32 53 34 55 36 34 38
REMARK SMILES IDX 35 39 36 40 37 41 45 42 38 43 43 44 39 45 41 46 44 47 40 49
REMARK SMILES IDX 42 51 8 53 9 54 10 55 11 56 19 57 12 58 17 59 13 60 15 61
REMARK SMILES IDX 18 62 14 64 16 66 21 68 22 69 23 70 24 71 32 72 25 73 30 74
REMARK SMILES IDX 26 75 28 76 31 77 27 79 29 81
REMARK H PARENT 62 18 64 20 66 22 57 33 53 35 55 37 44 48 40 50 42 52 18 63
REMARK H PARENT 14 65 16 67 31 78 27 80 29 82
REMARK Flexibility Score: inf
ROOT
ATOM      1  C   UNL     1      14.691  24.191  50.444  1.00  0.00     0.205 C 
ATOM      2  C   UNL     1      14.856  25.456  49.583  1.00  0.00     0.254 C 
ATOM      3  C   UNL     1      14.667  25.043  48.119  1.00  0.00     0.267 C 
ATOM      4  C   UNL     1      13.289  24.379  47.942  1.00  0.00     0.290 C 
ATOM      5  C   UNL     1      13.128  23.237  48.972  1.00  0.00     0.357 C 
ATOM      6  O   UNL     1      13.376  23.672  50.303  1.00  0.00    -0.329 OA
ENDROOT
BRANCH   1   7
ATOM      7  C   UNL     1      14.972  24.457  51.935  1.00  0.00     0.269 C 
BRANCH   7   8
ATOM      8  O   UNL     1      15.654  23.340  52.496  1.00  0.00    -0.459 OA
BRANCH   8   9
ATOM      9  C   UNL     1      15.090  22.057  52.529  1.00  0.00     0.338 C 
ATOM     10  O   UNL     1      14.255  21.759  53.431  1.00  0.00    -0.246 OA
BRANCH   9  11
ATOM     11  C   UNL     1      15.498  21.046  51.532  1.00  0.00     0.067 A 
ATOM     12  C   UNL     1      14.720  19.898  51.331  1.00  0.00     0.066 A 
ATOM     13  C   UNL     1      15.119  18.908  50.430  1.00  0.00     0.162 A 
ATOM     14  C   UNL     1      16.695  21.203  50.805  1.00  0.00     0.066 A 
ATOM     15  C   UNL     1      16.339  19.050  49.728  1.00  0.00     0.200 A 
ATOM     16  C   UNL     1      17.118  20.206  49.919  1.00  0.00     0.162 A 
BRANCH  13  17
ATOM     17  O   UNL     1      14.272  17.813  50.255  1.00  0.00    -0.504 OA
ATOM     18  H   UNL     1      14.599  16.869  50.140  1.00  0.00     0.293 HD
ENDBRANCH  13  17
BRANCH  15  19
ATOM     19  O   UNL     1      16.806  18.068  48.847  1.00  0.00    -0.502 OA
ATOM     20  H   UNL     1      16.474  17.116  48.825  1.00  0.00     0.293 HD
ENDBRANCH  15  19
BRANCH  16  21
ATOM     21  O   UNL     1      18.322  20.385  49.237  1.00  0.00    -0.504 OA
ATOM     22  H   UNL     1      18.676  21.304  49.003  1.00  0.00     0.293 HD
ENDBRANCH  16  21
ENDBRANCH   9  11
ENDBRANCH   8   9
ENDBRANCH   7   8
ENDBRANCH   1   7
BRANCH   2  23
ATOM     23  O   UNL     1      13.859  26.421  49.924  1.00  0.00    -0.452 OA
BRANCH  23  24
ATOM     24  C   UNL     1      14.116  27.786  50.113  1.00  0.00     0.338 C 
ATOM     25  O   UNL     1      13.849  28.606  49.197  1.00  0.00    -0.246 OA
BRANCH  24  26
ATOM     26  C   UNL     1      14.683  28.250  51.399  1.00  0.00     0.067 A 
ATOM     27  C   UNL     1      13.902  28.987  52.308  1.00  0.00     0.066 A 
ATOM     28  C   UNL     1      16.033  28.004  51.702  1.00  0.00     0.066 A 
ATOM     29  C   UNL     1      14.465  29.483  53.495  1.00  0.00     0.162 A 
ATOM     30  C   UNL     1      16.595  28.488  52.887  1.00  0.00     0.162 A 
ATOM     31  C   UNL     1      15.816  29.230  53.787  1.00  0.00     0.200 A 
BRANCH  29  32
ATOM     32  O   UNL     1      13.691  30.231  54.379  1.00  0.00    -0.504 OA
ATOM     33  H   UNL     1      13.041  29.788  55.018  1.00  0.00     0.293 HD
ENDBRANCH  29  32
BRANCH  30  34
ATOM     34  O   UNL     1      17.937  28.225  53.151  1.00  0.00    -0.504 OA
ATOM     35  H   UNL     1      18.610  28.968  53.318  1.00  0.00     0.293 HD
ENDBRANCH  30  34
BRANCH  31  36
ATOM     36  O   UNL     1      16.400  29.713  54.957  1.00  0.00    -0.502 OA
ATOM     37  H   UNL     1      15.866  30.191  55.671  1.00  0.00     0.293 HD
ENDBRANCH  31  36
ENDBRANCH  24  26
ENDBRANCH  23  24
ENDBRANCH   2  23
BRANCH   3  38
ATOM     38  O   UNL     1      14.810  26.174  47.260  1.00  0.00    -0.450 OA
BRANCH  38  39
ATOM     39  C   UNL     1      16.060  26.654  46.845  1.00  0.00     0.338 C 
ATOM     40  O   UNL     1      16.689  27.480  47.562  1.00  0.00    -0.246 OA
BRANCH  39  41
ATOM     41  C   UNL     1      16.657  26.178  45.577  1.00  0.00     0.067 A 
ATOM     42  C   UNL     1      16.135  25.046  44.928  1.00  0.00     0.066 A 
ATOM     43  C   UNL     1      17.748  26.854  45.008  1.00  0.00     0.066 A 
ATOM     44  C   UNL     1      16.695  24.593  43.731  1.00  0.00     0.162 A 
ATOM     45  C   UNL     1      18.320  26.408  43.813  1.00  0.00     0.162 A 
ATOM     46  C   UNL     1      17.796  25.258  43.168  1.00  0.00     0.200 A 
BRANCH  44  47
ATOM     47  O   UNL     1      16.154  23.475  43.093  1.00  0.00    -0.504 OA
ATOM     48  H   UNL     1      16.364  23.261  42.121  1.00  0.00     0.293 HD
ENDBRANCH  44  47
BRANCH  45  49
ATOM     49  O   UNL     1      19.401  27.130  43.307  1.00  0.00    -0.504 OA
ATOM     50  H   UNL     1      19.563  28.110  43.489  1.00  0.00     0.293 HD
ENDBRANCH  45  49
BRANCH  46  51
ATOM     51  O   UNL     1      18.333  24.743  41.985  1.00  0.00    -0.502 OA
ATOM     52  H   UNL     1      19.314  24.807  41.738  1.00  0.00     0.293 HD
ENDBRANCH  46  51
ENDBRANCH  39  41
ENDBRANCH  38  39
ENDBRANCH   3  38
BRANCH   5  53
ATOM     53  O   UNL     1      13.969  22.136  48.631  1.00  0.00    -0.428 OA
BRANCH  53  54
ATOM     54  C   UNL     1      13.575  21.106  47.769  1.00  0.00     0.340 C 
ATOM     55  O   UNL     1      12.391  20.682  47.775  1.00  0.00    -0.246 OA
BRANCH  54  56
ATOM     56  C   UNL     1      14.561  20.523  46.845  1.00  0.00     0.067 A 
ATOM     57  C   UNL     1      15.571  21.312  46.282  1.00  0.00     0.066 A 
ATOM     58  C   UNL     1      14.502  19.160  46.532  1.00  0.00     0.066 A 
ATOM     59  C   UNL     1      16.539  20.752  45.439  1.00  0.00     0.162 A 
ATOM     60  C   UNL     1      15.439  18.586  45.671  1.00  0.00     0.162 A 
ATOM     61  C   UNL     1      16.478  19.370  45.127  1.00  0.00     0.200 A 
BRANCH  59  62
ATOM     62  O   UNL     1      17.534  21.601  44.945  1.00  0.00    -0.504 OA
ATOM     63  H   UNL     1      17.355  22.389  44.333  1.00  0.00     0.293 HD
ENDBRANCH  59  62
BRANCH  60  64
ATOM     64  O   UNL     1      15.315  17.231  45.362  1.00  0.00    -0.504 OA
ATOM     65  H   UNL     1      14.814  16.912  44.539  1.00  0.00     0.293 HD
ENDBRANCH  60  64
BRANCH  61  66
ATOM     66  O   UNL     1      17.422  18.749  44.296  1.00  0.00    -0.502 OA
ATOM     67  H   UNL     1      17.187  18.110  43.549  1.00  0.00     0.293 HD
ENDBRANCH  61  66
ENDBRANCH  54  56
ENDBRANCH  53  54
ENDBRANCH   5  53
BRANCH   4  68
ATOM     68  O   UNL     1      13.178  23.818  46.636  1.00  0.00    -0.448 OA
BRANCH  68  69
ATOM     69  C   UNL     1      12.524  24.438  45.567  1.00  0.00     0.339 C 
ATOM     70  O   UNL     1      11.875  25.506  45.751  1.00  0.00    -0.246 OA
BRANCH  69  71
ATOM     71  C   UNL     1      12.585  23.827  44.223  1.00  0.00     0.067 A 
ATOM     72  C   UNL     1      12.736  22.443  44.067  1.00  0.00     0.066 A 
ATOM     73  C   UNL     1      12.483  24.631  43.076  1.00  0.00     0.066 A 
ATOM     74  C   UNL     1      12.771  21.864  42.790  1.00  0.00     0.162 A 
ATOM     75  C   UNL     1      12.513  24.064  41.799  1.00  0.00     0.162 A 
ATOM     76  C   UNL     1      12.656  22.677  41.650  1.00  0.00     0.200 A 
BRANCH  74  77
ATOM     77  O   UNL     1      12.908  20.483  42.649  1.00  0.00    -0.504 OA
ATOM     78  H   UNL     1      13.742  19.997  42.964  1.00  0.00     0.293 HD
ENDBRANCH  74  77
BRANCH  75  79
ATOM     79  O   UNL     1      12.396  24.897  40.685  1.00  0.00    -0.504 OA
ATOM     80  H   UNL     1      12.187  24.541  39.762  1.00  0.00     0.293 HD
ENDBRANCH  75  79
BRANCH  76  81
ATOM     81  O   UNL     1      12.685  22.118  40.370  1.00  0.00    -0.502 OA
ATOM     82  H   UNL     1      12.915  22.656  39.548  1.00  0.00     0.293 HD
ENDBRANCH  76  81
ENDBRANCH  69  71
ENDBRANCH  68  69
ENDBRANCH   4  68
TORSDOF 31
ENDMDL
MODEL 7
REMARK VINA RESULT:    -7.073      3.048      8.399
REMARK INTER + INTRA:         -21.714
REMARK INTER:                 -16.891
REMARK INTRA:                  -4.823
REMARK UNBOUND:                -4.924
REMARK SMILES O=C(OC[C@H]1O[C@H](OC(=O)c2cc(O)c(O)c(O)c2)[C@H](OC(=O)c2cc(O)c(O)c(O)c2)[C@@H](OC(=O)c2cc(O)c(O)c(O)c2)[C@H]1OC(=O)c1cc(O)c(O)c(O)c1)c1cc(O)c(O)c(O)c1
REMARK SMILES IDX 5 1 46 2 33 3 20 4 7 5 6 6 4 7 3 8 2 9 1 10 59 11 60 12
REMARK SMILES IDX 61 13 67 14 63 15 65 16 62 17 64 19 66 21 47 23 48 24 49 25
REMARK SMILES IDX 50 26 58 27 51 28 56 29 52 30 54 31 57 32 53 34 55 36 34 38
REMARK SMILES IDX 35 39 36 40 37 41 45 42 38 43 43 44 39 45 41 46 44 47 40 49
REMARK SMILES IDX 42 51 8 53 9 54 10 55 11 56 19 57 12 58 17 59 13 60 15 61
REMARK SMILES IDX 18 62 14 64 16 66 21 68 22 69 23 70 24 71 32 72 25 73 30 74
REMARK SMILES IDX 26 75 28 76 31 77 27 79 29 81
REMARK H PARENT 62 18 64 20 66 22 57 33 53 35 55 37 44 48 40 50 42 52 18 63
REMARK H PARENT 14 65 16 67 31 78 27 80 29 82
REMARK Flexibility Score: inf
ROOT
ATOM      1  C   UNL     1      16.073  23.442  47.626  1.00  0.00     0.205 C 
ATOM      2  C   UNL     1      15.213  23.629  48.889  1.00  0.00     0.254 C 
ATOM      3  C   UNL     1      15.216  25.123  49.231  1.00  0.00     0.267 C 
ATOM      4  C   UNL     1      14.689  25.929  48.029  1.00  0.00     0.290 C 
ATOM      5  C   UNL     1      15.482  25.545  46.759  1.00  0.00     0.357 C 
ATOM      6  O   UNL     1      15.492  24.140  46.533  1.00  0.00    -0.329 OA
ENDROOT
BRANCH   1   7
ATOM      7  C   UNL     1      16.242  21.960  47.247  1.00  0.00     0.269 C 
BRANCH   7   8
ATOM      8  O   UNL     1      16.784  21.865  45.933  1.00  0.00    -0.459 OA
BRANCH   8   9
ATOM      9  C   UNL     1      16.394  20.865  45.031  1.00  0.00     0.338 C 
ATOM     10  O   UNL     1      17.031  19.773  44.987  1.00  0.00    -0.246 OA
BRANCH   9  11
ATOM     11  C   UNL     1      15.263  21.102  44.111  1.00  0.00     0.067 A 
ATOM     12  C   UNL     1      15.305  22.165  43.199  1.00  0.00     0.066 A 
ATOM     13  C   UNL     1      14.222  22.434  42.359  1.00  0.00     0.162 A 
ATOM     14  C   UNL     1      14.113  20.289  44.169  1.00  0.00     0.066 A 
ATOM     15  C   UNL     1      13.054  21.640  42.444  1.00  0.00     0.200 A 
ATOM     16  C   UNL     1      13.012  20.565  43.350  1.00  0.00     0.162 A 
BRANCH  13  17
ATOM     17  O   UNL     1      14.353  23.485  41.451  1.00  0.00    -0.504 OA
ATOM     18  H   UNL     1      15.176  23.642  40.894  1.00  0.00     0.293 HD
ENDBRANCH  13  17
BRANCH  15  19
ATOM     19  O   UNL     1      11.926  21.894  41.657  1.00  0.00    -0.502 OA
ATOM     20  H   UNL     1      11.326  22.698  41.760  1.00  0.00     0.293 HD
ENDBRANCH  15  19
BRANCH  16  21
ATOM     21  O   UNL     1      11.881  19.755  43.457  1.00  0.00    -0.504 OA
ATOM     22  H   UNL     1      10.952  20.101  43.253  1.00  0.00     0.293 HD
ENDBRANCH  16  21
ENDBRANCH   9  11
ENDBRANCH   8   9
ENDBRANCH   7   8
ENDBRANCH   1   7
BRANCH   2  23
ATOM     23  O   UNL     1      13.870  23.212  48.640  1.00  0.00    -0.452 OA
BRANCH  23  24
ATOM     24  C   UNL     1      13.262  22.107  49.251  1.00  0.00     0.338 C 
ATOM     25  O   UNL     1      12.086  22.201  49.689  1.00  0.00    -0.246 OA
BRANCH  24  26
ATOM     26  C   UNL     1      14.005  20.832  49.356  1.00  0.00     0.067 A 
ATOM     27  C   UNL     1      14.726  20.512  50.522  1.00  0.00     0.066 A 
ATOM     28  C   UNL     1      14.045  19.948  48.266  1.00  0.00     0.066 A 
ATOM     29  C   UNL     1      15.487  19.332  50.590  1.00  0.00     0.162 A 
ATOM     30  C   UNL     1      14.792  18.767  48.333  1.00  0.00     0.162 A 
ATOM     31  C   UNL     1      15.517  18.455  49.492  1.00  0.00     0.200 A 
BRANCH  29  32
ATOM     32  O   UNL     1      16.214  19.033  51.739  1.00  0.00    -0.504 OA
ATOM     33  H   UNL     1      16.982  18.371  51.721  1.00  0.00     0.293 HD
ENDBRANCH  29  32
BRANCH  30  34
ATOM     34  O   UNL     1      14.807  17.918  47.229  1.00  0.00    -0.504 OA
ATOM     35  H   UNL     1      15.669  17.526  46.861  1.00  0.00     0.293 HD
ENDBRANCH  30  34
BRANCH  31  36
ATOM     36  O   UNL     1      16.264  17.280  49.533  1.00  0.00    -0.502 OA
ATOM     37  H   UNL     1      16.046  16.479  48.955  1.00  0.00     0.293 HD
ENDBRANCH  31  36
ENDBRANCH  24  26
ENDBRANCH  23  24
ENDBRANCH   2  23
BRANCH   3  38
ATOM     38  O   UNL     1      14.435  25.368  50.400  1.00  0.00    -0.450 OA
BRANCH  38  39
ATOM     39  C   UNL     1      14.621  24.659  51.595  1.00  0.00     0.338 C 
ATOM     40  O   UNL     1      13.792  23.773  51.939  1.00  0.00    -0.246 OA
BRANCH  39  41
ATOM     41  C   UNL     1      15.801  24.932  52.445  1.00  0.00     0.067 A 
ATOM     42  C   UNL     1      16.424  26.191  52.413  1.00  0.00     0.066 A 
ATOM     43  C   UNL     1      16.309  23.937  53.297  1.00  0.00     0.066 A 
ATOM     44  C   UNL     1      17.539  26.453  53.213  1.00  0.00     0.162 A 
ATOM     45  C   UNL     1      17.426  24.185  54.100  1.00  0.00     0.162 A 
ATOM     46  C   UNL     1      18.058  25.455  54.053  1.00  0.00     0.200 A 
BRANCH  44  47
ATOM     47  O   UNL     1      18.136  27.715  53.176  1.00  0.00    -0.504 OA
ATOM     48  H   UNL     1      17.873  28.449  53.830  1.00  0.00     0.293 HD
ENDBRANCH  44  47
BRANCH  45  49
ATOM     49  O   UNL     1      17.874  23.149  54.920  1.00  0.00    -0.504 OA
ATOM     50  H   UNL     1      17.581  23.018  55.877  1.00  0.00     0.293 HD
ENDBRANCH  45  49
BRANCH  46  51
ATOM     51  O   UNL     1      19.192  25.765  54.809  1.00  0.00    -0.502 OA
ATOM     52  H   UNL     1      19.164  26.305  55.667  1.00  0.00     0.293 HD
ENDBRANCH  46  51
ENDBRANCH  39  41
ENDBRANCH  38  39
ENDBRANCH   3  38
BRANCH   5  53
ATOM     53  O   UNL     1      16.811  26.060  46.827  1.00  0.00    -0.428 OA
BRANCH  53  54
ATOM     54  C   UNL     1      17.280  27.088  46.001  1.00  0.00     0.340 C 
ATOM     55  O   UNL     1      17.250  28.284  46.387  1.00  0.00    -0.246 OA
BRANCH  54  56
ATOM     56  C   UNL     1      17.819  26.756  44.672  1.00  0.00     0.067 A 
ATOM     57  C   UNL     1      19.102  27.170  44.295  1.00  0.00     0.066 A 
ATOM     58  C   UNL     1      17.050  26.006  43.776  1.00  0.00     0.066 A 
ATOM     59  C   UNL     1      19.637  26.817  43.049  1.00  0.00     0.162 A 
ATOM     60  C   UNL     1      17.551  25.667  42.518  1.00  0.00     0.162 A 
ATOM     61  C   UNL     1      18.855  26.053  42.145  1.00  0.00     0.200 A 
BRANCH  59  62
ATOM     62  O   UNL     1      20.939  27.240  42.762  1.00  0.00    -0.504 OA
ATOM     63  H   UNL     1      21.537  26.804  42.070  1.00  0.00     0.293 HD
ENDBRANCH  59  62
BRANCH  60  64
ATOM     64  O   UNL     1      16.731  24.949  41.647  1.00  0.00    -0.504 OA
ATOM     65  H   UNL     1      16.808  23.942  41.546  1.00  0.00     0.293 HD
ENDBRANCH  60  64
BRANCH  61  66
ATOM     66  O   UNL     1      19.338  25.662  40.888  1.00  0.00    -0.502 OA
ATOM     67  H   UNL     1      18.814  25.747  40.027  1.00  0.00     0.293 HD
ENDBRANCH  61  66
ENDBRANCH  54  56
ENDBRANCH  53  54
ENDBRANCH   5  53
BRANCH   4  68
ATOM     68  O   UNL     1      14.865  27.325  48.258  1.00  0.00    -0.448 OA
BRANCH  68  69
ATOM     69  C   UNL     1      13.978  28.120  48.990  1.00  0.00     0.339 C 
ATOM     70  O   UNL     1      12.843  28.407  48.519  1.00  0.00    -0.246 OA
BRANCH  69  71
ATOM     71  C   UNL     1      14.386  28.635  50.314  1.00  0.00     0.067 A 
ATOM     72  C   UNL     1      15.649  29.211  50.506  1.00  0.00     0.066 A 
ATOM     73  C   UNL     1      13.503  28.561  51.403  1.00  0.00     0.066 A 
ATOM     74  C   UNL     1      16.024  29.719  51.759  1.00  0.00     0.162 A 
ATOM     75  C   UNL     1      13.865  29.067  52.655  1.00  0.00     0.162 A 
ATOM     76  C   UNL     1      15.128  29.650  52.838  1.00  0.00     0.200 A 
BRANCH  74  77
ATOM     77  O   UNL     1      17.279  30.301  51.933  1.00  0.00    -0.504 OA
ATOM     78  H   UNL     1      17.987  29.871  52.519  1.00  0.00     0.293 HD
ENDBRANCH  74  77
BRANCH  75  79
ATOM     79  O   UNL     1      12.953  28.985  53.709  1.00  0.00    -0.504 OA
ATOM     80  H   UNL     1      12.622  29.803  54.203  1.00  0.00     0.293 HD
ENDBRANCH  75  79
BRANCH  76  81
ATOM     81  O   UNL     1      15.481  30.153  54.092  1.00  0.00    -0.502 OA
ATOM     82  H   UNL     1      15.921  29.585  54.800  1.00  0.00     0.293 HD
ENDBRANCH  76  81
ENDBRANCH  69  71
ENDBRANCH  68  69
ENDBRANCH   4  68
TORSDOF 31
ENDMDL
MODEL 8
REMARK VINA RESULT:    -7.027      2.550      6.972
REMARK INTER + INTRA:         -21.606
REMARK INTER:                 -16.056
REMARK INTRA:                  -5.551
REMARK UNBOUND:                -4.924
REMARK SMILES O=C(OC[C@H]1O[C@H](OC(=O)c2cc(O)c(O)c(O)c2)[C@H](OC(=O)c2cc(O)c(O)c(O)c2)[C@@H](OC(=O)c2cc(O)c(O)c(O)c2)[C@H]1OC(=O)c1cc(O)c(O)c(O)c1)c1cc(O)c(O)c(O)c1
REMARK SMILES IDX 5 1 46 2 33 3 20 4 7 5 6 6 4 7 3 8 2 9 1 10 59 11 60 12
REMARK SMILES IDX 61 13 67 14 63 15 65 16 62 17 64 19 66 21 47 23 48 24 49 25
REMARK SMILES IDX 50 26 58 27 51 28 56 29 52 30 54 31 57 32 53 34 55 36 34 38
REMARK SMILES IDX 35 39 36 40 37 41 45 42 38 43 43 44 39 45 41 46 44 47 40 49
REMARK SMILES IDX 42 51 8 53 9 54 10 55 11 56 19 57 12 58 17 59 13 60 15 61
REMARK SMILES IDX 18 62 14 64 16 66 21 68 22 69 23 70 24 71 32 72 25 73 30 74
REMARK SMILES IDX 26 75 28 76 31 77 27 79 29 81
REMARK H PARENT 62 18 64 20 66 22 57 33 53 35 55 37 44 48 40 50 42 52 18 63
REMARK H PARENT 14 65 16 67 31 78 27 80 29 82
REMARK Flexibility Score: inf
ROOT
ATOM      1  C   UNL     1      16.879  22.974  43.313  1.00  0.00     0.205 C 
ATOM      2  C   UNL     1      16.496  22.216  44.597  1.00  0.00     0.254 C 
ATOM      3  C   UNL     1      15.505  23.093  45.370  1.00  0.00     0.267 C 
ATOM      4  C   UNL     1      14.288  23.407  44.480  1.00  0.00     0.290 C 
ATOM      5  C   UNL     1      14.769  23.992  43.132  1.00  0.00     0.357 C 
ATOM      6  O   UNL     1      15.731  23.160  42.496  1.00  0.00    -0.329 OA
ENDROOT
BRANCH   1   7
ATOM      7  C   UNL     1      17.963  22.240  42.502  1.00  0.00     0.269 C 
BRANCH   7   8
ATOM      8  O   UNL     1      18.951  23.174  42.077  1.00  0.00    -0.459 OA
BRANCH   8   9
ATOM      9  C   UNL     1      19.496  23.154  40.786  1.00  0.00     0.338 C 
ATOM     10  O   UNL     1      20.396  22.315  40.494  1.00  0.00    -0.246 OA
BRANCH   9  11
ATOM     11  C   UNL     1      19.042  24.136  39.778  1.00  0.00     0.067 A 
ATOM     12  C   UNL     1      18.002  23.814  38.897  1.00  0.00     0.066 A 
ATOM     13  C   UNL     1      17.597  24.711  37.906  1.00  0.00     0.162 A 
ATOM     14  C   UNL     1      19.680  25.388  39.664  1.00  0.00     0.066 A 
ATOM     15  C   UNL     1      18.262  25.952  37.768  1.00  0.00     0.200 A 
ATOM     16  C   UNL     1      19.300  26.283  38.658  1.00  0.00     0.162 A 
BRANCH  13  17
ATOM     17  O   UNL     1      16.528  24.335  37.091  1.00  0.00    -0.504 OA
ATOM     18  H   UNL     1      16.566  24.334  36.086  1.00  0.00     0.293 HD
ENDBRANCH  13  17
BRANCH  15  19
ATOM     19  O   UNL     1      17.925  26.867  36.765  1.00  0.00    -0.502 OA
ATOM     20  H   UNL     1      17.938  27.868  36.879  1.00  0.00     0.293 HD
ENDBRANCH  15  19
BRANCH  16  21
ATOM     21  O   UNL     1      19.972  27.502  38.560  1.00  0.00    -0.504 OA
ATOM     22  H   UNL     1      20.416  27.802  37.700  1.00  0.00     0.293 HD
ENDBRANCH  16  21
ENDBRANCH   9  11
ENDBRANCH   8   9
ENDBRANCH   7   8
ENDBRANCH   1   7
BRANCH   2  23
ATOM     23  O   UNL     1      15.863  20.978  44.271  1.00  0.00    -0.452 OA
BRANCH  23  24
ATOM     24  C   UNL     1      16.250  19.735  44.790  1.00  0.00     0.338 C 
ATOM     25  O   UNL     1      17.202  19.105  44.262  1.00  0.00    -0.246 OA
BRANCH  24  26
ATOM     26  C   UNL     1      15.545  19.185  45.969  1.00  0.00     0.067 A 
ATOM     27  C   UNL     1      14.141  19.237  46.059  1.00  0.00     0.066 A 
ATOM     28  C   UNL     1      16.278  18.653  47.043  1.00  0.00     0.066 A 
ATOM     29  C   UNL     1      13.482  18.776  47.211  1.00  0.00     0.162 A 
ATOM     30  C   UNL     1      15.624  18.184  48.187  1.00  0.00     0.162 A 
ATOM     31  C   UNL     1      14.226  18.245  48.277  1.00  0.00     0.200 A 
BRANCH  29  32
ATOM     32  O   UNL     1      12.094  18.850  47.300  1.00  0.00    -0.504 OA
ATOM     33  H   UNL     1      11.567  18.216  47.889  1.00  0.00     0.293 HD
ENDBRANCH  29  32
BRANCH  30  34
ATOM     34  O   UNL     1      16.387  17.666  49.231  1.00  0.00    -0.504 OA
ATOM     35  H   UNL     1      17.399  17.605  49.182  1.00  0.00     0.293 HD
ENDBRANCH  30  34
BRANCH  31  36
ATOM     36  O   UNL     1      13.597  17.783  49.432  1.00  0.00    -0.502 OA
ATOM     37  H   UNL     1      13.577  16.803  49.683  1.00  0.00     0.293 HD
ENDBRANCH  31  36
ENDBRANCH  24  26
ENDBRANCH  23  24
ENDBRANCH   2  23
BRANCH   3  38
ATOM     38  O   UNL     1      15.109  22.449  46.580  1.00  0.00    -0.450 OA
BRANCH  38  39
ATOM     39  C   UNL     1      15.945  22.369  47.702  1.00  0.00     0.338 C 
ATOM     40  O   UNL     1      17.114  22.841  47.654  1.00  0.00    -0.246 OA
BRANCH  39  41
ATOM     41  C   UNL     1      15.454  21.749  48.953  1.00  0.00     0.067 A 
ATOM     42  C   UNL     1      14.097  21.844  49.307  1.00  0.00     0.066 A 
ATOM     43  C   UNL     1      16.336  21.056  49.797  1.00  0.00     0.066 A 
ATOM     44  C   UNL     1      13.628  21.262  50.488  1.00  0.00     0.162 A 
ATOM     45  C   UNL     1      15.881  20.473  50.984  1.00  0.00     0.162 A 
ATOM     46  C   UNL     1      14.512  20.583  51.342  1.00  0.00     0.200 A 
BRANCH  44  47
ATOM     47  O   UNL     1      12.274  21.356  50.816  1.00  0.00    -0.504 OA
ATOM     48  H   UNL     1      11.548  21.300  50.106  1.00  0.00     0.293 HD
ENDBRANCH  44  47
BRANCH  45  49
ATOM     49  O   UNL     1      16.816  19.801  51.772  1.00  0.00    -0.504 OA
ATOM     50  H   UNL     1      16.576  19.214  52.558  1.00  0.00     0.293 HD
ENDBRANCH  45  49
BRANCH  46  51
ATOM     51  O   UNL     1      13.993  20.045  52.523  1.00  0.00    -0.502 OA
ATOM     52  H   UNL     1      13.938  20.556  53.396  1.00  0.00     0.293 HD
ENDBRANCH  46  51
ENDBRANCH  39  41
ENDBRANCH  38  39
ENDBRANCH   3  38
BRANCH   5  53
ATOM     53  O   UNL     1      15.277  25.312  43.314  1.00  0.00    -0.428 OA
BRANCH  53  54
ATOM     54  C   UNL     1      16.342  25.836  42.572  1.00  0.00     0.340 C 
ATOM     55  O   UNL     1      16.378  25.706  41.322  1.00  0.00    -0.246 OA
BRANCH  54  56
ATOM     56  C   UNL     1      17.424  26.549  43.269  1.00  0.00     0.067 A 
ATOM     57  C   UNL     1      18.726  26.557  42.754  1.00  0.00     0.066 A 
ATOM     58  C   UNL     1      17.152  27.243  44.454  1.00  0.00     0.066 A 
ATOM     59  C   UNL     1      19.749  27.273  43.389  1.00  0.00     0.162 A 
ATOM     60  C   UNL     1      18.162  27.940  45.118  1.00  0.00     0.162 A 
ATOM     61  C   UNL     1      19.468  27.978  44.587  1.00  0.00     0.200 A 
BRANCH  59  62
ATOM     62  O   UNL     1      21.013  27.259  42.792  1.00  0.00    -0.504 OA
ATOM     63  H   UNL     1      21.176  27.044  41.814  1.00  0.00     0.293 HD
ENDBRANCH  59  62
BRANCH  60  64
ATOM     64  O   UNL     1      17.848  28.586  46.315  1.00  0.00    -0.504 OA
ATOM     65  H   UNL     1      18.102  28.197  47.217  1.00  0.00     0.293 HD
ENDBRANCH  60  64
BRANCH  61  66
ATOM     66  O   UNL     1      20.447  28.720  45.264  1.00  0.00    -0.502 OA
ATOM     67  H   UNL     1      20.843  28.457  46.156  1.00  0.00     0.293 HD
ENDBRANCH  61  66
ENDBRANCH  54  56
ENDBRANCH  53  54
ENDBRANCH   5  53
BRANCH   4  68
ATOM     68  O   UNL     1      13.453  24.375  45.112  1.00  0.00    -0.448 OA
BRANCH  68  69
ATOM     69  C   UNL     1      12.901  24.225  46.388  1.00  0.00     0.339 C 
ATOM     70  O   UNL     1      12.047  23.322  46.609  1.00  0.00    -0.246 OA
BRANCH  69  71
ATOM     71  C   UNL     1      13.315  25.140  47.472  1.00  0.00     0.067 A 
ATOM     72  C   UNL     1      14.382  26.030  47.297  1.00  0.00     0.066 A 
ATOM     73  C   UNL     1      12.632  25.135  48.699  1.00  0.00     0.066 A 
ATOM     74  C   UNL     1      14.757  26.912  48.320  1.00  0.00     0.162 A 
ATOM     75  C   UNL     1      12.995  26.012  49.725  1.00  0.00     0.162 A 
ATOM     76  C   UNL     1      14.059  26.907  49.539  1.00  0.00     0.200 A 
BRANCH  74  77
ATOM     77  O   UNL     1      15.814  27.803  48.127  1.00  0.00    -0.504 OA
ATOM     78  H   UNL     1      16.633  27.792  48.727  1.00  0.00     0.293 HD
ENDBRANCH  74  77
BRANCH  75  79
ATOM     79  O   UNL     1      12.282  25.984  50.925  1.00  0.00    -0.504 OA
ATOM     80  H   UNL     1      12.740  25.947  51.825  1.00  0.00     0.293 HD
ENDBRANCH  75  79
BRANCH  76  81
ATOM     81  O   UNL     1      14.416  27.780  50.569  1.00  0.00    -0.502 OA
ATOM     82  H   UNL     1      13.993  28.690  50.680  1.00  0.00     0.293 HD
ENDBRANCH  76  81
ENDBRANCH  69  71
ENDBRANCH  68  69
ENDBRANCH   4  68
TORSDOF 31
ENDMDL
MODEL 9
REMARK VINA RESULT:    -6.962      1.813      9.624
REMARK INTER + INTRA:         -21.452
REMARK INTER:                 -16.022
REMARK INTRA:                  -5.430
REMARK UNBOUND:                -4.924
REMARK SMILES O=C(OC[C@H]1O[C@H](OC(=O)c2cc(O)c(O)c(O)c2)[C@H](OC(=O)c2cc(O)c(O)c(O)c2)[C@@H](OC(=O)c2cc(O)c(O)c(O)c2)[C@H]1OC(=O)c1cc(O)c(O)c(O)c1)c1cc(O)c(O)c(O)c1
REMARK SMILES IDX 5 1 46 2 33 3 20 4 7 5 6 6 4 7 3 8 2 9 1 10 59 11 60 12
REMARK SMILES IDX 61 13 67 14 63 15 65 16 62 17 64 19 66 21 47 23 48 24 49 25
REMARK SMILES IDX 50 26 58 27 51 28 56 29 52 30 54 31 57 32 53 34 55 36 34 38
REMARK SMILES IDX 35 39 36 40 37 41 45 42 38 43 43 44 39 45 41 46 44 47 40 49
REMARK SMILES IDX 42 51 8 53 9 54 10 55 11 56 19 57 12 58 17 59 13 60 15 61
REMARK SMILES IDX 18 62 14 64 16 66 21 68 22 69 23 70 24 71 32 72 25 73 30 74
REMARK SMILES IDX 26 75 28 76 31 77 27 79 29 81
REMARK H PARENT 62 18 64 20 66 22 57 33 53 35 55 37 44 48 40 50 42 52 18 63
REMARK H PARENT 14 65 16 67 31 78 27 80 29 82
REMARK Flexibility Score: inf
ROOT
ATOM      1  C   UNL     1      16.277  23.148  44.468  1.00  0.00     0.205 C 
ATOM      2  C   UNL     1      16.987  24.279  43.703  1.00  0.00     0.254 C 
ATOM      3  C   UNL     1      16.503  24.226  42.250  1.00  0.00     0.267 C 
ATOM      4  C   UNL     1      14.969  24.354  42.210  1.00  0.00     0.290 C 
ATOM      5  C   UNL     1      14.337  23.303  43.151  1.00  0.00     0.357 C 
ATOM      6  O   UNL     1      14.872  23.365  44.468  1.00  0.00    -0.329 OA
ENDROOT
BRANCH   1   7
ATOM      7  C   UNL     1      16.769  23.026  45.922  1.00  0.00     0.269 C 
BRANCH   7   8
ATOM      8  O   UNL     1      15.785  22.353  46.701  1.00  0.00    -0.459 OA
BRANCH   8   9
ATOM      9  C   UNL     1      16.085  21.749  47.930  1.00  0.00     0.338 C 
ATOM     10  O   UNL     1      16.962  20.840  47.988  1.00  0.00    -0.246 OA
BRANCH   9  11
ATOM     11  C   UNL     1      15.354  22.153  49.149  1.00  0.00     0.067 A 
ATOM     12  C   UNL     1      14.291  23.062  49.066  1.00  0.00     0.066 A 
ATOM     13  C   UNL     1      13.624  23.493  50.215  1.00  0.00     0.162 A 
ATOM     14  C   UNL     1      15.746  21.664  50.412  1.00  0.00     0.066 A 
ATOM     15  C   UNL     1      14.041  23.030  51.485  1.00  0.00     0.200 A 
ATOM     16  C   UNL     1      15.101  22.109  51.571  1.00  0.00     0.162 A 
BRANCH  13  17
ATOM     17  O   UNL     1      12.550  24.369  50.049  1.00  0.00    -0.504 OA
ATOM     18  H   UNL     1      11.977  24.398  49.223  1.00  0.00     0.293 HD
ENDBRANCH  13  17
BRANCH  15  19
ATOM     19  O   UNL     1      13.436  23.464  52.669  1.00  0.00    -0.502 OA
ATOM     20  H   UNL     1      13.811  23.309  53.592  1.00  0.00     0.293 HD
ENDBRANCH  15  19
BRANCH  16  21
ATOM     21  O   UNL     1      15.535  21.622  52.805  1.00  0.00    -0.504 OA
ATOM     22  H   UNL     1      14.978  21.716  53.645  1.00  0.00     0.293 HD
ENDBRANCH  16  21
ENDBRANCH   9  11
ENDBRANCH   8   9
ENDBRANCH   7   8
ENDBRANCH   1   7
BRANCH   2  23
ATOM     23  O   UNL     1      16.641  25.548  44.261  1.00  0.00    -0.452 OA
BRANCH  23  24
ATOM     24  C   UNL     1      17.089  26.010  45.506  1.00  0.00     0.338 C 
ATOM     25  O   UNL     1      18.320  26.167  45.710  1.00  0.00    -0.246 OA
BRANCH  24  26
ATOM     26  C   UNL     1      16.103  26.327  46.563  1.00  0.00     0.067 A 
ATOM     27  C   UNL     1      14.800  25.799  46.516  1.00  0.00     0.066 A 
ATOM     28  C   UNL     1      16.444  27.208  47.602  1.00  0.00     0.066 A 
ATOM     29  C   UNL     1      13.848  26.158  47.484  1.00  0.00     0.162 A 
ATOM     30  C   UNL     1      15.503  27.560  48.575  1.00  0.00     0.162 A 
ATOM     31  C   UNL     1      14.202  27.039  48.519  1.00  0.00     0.200 A 
BRANCH  29  32
ATOM     32  O   UNL     1      12.553  25.648  47.418  1.00  0.00    -0.504 OA
ATOM     33  H   UNL     1      12.080  25.520  46.531  1.00  0.00     0.293 HD
ENDBRANCH  29  32
BRANCH  30  34
ATOM     34  O   UNL     1      15.880  28.439  49.588  1.00  0.00    -0.504 OA
ATOM     35  H   UNL     1      15.209  29.037  50.061  1.00  0.00     0.293 HD
ENDBRANCH  30  34
BRANCH  31  36
ATOM     36  O   UNL     1      13.276  27.413  49.492  1.00  0.00    -0.502 OA
ATOM     37  H   UNL     1      12.643  26.750  49.920  1.00  0.00     0.293 HD
ENDBRANCH  31  36
ENDBRANCH  24  26
ENDBRANCH  23  24
ENDBRANCH   2  23
BRANCH   3  38
ATOM     38  O   UNL     1      17.128  25.252  41.479  1.00  0.00    -0.450 OA
BRANCH  38  39
ATOM     39  C   UNL     1      18.494  25.235  41.166  1.00  0.00     0.338 C 
ATOM     40  O   UNL     1      19.269  26.091  41.675  1.00  0.00    -0.246 OA
BRANCH  39  41
ATOM     41  C   UNL     1      19.036  24.202  40.255  1.00  0.00     0.067 A 
ATOM     42  C   UNL     1      18.613  24.143  38.916  1.00  0.00     0.066 A 
ATOM     43  C   UNL     1      19.982  23.274  40.718  1.00  0.00     0.066 A 
ATOM     44  C   UNL     1      19.121  23.169  38.053  1.00  0.00     0.162 A 
ATOM     45  C   UNL     1      20.496  22.291  39.865  1.00  0.00     0.162 A 
ATOM     46  C   UNL     1      20.054  22.229  38.517  1.00  0.00     0.200 A 
BRANCH  44  47
ATOM     47  O   UNL     1      18.698  23.135  36.723  1.00  0.00    -0.504 OA
ATOM     48  H   UNL     1      17.717  23.022  36.478  1.00  0.00     0.293 HD
ENDBRANCH  44  47
BRANCH  45  49
ATOM     49  O   UNL     1      21.432  21.402  40.394  1.00  0.00    -0.504 OA
ATOM     50  H   UNL     1      21.901  20.688  39.856  1.00  0.00     0.293 HD
ENDBRANCH  45  49
BRANCH  46  51
ATOM     51  O   UNL     1      20.507  21.261  37.617  1.00  0.00    -0.502 OA
ATOM     52  H   UNL     1      21.348  21.361  37.060  1.00  0.00     0.293 HD
ENDBRANCH  46  51
ENDBRANCH  39  41
ENDBRANCH  38  39
ENDBRANCH   3  38
BRANCH   5  53
ATOM     53  O   UNL     1      14.480  21.993  42.604  1.00  0.00    -0.428 OA
BRANCH  53  54
ATOM     54  C   UNL     1      13.786  20.878  43.086  1.00  0.00     0.340 C 
ATOM     55  O   UNL     1      12.707  20.514  42.553  1.00  0.00    -0.246 OA
BRANCH  54  56
ATOM     56  C   UNL     1      14.334  20.125  44.225  1.00  0.00     0.067 A 
ATOM     57  C   UNL     1      13.574  19.922  45.384  1.00  0.00     0.066 A 
ATOM     58  C   UNL     1      15.625  19.589  44.151  1.00  0.00     0.066 A 
ATOM     59  C   UNL     1      14.074  19.166  46.452  1.00  0.00     0.162 A 
ATOM     60  C   UNL     1      16.155  18.857  45.214  1.00  0.00     0.162 A 
ATOM     61  C   UNL     1      15.382  18.622  46.370  1.00  0.00     0.200 A 
BRANCH  59  62
ATOM     62  O   UNL     1      13.240  18.982  47.559  1.00  0.00    -0.504 OA
ATOM     63  H   UNL     1      12.240  19.147  47.548  1.00  0.00     0.293 HD
ENDBRANCH  59  62
BRANCH  60  64
ATOM     64  O   UNL     1      17.459  18.375  45.104  1.00  0.00    -0.504 OA
ATOM     65  H   UNL     1      18.266  18.965  45.277  1.00  0.00     0.293 HD
ENDBRANCH  60  64
BRANCH  61  66
ATOM     66  O   UNL     1      15.935  17.850  47.402  1.00  0.00    -0.502 OA
ATOM     67  H   UNL     1      16.617  18.193  48.065  1.00  0.00     0.293 HD
ENDBRANCH  61  66
ENDBRANCH  54  56
ENDBRANCH  53  54
ENDBRANCH   5  53
BRANCH   4  68
ATOM     68  O   UNL     1      14.490  24.114  40.889  1.00  0.00    -0.448 OA
BRANCH  68  69
ATOM     69  C   UNL     1      13.562  24.925  40.229  1.00  0.00     0.339 C 
ATOM     70  O   UNL     1      12.491  25.265  40.804  1.00  0.00    -0.246 OA
BRANCH  69  71
ATOM     71  C   UNL     1      13.839  25.371  38.847  1.00  0.00     0.067 A 
ATOM     72  C   UNL     1      12.861  26.034  38.095  1.00  0.00     0.066 A 
ATOM     73  C   UNL     1      15.098  25.141  38.270  1.00  0.00     0.066 A 
ATOM     74  C   UNL     1      13.135  26.476  36.791  1.00  0.00     0.162 A 
ATOM     75  C   UNL     1      15.383  25.579  36.974  1.00  0.00     0.162 A 
ATOM     76  C   UNL     1      14.402  26.250  36.228  1.00  0.00     0.200 A 
BRANCH  74  77
ATOM     77  O   UNL     1      12.156  27.147  36.058  1.00  0.00    -0.504 OA
ATOM     78  H   UNL     1      11.186  26.849  36.070  1.00  0.00     0.293 HD
ENDBRANCH  74  77
BRANCH  75  79
ATOM     79  O   UNL     1      16.651  25.342  36.441  1.00  0.00    -0.504 OA
ATOM     80  H   UNL     1      16.958  24.418  36.167  1.00  0.00     0.293 HD
ENDBRANCH  75  79
BRANCH  76  81
ATOM     81  O   UNL     1      14.694  26.685  34.934  1.00  0.00    -0.502 OA
ATOM     82  H   UNL     1      15.608  26.579  34.519  1.00  0.00     0.293 HD
ENDBRANCH  76  81
ENDBRANCH  69  71
ENDBRANCH  68  69
ENDBRANCH   4  68
TORSDOF 31
ENDMDL
