MODEL 1
REMARK VINA RESULT:    -3.641      0.000      0.000
REMARK INTER + INTRA:          -9.037
REMARK INTER:                  -6.621
REMARK INTRA:                  -2.415
REMARK UNBOUND:                -2.415
REMARK SMILES CCCCCCCCCCCCCCCC(=O)[O-]
REMARK SMILES IDX 9 1 10 2 11 3 12 4 13 5 14 6 15 7 16 8 17 9 18 10 8 11 7 12
REMARK SMILES IDX 6 13 5 14 4 15 3 16 2 17 1 18
REMARK H PARENT
REMARK Flexibility Score: inf
ROOT
ATOM      1  C   UNL     1      52.315  -1.574  72.568  1.00  0.00     0.000 C 
ENDROOT
BRANCH   1   2
ATOM      2  C   UNL     1      51.772  -3.012  72.611  1.00  0.00     0.000 C 
BRANCH   2   3
ATOM      3  C   UNL     1      51.187  -3.336  73.991  1.00  0.00     0.000 C 
BRANCH   3   4
ATOM      4  C   UNL     1      50.281  -4.575  73.927  1.00  0.00     0.000 C 
BRANCH   4   5
ATOM      5  C   UNL     1      49.498  -4.670  72.608  1.00  0.00     0.000 C 
BRANCH   5   6
ATOM      6  C   UNL     1      48.033  -4.221  72.755  1.00  0.00     0.006 C 
BRANCH   6   7
ATOM      7  C   UNL     1      47.268  -5.067  73.783  1.00  0.00     0.053 C 
BRANCH   7   8
ATOM      8  C   UNL     1      46.455  -6.140  73.128  1.00  0.00     0.041 C 
ATOM      9  O   UNL     1      46.863  -6.686  72.069  1.00  0.00    -0.550 OA
ATOM     10  O   UNL     1      45.262  -6.559  73.701  1.00  0.00    -0.550 OA
ENDBRANCH   7   8
ENDBRANCH   6   7
ENDBRANCH   5   6
ENDBRANCH   4   5
ENDBRANCH   3   4
ENDBRANCH   2   3
ENDBRANCH   1   2
BRANCH   1  11
ATOM     11  C   UNL     1      51.224  -0.537  72.257  1.00  0.00     0.000 C 
BRANCH  11  12
ATOM     12  C   UNL     1      50.044  -1.138  71.472  1.00  0.00    -0.000 C 
BRANCH  12  13
ATOM     13  C   UNL     1      48.682  -0.790  72.094  1.00  0.00    -0.000 C 
BRANCH  13  14
ATOM     14  C   UNL     1      48.814  -0.033  73.426  1.00  0.00    -0.000 C 
BRANCH  14  15
ATOM     15  C   UNL     1      48.334  -0.898  74.598  1.00  0.00    -0.000 C 
BRANCH  15  16
ATOM     16  C   UNL     1      49.083  -0.539  75.890  1.00  0.00    -0.000 C 
BRANCH  16  17
ATOM     17  C   UNL     1      49.431  -1.775  76.733  1.00  0.00    -0.003 C 
ATOM     18  C   UNL     1      48.382  -2.881  76.622  1.00  0.00     0.004 C 
ENDBRANCH  16  17
ENDBRANCH  15  16
ENDBRANCH  14  15
ENDBRANCH  13  14
ENDBRANCH  12  13
ENDBRANCH  11  12
ENDBRANCH   1  11
TORSDOF 14
ENDMDL
MODEL 2
REMARK VINA RESULT:    -3.634      1.414      3.330
REMARK INTER + INTRA:          -9.023
REMARK INTER:                  -6.614
REMARK INTRA:                  -2.409
REMARK UNBOUND:                -2.415
REMARK SMILES CCCCCCCCCCCCCCCC(=O)[O-]
REMARK SMILES IDX 9 1 10 2 11 3 12 4 13 5 14 6 15 7 16 8 17 9 18 10 8 11 7 12
REMARK SMILES IDX 6 13 5 14 4 15 3 16 2 17 1 18
REMARK H PARENT
REMARK Flexibility Score: inf
ROOT
ATOM      1  C   UNL     1      50.824  -2.992  75.880  1.00  0.00     0.000 C 
ENDROOT
BRANCH   1   2
ATOM      2  C   UNL     1      49.819  -4.095  75.511  1.00  0.00     0.000 C 
BRANCH   2   3
ATOM      3  C   UNL     1      48.378  -3.580  75.615  1.00  0.00     0.000 C 
BRANCH   3   4
ATOM      4  C   UNL     1      47.481  -4.236  74.554  1.00  0.00     0.000 C 
BRANCH   4   5
ATOM      5  C   UNL     1      48.048  -4.102  73.133  1.00  0.00     0.000 C 
BRANCH   5   6
ATOM      6  C   UNL     1      47.792  -5.353  72.273  1.00  0.00     0.006 C 
BRANCH   6   7
ATOM      7  C   UNL     1      48.524  -6.589  72.816  1.00  0.00     0.053 C 
BRANCH   7   8
ATOM      8  C   UNL     1      47.813  -7.858  72.461  1.00  0.00     0.041 C 
ATOM      9  O   UNL     1      47.712  -8.785  73.308  1.00  0.00    -0.550 OA
ATOM     10  O   UNL     1      47.237  -8.008  71.207  1.00  0.00    -0.550 OA
ENDBRANCH   7   8
ENDBRANCH   6   7
ENDBRANCH   5   6
ENDBRANCH   4   5
ENDBRANCH   3   4
ENDBRANCH   2   3
ENDBRANCH   1   2
BRANCH   1  11
ATOM     11  C   UNL     1      51.907  -2.792  74.807  1.00  0.00     0.000 C 
BRANCH  11  12
ATOM     12  C   UNL     1      51.711  -3.715  73.591  1.00  0.00    -0.000 C 
BRANCH  12  13
ATOM     13  C   UNL     1      51.517  -2.932  72.282  1.00  0.00    -0.000 C 
BRANCH  13  14
ATOM     14  C   UNL     1      52.153  -1.534  72.326  1.00  0.00    -0.000 C 
BRANCH  14  15
ATOM     15  C   UNL     1      51.093  -0.443  72.135  1.00  0.00    -0.000 C 
BRANCH  15  16
ATOM     16  C   UNL     1      49.740  -1.053  71.738  1.00  0.00    -0.000 C 
BRANCH  16  17
ATOM     17  C   UNL     1      48.568  -0.459  72.534  1.00  0.00    -0.003 C 
ATOM     18  C   UNL     1      48.886  -0.295  74.021  1.00  0.00     0.004 C 
ENDBRANCH  16  17
ENDBRANCH  15  16
ENDBRANCH  14  15
ENDBRANCH  13  14
ENDBRANCH  12  13
ENDBRANCH  11  12
ENDBRANCH   1  11
TORSDOF 14
ENDMDL
MODEL 3
REMARK VINA RESULT:    -3.627      3.649      5.598
REMARK INTER + INTRA:          -9.011
REMARK INTER:                  -6.889
REMARK INTRA:                  -2.122
REMARK UNBOUND:                -2.415
REMARK SMILES CCCCCCCCCCCCCCCC(=O)[O-]
REMARK SMILES IDX 9 1 10 2 11 3 12 4 13 5 14 6 15 7 16 8 17 9 18 10 8 11 7 12
REMARK SMILES IDX 6 13 5 14 4 15 3 16 2 17 1 18
REMARK H PARENT
REMARK Flexibility Score: inf
ROOT
ATOM      1  C   UNL     1      48.016  -0.754  75.277  1.00  0.00     0.000 C 
ENDROOT
BRANCH   1   2
ATOM      2  C   UNL     1      48.029   0.575  74.506  1.00  0.00     0.000 C 
BRANCH   2   3
ATOM      3  C   UNL     1      49.029   0.526  73.344  1.00  0.00     0.000 C 
BRANCH   3   4
ATOM      4  C   UNL     1      48.587  -0.491  72.281  1.00  0.00     0.000 C 
BRANCH   4   5
ATOM      5  C   UNL     1      49.711  -1.457  71.879  1.00  0.00     0.000 C 
BRANCH   5   6
ATOM      6  C   UNL     1      51.050  -1.125  72.562  1.00  0.00     0.006 C 
BRANCH   6   7
ATOM      7  C   UNL     1      51.930  -2.368  72.746  1.00  0.00     0.053 C 
BRANCH   7   8
ATOM      8  C   UNL     1      53.388  -2.026  72.734  1.00  0.00     0.041 C 
ATOM      9  O   UNL     1      53.852  -1.262  71.847  1.00  0.00    -0.550 OA
ATOM     10  O   UNL     1      54.230  -2.525  73.720  1.00  0.00    -0.550 OA
ENDBRANCH   7   8
ENDBRANCH   6   7
ENDBRANCH   5   6
ENDBRANCH   4   5
ENDBRANCH   3   4
ENDBRANCH   2   3
ENDBRANCH   1   2
BRANCH   1  11
ATOM     11  C   UNL     1      49.121  -0.835  76.342  1.00  0.00     0.000 C 
BRANCH  11  12
ATOM     12  C   UNL     1      50.112  -1.983  76.079  1.00  0.00    -0.000 C 
BRANCH  12  13
ATOM     13  C   UNL     1      49.437  -3.210  75.443  1.00  0.00    -0.000 C 
BRANCH  13  14
ATOM     14  C   UNL     1      49.965  -4.538  76.011  1.00  0.00    -0.000 C 
BRANCH  14  15
ATOM     15  C   UNL     1      50.901  -4.292  77.200  1.00  0.00    -0.000 C 
BRANCH  15  16
ATOM     16  C   UNL     1      50.431  -5.066  78.440  1.00  0.00    -0.000 C 
BRANCH  16  17
ATOM     17  C   UNL     1      49.080  -4.565  78.972  1.00  0.00    -0.003 C 
ATOM     18  C   UNL     1      49.161  -3.153  79.555  1.00  0.00     0.004 C 
ENDBRANCH  16  17
ENDBRANCH  15  16
ENDBRANCH  14  15
ENDBRANCH  13  14
ENDBRANCH  12  13
ENDBRANCH  11  12
ENDBRANCH   1  11
TORSDOF 14
ENDMDL
MODEL 4
REMARK VINA RESULT:    -3.617      3.524      6.072
REMARK INTER + INTRA:          -8.992
REMARK INTER:                  -7.364
REMARK INTRA:                  -1.628
REMARK UNBOUND:                -2.415
REMARK SMILES CCCCCCCCCCCCCCCC(=O)[O-]
REMARK SMILES IDX 9 1 10 2 11 3 12 4 13 5 14 6 15 7 16 8 17 9 18 10 8 11 7 12
REMARK SMILES IDX 6 13 5 14 4 15 3 16 2 17 1 18
REMARK H PARENT
REMARK Flexibility Score: inf
ROOT
ATOM      1  C   UNL     1      48.226  -2.942  76.546  1.00  0.00     0.000 C 
ENDROOT
BRANCH   1   2
ATOM      2  C   UNL     1      49.281  -2.870  75.431  1.00  0.00     0.000 C 
BRANCH   2   3
ATOM      3  C   UNL     1      48.652  -2.416  74.109  1.00  0.00     0.000 C 
BRANCH   3   4
ATOM      4  C   UNL     1      48.643  -0.883  74.001  1.00  0.00     0.000 C 
BRANCH   4   5
ATOM      5  C   UNL     1      48.829  -0.388  72.559  1.00  0.00     0.000 C 
BRANCH   5   6
ATOM      6  C   UNL     1      50.008  -1.072  71.845  1.00  0.00     0.006 C 
BRANCH   6   7
ATOM      7  C   UNL     1      51.344  -0.375  72.137  1.00  0.00     0.053 C 
BRANCH   7   8
ATOM      8  C   UNL     1      52.427  -1.359  72.455  1.00  0.00     0.041 C 
ATOM      9  O   UNL     1      52.225  -2.274  73.297  1.00  0.00    -0.550 OA
ATOM     10  O   UNL     1      53.651  -1.285  71.803  1.00  0.00    -0.550 OA
ENDBRANCH   7   8
ENDBRANCH   6   7
ENDBRANCH   5   6
ENDBRANCH   4   5
ENDBRANCH   3   4
ENDBRANCH   2   3
ENDBRANCH   1   2
BRANCH   1  11
ATOM     11  C   UNL     1      48.732  -2.367  77.880  1.00  0.00     0.000 C 
BRANCH  11  12
ATOM     12  C   UNL     1      50.115  -1.705  77.750  1.00  0.00    -0.000 C 
BRANCH  12  13
ATOM     13  C   UNL     1      51.183  -2.396  78.614  1.00  0.00    -0.000 C 
BRANCH  13  14
ATOM     14  C   UNL     1      50.693  -3.722  79.216  1.00  0.00    -0.000 C 
BRANCH  14  15
ATOM     15  C   UNL     1      51.363  -4.918  78.528  1.00  0.00    -0.000 C 
BRANCH  15  16
ATOM     16  C   UNL     1      50.445  -6.149  78.545  1.00  0.00    -0.000 C 
BRANCH  16  17
ATOM     17  C   UNL     1      48.990  -5.796  78.892  1.00  0.00    -0.003 C 
ATOM     18  C   UNL     1      48.032  -6.969  78.685  1.00  0.00     0.004 C 
ENDBRANCH  16  17
ENDBRANCH  15  16
ENDBRANCH  14  15
ENDBRANCH  13  14
ENDBRANCH  12  13
ENDBRANCH  11  12
ENDBRANCH   1  11
TORSDOF 14
ENDMDL
MODEL 5
REMARK VINA RESULT:    -3.616      1.150      3.400
REMARK INTER + INTRA:          -8.991
REMARK INTER:                  -6.705
REMARK INTRA:                  -2.286
REMARK UNBOUND:                -2.415
REMARK SMILES CCCCCCCCCCCCCCCC(=O)[O-]
REMARK SMILES IDX 9 1 10 2 11 3 12 4 13 5 14 6 15 7 16 8 17 9 18 10 8 11 7 12
REMARK SMILES IDX 6 13 5 14 4 15 3 16 2 17 1 18
REMARK H PARENT
REMARK Flexibility Score: inf
ROOT
ATOM      1  C   UNL     1      48.591  -0.083  74.990  1.00  0.00     0.000 C 
ENDROOT
BRANCH   1   2
ATOM      2  C   UNL     1      48.546  -1.591  75.285  1.00  0.00     0.000 C 
BRANCH   2   3
ATOM      3  C   UNL     1      49.822  -2.048  76.002  1.00  0.00     0.000 C 
BRANCH   3   4
ATOM      4  C   UNL     1      50.467  -3.237  75.273  1.00  0.00     0.000 C 
BRANCH   4   5
ATOM      5  C   UNL     1      49.475  -4.379  75.007  1.00  0.00     0.000 C 
BRANCH   5   6
ATOM      6  C   UNL     1      49.439  -4.799  73.526  1.00  0.00     0.006 C 
BRANCH   6   7
ATOM      7  C   UNL     1      48.127  -4.392  72.841  1.00  0.00     0.053 C 
BRANCH   7   8
ATOM      8  C   UNL     1      47.147  -5.523  72.797  1.00  0.00     0.041 C 
ATOM      9  O   UNL     1      46.984  -6.180  71.735  1.00  0.00    -0.550 OA
ATOM     10  O   UNL     1      46.434  -5.873  73.937  1.00  0.00    -0.550 OA
ENDBRANCH   7   8
ENDBRANCH   6   7
ENDBRANCH   5   6
ENDBRANCH   4   5
ENDBRANCH   3   4
ENDBRANCH   2   3
ENDBRANCH   1   2
BRANCH   1  11
ATOM     11  C   UNL     1      48.244   0.247  73.529  1.00  0.00     0.000 C 
BRANCH  11  12
ATOM     12  C   UNL     1      49.469   0.174  72.600  1.00  0.00    -0.000 C 
BRANCH  12  13
ATOM     13  C   UNL     1      49.469  -1.089  71.722  1.00  0.00    -0.000 C 
BRANCH  13  14
ATOM     14  C   UNL     1      50.756  -1.915  71.871  1.00  0.00    -0.000 C 
BRANCH  14  15
ATOM     15  C   UNL     1      51.874  -1.079  72.507  1.00  0.00    -0.000 C 
BRANCH  15  16
ATOM     16  C   UNL     1      53.244  -1.739  72.294  1.00  0.00    -0.000 C 
BRANCH  16  17
ATOM     17  C   UNL     1      53.700  -2.559  73.511  1.00  0.00    -0.003 C 
ATOM     18  C   UNL     1      53.495  -4.062  73.321  1.00  0.00     0.004 C 
ENDBRANCH  16  17
ENDBRANCH  15  16
ENDBRANCH  14  15
ENDBRANCH  13  14
ENDBRANCH  12  13
ENDBRANCH  11  12
ENDBRANCH   1  11
TORSDOF 14
ENDMDL
MODEL 6
REMARK VINA RESULT:    -3.610      3.334      5.386
REMARK INTER + INTRA:          -8.980
REMARK INTER:                  -6.528
REMARK INTRA:                  -2.452
REMARK UNBOUND:                -2.415
REMARK SMILES CCCCCCCCCCCCCCCC(=O)[O-]
REMARK SMILES IDX 9 1 10 2 11 3 12 4 13 5 14 6 15 7 16 8 17 9 18 10 8 11 7 12
REMARK SMILES IDX 6 13 5 14 4 15 3 16 2 17 1 18
REMARK H PARENT
REMARK Flexibility Score: inf
ROOT
ATOM      1  C   UNL     1      47.829  -4.288  75.436  1.00  0.00     0.000 C 
ENDROOT
BRANCH   1   2
ATOM      2  C   UNL     1      49.123  -4.153  76.254  1.00  0.00     0.000 C 
BRANCH   2   3
ATOM      3  C   UNL     1      49.702  -2.738  76.136  1.00  0.00     0.000 C 
BRANCH   3   4
ATOM      4  C   UNL     1      51.163  -2.778  75.661  1.00  0.00     0.000 C 
BRANCH   4   5
ATOM      5  C   UNL     1      51.533  -4.111  74.993  1.00  0.00     0.000 C 
BRANCH   5   6
ATOM      6  C   UNL     1      52.539  -3.937  73.841  1.00  0.00     0.006 C 
BRANCH   6   7
ATOM      7  C   UNL     1      52.999  -2.480  73.688  1.00  0.00     0.053 C 
BRANCH   7   8
ATOM      8  C   UNL     1      53.686  -2.247  72.379  1.00  0.00     0.041 C 
ATOM      9  O   UNL     1      53.568  -1.140  71.790  1.00  0.00    -0.550 OA
ATOM     10  O   UNL     1      54.480  -3.240  71.821  1.00  0.00    -0.550 OA
ENDBRANCH   7   8
ENDBRANCH   6   7
ENDBRANCH   5   6
ENDBRANCH   4   5
ENDBRANCH   3   4
ENDBRANCH   2   3
ENDBRANCH   1   2
BRANCH   1  11
ATOM     11  C   UNL     1      47.942  -5.332  74.313  1.00  0.00     0.000 C 
BRANCH  11  12
ATOM     12  C   UNL     1      47.823  -4.708  72.912  1.00  0.00    -0.000 C 
BRANCH  12  13
ATOM     13  C   UNL     1      49.049  -3.857  72.539  1.00  0.00    -0.000 C 
BRANCH  13  14
ATOM     14  C   UNL     1      48.753  -2.349  72.559  1.00  0.00    -0.000 C 
BRANCH  14  15
ATOM     15  C   UNL     1      49.902  -1.557  71.923  1.00  0.00    -0.000 C 
BRANCH  15  16
ATOM     16  C   UNL     1      50.202  -0.283  72.726  1.00  0.00    -0.000 C 
BRANCH  16  17
ATOM     17  C   UNL     1      49.085   0.065  73.721  1.00  0.00    -0.003 C 
ATOM     18  C   UNL     1      48.289   1.303  73.306  1.00  0.00     0.004 C 
ENDBRANCH  16  17
ENDBRANCH  15  16
ENDBRANCH  14  15
ENDBRANCH  13  14
ENDBRANCH  12  13
ENDBRANCH  11  12
ENDBRANCH   1  11
TORSDOF 14
ENDMDL
MODEL 7
REMARK VINA RESULT:    -3.561      2.979      5.744
REMARK INTER + INTRA:          -8.891
REMARK INTER:                  -7.038
REMARK INTRA:                  -1.853
REMARK UNBOUND:                -2.415
REMARK SMILES CCCCCCCCCCCCCCCC(=O)[O-]
REMARK SMILES IDX 9 1 10 2 11 3 12 4 13 5 14 6 15 7 16 8 17 9 18 10 8 11 7 12
REMARK SMILES IDX 6 13 5 14 4 15 3 16 2 17 1 18
REMARK H PARENT
REMARK Flexibility Score: inf
ROOT
ATOM      1  C   UNL     1      47.831  -1.292  75.822  1.00  0.00     0.000 C 
ENDROOT
BRANCH   1   2
ATOM      2  C   UNL     1      48.160   0.189  75.574  1.00  0.00     0.000 C 
BRANCH   2   3
ATOM      3  C   UNL     1      47.693   0.629  74.181  1.00  0.00     0.000 C 
BRANCH   3   4
ATOM      4  C   UNL     1      48.841   0.545  73.164  1.00  0.00     0.000 C 
BRANCH   4   5
ATOM      5  C   UNL     1      48.673  -0.617  72.173  1.00  0.00     0.000 C 
BRANCH   5   6
ATOM      6  C   UNL     1      50.015  -1.261  71.782  1.00  0.00     0.006 C 
BRANCH   6   7
ATOM      7  C   UNL     1      51.215  -0.409  72.218  1.00  0.00     0.053 C 
BRANCH   7   8
ATOM      8  C   UNL     1      52.485  -1.203  72.234  1.00  0.00     0.041 C 
ATOM      9  O   UNL     1      52.542  -2.294  72.860  1.00  0.00    -0.550 OA
ATOM     10  O   UNL     1      53.597  -0.754  71.534  1.00  0.00    -0.550 OA
ENDBRANCH   7   8
ENDBRANCH   6   7
ENDBRANCH   5   6
ENDBRANCH   4   5
ENDBRANCH   3   4
ENDBRANCH   2   3
ENDBRANCH   1   2
BRANCH   1  11
ATOM     11  C   UNL     1      49.071  -2.122  76.191  1.00  0.00     0.000 C 
BRANCH  11  12
ATOM     12  C   UNL     1      49.752  -2.746  74.959  1.00  0.00    -0.000 C 
BRANCH  12  13
ATOM     13  C   UNL     1      49.193  -4.136  74.617  1.00  0.00    -0.000 C 
BRANCH  13  14
ATOM     14  C   UNL     1      48.268  -4.118  73.389  1.00  0.00    -0.000 C 
BRANCH  14  15
ATOM     15  C   UNL     1      47.067  -5.049  73.594  1.00  0.00    -0.000 C 
BRANCH  15  16
ATOM     16  C   UNL     1      46.866  -5.370  75.082  1.00  0.00    -0.000 C 
BRANCH  16  17
ATOM     17  C   UNL     1      45.391  -5.613  75.440  1.00  0.00    -0.003 C 
ATOM     18  C   UNL     1      44.472  -5.571  74.219  1.00  0.00     0.004 C 
ENDBRANCH  16  17
ENDBRANCH  15  16
ENDBRANCH  14  15
ENDBRANCH  13  14
ENDBRANCH  12  13
ENDBRANCH  11  12
ENDBRANCH   1  11
TORSDOF 14
ENDMDL
MODEL 8
REMARK VINA RESULT:    -3.559      2.817      4.169
REMARK INTER + INTRA:          -8.887
REMARK INTER:                  -6.843
REMARK INTRA:                  -2.044
REMARK UNBOUND:                -2.415
REMARK SMILES CCCCCCCCCCCCCCCC(=O)[O-]
REMARK SMILES IDX 9 1 10 2 11 3 12 4 13 5 14 6 15 7 16 8 17 9 18 10 8 11 7 12
REMARK SMILES IDX 6 13 5 14 4 15 3 16 2 17 1 18
REMARK H PARENT
REMARK Flexibility Score: inf
ROOT
ATOM      1  C   UNL     1      52.765  -2.773  73.749  1.00  0.00     0.000 C 
ENDROOT
BRANCH   1   2
ATOM      2  C   UNL     1      52.344  -4.242  73.587  1.00  0.00     0.000 C 
BRANCH   2   3
ATOM      3  C   UNL     1      51.739  -4.786  74.887  1.00  0.00     0.000 C 
BRANCH   3   4
ATOM      4  C   UNL     1      51.151  -3.650  75.738  1.00  0.00     0.000 C 
BRANCH   4   5
ATOM      5  C   UNL     1      49.971  -4.108  76.607  1.00  0.00     0.000 C 
BRANCH   5   6
ATOM      6  C   UNL     1      50.312  -4.128  78.108  1.00  0.00     0.006 C 
BRANCH   6   7
ATOM      7  C   UNL     1      50.498  -5.555  78.641  1.00  0.00     0.053 C 
BRANCH   7   8
ATOM      8  C   UNL     1      49.190  -6.268  78.793  1.00  0.00     0.041 C 
ATOM      9  O   UNL     1      48.171  -5.644  79.193  1.00  0.00    -0.550 OA
ATOM     10  O   UNL     1      49.086  -7.613  78.464  1.00  0.00    -0.550 OA
ENDBRANCH   7   8
ENDBRANCH   6   7
ENDBRANCH   5   6
ENDBRANCH   4   5
ENDBRANCH   3   4
ENDBRANCH   2   3
ENDBRANCH   1   2
BRANCH   1  11
ATOM     11  C   UNL     1      52.939  -2.052  72.402  1.00  0.00     0.000 C 
BRANCH  11  12
ATOM     12  C   UNL     1      51.963  -0.875  72.231  1.00  0.00    -0.000 C 
BRANCH  12  13
ATOM     13  C   UNL     1      50.517  -1.339  71.990  1.00  0.00    -0.000 C 
BRANCH  13  14
ATOM     14  C   UNL     1      49.563  -0.920  73.120  1.00  0.00    -0.000 C 
BRANCH  14  15
ATOM     15  C   UNL     1      48.686  -2.098  73.562  1.00  0.00    -0.000 C 
BRANCH  15  16
ATOM     16  C   UNL     1      48.883  -3.308  72.637  1.00  0.00    -0.000 C 
BRANCH  16  17
ATOM     17  C   UNL     1      48.395  -4.620  73.270  1.00  0.00    -0.003 C 
ATOM     18  C   UNL     1      47.560  -5.466  72.307  1.00  0.00     0.004 C 
ENDBRANCH  16  17
ENDBRANCH  15  16
ENDBRANCH  14  15
ENDBRANCH  13  14
ENDBRANCH  12  13
ENDBRANCH  11  12
ENDBRANCH   1  11
TORSDOF 14
ENDMDL
MODEL 9
REMARK VINA RESULT:    -3.518      3.135      5.052
REMARK INTER + INTRA:          -8.812
REMARK INTER:                  -6.634
REMARK INTRA:                  -2.179
REMARK UNBOUND:                -2.415
REMARK SMILES CCCCCCCCCCCCCCCC(=O)[O-]
REMARK SMILES IDX 9 1 10 2 11 3 12 4 13 5 14 6 15 7 16 8 17 9 18 10 8 11 7 12
REMARK SMILES IDX 6 13 5 14 4 15 3 16 2 17 1 18
REMARK H PARENT
REMARK Flexibility Score: inf
ROOT
ATOM      1  C   UNL     1      49.094   0.427  73.572  1.00  0.00     0.000 C 
ENDROOT
BRANCH   1   2
ATOM      2  C   UNL     1      48.634   0.020  74.981  1.00  0.00     0.000 C 
BRANCH   2   3
ATOM      3  C   UNL     1      48.921  -1.463  75.246  1.00  0.00     0.000 C 
BRANCH   3   4
ATOM      4  C   UNL     1      47.668  -2.180  75.772  1.00  0.00     0.000 C 
BRANCH   4   5
ATOM      5  C   UNL     1      47.994  -3.511  76.466  1.00  0.00     0.000 C 
BRANCH   5   6
ATOM      6  C   UNL     1      49.506  -3.718  76.670  1.00  0.00     0.006 C 
BRANCH   6   7
ATOM      7  C   UNL     1      49.814  -4.518  77.943  1.00  0.00     0.053 C 
BRANCH   7   8
ATOM      8  C   UNL     1      50.336  -3.641  79.040  1.00  0.00     0.041 C 
ATOM      9  O   UNL     1      49.537  -3.067  79.825  1.00  0.00    -0.550 OA
ATOM     10  O   UNL     1      51.705  -3.481  79.213  1.00  0.00    -0.550 OA
ENDBRANCH   7   8
ENDBRANCH   6   7
ENDBRANCH   5   6
ENDBRANCH   4   5
ENDBRANCH   3   4
ENDBRANCH   2   3
ENDBRANCH   1   2
BRANCH   1  11
ATOM     11  C   UNL     1      48.607  -0.545  72.484  1.00  0.00     0.000 C 
BRANCH  11  12
ATOM     12  C   UNL     1      49.745  -1.013  71.559  1.00  0.00    -0.000 C 
BRANCH  12  13
ATOM     13  C   UNL     1      51.094  -1.117  72.289  1.00  0.00    -0.000 C 
BRANCH  13  14
ATOM     14  C   UNL     1      51.365  -2.527  72.837  1.00  0.00    -0.000 C 
BRANCH  14  15
ATOM     15  C   UNL     1      50.568  -3.581  72.058  1.00  0.00    -0.000 C 
BRANCH  15  16
ATOM     16  C   UNL     1      49.689  -4.414  73.002  1.00  0.00    -0.000 C 
BRANCH  16  17
ATOM     17  C   UNL     1      48.188  -4.220  72.736  1.00  0.00    -0.003 C 
ATOM     18  C   UNL     1      47.407  -5.535  72.767  1.00  0.00     0.004 C 
ENDBRANCH  16  17
ENDBRANCH  15  16
ENDBRANCH  14  15
ENDBRANCH  13  14
ENDBRANCH  12  13
ENDBRANCH  11  12
ENDBRANCH   1  11
TORSDOF 14
ENDMDL
