MODEL 1
REMARK VINA RESULT:    -6.738      0.000      0.000
REMARK INTER + INTRA:          -8.200
REMARK INTER:                  -7.920
REMARK INTRA:                  -0.280
REMARK UNBOUND:                -0.280
REMARK SMILES O=c1c(O)c(-c2ccc(O)cc2)oc2cc(O)cc(O)c12
REMARK SMILES IDX 5 1 3 2 2 3 1 4 21 5 19 6 18 7 16 8 15 9 14 10 13 11 6 12
REMARK SMILES IDX 7 13 8 14 9 15 12 16 11 17 10 18 4 20 20 22 17 24
REMARK H PARENT 10 19 4 21 20 23 17 25
REMARK Flexibility Score: inf
ROOT
ATOM      1  C   UNL     1       9.929  12.258 -17.133  1.00  0.00     0.180 A 
ATOM      2  C   UNL     1      10.730  13.327 -16.696  1.00  0.00     0.208 A 
ATOM      3  C   UNL     1      10.762  14.508 -17.455  1.00  0.00     0.238 A 
ATOM      4  O   UNL     1      11.521  15.442 -17.088  1.00  0.00    -0.285 OA
ATOM      5  C   UNL     1       9.981  14.611 -18.631  1.00  0.00     0.111 A 
ATOM      6  C   UNL     1       9.904  15.774 -19.455  1.00  0.00     0.134 A 
ATOM      7  C   UNL     1       9.203  15.719 -20.665  1.00  0.00     0.093 A 
ATOM      8  C   UNL     1       8.520  14.565 -21.050  1.00  0.00     0.123 A 
ATOM      9  C   UNL     1       8.538  13.442 -20.223  1.00  0.00     0.094 A 
ATOM     10  C   UNL     1       9.260  13.455 -19.027  1.00  0.00     0.146 A 
ATOM     11  O   UNL     1       9.260  12.361 -18.275  1.00  0.00    -0.452 OA
ENDROOT
BRANCH   1  12
ATOM     12  C   UNL     1       9.824  10.991 -16.373  1.00  0.00     0.021 A 
ATOM     13  C   UNL     1      10.773   9.963 -16.528  1.00  0.00     0.016 A 
ATOM     14  C   UNL     1      10.665   8.785 -15.782  1.00  0.00     0.047 A 
ATOM     15  C   UNL     1       9.622   8.623 -14.865  1.00  0.00     0.115 A 
ATOM     16  C   UNL     1       8.790  10.830 -15.436  1.00  0.00     0.016 A 
ATOM     17  C   UNL     1       8.686   9.651 -14.692  1.00  0.00     0.047 A 
BRANCH  15  18
ATOM     18  O   UNL     1       9.529   7.444 -14.130  1.00  0.00    -0.508 OA
ATOM     19  H   UNL     1       8.822   7.322 -13.415  1.00  0.00     0.293 HD
ENDBRANCH  15  18
ENDBRANCH   1  12
BRANCH   2  20
ATOM     20  O   UNL     1      11.510  13.197 -15.544  1.00  0.00    -0.502 OA
ATOM     21  H   UNL     1      12.465  13.530 -15.493  1.00  0.00     0.293 HD
ENDBRANCH   2  20
BRANCH   6  22
ATOM     22  O   UNL     1      10.474  17.006 -19.120  1.00  0.00    -0.507 OA
ATOM     23  H   UNL     1       9.953  17.819 -18.826  1.00  0.00     0.293 HD
ENDBRANCH   6  22
BRANCH   8  24
ATOM     24  O   UNL     1       7.818  14.552 -22.253  1.00  0.00    -0.508 OA
ATOM     25  H   UNL     1       6.808  14.629 -22.278  1.00  0.00     0.293 HD
ENDBRANCH   8  24
TORSDOF 5
ENDMDL
MODEL 2
REMARK VINA RESULT:    -6.685      2.883      7.498
REMARK INTER + INTRA:          -8.137
REMARK INTER:                  -7.880
REMARK INTRA:                  -0.257
REMARK UNBOUND:                -0.280
REMARK SMILES O=c1c(O)c(-c2ccc(O)cc2)oc2cc(O)cc(O)c12
REMARK SMILES IDX 5 1 3 2 2 3 1 4 21 5 19 6 18 7 16 8 15 9 14 10 13 11 6 12
REMARK SMILES IDX 7 13 8 14 9 15 12 16 11 17 10 18 4 20 20 22 17 24
REMARK H PARENT 10 19 4 21 20 23 17 25
REMARK Flexibility Score: inf
ROOT
ATOM      1  C   UNL     1       8.905  16.625 -19.198  1.00  0.00     0.180 A 
ATOM      2  C   UNL     1       8.697  16.232 -20.531  1.00  0.00     0.208 A 
ATOM      3  C   UNL     1       8.818  14.873 -20.867  1.00  0.00     0.238 A 
ATOM      4  O   UNL     1       8.683  14.534 -22.072  1.00  0.00    -0.285 OA
ATOM      5  C   UNL     1       9.128  13.924 -19.864  1.00  0.00     0.111 A 
ATOM      6  C   UNL     1       9.233  12.518 -20.083  1.00  0.00     0.134 A 
ATOM      7  C   UNL     1       9.674  11.688 -19.045  1.00  0.00     0.093 A 
ATOM      8  C   UNL     1       9.948  12.203 -17.778  1.00  0.00     0.123 A 
ATOM      9  C   UNL     1       9.790  13.568 -17.536  1.00  0.00     0.094 A 
ATOM     10  C   UNL     1       9.387  14.426 -18.562  1.00  0.00     0.146 A 
ATOM     11  O   UNL     1       9.260  15.720 -18.293  1.00  0.00    -0.452 OA
ENDROOT
BRANCH   1  12
ATOM     12  C   UNL     1       8.772  18.034 -18.763  1.00  0.00     0.021 A 
ATOM     13  C   UNL     1       7.621  18.488 -18.091  1.00  0.00     0.016 A 
ATOM     14  C   UNL     1       7.529  19.818 -17.669  1.00  0.00     0.047 A 
ATOM     15  C   UNL     1       8.584  20.705 -17.898  1.00  0.00     0.115 A 
ATOM     16  C   UNL     1       9.837  18.926 -18.972  1.00  0.00     0.016 A 
ATOM     17  C   UNL     1       9.740  20.255 -18.548  1.00  0.00     0.047 A 
BRANCH  15  18
ATOM     18  O   UNL     1       8.476  22.027 -17.471  1.00  0.00    -0.508 OA
ATOM     19  H   UNL     1       9.290  22.627 -17.399  1.00  0.00     0.293 HD
ENDBRANCH  15  18
ENDBRANCH   1  12
BRANCH   2  20
ATOM     20  O   UNL     1       8.414  17.187 -21.511  1.00  0.00    -0.502 OA
ATOM     21  H   UNL     1       8.829  18.110 -21.507  1.00  0.00     0.293 HD
ENDBRANCH   2  20
BRANCH   6  22
ATOM     22  O   UNL     1       8.896  11.888 -21.284  1.00  0.00    -0.507 OA
ATOM     23  H   UNL     1       8.357  12.312 -22.024  1.00  0.00     0.293 HD
ENDBRANCH   6  22
BRANCH   8  24
ATOM     24  O   UNL     1      10.369  11.346 -16.764  1.00  0.00    -0.508 OA
ATOM     25  H   UNL     1      11.341  11.076 -16.668  1.00  0.00     0.293 HD
ENDBRANCH   8  24
TORSDOF 5
ENDMDL
MODEL 3
REMARK VINA RESULT:    -6.487      2.009      6.975
REMARK INTER + INTRA:          -7.904
REMARK INTER:                  -7.975
REMARK INTRA:                   0.070
REMARK UNBOUND:                -0.280
REMARK SMILES O=c1c(O)c(-c2ccc(O)cc2)oc2cc(O)cc(O)c12
REMARK SMILES IDX 5 1 3 2 2 3 1 4 21 5 19 6 18 7 16 8 15 9 14 10 13 11 6 12
REMARK SMILES IDX 7 13 8 14 9 15 12 16 11 17 10 18 4 20 20 22 17 24
REMARK H PARENT 10 19 4 21 20 23 17 25
REMARK Flexibility Score: inf
ROOT
ATOM      1  C   UNL     1       9.073  13.030 -18.789  1.00  0.00     0.180 A 
ATOM      2  C   UNL     1       9.489  11.730 -19.123  1.00  0.00     0.208 A 
ATOM      3  C   UNL     1       9.509  10.744 -18.123  1.00  0.00     0.238 A 
ATOM      4  O   UNL     1       9.932   9.595 -18.414  1.00  0.00    -0.285 OA
ATOM      5  C   UNL     1       9.096  11.066 -16.808  1.00  0.00     0.111 A 
ATOM      6  C   UNL     1       9.036  10.137 -15.726  1.00  0.00     0.134 A 
ATOM      7  C   UNL     1       8.740  10.595 -14.437  1.00  0.00     0.093 A 
ATOM      8  C   UNL     1       8.436  11.936 -14.201  1.00  0.00     0.123 A 
ATOM      9  C   UNL     1       8.432  12.842 -15.262  1.00  0.00     0.094 A 
ATOM     10  C   UNL     1       8.760  12.421 -16.553  1.00  0.00     0.146 A 
ATOM     11  O   UNL     1       8.756  13.317 -17.533  1.00  0.00    -0.452 OA
ENDROOT
BRANCH   1  12
ATOM     12  C   UNL     1       9.002  14.116 -19.794  1.00  0.00     0.021 A 
ATOM     13  C   UNL     1       8.432  13.904 -21.063  1.00  0.00     0.016 A 
ATOM     14  C   UNL     1       8.355  14.952 -21.986  1.00  0.00     0.047 A 
ATOM     15  C   UNL     1       8.832  16.223 -21.651  1.00  0.00     0.115 A 
ATOM     16  C   UNL     1       9.460  15.401 -19.457  1.00  0.00     0.016 A 
ATOM     17  C   UNL     1       9.382  16.446 -20.382  1.00  0.00     0.047 A 
BRANCH  15  18
ATOM     18  O   UNL     1       8.748  17.256 -22.582  1.00  0.00    -0.508 OA
ATOM     19  H   UNL     1       9.134  17.161 -23.514  1.00  0.00     0.293 HD
ENDBRANCH  15  18
ENDBRANCH   1  12
BRANCH   2  20
ATOM     20  O   UNL     1       9.913  11.437 -20.422  1.00  0.00    -0.502 OA
ATOM     21  H   UNL     1      10.386  12.115 -21.006  1.00  0.00     0.293 HD
ENDBRANCH   2  20
BRANCH   6  22
ATOM     22  O   UNL     1       9.233   8.760 -15.868  1.00  0.00    -0.507 OA
ATOM     23  H   UNL     1       8.641   8.148 -16.409  1.00  0.00     0.293 HD
ENDBRANCH   6  22
BRANCH   8  24
ATOM     24  O   UNL     1       8.129  12.354 -12.908  1.00  0.00    -0.508 OA
ATOM     25  H   UNL     1       7.421  13.059 -12.733  1.00  0.00     0.293 HD
ENDBRANCH   8  24
TORSDOF 5
ENDMDL
MODEL 4
REMARK VINA RESULT:    -6.445      1.289      3.179
REMARK INTER + INTRA:          -7.855
REMARK INTER:                  -7.566
REMARK INTRA:                  -0.289
REMARK UNBOUND:                -0.280
REMARK SMILES O=c1c(O)c(-c2ccc(O)cc2)oc2cc(O)cc(O)c12
REMARK SMILES IDX 5 1 3 2 2 3 1 4 21 5 19 6 18 7 16 8 15 9 14 10 13 11 6 12
REMARK SMILES IDX 7 13 8 14 9 15 12 16 11 17 10 18 4 20 20 22 17 24
REMARK H PARENT 10 19 4 21 20 23 17 25
REMARK Flexibility Score: inf
ROOT
ATOM      1  C   UNL     1       9.085  11.880 -18.010  1.00  0.00     0.180 A 
ATOM      2  C   UNL     1       8.278  11.603 -19.126  1.00  0.00     0.208 A 
ATOM      3  C   UNL     1       8.077  12.606 -20.087  1.00  0.00     0.238 A 
ATOM      4  O   UNL     1       7.310  12.370 -21.057  1.00  0.00    -0.285 OA
ATOM      5  C   UNL     1       8.699  13.868 -19.929  1.00  0.00     0.111 A 
ATOM      6  C   UNL     1       8.598  14.944 -20.861  1.00  0.00     0.134 A 
ATOM      7  C   UNL     1       9.147  16.191 -20.539  1.00  0.00     0.093 A 
ATOM      8  C   UNL     1       9.849  16.383 -19.349  1.00  0.00     0.123 A 
ATOM      9  C   UNL     1      10.005  15.321 -18.458  1.00  0.00     0.094 A 
ATOM     10  C   UNL     1       9.438  14.075 -18.735  1.00  0.00     0.146 A 
ATOM     11  O   UNL     1       9.600  13.094 -17.856  1.00  0.00    -0.452 OA
ENDROOT
BRANCH   1  12
ATOM     12  C   UNL     1       9.363  10.866 -16.967  1.00  0.00     0.021 A 
ATOM     13  C   UNL     1       8.516  10.705 -15.856  1.00  0.00     0.016 A 
ATOM     14  C   UNL     1       8.787   9.724 -14.896  1.00  0.00     0.047 A 
ATOM     15  C   UNL     1       9.895   8.885 -15.041  1.00  0.00     0.115 A 
ATOM     16  C   UNL     1      10.464  10.005 -17.116  1.00  0.00     0.016 A 
ATOM     17  C   UNL     1      10.732   9.026 -16.155  1.00  0.00     0.047 A 
BRANCH  15  18
ATOM     18  O   UNL     1      10.152   7.913 -14.076  1.00  0.00    -0.508 OA
ATOM     19  H   UNL     1      10.680   7.076 -14.297  1.00  0.00     0.293 HD
ENDBRANCH  15  18
ENDBRANCH   1  12
BRANCH   2  20
ATOM     20  O   UNL     1       7.655  10.358 -19.252  1.00  0.00    -0.502 OA
ATOM     21  H   UNL     1       6.837  10.215 -19.831  1.00  0.00     0.293 HD
ENDBRANCH   2  20
BRANCH   6  22
ATOM     22  O   UNL     1       7.997  14.834 -22.119  1.00  0.00    -0.507 OA
ATOM     23  H   UNL     1       8.498  14.781 -22.993  1.00  0.00     0.293 HD
ENDBRANCH   6  22
BRANCH   8  24
ATOM     24  O   UNL     1      10.397  17.633 -19.069  1.00  0.00    -0.508 OA
ATOM     25  H   UNL     1      10.186  18.444 -19.640  1.00  0.00     0.293 HD
ENDBRANCH   8  24
TORSDOF 5
ENDMDL
MODEL 5
REMARK VINA RESULT:    -5.942      2.159      2.848
REMARK INTER + INTRA:          -7.264
REMARK INTER:                  -7.427
REMARK INTRA:                   0.163
REMARK UNBOUND:                -0.280
REMARK SMILES O=c1c(O)c(-c2ccc(O)cc2)oc2cc(O)cc(O)c12
REMARK SMILES IDX 5 1 3 2 2 3 1 4 21 5 19 6 18 7 16 8 15 9 14 10 13 11 6 12
REMARK SMILES IDX 7 13 8 14 9 15 12 16 11 17 10 18 4 20 20 22 17 24
REMARK H PARENT 10 19 4 21 20 23 17 25
REMARK Flexibility Score: inf
ROOT
ATOM      1  C   UNL     1       8.489  11.277 -15.238  1.00  0.00     0.180 A 
ATOM      2  C   UNL     1       8.934  12.557 -14.867  1.00  0.00     0.208 A 
ATOM      3  C   UNL     1       9.302  13.467 -15.872  1.00  0.00     0.238 A 
ATOM      4  O   UNL     1       9.750  14.593 -15.533  1.00  0.00    -0.285 OA
ATOM      5  C   UNL     1       9.204  13.091 -17.233  1.00  0.00     0.111 A 
ATOM      6  C   UNL     1       9.511  13.945 -18.335  1.00  0.00     0.134 A 
ATOM      7  C   UNL     1       9.505  13.426 -19.635  1.00  0.00     0.093 A 
ATOM      8  C   UNL     1       9.139  12.102 -19.880  1.00  0.00     0.123 A 
ATOM      9  C   UNL     1       8.779  11.275 -18.816  1.00  0.00     0.094 A 
ATOM     10  C   UNL     1       8.811  11.754 -17.504  1.00  0.00     0.146 A 
ATOM     11  O   UNL     1       8.472  10.931 -16.519  1.00  0.00    -0.452 OA
ENDROOT
BRANCH   1  12
ATOM     12  C   UNL     1       8.060  10.272 -14.238  1.00  0.00     0.021 A 
ATOM     13  C   UNL     1       8.472   8.929 -14.324  1.00  0.00     0.016 A 
ATOM     14  C   UNL     1       8.073   8.005 -13.353  1.00  0.00     0.047 A 
ATOM     15  C   UNL     1       7.273   8.409 -12.281  1.00  0.00     0.115 A 
ATOM     16  C   UNL     1       7.272  10.675 -13.146  1.00  0.00     0.016 A 
ATOM     17  C   UNL     1       6.875   9.748 -12.178  1.00  0.00     0.047 A 
BRANCH  15  18
ATOM     18  O   UNL     1       6.883   7.475 -11.323  1.00  0.00    -0.508 OA
ATOM     19  H   UNL     1       7.337   7.426 -10.419  1.00  0.00     0.293 HD
ENDBRANCH  15  18
ENDBRANCH   1  12
BRANCH   2  20
ATOM     20  O   UNL     1       9.043  12.901 -13.518  1.00  0.00    -0.502 OA
ATOM     21  H   UNL     1       8.915  12.229 -12.772  1.00  0.00     0.293 HD
ENDBRANCH   2  20
BRANCH   6  22
ATOM     22  O   UNL     1       9.800  15.307 -18.209  1.00  0.00    -0.507 OA
ATOM     23  H   UNL     1      10.720  15.710 -18.306  1.00  0.00     0.293 HD
ENDBRANCH   6  22
BRANCH   8  24
ATOM     24  O   UNL     1       9.127  11.624 -21.188  1.00  0.00    -0.508 OA
ATOM     25  H   UNL     1       8.466  11.972 -21.874  1.00  0.00     0.293 HD
ENDBRANCH   8  24
TORSDOF 5
ENDMDL
MODEL 6
REMARK VINA RESULT:    -5.924      1.545      1.616
REMARK INTER + INTRA:          -7.243
REMARK INTER:                  -6.953
REMARK INTRA:                  -0.290
REMARK UNBOUND:                -0.280
REMARK SMILES O=c1c(O)c(-c2ccc(O)cc2)oc2cc(O)cc(O)c12
REMARK SMILES IDX 5 1 3 2 2 3 1 4 21 5 19 6 18 7 16 8 15 9 14 10 13 11 6 12
REMARK SMILES IDX 7 13 8 14 9 15 12 16 11 17 10 18 4 20 20 22 17 24
REMARK H PARENT 10 19 4 21 20 23 17 25
REMARK Flexibility Score: inf
ROOT
ATOM      1  C   UNL     1       8.972  12.574 -18.240  1.00  0.00     0.180 A 
ATOM      2  C   UNL     1       9.758  13.493 -17.526  1.00  0.00     0.208 A 
ATOM      3  C   UNL     1      10.043  14.740 -18.105  1.00  0.00     0.238 A 
ATOM      4  O   UNL     1      10.791  15.539 -17.484  1.00  0.00    -0.285 OA
ATOM      5  C   UNL     1       9.524  15.058 -19.383  1.00  0.00     0.111 A 
ATOM      6  C   UNL     1       9.714  16.307 -20.049  1.00  0.00     0.134 A 
ATOM      7  C   UNL     1       9.267  16.463 -21.366  1.00  0.00     0.093 A 
ATOM      8  C   UNL     1       8.578  15.441 -22.019  1.00  0.00     0.123 A 
ATOM      9  C   UNL     1       8.334  14.237 -21.357  1.00  0.00     0.094 A 
ATOM     10  C   UNL     1       8.800  14.039 -20.055  1.00  0.00     0.146 A 
ATOM     11  O   UNL     1       8.556  12.875 -19.464  1.00  0.00    -0.452 OA
ENDROOT
BRANCH   1  12
ATOM     12  C   UNL     1       8.609  11.250 -17.685  1.00  0.00     0.021 A 
ATOM     13  C   UNL     1       9.420  10.119 -17.896  1.00  0.00     0.016 A 
ATOM     14  C   UNL     1       9.068   8.884 -17.341  1.00  0.00     0.047 A 
ATOM     15  C   UNL     1       7.914   8.765 -16.561  1.00  0.00     0.115 A 
ATOM     16  C   UNL     1       7.462  11.127 -16.883  1.00  0.00     0.016 A 
ATOM     17  C   UNL     1       7.113   9.891 -16.330  1.00  0.00     0.047 A 
BRANCH  15  18
ATOM     18  O   UNL     1       7.577   7.528 -16.015  1.00  0.00    -0.508 OA
ATOM     19  H   UNL     1       7.163   7.452 -15.094  1.00  0.00     0.293 HD
ENDBRANCH  15  18
ENDBRANCH   1  12
BRANCH   2  20
ATOM     20  O   UNL     1      10.279  13.152 -16.275  1.00  0.00    -0.502 OA
ATOM     21  H   UNL     1       9.765  12.593 -15.605  1.00  0.00     0.293 HD
ENDBRANCH   2  20
BRANCH   6  22
ATOM     22  O   UNL     1      10.309  17.424 -19.455  1.00  0.00    -0.507 OA
ATOM     23  H   UNL     1      11.265  17.464 -19.134  1.00  0.00     0.293 HD
ENDBRANCH   6  22
BRANCH   8  24
ATOM     24  O   UNL     1       8.132  15.637 -23.324  1.00  0.00    -0.508 OA
ATOM     25  H   UNL     1       7.668  14.899 -23.842  1.00  0.00     0.293 HD
ENDBRANCH   8  24
TORSDOF 5
ENDMDL
MODEL 7
REMARK VINA RESULT:    -5.836      2.557      7.234
REMARK INTER + INTRA:          -7.139
REMARK INTER:                  -6.866
REMARK INTRA:                  -0.273
REMARK UNBOUND:                -0.280
REMARK SMILES O=c1c(O)c(-c2ccc(O)cc2)oc2cc(O)cc(O)c12
REMARK SMILES IDX 5 1 3 2 2 3 1 4 21 5 19 6 18 7 16 8 15 9 14 10 13 11 6 12
REMARK SMILES IDX 7 13 8 14 9 15 12 16 11 17 10 18 4 20 20 22 17 24
REMARK H PARENT 10 19 4 21 20 23 17 25
REMARK Flexibility Score: inf
ROOT
ATOM      1  C   UNL     1       8.349  15.248 -18.654  1.00  0.00     0.180 A 
ATOM      2  C   UNL     1       8.031  14.560 -19.837  1.00  0.00     0.208 A 
ATOM      3  C   UNL     1       7.877  13.165 -19.793  1.00  0.00     0.238 A 
ATOM      4  O   UNL     1       7.645  12.548 -20.865  1.00  0.00    -0.285 OA
ATOM      5  C   UNL     1       8.027  12.479 -18.564  1.00  0.00     0.111 A 
ATOM      6  C   UNL     1       7.853  11.072 -18.395  1.00  0.00     0.134 A 
ATOM      7  C   UNL     1       8.155  10.482 -17.162  1.00  0.00     0.093 A 
ATOM      8  C   UNL     1       8.560  11.255 -16.074  1.00  0.00     0.123 A 
ATOM      9  C   UNL     1       8.675  12.638 -16.211  1.00  0.00     0.094 A 
ATOM     10  C   UNL     1       8.416  13.251 -17.439  1.00  0.00     0.146 A 
ATOM     11  O   UNL     1       8.548  14.569 -17.531  1.00  0.00    -0.452 OA
ENDROOT
BRANCH   1  12
ATOM     12  C   UNL     1       8.502  16.721 -18.616  1.00  0.00     0.021 A 
ATOM     13  C   UNL     1       9.709  17.342 -18.989  1.00  0.00     0.016 A 
ATOM     14  C   UNL     1       9.822  18.736 -18.968  1.00  0.00     0.047 A 
ATOM     15  C   UNL     1       8.732  19.525 -18.589  1.00  0.00     0.115 A 
ATOM     16  C   UNL     1       7.405  17.522 -18.256  1.00  0.00     0.016 A 
ATOM     17  C   UNL     1       7.522  18.915 -18.236  1.00  0.00     0.047 A 
BRANCH  15  18
ATOM     18  O   UNL     1       8.860  20.912 -18.572  1.00  0.00    -0.508 OA
ATOM     19  H   UNL     1       9.763  21.358 -18.460  1.00  0.00     0.293 HD
ENDBRANCH  15  18
ENDBRANCH   1  12
BRANCH   2  20
ATOM     20  O   UNL     1       7.909  15.254 -21.044  1.00  0.00    -0.502 OA
ATOM     21  H   UNL     1       7.928  16.265 -21.095  1.00  0.00     0.293 HD
ENDBRANCH   2  20
BRANCH   6  22
ATOM     22  O   UNL     1       7.365  10.220 -19.391  1.00  0.00    -0.507 OA
ATOM     23  H   UNL     1       7.756  10.136 -20.317  1.00  0.00     0.293 HD
ENDBRANCH   6  22
BRANCH   8  24
ATOM     24  O   UNL     1       8.836  10.636 -14.856  1.00  0.00    -0.508 OA
ATOM     25  H   UNL     1       9.776  10.343 -14.612  1.00  0.00     0.293 HD
ENDBRANCH   8  24
TORSDOF 5
ENDMDL
MODEL 8
REMARK VINA RESULT:    -5.778      1.969      6.822
REMARK INTER + INTRA:          -7.071
REMARK INTER:                  -6.857
REMARK INTRA:                  -0.214
REMARK UNBOUND:                -0.280
REMARK SMILES O=c1c(O)c(-c2ccc(O)cc2)oc2cc(O)cc(O)c12
REMARK SMILES IDX 5 1 3 2 2 3 1 4 21 5 19 6 18 7 16 8 15 9 14 10 13 11 6 12
REMARK SMILES IDX 7 13 8 14 9 15 12 16 11 17 10 18 4 20 20 22 17 24
REMARK H PARENT 10 19 4 21 20 23 17 25
REMARK Flexibility Score: inf
ROOT
ATOM      1  C   UNL     1       8.837  13.223 -18.379  1.00  0.00     0.180 A 
ATOM      2  C   UNL     1       7.868  13.318 -17.366  1.00  0.00     0.208 A 
ATOM      3  C   UNL     1       7.892  12.391 -16.312  1.00  0.00     0.238 A 
ATOM      4  O   UNL     1       6.991  12.448 -15.435  1.00  0.00    -0.285 OA
ATOM      5  C   UNL     1       8.894  11.391 -16.276  1.00  0.00     0.111 A 
ATOM      6  C   UNL     1       9.039  10.425 -15.235  1.00  0.00     0.134 A 
ATOM      7  C   UNL     1       9.984   9.401 -15.369  1.00  0.00     0.093 A 
ATOM      8  C   UNL     1      10.835   9.347 -16.473  1.00  0.00     0.123 A 
ATOM      9  C   UNL     1      10.743  10.321 -17.467  1.00  0.00     0.094 A 
ATOM     10  C   UNL     1       9.784  11.333 -17.379  1.00  0.00     0.146 A 
ATOM     11  O   UNL     1       9.722  12.234 -18.352  1.00  0.00    -0.452 OA
ENDROOT
BRANCH   1  12
ATOM     12  C   UNL     1       8.892  14.179 -19.509  1.00  0.00     0.021 A 
ATOM     13  C   UNL     1       8.456  13.817 -20.797  1.00  0.00     0.016 A 
ATOM     14  C   UNL     1       8.496  14.746 -21.842  1.00  0.00     0.047 A 
ATOM     15  C   UNL     1       8.955  16.046 -21.614  1.00  0.00     0.115 A 
ATOM     16  C   UNL     1       9.333  15.494 -19.282  1.00  0.00     0.016 A 
ATOM     17  C   UNL     1       9.371  16.419 -20.329  1.00  0.00     0.047 A 
BRANCH  15  18
ATOM     18  O   UNL     1       8.988  16.959 -22.665  1.00  0.00    -0.508 OA
ATOM     19  H   UNL     1       8.154  17.447 -22.968  1.00  0.00     0.293 HD
ENDBRANCH  15  18
ENDBRANCH   1  12
BRANCH   2  20
ATOM     20  O   UNL     1       6.875  14.299 -17.431  1.00  0.00    -0.502 OA
ATOM     21  H   UNL     1       6.270  14.515 -16.649  1.00  0.00     0.293 HD
ENDBRANCH   2  20
BRANCH   6  22
ATOM     22  O   UNL     1       8.302  10.442 -14.047  1.00  0.00    -0.507 OA
ATOM     23  H   UNL     1       8.279  11.212 -13.395  1.00  0.00     0.293 HD
ENDBRANCH   6  22
BRANCH   8  24
ATOM     24  O   UNL     1      11.775   8.323 -16.565  1.00  0.00    -0.508 OA
ATOM     25  H   UNL     1      11.744   7.641 -17.314  1.00  0.00     0.293 HD
ENDBRANCH   8  24
TORSDOF 5
ENDMDL
MODEL 9
REMARK VINA RESULT:    -5.563      2.051      7.067
REMARK INTER + INTRA:          -6.819
REMARK INTER:                  -6.521
REMARK INTRA:                  -0.298
REMARK UNBOUND:                -0.280
REMARK SMILES O=c1c(O)c(-c2ccc(O)cc2)oc2cc(O)cc(O)c12
REMARK SMILES IDX 5 1 3 2 2 3 1 4 21 5 19 6 18 7 16 8 15 9 14 10 13 11 6 12
REMARK SMILES IDX 7 13 8 14 9 15 12 16 11 17 10 18 4 20 20 22 17 24
REMARK H PARENT 10 19 4 21 20 23 17 25
REMARK Flexibility Score: inf
ROOT
ATOM      1  C   UNL     1       9.122  12.440 -17.272  1.00  0.00     0.180 A 
ATOM      2  C   UNL     1       9.309  11.251 -17.997  1.00  0.00     0.208 A 
ATOM      3  C   UNL     1       8.977  10.026 -17.395  1.00  0.00     0.238 A 
ATOM      4  O   UNL     1       9.196   8.961 -18.028  1.00  0.00    -0.285 OA
ATOM      5  C   UNL     1       8.445  10.008 -16.083  1.00  0.00     0.111 A 
ATOM      6  C   UNL     1       8.034   8.830 -15.391  1.00  0.00     0.134 A 
ATOM      7  C   UNL     1       7.646   8.917 -14.048  1.00  0.00     0.093 A 
ATOM      8  C   UNL     1       7.590  10.147 -13.393  1.00  0.00     0.123 A 
ATOM      9  C   UNL     1       7.931  11.313 -14.079  1.00  0.00     0.094 A 
ATOM     10  C   UNL     1       8.357  11.253 -15.408  1.00  0.00     0.146 A 
ATOM     11  O   UNL     1       8.684  12.385 -16.020  1.00  0.00    -0.452 OA
ENDROOT
BRANCH   1  12
ATOM     12  C   UNL     1       9.426  13.769 -17.849  1.00  0.00     0.021 A 
ATOM     13  C   UNL     1       8.476  14.471 -18.615  1.00  0.00     0.016 A 
ATOM     14  C   UNL     1       8.779  15.736 -19.129  1.00  0.00     0.047 A 
ATOM     15  C   UNL     1      10.023  16.321 -18.874  1.00  0.00     0.115 A 
ATOM     16  C   UNL     1      10.666  14.373 -17.580  1.00  0.00     0.016 A 
ATOM     17  C   UNL     1      10.965  15.638 -18.095  1.00  0.00     0.047 A 
BRANCH  15  18
ATOM     18  O   UNL     1      10.309  17.582 -19.394  1.00  0.00    -0.508 OA
ATOM     19  H   UNL     1      10.040  17.839 -20.336  1.00  0.00     0.293 HD
ENDBRANCH  15  18
ENDBRANCH   1  12
BRANCH   2  20
ATOM     20  O   UNL     1       9.855  11.289 -19.283  1.00  0.00    -0.502 OA
ATOM     21  H   UNL     1       9.961  10.460 -19.854  1.00  0.00     0.293 HD
ENDBRANCH   2  20
BRANCH   6  22
ATOM     22  O   UNL     1       7.966   7.563 -15.979  1.00  0.00    -0.507 OA
ATOM     23  H   UNL     1       8.218   6.701 -15.518  1.00  0.00     0.293 HD
ENDBRANCH   6  22
BRANCH   8  24
ATOM     24  O   UNL     1       7.183  10.198 -12.062  1.00  0.00    -0.508 OA
ATOM     25  H   UNL     1       7.009   9.353 -11.528  1.00  0.00     0.293 HD
ENDBRANCH   8  24
TORSDOF 5
ENDMDL
