MODEL 1
REMARK VINA RESULT:    -5.420      0.000      0.000
REMARK INTER + INTRA:         -10.582
REMARK INTER:                  -9.222
REMARK INTRA:                  -1.360
REMARK UNBOUND:                -1.360
REMARK SMILES CCCCCCCCCCCCCC(=O)[O-]
REMARK SMILES IDX 8 1 9 2 10 3 11 4 12 5 13 6 14 7 15 8 16 9 7 10 6 11 5 12
REMARK SMILES IDX 4 13 3 14 2 15 1 16
REMARK H PARENT
REMARK Flexibility Score: inf
ROOT
ATOM      1  C   UNL     1      20.837  21.516   6.204  1.00  0.00     0.000 C 
ENDROOT
BRANCH   1   2
ATOM      2  C   UNL     1      19.549  22.195   5.710  1.00  0.00     0.000 C 
BRANCH   2   3
ATOM      3  C   UNL     1      19.027  23.270   6.683  1.00  0.00     0.000 C 
BRANCH   3   4
ATOM      4  C   UNL     1      17.495  23.361   6.797  1.00  0.00     0.000 C 
BRANCH   4   5
ATOM      5  C   UNL     1      17.024  24.584   7.603  1.00  0.00     0.006 C 
BRANCH   5   6
ATOM      6  C   UNL     1      18.025  24.977   8.698  1.00  0.00     0.053 C 
BRANCH   6   7
ATOM      7  C   UNL     1      18.022  26.453   8.951  1.00  0.00     0.041 C 
ATOM      8  O   UNL     1      16.938  27.060   9.156  1.00  0.00    -0.550 OA
ATOM      9  O   UNL     1      19.220  27.157   8.986  1.00  0.00    -0.550 OA
ENDBRANCH   6   7
ENDBRANCH   5   6
ENDBRANCH   4   5
ENDBRANCH   3   4
ENDBRANCH   2   3
ENDBRANCH   1   2
BRANCH   1  10
ATOM     10  C   UNL     1      21.679  22.437   7.104  1.00  0.00     0.000 C 
BRANCH  10  11
ATOM     11  C   UNL     1      22.033  21.779   8.449  1.00  0.00    -0.000 C 
BRANCH  11  12
ATOM     12  C   UNL     1      21.993  22.769   9.627  1.00  0.00    -0.000 C 
BRANCH  12  13
ATOM     13  C   UNL     1      20.582  23.191  10.082  1.00  0.00    -0.000 C 
BRANCH  13  14
ATOM     14  C   UNL     1      19.539  22.059  10.111  1.00  0.00    -0.000 C 
BRANCH  14  15
ATOM     15  C   UNL     1      18.730  22.028  11.414  1.00  0.00    -0.003 C 
ATOM     16  C   UNL     1      17.250  22.290  11.149  1.00  0.00     0.004 C 
ENDBRANCH  14  15
ENDBRANCH  13  14
ENDBRANCH  12  13
ENDBRANCH  11  12
ENDBRANCH  10  11
ENDBRANCH   1  10
TORSDOF 12
ENDMDL
MODEL 2
REMARK VINA RESULT:    -5.391      1.014      3.402
REMARK INTER + INTRA:         -10.533
REMARK INTER:                  -8.702
REMARK INTRA:                  -1.831
REMARK UNBOUND:                -1.360
REMARK SMILES CCCCCCCCCCCCCC(=O)[O-]
REMARK SMILES IDX 8 1 9 2 10 3 11 4 12 5 13 6 14 7 15 8 16 9 7 10 6 11 5 12
REMARK SMILES IDX 4 13 3 14 2 15 1 16
REMARK H PARENT
REMARK Flexibility Score: inf
ROOT
ATOM      1  C   UNL     1      20.205  23.120  10.670  1.00  0.00     0.000 C 
ENDROOT
BRANCH   1   2
ATOM      2  C   UNL     1      19.194  22.019  10.307  1.00  0.00     0.000 C 
BRANCH   2   3
ATOM      3  C   UNL     1      17.751  22.546  10.189  1.00  0.00     0.000 C 
BRANCH   3   4
ATOM      4  C   UNL     1      17.588  24.061  10.406  1.00  0.00     0.000 C 
BRANCH   4   5
ATOM      5  C   UNL     1      16.913  24.768   9.218  1.00  0.00     0.006 C 
BRANCH   5   6
ATOM      6  C   UNL     1      17.927  25.490   8.320  1.00  0.00     0.053 C 
BRANCH   6   7
ATOM      7  C   UNL     1      18.280  26.845   8.855  1.00  0.00     0.041 C 
ATOM      8  O   UNL     1      19.417  27.053   9.353  1.00  0.00    -0.550 OA
ATOM      9  O   UNL     1      17.361  27.884   8.780  1.00  0.00    -0.550 OA
ENDBRANCH   6   7
ENDBRANCH   5   6
ENDBRANCH   4   5
ENDBRANCH   3   4
ENDBRANCH   2   3
ENDBRANCH   1   2
BRANCH   1  10
ATOM     10  C   UNL     1      21.419  23.137   9.726  1.00  0.00     0.000 C 
BRANCH  10  11
ATOM     11  C   UNL     1      21.023  23.401   8.263  1.00  0.00    -0.000 C 
BRANCH  11  12
ATOM     12  C   UNL     1      21.678  22.415   7.280  1.00  0.00    -0.000 C 
BRANCH  12  13
ATOM     13  C   UNL     1      20.760  21.905   6.151  1.00  0.00    -0.000 C 
BRANCH  13  14
ATOM     14  C   UNL     1      19.395  22.610   6.051  1.00  0.00    -0.000 C 
BRANCH  14  15
ATOM     15  C   UNL     1      18.214  21.654   6.266  1.00  0.00    -0.003 C 
ATOM     16  C   UNL     1      16.917  22.426   6.497  1.00  0.00     0.004 C 
ENDBRANCH  14  15
ENDBRANCH  13  14
ENDBRANCH  12  13
ENDBRANCH  11  12
ENDBRANCH  10  11
ENDBRANCH   1  10
TORSDOF 12
ENDMDL
MODEL 3
REMARK VINA RESULT:    -5.272      3.129      4.516
REMARK INTER + INTRA:         -10.331
REMARK INTER:                  -8.269
REMARK INTRA:                  -2.061
REMARK UNBOUND:                -1.360
REMARK SMILES CCCCCCCCCCCCCC(=O)[O-]
REMARK SMILES IDX 8 1 9 2 10 3 11 4 12 5 13 6 14 7 15 8 16 9 7 10 6 11 5 12
REMARK SMILES IDX 4 13 3 14 2 15 1 16
REMARK H PARENT
REMARK Flexibility Score: inf
ROOT
ATOM      1  C   UNL     1      17.237  24.624   8.329  1.00  0.00     0.000 C 
ENDROOT
BRANCH   1   2
ATOM      2  C   UNL     1      17.413  24.114   6.889  1.00  0.00     0.000 C 
BRANCH   2   3
ATOM      3  C   UNL     1      17.239  22.589   6.768  1.00  0.00     0.000 C 
BRANCH   3   4
ATOM      4  C   UNL     1      18.514  21.813   6.389  1.00  0.00     0.000 C 
BRANCH   4   5
ATOM      5  C   UNL     1      19.724  22.731   6.145  1.00  0.00     0.006 C 
BRANCH   5   6
ATOM      6  C   UNL     1      20.986  22.229   6.861  1.00  0.00     0.053 C 
BRANCH   6   7
ATOM      7  C   UNL     1      21.657  21.128   6.099  1.00  0.00     0.041 C 
ATOM      8  O   UNL     1      22.049  20.091   6.697  1.00  0.00    -0.550 OA
ATOM      9  O   UNL     1      21.827  21.234   4.724  1.00  0.00    -0.550 OA
ENDBRANCH   6   7
ENDBRANCH   5   6
ENDBRANCH   4   5
ENDBRANCH   3   4
ENDBRANCH   2   3
ENDBRANCH   1   2
BRANCH   1  10
ATOM     10  C   UNL     1      18.214  25.760   8.675  1.00  0.00     0.000 C 
BRANCH  10  11
ATOM     11  C   UNL     1      19.119  25.414   9.870  1.00  0.00    -0.000 C 
BRANCH  11  12
ATOM     12  C   UNL     1      19.980  24.163   9.624  1.00  0.00    -0.000 C 
BRANCH  12  13
ATOM     13  C   UNL     1      19.738  22.996  10.603  1.00  0.00    -0.000 C 
BRANCH  13  14
ATOM     14  C   UNL     1      18.991  21.789  10.007  1.00  0.00    -0.000 C 
BRANCH  14  15
ATOM     15  C   UNL     1      17.584  21.609  10.595  1.00  0.00    -0.003 C 
ATOM     16  C   UNL     1      17.258  22.720  11.590  1.00  0.00     0.004 C 
ENDBRANCH  14  15
ENDBRANCH  13  14
ENDBRANCH  12  13
ENDBRANCH  11  12
ENDBRANCH  10  11
ENDBRANCH   1  10
TORSDOF 12
ENDMDL
MODEL 4
REMARK VINA RESULT:    -5.252      1.091      3.028
REMARK INTER + INTRA:         -10.296
REMARK INTER:                  -8.350
REMARK INTRA:                  -1.947
REMARK UNBOUND:                -1.360
REMARK SMILES CCCCCCCCCCCCCC(=O)[O-]
REMARK SMILES IDX 8 1 9 2 10 3 11 4 12 5 13 6 14 7 15 8 16 9 7 10 6 11 5 12
REMARK SMILES IDX 4 13 3 14 2 15 1 16
REMARK H PARENT
REMARK Flexibility Score: inf
ROOT
ATOM      1  C   UNL     1      18.163  20.909   8.859  1.00  0.00     0.000 C 
ENDROOT
BRANCH   1   2
ATOM      2  C   UNL     1      17.202  21.430   7.778  1.00  0.00     0.000 C 
BRANCH   2   3
ATOM      3  C   UNL     1      17.926  22.175   6.641  1.00  0.00     0.000 C 
BRANCH   3   4
ATOM      4  C   UNL     1      18.341  23.621   6.968  1.00  0.00     0.000 C 
BRANCH   4   5
ATOM      5  C   UNL     1      17.149  24.516   7.349  1.00  0.00     0.006 C 
BRANCH   5   6
ATOM      6  C   UNL     1      17.245  25.026   8.793  1.00  0.00     0.053 C 
BRANCH   6   7
ATOM      7  C   UNL     1      17.928  26.357   8.870  1.00  0.00     0.041 C 
ATOM      8  O   UNL     1      17.248  27.417   8.912  1.00  0.00    -0.550 OA
ATOM      9  O   UNL     1      19.315  26.428   8.922  1.00  0.00    -0.550 OA
ENDBRANCH   6   7
ENDBRANCH   5   6
ENDBRANCH   4   5
ENDBRANCH   3   4
ENDBRANCH   2   3
ENDBRANCH   1   2
BRANCH   1  10
ATOM     10  C   UNL     1      17.716  21.295  10.280  1.00  0.00     0.000 C 
BRANCH  10  11
ATOM     11  C   UNL     1      18.867  21.871  11.122  1.00  0.00    -0.000 C 
BRANCH  11  12
ATOM     12  C   UNL     1      19.422  23.189  10.553  1.00  0.00    -0.000 C 
BRANCH  12  13
ATOM     13  C   UNL     1      20.945  23.213  10.315  1.00  0.00    -0.000 C 
BRANCH  13  14
ATOM     14  C   UNL     1      21.374  23.288   8.839  1.00  0.00    -0.000 C 
BRANCH  14  15
ATOM     15  C   UNL     1      21.624  21.906   8.219  1.00  0.00    -0.003 C 
ATOM     16  C   UNL     1      21.707  21.993   6.698  1.00  0.00     0.004 C 
ENDBRANCH  14  15
ENDBRANCH  13  14
ENDBRANCH  12  13
ENDBRANCH  11  12
ENDBRANCH  10  11
ENDBRANCH   1  10
TORSDOF 12
ENDMDL
MODEL 5
REMARK VINA RESULT:    -5.220      3.289      5.484
REMARK INTER + INTRA:         -10.243
REMARK INTER:                  -8.511
REMARK INTRA:                  -1.731
REMARK UNBOUND:                -1.360
REMARK SMILES CCCCCCCCCCCCCC(=O)[O-]
REMARK SMILES IDX 8 1 9 2 10 3 11 4 12 5 13 6 14 7 15 8 16 9 7 10 6 11 5 12
REMARK SMILES IDX 4 13 3 14 2 15 1 16
REMARK H PARENT
REMARK Flexibility Score: inf
ROOT
ATOM      1  C   UNL     1      20.905  22.902   9.787  1.00  0.00     0.000 C 
ENDROOT
BRANCH   1   2
ATOM      2  C   UNL     1      21.076  23.494   8.378  1.00  0.00     0.000 C 
BRANCH   2   3
ATOM      3  C   UNL     1      19.880  23.197   7.453  1.00  0.00     0.000 C 
BRANCH   3   4
ATOM      4  C   UNL     1      20.198  22.303   6.240  1.00  0.00     0.000 C 
BRANCH   4   5
ATOM      5  C   UNL     1      21.639  21.767   6.251  1.00  0.00     0.006 C 
BRANCH   5   6
ATOM      6  C   UNL     1      21.712  20.309   6.726  1.00  0.00     0.053 C 
BRANCH   6   7
ATOM      7  C   UNL     1      23.043  19.985   7.332  1.00  0.00     0.041 C 
ATOM      8  O   UNL     1      23.821  19.178   6.758  1.00  0.00    -0.550 OA
ATOM      9  O   UNL     1      23.437  20.596   8.516  1.00  0.00    -0.550 OA
ENDBRANCH   6   7
ENDBRANCH   5   6
ENDBRANCH   4   5
ENDBRANCH   3   4
ENDBRANCH   2   3
ENDBRANCH   1   2
BRANCH   1  10
ATOM     10  C   UNL     1      19.707  21.942   9.880  1.00  0.00     0.000 C 
BRANCH  10  11
ATOM     11  C   UNL     1      18.720  22.339  10.992  1.00  0.00    -0.000 C 
BRANCH  11  12
ATOM     12  C   UNL     1      17.265  22.419  10.498  1.00  0.00    -0.000 C 
BRANCH  12  13
ATOM     13  C   UNL     1      16.915  23.682   9.686  1.00  0.00    -0.000 C 
BRANCH  13  14
ATOM     14  C   UNL     1      17.653  24.962  10.119  1.00  0.00    -0.000 C 
BRANCH  14  15
ATOM     15  C   UNL     1      17.677  26.036   9.023  1.00  0.00    -0.003 C 
ATOM     16  C   UNL     1      19.069  26.645   8.881  1.00  0.00     0.004 C 
ENDBRANCH  14  15
ENDBRANCH  13  14
ENDBRANCH  12  13
ENDBRANCH  11  12
ENDBRANCH  10  11
ENDBRANCH   1  10
TORSDOF 12
ENDMDL
MODEL 6
REMARK VINA RESULT:    -5.186      2.738      4.509
REMARK INTER + INTRA:         -10.185
REMARK INTER:                  -8.142
REMARK INTRA:                  -2.043
REMARK UNBOUND:                -1.360
REMARK SMILES CCCCCCCCCCCCCC(=O)[O-]
REMARK SMILES IDX 8 1 9 2 10 3 11 4 12 5 13 6 14 7 15 8 16 9 7 10 6 11 5 12
REMARK SMILES IDX 4 13 3 14 2 15 1 16
REMARK H PARENT
REMARK Flexibility Score: inf
ROOT
ATOM      1  C   UNL     1      17.597  21.079   9.172  1.00  0.00     0.000 C 
ENDROOT
BRANCH   1   2
ATOM      2  C   UNL     1      16.896  21.585   7.901  1.00  0.00     0.000 C 
BRANCH   2   3
ATOM      3  C   UNL     1      17.047  23.105   7.697  1.00  0.00     0.000 C 
BRANCH   3   4
ATOM      4  C   UNL     1      17.855  23.521   6.455  1.00  0.00     0.000 C 
BRANCH   4   5
ATOM      5  C   UNL     1      18.937  22.496   6.072  1.00  0.00     0.006 C 
BRANCH   5   6
ATOM      6  C   UNL     1      20.262  22.751   6.802  1.00  0.00     0.053 C 
BRANCH   6   7
ATOM      7  C   UNL     1      20.867  21.481   7.318  1.00  0.00     0.041 C 
ATOM      8  O   UNL     1      20.318  20.374   7.078  1.00  0.00    -0.550 OA
ATOM      9  O   UNL     1      22.052  21.518   8.043  1.00  0.00    -0.550 OA
ENDBRANCH   6   7
ENDBRANCH   5   6
ENDBRANCH   4   5
ENDBRANCH   3   4
ENDBRANCH   2   3
ENDBRANCH   1   2
BRANCH   1  10
ATOM     10  C   UNL     1      16.976  21.655  10.455  1.00  0.00     0.000 C 
BRANCH  10  11
ATOM     11  C   UNL     1      17.951  22.564  11.224  1.00  0.00    -0.000 C 
BRANCH  11  12
ATOM     12  C   UNL     1      19.380  22.525  10.652  1.00  0.00    -0.000 C 
BRANCH  12  13
ATOM     13  C   UNL     1      19.923  23.877  10.148  1.00  0.00    -0.000 C 
BRANCH  13  14
ATOM     14  C   UNL     1      18.878  25.002  10.044  1.00  0.00    -0.000 C 
BRANCH  14  15
ATOM     15  C   UNL     1      19.185  25.998   8.916  1.00  0.00    -0.003 C 
ATOM     16  C   UNL     1      18.057  27.014   8.759  1.00  0.00     0.004 C 
ENDBRANCH  14  15
ENDBRANCH  13  14
ENDBRANCH  12  13
ENDBRANCH  11  12
ENDBRANCH  10  11
ENDBRANCH   1  10
TORSDOF 12
ENDMDL
MODEL 7
REMARK VINA RESULT:    -5.166      2.925      4.806
REMARK INTER + INTRA:         -10.151
REMARK INTER:                  -8.447
REMARK INTRA:                  -1.704
REMARK UNBOUND:                -1.360
REMARK SMILES CCCCCCCCCCCCCC(=O)[O-]
REMARK SMILES IDX 8 1 9 2 10 3 11 4 12 5 13 6 14 7 15 8 16 9 7 10 6 11 5 12
REMARK SMILES IDX 4 13 3 14 2 15 1 16
REMARK H PARENT
REMARK Flexibility Score: inf
ROOT
ATOM      1  C   UNL     1      21.758  23.101   9.631  1.00  0.00     0.000 C 
ENDROOT
BRANCH   1   2
ATOM      2  C   UNL     1      21.290  23.233   8.172  1.00  0.00     0.000 C 
BRANCH   2   3
ATOM      3  C   UNL     1      21.738  22.052   7.290  1.00  0.00     0.000 C 
BRANCH   3   4
ATOM      4  C   UNL     1      20.931  21.863   5.993  1.00  0.00     0.000 C 
BRANCH   4   5
ATOM      5  C   UNL     1      19.559  22.558   6.033  1.00  0.00     0.006 C 
BRANCH   5   6
ATOM      6  C   UNL     1      18.406  21.580   5.767  1.00  0.00     0.053 C 
BRANCH   6   7
ATOM      7  C   UNL     1      18.536  20.331   6.583  1.00  0.00     0.041 C 
ATOM      8  O   UNL     1      18.734  19.223   6.018  1.00  0.00    -0.550 OA
ATOM      9  O   UNL     1      18.464  20.392   7.969  1.00  0.00    -0.550 OA
ENDBRANCH   6   7
ENDBRANCH   5   6
ENDBRANCH   4   5
ENDBRANCH   3   4
ENDBRANCH   2   3
ENDBRANCH   1   2
BRANCH   1  10
ATOM     10  C   UNL     1      20.673  23.523  10.636  1.00  0.00     0.000 C 
BRANCH  10  11
ATOM     11  C   UNL     1      19.388  22.688  10.499  1.00  0.00    -0.000 C 
BRANCH  11  12
ATOM     12  C   UNL     1      18.114  23.551  10.487  1.00  0.00    -0.000 C 
BRANCH  12  13
ATOM     13  C   UNL     1      17.420  23.679   9.117  1.00  0.00    -0.000 C 
BRANCH  13  14
ATOM     14  C   UNL     1      17.924  24.836   8.235  1.00  0.00    -0.000 C 
BRANCH  14  15
ATOM     15  C   UNL     1      17.817  26.203   8.926  1.00  0.00    -0.003 C 
ATOM     16  C   UNL     1      19.181  26.879   9.022  1.00  0.00     0.004 C 
ENDBRANCH  14  15
ENDBRANCH  13  14
ENDBRANCH  12  13
ENDBRANCH  11  12
ENDBRANCH  10  11
ENDBRANCH   1  10
TORSDOF 12
ENDMDL
MODEL 8
REMARK VINA RESULT:    -5.153      3.406      4.996
REMARK INTER + INTRA:         -10.127
REMARK INTER:                  -8.121
REMARK INTRA:                  -2.006
REMARK UNBOUND:                -1.360
REMARK SMILES CCCCCCCCCCCCCC(=O)[O-]
REMARK SMILES IDX 8 1 9 2 10 3 11 4 12 5 13 6 14 7 15 8 16 9 7 10 6 11 5 12
REMARK SMILES IDX 4 13 3 14 2 15 1 16
REMARK H PARENT
REMARK Flexibility Score: inf
ROOT
ATOM      1  C   UNL     1      17.591  23.977   6.822  1.00  0.00     0.000 C 
ENDROOT
BRANCH   1   2
ATOM      2  C   UNL     1      17.192  22.492   6.819  1.00  0.00     0.000 C 
BRANCH   2   3
ATOM      3  C   UNL     1      18.306  21.574   6.280  1.00  0.00     0.000 C 
BRANCH   3   4
ATOM      4  C   UNL     1      19.491  22.301   5.620  1.00  0.00     0.000 C 
BRANCH   4   5
ATOM      5  C   UNL     1      20.826  22.050   6.342  1.00  0.00     0.006 C 
BRANCH   5   6
ATOM      6  C   UNL     1      21.817  21.265   5.472  1.00  0.00     0.053 C 
BRANCH   6   7
ATOM      7  C   UNL     1      22.034  19.876   5.989  1.00  0.00     0.041 C 
ATOM      8  O   UNL     1      21.054  19.109   6.177  1.00  0.00    -0.550 OA
ATOM      9  O   UNL     1      23.322  19.419   6.240  1.00  0.00    -0.550 OA
ENDBRANCH   6   7
ENDBRANCH   5   6
ENDBRANCH   4   5
ENDBRANCH   3   4
ENDBRANCH   2   3
ENDBRANCH   1   2
BRANCH   1  10
ATOM     10  C   UNL     1      17.245  24.676   8.148  1.00  0.00     0.000 C 
BRANCH  10  11
ATOM     11  C   UNL     1      18.463  25.370   8.782  1.00  0.00    -0.000 C 
BRANCH  11  12
ATOM     12  C   UNL     1      19.713  24.472   8.812  1.00  0.00    -0.000 C 
BRANCH  12  13
ATOM     13  C   UNL     1      19.843  23.569  10.054  1.00  0.00    -0.000 C 
BRANCH  13  14
ATOM     14  C   UNL     1      19.581  22.073   9.804  1.00  0.00    -0.000 C 
BRANCH  14  15
ATOM     15  C   UNL     1      18.223  21.607  10.348  1.00  0.00    -0.003 C 
ATOM     16  C   UNL     1      17.677  22.591  11.379  1.00  0.00     0.004 C 
ENDBRANCH  14  15
ENDBRANCH  13  14
ENDBRANCH  12  13
ENDBRANCH  11  12
ENDBRANCH  10  11
ENDBRANCH   1  10
TORSDOF 12
ENDMDL
MODEL 9
REMARK VINA RESULT:    -5.150      2.344      4.474
REMARK INTER + INTRA:         -10.123
REMARK INTER:                  -8.546
REMARK INTRA:                  -1.578
REMARK UNBOUND:                -1.360
REMARK SMILES CCCCCCCCCCCCCC(=O)[O-]
REMARK SMILES IDX 8 1 9 2 10 3 11 4 12 5 13 6 14 7 15 8 16 9 7 10 6 11 5 12
REMARK SMILES IDX 4 13 3 14 2 15 1 16
REMARK H PARENT
REMARK Flexibility Score: inf
ROOT
ATOM      1  C   UNL     1      20.101  21.063   6.511  1.00  0.00     0.000 C 
ENDROOT
BRANCH   1   2
ATOM      2  C   UNL     1      21.393  21.892   6.419  1.00  0.00     0.000 C 
BRANCH   2   3
ATOM      3  C   UNL     1      21.968  22.261   7.800  1.00  0.00     0.000 C 
BRANCH   3   4
ATOM      4  C   UNL     1      21.254  23.420   8.517  1.00  0.00     0.000 C 
BRANCH   4   5
ATOM      5  C   UNL     1      20.965  23.122   9.999  1.00  0.00     0.006 C 
BRANCH   5   6
ATOM      6  C   UNL     1      19.478  23.286  10.344  1.00  0.00     0.053 C 
BRANCH   6   7
ATOM      7  C   UNL     1      18.879  22.010  10.850  1.00  0.00     0.041 C 
ATOM      8  O   UNL     1      18.401  21.170  10.042  1.00  0.00    -0.550 OA
ATOM      9  O   UNL     1      18.872  21.736  12.212  1.00  0.00    -0.550 OA
ENDBRANCH   6   7
ENDBRANCH   5   6
ENDBRANCH   4   5
ENDBRANCH   3   4
ENDBRANCH   2   3
ENDBRANCH   1   2
BRANCH   1  10
ATOM     10  C   UNL     1      18.963  21.650   5.659  1.00  0.00     0.000 C 
BRANCH  10  11
ATOM     11  C   UNL     1      18.528  23.045   6.142  1.00  0.00    -0.000 C 
BRANCH  11  12
ATOM     12  C   UNL     1      17.132  23.044   6.789  1.00  0.00    -0.000 C 
BRANCH  12  13
ATOM     13  C   UNL     1      16.884  24.164   7.819  1.00  0.00    -0.000 C 
BRANCH  13  14
ATOM     14  C   UNL     1      17.814  25.384   7.694  1.00  0.00    -0.000 C 
BRANCH  14  15
ATOM     15  C   UNL     1      17.718  26.333   8.896  1.00  0.00    -0.003 C 
ATOM     16  C   UNL     1      19.089  26.890   9.268  1.00  0.00     0.004 C 
ENDBRANCH  14  15
ENDBRANCH  13  14
ENDBRANCH  12  13
ENDBRANCH  11  12
ENDBRANCH  10  11
ENDBRANCH   1  10
TORSDOF 12
ENDMDL
