MODEL 1
REMARK VINA RESULT:    -3.929      0.000      0.000
REMARK INTER + INTRA:          -6.479
REMARK INTER:                  -5.652
REMARK INTRA:                  -0.827
REMARK UNBOUND:                -0.827
REMARK SMILES O=C(CO)[C@@H](O)[C@H](O)[C@H](O)CO
REMARK SMILES IDX 7 1 9 2 11 3 12 4 10 6 5 8 2 9 1 10 3 11 4 12 6 14 8 16
REMARK H PARENT 12 5 10 7 4 13 6 15 8 17
REMARK Flexibility Score: inf
ROOT
ATOM      1  C   UNL     1      29.010 -12.604 -22.240  1.00  0.00     0.181 C 
ENDROOT
BRANCH   1   2
ATOM      2  C   UNL     1      29.941 -13.723 -22.784  1.00  0.00     0.171 C 
BRANCH   2   3
ATOM      3  C   UNL     1      31.173 -13.167 -23.526  1.00  0.00     0.190 C 
BRANCH   3   4
ATOM      4  O   UNL     1      31.506 -11.882 -23.070  1.00  0.00    -0.394 OA
ATOM      5  H   UNL     1      31.990 -11.998 -22.211  1.00  0.00     0.210 HD
ENDBRANCH   3   4
ENDBRANCH   2   3
BRANCH   2   6
ATOM      6  O   UNL     1      30.349 -14.599 -21.763  1.00  0.00    -0.388 OA
ATOM      7  H   UNL     1      31.324 -14.751 -21.871  1.00  0.00     0.211 HD
ENDBRANCH   2   6
ENDBRANCH   1   2
BRANCH   1   8
ATOM      8  C   UNL     1      27.917 -13.166 -21.286  1.00  0.00     0.214 C 
BRANCH   8   9
ATOM      9  C   UNL     1      27.014 -12.092 -20.712  1.00  0.00     0.189 C 
ATOM     10  O   UNL     1      27.155 -10.936 -21.083  1.00  0.00    -0.294 OA
BRANCH   9  11
ATOM     11  C   UNL     1      25.963 -12.398 -19.676  1.00  0.00     0.234 C 
BRANCH  11  12
ATOM     12  O   UNL     1      25.157 -13.463 -20.100  1.00  0.00    -0.388 OA
ATOM     13  H   UNL     1      24.441 -13.569 -19.420  1.00  0.00     0.211 HD
ENDBRANCH  11  12
ENDBRANCH   9  11
ENDBRANCH   8   9
BRANCH   8  14
ATOM     14  O   UNL     1      27.141 -14.154 -21.919  1.00  0.00    -0.382 OA
ATOM     15  H   UNL     1      26.539 -13.704 -22.567  1.00  0.00     0.211 HD
ENDBRANCH   8  14
ENDBRANCH   1   8
BRANCH   1  16
ATOM     16  O   UNL     1      28.379 -11.977 -23.329  1.00  0.00    -0.387 OA
ATOM     17  H   UNL     1      27.599 -12.538 -23.582  1.00  0.00     0.211 HD
ENDBRANCH   1  16
TORSDOF 10
ENDMDL
MODEL 2
REMARK VINA RESULT:    -3.909     17.039     18.360
REMARK INTER + INTRA:          -6.449
REMARK INTER:                  -5.366
REMARK INTRA:                  -1.083
REMARK UNBOUND:                -0.827
REMARK SMILES O=C(CO)[C@@H](O)[C@H](O)[C@H](O)CO
REMARK SMILES IDX 7 1 9 2 11 3 12 4 10 6 5 8 2 9 1 10 3 11 4 12 6 14 8 16
REMARK H PARENT 12 5 10 7 4 13 6 15 8 17
REMARK Flexibility Score: inf
ROOT
ATOM      1  C   UNL     1      28.534  -0.304 -34.345  1.00  0.00     0.181 C 
ENDROOT
BRANCH   1   2
ATOM      2  C   UNL     1      27.705   0.839 -33.697  1.00  0.00     0.171 C 
BRANCH   2   3
ATOM      3  C   UNL     1      27.851   0.889 -32.163  1.00  0.00     0.190 C 
BRANCH   3   4
ATOM      4  O   UNL     1      29.175   0.640 -31.769  1.00  0.00    -0.394 OA
ATOM      5  H   UNL     1      29.299  -0.345 -31.783  1.00  0.00     0.210 HD
ENDBRANCH   3   4
ENDBRANCH   2   3
BRANCH   2   6
ATOM      6  O   UNL     1      28.026   2.090 -34.252  1.00  0.00    -0.388 OA
ATOM      7  H   UNL     1      28.036   1.988 -35.239  1.00  0.00     0.211 HD
ENDBRANCH   2   6
ENDBRANCH   1   2
BRANCH   1   8
ATOM      8  C   UNL     1      28.314  -0.386 -35.882  1.00  0.00     0.214 C 
BRANCH   8   9
ATOM      9  C   UNL     1      28.664  -1.742 -36.465  1.00  0.00     0.189 C 
ATOM     10  O   UNL     1      29.822  -2.129 -36.417  1.00  0.00    -0.294 OA
BRANCH   9  11
ATOM     11  C   UNL     1      27.632  -2.620 -37.128  1.00  0.00     0.234 C 
BRANCH  11  12
ATOM     12  O   UNL     1      26.674  -3.035 -36.193  1.00  0.00    -0.388 OA
ATOM     13  H   UNL     1      27.163  -3.513 -35.474  1.00  0.00     0.211 HD
ENDBRANCH  11  12
ENDBRANCH   9  11
ENDBRANCH   8   9
BRANCH   8  14
ATOM     14  O   UNL     1      26.997  -0.042 -36.233  1.00  0.00    -0.382 OA
ATOM     15  H   UNL     1      26.921  -0.079 -37.222  1.00  0.00     0.211 HD
ENDBRANCH   8  14
ENDBRANCH   1   8
BRANCH   1  16
ATOM     16  O   UNL     1      28.142  -1.525 -33.767  1.00  0.00    -0.387 OA
ATOM     17  H   UNL     1      28.554  -1.570 -32.865  1.00  0.00     0.211 HD
ENDBRANCH   1  16
TORSDOF 10
ENDMDL
MODEL 3
REMARK VINA RESULT:    -3.886     11.565     13.254
REMARK INTER + INTRA:          -6.416
REMARK INTER:                  -5.127
REMARK INTRA:                  -1.289
REMARK UNBOUND:                -0.827
REMARK SMILES O=C(CO)[C@@H](O)[C@H](O)[C@H](O)CO
REMARK SMILES IDX 7 1 9 2 11 3 12 4 10 6 5 8 2 9 1 10 3 11 4 12 6 14 8 16
REMARK H PARENT 12 5 10 7 4 13 6 15 8 17
REMARK Flexibility Score: inf
ROOT
ATOM      1  C   UNL     1      28.169 -13.109 -33.370  1.00  0.00     0.181 C 
ENDROOT
BRANCH   1   2
ATOM      2  C   UNL     1      26.830 -13.860 -33.135  1.00  0.00     0.171 C 
BRANCH   2   3
ATOM      3  C   UNL     1      26.493 -14.849 -34.269  1.00  0.00     0.190 C 
BRANCH   3   4
ATOM      4  O   UNL     1      26.341 -14.186 -35.497  1.00  0.00    -0.394 OA
ATOM      5  H   UNL     1      25.726 -13.424 -35.338  1.00  0.00     0.210 HD
ENDBRANCH   3   4
ENDBRANCH   2   3
BRANCH   2   6
ATOM      6  O   UNL     1      26.820 -14.526 -31.897  1.00  0.00    -0.388 OA
ATOM      7  H   UNL     1      27.479 -15.266 -31.949  1.00  0.00     0.211 HD
ENDBRANCH   2   6
ENDBRANCH   1   2
BRANCH   1   8
ATOM      8  C   UNL     1      27.943 -11.638 -33.822  1.00  0.00     0.214 C 
BRANCH   8   9
ATOM      9  C   UNL     1      28.753 -11.256 -35.045  1.00  0.00     0.189 C 
ATOM     10  O   UNL     1      29.971 -11.348 -35.004  1.00  0.00    -0.294 OA
BRANCH   9  11
ATOM     11  C   UNL     1      28.107 -10.739 -36.306  1.00  0.00     0.234 C 
BRANCH  11  12
ATOM     12  O   UNL     1      27.309 -11.734 -36.887  1.00  0.00    -0.388 OA
ATOM     13  H   UNL     1      27.300 -11.559 -37.864  1.00  0.00     0.211 HD
ENDBRANCH  11  12
ENDBRANCH   9  11
ENDBRANCH   8   9
BRANCH   8  14
ATOM     14  O   UNL     1      26.581 -11.374 -34.052  1.00  0.00    -0.382 OA
ATOM     15  H   UNL     1      26.200 -12.137 -34.558  1.00  0.00     0.211 HD
ENDBRANCH   8  14
ENDBRANCH   1   8
BRANCH   1  16
ATOM     16  O   UNL     1      28.892 -13.782 -34.372  1.00  0.00    -0.387 OA
ATOM     17  H   UNL     1      28.956 -13.170 -35.151  1.00  0.00     0.211 HD
ENDBRANCH   1  16
TORSDOF 10
ENDMDL
MODEL 4
REMARK VINA RESULT:    -3.862      1.487      2.531
REMARK INTER + INTRA:          -6.383
REMARK INTER:                  -5.674
REMARK INTRA:                  -0.708
REMARK UNBOUND:                -0.827
REMARK SMILES O=C(CO)[C@@H](O)[C@H](O)[C@H](O)CO
REMARK SMILES IDX 7 1 9 2 11 3 12 4 10 6 5 8 2 9 1 10 3 11 4 12 6 14 8 16
REMARK H PARENT 12 5 10 7 4 13 6 15 8 17
REMARK Flexibility Score: inf
ROOT
ATOM      1  C   UNL     1      27.160 -12.929 -21.400  1.00  0.00     0.181 C 
ENDROOT
BRANCH   1   2
ATOM      2  C   UNL     1      28.690 -12.970 -21.137  1.00  0.00     0.171 C 
BRANCH   2   3
ATOM      3  C   UNL     1      29.444 -13.874 -22.133  1.00  0.00     0.190 C 
BRANCH   3   4
ATOM      4  O   UNL     1      29.596 -15.175 -21.628  1.00  0.00    -0.394 OA
ATOM      5  H   UNL     1      28.849 -15.715 -21.995  1.00  0.00     0.210 HD
ENDBRANCH   3   4
ENDBRANCH   2   3
BRANCH   2   6
ATOM      6  O   UNL     1      29.250 -11.680 -21.138  1.00  0.00    -0.388 OA
ATOM      7  H   UNL     1      29.022 -11.253 -20.272  1.00  0.00     0.211 HD
ENDBRANCH   2   6
ENDBRANCH   1   2
BRANCH   1   8
ATOM      8  C   UNL     1      26.346 -12.751 -20.087  1.00  0.00     0.214 C 
BRANCH   8   9
ATOM      9  C   UNL     1      26.060 -11.300 -19.751  1.00  0.00     0.189 C 
ATOM     10  O   UNL     1      26.395 -10.431 -20.542  1.00  0.00    -0.294 OA
BRANCH   9  11
ATOM     11  C   UNL     1      25.400 -10.890 -18.459  1.00  0.00     0.234 C 
BRANCH  11  12
ATOM     12  O   UNL     1      24.752 -11.987 -17.875  1.00  0.00    -0.388 OA
ATOM     13  H   UNL     1      23.812 -11.967 -18.193  1.00  0.00     0.211 HD
ENDBRANCH  11  12
ENDBRANCH   9  11
ENDBRANCH   8   9
BRANCH   8  14
ATOM     14  O   UNL     1      25.141 -13.477 -20.125  1.00  0.00    -0.382 OA
ATOM     15  H   UNL     1      25.336 -14.410 -19.852  1.00  0.00     0.211 HD
ENDBRANCH   8  14
ENDBRANCH   1   8
BRANCH   1  16
ATOM     16  O   UNL     1      26.777 -14.139 -22.007  1.00  0.00    -0.387 OA
ATOM     17  H   UNL     1      26.302 -14.677 -21.320  1.00  0.00     0.211 HD
ENDBRANCH   1  16
TORSDOF 10
ENDMDL
MODEL 5
REMARK VINA RESULT:    -3.835     12.050     13.076
REMARK INTER + INTRA:          -6.344
REMARK INTER:                  -5.531
REMARK INTRA:                  -0.812
REMARK UNBOUND:                -0.827
REMARK SMILES O=C(CO)[C@@H](O)[C@H](O)[C@H](O)CO
REMARK SMILES IDX 7 1 9 2 11 3 12 4 10 6 5 8 2 9 1 10 3 11 4 12 6 14 8 16
REMARK H PARENT 12 5 10 7 4 13 6 15 8 17
REMARK Flexibility Score: inf
ROOT
ATOM      1  C   UNL     1      30.147 -13.419 -33.701  1.00  0.00     0.181 C 
ENDROOT
BRANCH   1   2
ATOM      2  C   UNL     1      30.135 -14.957 -33.922  1.00  0.00     0.171 C 
BRANCH   2   3
ATOM      3  C   UNL     1      31.550 -15.572 -33.914  1.00  0.00     0.190 C 
BRANCH   3   4
ATOM      4  O   UNL     1      32.175 -15.431 -35.162  1.00  0.00    -0.394 OA
ATOM      5  H   UNL     1      33.112 -15.739 -35.051  1.00  0.00     0.210 HD
ENDBRANCH   3   4
ENDBRANCH   2   3
BRANCH   2   6
ATOM      6  O   UNL     1      29.321 -15.610 -32.981  1.00  0.00    -0.388 OA
ATOM      7  H   UNL     1      29.669 -15.388 -32.078  1.00  0.00     0.211 HD
ENDBRANCH   2   6
ENDBRANCH   1   2
BRANCH   1   8
ATOM      8  C   UNL     1      28.743 -12.787 -33.921  1.00  0.00     0.214 C 
BRANCH   8   9
ATOM      9  C   UNL     1      28.800 -11.398 -34.528  1.00  0.00     0.189 C 
ATOM     10  O   UNL     1      29.374 -10.507 -33.920  1.00  0.00    -0.294 OA
BRANCH   9  11
ATOM     11  C   UNL     1      28.147 -11.073 -35.848  1.00  0.00     0.234 C 
BRANCH  11  12
ATOM     12  O   UNL     1      29.039 -10.374 -36.672  1.00  0.00    -0.388 OA
ATOM     13  H   UNL     1      29.569  -9.779 -36.081  1.00  0.00     0.211 HD
ENDBRANCH  11  12
ENDBRANCH   9  11
ENDBRANCH   8   9
BRANCH   8  14
ATOM     14  O   UNL     1      27.922 -13.617 -34.705  1.00  0.00    -0.382 OA
ATOM     15  H   UNL     1      28.233 -13.557 -35.646  1.00  0.00     0.211 HD
ENDBRANCH   8  14
ENDBRANCH   1   8
BRANCH   1  16
ATOM     16  O   UNL     1      31.050 -12.841 -34.612  1.00  0.00    -0.387 OA
ATOM     17  H   UNL     1      30.554 -12.144 -35.116  1.00  0.00     0.211 HD
ENDBRANCH   1  16
TORSDOF 10
ENDMDL
MODEL 6
REMARK VINA RESULT:    -3.830     12.193     13.507
REMARK INTER + INTRA:          -6.336
REMARK INTER:                  -5.530
REMARK INTRA:                  -0.806
REMARK UNBOUND:                -0.827
REMARK SMILES O=C(CO)[C@@H](O)[C@H](O)[C@H](O)CO
REMARK SMILES IDX 7 1 9 2 11 3 12 4 10 6 5 8 2 9 1 10 3 11 4 12 6 14 8 16
REMARK H PARENT 12 5 10 7 4 13 6 15 8 17
REMARK Flexibility Score: inf
ROOT
ATOM      1  C   UNL     1      30.256 -12.306 -34.737  1.00  0.00     0.181 C 
ENDROOT
BRANCH   1   2
ATOM      2  C   UNL     1      28.839 -11.681 -34.607  1.00  0.00     0.171 C 
BRANCH   2   3
ATOM      3  C   UNL     1      28.731 -10.300 -35.285  1.00  0.00     0.190 C 
BRANCH   3   4
ATOM      4  O   UNL     1      29.128 -10.359 -36.630  1.00  0.00    -0.394 OA
ATOM      5  H   UNL     1      29.801  -9.642 -36.764  1.00  0.00     0.210 HD
ENDBRANCH   3   4
ENDBRANCH   2   3
BRANCH   2   6
ATOM      6  O   UNL     1      27.846 -12.541 -35.107  1.00  0.00    -0.388 OA
ATOM      7  H   UNL     1      28.100 -13.468 -34.861  1.00  0.00     0.211 HD
ENDBRANCH   2   6
ENDBRANCH   1   2
BRANCH   1   8
ATOM      8  C   UNL     1      30.570 -13.288 -33.573  1.00  0.00     0.214 C 
BRANCH   8   9
ATOM      9  C   UNL     1      30.305 -14.739 -33.925  1.00  0.00     0.189 C 
ATOM     10  O   UNL     1      29.154 -15.106 -34.105  1.00  0.00    -0.294 OA
BRANCH   9  11
ATOM     11  C   UNL     1      31.416 -15.753 -34.034  1.00  0.00     0.234 C 
BRANCH  11  12
ATOM     12  O   UNL     1      32.337 -15.362 -35.015  1.00  0.00    -0.388 OA
ATOM     13  H   UNL     1      32.296 -16.045 -35.735  1.00  0.00     0.211 HD
ENDBRANCH  11  12
ENDBRANCH   9  11
ENDBRANCH   8   9
BRANCH   8  14
ATOM     14  O   UNL     1      31.893 -13.142 -33.119  1.00  0.00    -0.382 OA
ATOM     15  H   UNL     1      32.280 -12.337 -33.552  1.00  0.00     0.211 HD
ENDBRANCH   8  14
ENDBRANCH   1   8
BRANCH   1  16
ATOM     16  O   UNL     1      31.207 -11.270 -34.723  1.00  0.00    -0.387 OA
ATOM     17  H   UNL     1      31.110 -10.769 -35.574  1.00  0.00     0.211 HD
ENDBRANCH   1  16
TORSDOF 10
ENDMDL
MODEL 7
REMARK VINA RESULT:    -3.786     13.582     15.976
REMARK INTER + INTRA:          -6.273
REMARK INTER:                  -5.234
REMARK INTRA:                  -1.039
REMARK UNBOUND:                -0.827
REMARK SMILES O=C(CO)[C@@H](O)[C@H](O)[C@H](O)CO
REMARK SMILES IDX 7 1 9 2 11 3 12 4 10 6 5 8 2 9 1 10 3 11 4 12 6 14 8 16
REMARK H PARENT 12 5 10 7 4 13 6 15 8 17
REMARK Flexibility Score: inf
ROOT
ATOM      1  C   UNL     1      36.104  -8.245 -33.854  1.00  0.00     0.181 C 
ENDROOT
BRANCH   1   2
ATOM      2  C   UNL     1      36.658  -9.684 -33.671  1.00  0.00     0.171 C 
BRANCH   2   3
ATOM      3  C   UNL     1      35.663 -10.622 -32.957  1.00  0.00     0.190 C 
BRANCH   3   4
ATOM      4  O   UNL     1      34.337 -10.313 -33.299  1.00  0.00    -0.394 OA
ATOM      5  H   UNL     1      34.352  -9.422 -33.736  1.00  0.00     0.210 HD
ENDBRANCH   3   4
ENDBRANCH   2   3
BRANCH   2   6
ATOM      6  O   UNL     1      37.054 -10.247 -34.897  1.00  0.00    -0.388 OA
ATOM      7  H   UNL     1      37.893 -10.753 -34.738  1.00  0.00     0.211 HD
ENDBRANCH   2   6
ENDBRANCH   1   2
BRANCH   1   8
ATOM      8  C   UNL     1      37.020  -7.377 -34.764  1.00  0.00     0.214 C 
BRANCH   8   9
ATOM      9  C   UNL     1      36.777  -5.888 -34.614  1.00  0.00     0.189 C 
ATOM     10  O   UNL     1      35.697  -5.426 -34.950  1.00  0.00    -0.294 OA
BRANCH   9  11
ATOM     11  C   UNL     1      37.835  -4.952 -34.087  1.00  0.00     0.234 C 
BRANCH  11  12
ATOM     12  O   UNL     1      38.137  -5.261 -32.754  1.00  0.00    -0.388 OA
ATOM     13  H   UNL     1      37.350  -4.993 -32.212  1.00  0.00     0.211 HD
ENDBRANCH  11  12
ENDBRANCH   9  11
ENDBRANCH   8   9
BRANCH   8  14
ATOM     14  O   UNL     1      38.380  -7.662 -34.546  1.00  0.00    -0.382 OA
ATOM     15  H   UNL     1      38.664  -8.338 -35.215  1.00  0.00     0.211 HD
ENDBRANCH   8  14
ENDBRANCH   1   8
BRANCH   1  16
ATOM     16  O   UNL     1      36.016  -7.634 -32.590  1.00  0.00    -0.387 OA
ATOM     17  H   UNL     1      35.172  -7.111 -32.574  1.00  0.00     0.211 HD
ENDBRANCH   1  16
TORSDOF 10
ENDMDL
MODEL 8
REMARK VINA RESULT:    -3.772      2.899      4.599
REMARK INTER + INTRA:          -6.253
REMARK INTER:                  -5.264
REMARK INTRA:                  -0.989
REMARK UNBOUND:                -0.827
REMARK SMILES O=C(CO)[C@@H](O)[C@H](O)[C@H](O)CO
REMARK SMILES IDX 7 1 9 2 11 3 12 4 10 6 5 8 2 9 1 10 3 11 4 12 6 14 8 16
REMARK H PARENT 12 5 10 7 4 13 6 15 8 17
REMARK Flexibility Score: inf
ROOT
ATOM      1  C   UNL     1      26.569 -11.604 -19.484  1.00  0.00     0.181 C 
ENDROOT
BRANCH   1   2
ATOM      2  C   UNL     1      25.574 -12.224 -20.503  1.00  0.00     0.171 C 
BRANCH   2   3
ATOM      3  C   UNL     1      26.134 -12.258 -21.940  1.00  0.00     0.190 C 
BRANCH   3   4
ATOM      4  O   UNL     1      27.242 -13.114 -22.036  1.00  0.00    -0.394 OA
ATOM      5  H   UNL     1      27.097 -13.685 -22.835  1.00  0.00     0.210 HD
ENDBRANCH   3   4
ENDBRANCH   2   3
BRANCH   2   6
ATOM      6  O   UNL     1      25.171 -13.513 -20.114  1.00  0.00    -0.388 OA
ATOM      7  H   UNL     1      24.470 -13.411 -19.418  1.00  0.00     0.211 HD
ENDBRANCH   2   6
ENDBRANCH   1   2
BRANCH   1   8
ATOM      8  C   UNL     1      25.837 -10.883 -18.317  1.00  0.00     0.214 C 
BRANCH   8   9
ATOM      9  C   UNL     1      25.550  -9.422 -18.601  1.00  0.00     0.189 C 
ATOM     10  O   UNL     1      26.447  -8.603 -18.469  1.00  0.00    -0.294 OA
BRANCH   9  11
ATOM     11  C   UNL     1      24.183  -8.939 -19.018  1.00  0.00     0.234 C 
BRANCH  11  12
ATOM     12  O   UNL     1      23.385  -8.706 -17.889  1.00  0.00    -0.388 OA
ATOM     13  H   UNL     1      23.853  -8.020 -17.344  1.00  0.00     0.211 HD
ENDBRANCH  11  12
ENDBRANCH   9  11
ENDBRANCH   8   9
BRANCH   8  14
ATOM     14  O   UNL     1      24.644 -11.544 -17.972  1.00  0.00    -0.382 OA
ATOM     15  H   UNL     1      24.656 -11.711 -16.994  1.00  0.00     0.211 HD
ENDBRANCH   8  14
ENDBRANCH   1   8
BRANCH   1  16
ATOM     16  O   UNL     1      27.375 -10.668 -20.157  1.00  0.00    -0.387 OA
ATOM     17  H   UNL     1      27.485 -10.990 -21.090  1.00  0.00     0.211 HD
ENDBRANCH   1  16
TORSDOF 10
ENDMDL
MODEL 9
REMARK VINA RESULT:    -3.745     11.295     13.029
REMARK INTER + INTRA:          -6.214
REMARK INTER:                  -5.206
REMARK INTRA:                  -1.008
REMARK UNBOUND:                -0.827
REMARK SMILES O=C(CO)[C@@H](O)[C@H](O)[C@H](O)CO
REMARK SMILES IDX 7 1 9 2 11 3 12 4 10 6 5 8 2 9 1 10 3 11 4 12 6 14 8 16
REMARK H PARENT 12 5 10 7 4 13 6 15 8 17
REMARK Flexibility Score: inf
ROOT
ATOM      1  C   UNL     1      29.612 -11.997 -34.243  1.00  0.00     0.181 C 
ENDROOT
BRANCH   1   2
ATOM      2  C   UNL     1      30.608 -11.238 -35.163  1.00  0.00     0.171 C 
BRANCH   2   3
ATOM      3  C   UNL     1      29.986  -9.984 -35.810  1.00  0.00     0.190 C 
BRANCH   3   4
ATOM      4  O   UNL     1      28.951 -10.325 -36.694  1.00  0.00    -0.394 OA
ATOM      5  H   UNL     1      28.457  -9.488 -36.895  1.00  0.00     0.210 HD
ENDBRANCH   3   4
ENDBRANCH   2   3
BRANCH   2   6
ATOM      6  O   UNL     1      31.786 -10.893 -34.478  1.00  0.00    -0.388 OA
ATOM      7  H   UNL     1      31.533 -10.654 -33.549  1.00  0.00     0.211 HD
ENDBRANCH   2   6
ENDBRANCH   1   2
BRANCH   1   8
ATOM      8  C   UNL     1      30.277 -13.216 -33.543  1.00  0.00     0.214 C 
BRANCH   8   9
ATOM      9  C   UNL     1      29.273 -14.202 -32.977  1.00  0.00     0.189 C 
ATOM     10  O   UNL     1      28.540 -13.847 -32.067  1.00  0.00    -0.294 OA
BRANCH   9  11
ATOM     11  C   UNL     1      29.169 -15.619 -33.482  1.00  0.00     0.234 C 
BRANCH  11  12
ATOM     12  O   UNL     1      28.546 -15.643 -34.737  1.00  0.00    -0.388 OA
ATOM     13  H   UNL     1      28.527 -16.592 -35.030  1.00  0.00     0.211 HD
ENDBRANCH  11  12
ENDBRANCH   9  11
ENDBRANCH   8   9
BRANCH   8  14
ATOM     14  O   UNL     1      31.166 -13.883 -34.405  1.00  0.00    -0.382 OA
ATOM     15  H   UNL     1      31.327 -13.301 -35.192  1.00  0.00     0.211 HD
ENDBRANCH   8  14
ENDBRANCH   1   8
BRANCH   1  16
ATOM     16  O   UNL     1      28.538 -12.457 -35.027  1.00  0.00    -0.387 OA
ATOM     17  H   UNL     1      28.744 -13.393 -35.288  1.00  0.00     0.211 HD
ENDBRANCH   1  16
TORSDOF 10
ENDMDL
