MODEL 1
REMARK VINA RESULT:    -6.072      0.000      0.000
REMARK INTER + INTRA:          -6.696
REMARK INTER:                  -6.605
REMARK INTRA:                  -0.092
REMARK UNBOUND:                -0.092
REMARK SMILES CC(=O)[C@@H]1CC[C@H]2[C@@H]3CC=C4C[C@@H](O)CC[C@@]4(C)[C@@H]3CC[C@@]12C
REMARK SMILES IDX 4 1 5 2 6 3 7 4 22 5 21 6 20 7 19 8 8 9 9 10 10 11 11 12
REMARK SMILES IDX 17 13 16 14 15 15 13 16 12 17 18 18 23 19 2 20 1 21 3 22
REMARK SMILES IDX 14 23
REMARK H PARENT 14 24
REMARK Flexibility Score: inf
ROOT
ATOM      1  C   UNL     1     119.436 120.645 121.356  1.00  0.00     0.062 C 
ATOM      2  C   UNL     1     119.639 119.574 122.437  1.00  0.00     0.012 C 
ATOM      3  C   UNL     1     118.279 118.927 122.693  1.00  0.00     0.005 C 
ATOM      4  C   UNL     1     117.269 119.586 121.739  1.00  0.00    -0.001 C 
ATOM      5  C   UNL     1     117.903 120.943 121.327  1.00  0.00    -0.020 C 
ATOM      6  C   UNL     1     117.586 122.047 122.378  1.00  0.00     0.008 C 
ATOM      7  C   UNL     1     116.110 122.110 122.796  1.00  0.00     0.005 C 
ATOM      8  C   UNL     1     115.647 120.758 123.399  1.00  0.00     0.003 C 
ATOM      9  C   UNL     1     115.834 119.635 122.347  1.00  0.00     0.000 C 
ATOM     10  C   UNL     1     114.760 119.730 121.251  1.00  0.00     0.031 C 
ATOM     11  C   UNL     1     113.380 119.788 121.825  1.00  0.00    -0.027 C 
ATOM     12  C   UNL     1     113.098 120.305 123.038  1.00  0.00    -0.065 C 
ATOM     13  C   UNL     1     114.188 120.739 124.031  1.00  0.00    -0.008 C 
ATOM     14  C   UNL     1     114.167 119.700 125.197  1.00  0.00     0.014 C 
ATOM     15  C   UNL     1     112.765 119.439 125.797  1.00  0.00     0.033 C 
ATOM     16  C   UNL     1     111.691 119.123 124.736  1.00  0.00     0.118 C 
ATOM     17  C   UNL     1     111.693 120.137 123.577  1.00  0.00     0.063 C 
ATOM     18  C   UNL     1     113.832 122.133 124.614  1.00  0.00     0.016 C 
ATOM     19  C   UNL     1     117.448 121.432 119.924  1.00  0.00     0.012 C 
ENDROOT
BRANCH   1  20
ATOM     20  C   UNL     1     120.038 120.212 120.020  1.00  0.00     0.133 C 
ATOM     21  C   UNL     1     119.798 118.856 119.408  1.00  0.00     0.088 C 
ATOM     22  O   UNL     1     120.721 121.016 119.396  1.00  0.00    -0.300 OA
ENDBRANCH   1  20
BRANCH  16  23
ATOM     23  O   UNL     1     111.819 117.805 124.259  1.00  0.00    -0.393 OA
ATOM     24  H   UNL     1     112.780 117.631 124.084  1.00  0.00     0.210 HD
ENDBRANCH  16  23
TORSDOF 2
ENDMDL
MODEL 2
REMARK VINA RESULT:    -6.034      3.450      4.880
REMARK INTER + INTRA:          -6.655
REMARK INTER:                  -6.557
REMARK INTRA:                  -0.098
REMARK UNBOUND:                -0.092
REMARK SMILES CC(=O)[C@@H]1CC[C@H]2[C@@H]3CC=C4C[C@@H](O)CC[C@@]4(C)[C@@H]3CC[C@@]12C
REMARK SMILES IDX 4 1 5 2 6 3 7 4 22 5 21 6 20 7 19 8 8 9 9 10 10 11 11 12
REMARK SMILES IDX 17 13 16 14 15 15 13 16 12 17 18 18 23 19 2 20 1 21 3 22
REMARK SMILES IDX 14 23
REMARK H PARENT 14 24
REMARK Flexibility Score: inf
ROOT
ATOM      1  C   UNL     1     117.900 121.497 120.063  1.00  0.00     0.062 C 
ATOM      2  C   UNL     1     119.091 122.364 120.492  1.00  0.00     0.012 C 
ATOM      3  C   UNL     1     118.779 122.904 121.887  1.00  0.00     0.005 C 
ATOM      4  C   UNL     1     117.416 122.330 122.307  1.00  0.00    -0.001 C 
ATOM      5  C   UNL     1     116.711 121.910 120.988  1.00  0.00    -0.020 C 
ATOM      6  C   UNL     1     115.970 123.119 120.344  1.00  0.00     0.008 C 
ATOM      7  C   UNL     1     115.104 123.919 121.328  1.00  0.00     0.005 C 
ATOM      8  C   UNL     1     115.962 124.477 122.493  1.00  0.00     0.003 C 
ATOM      9  C   UNL     1     116.636 123.301 123.245  1.00  0.00     0.000 C 
ATOM     10  C   UNL     1     115.611 122.547 124.109  1.00  0.00     0.031 C 
ATOM     11  C   UNL     1     114.849 123.471 125.004  1.00  0.00    -0.027 C 
ATOM     12  C   UNL     1     114.603 124.763 124.707  1.00  0.00    -0.065 C 
ATOM     13  C   UNL     1     115.222 125.470 123.491  1.00  0.00    -0.008 C 
ATOM     14  C   UNL     1     116.272 126.482 124.051  1.00  0.00     0.014 C 
ATOM     15  C   UNL     1     115.737 127.403 125.174  1.00  0.00     0.033 C 
ATOM     16  C   UNL     1     115.023 126.641 126.308  1.00  0.00     0.118 C 
ATOM     17  C   UNL     1     113.983 125.637 125.778  1.00  0.00     0.063 C 
ATOM     18  C   UNL     1     114.123 126.271 122.742  1.00  0.00     0.016 C 
ATOM     19  C   UNL     1     115.707 120.739 121.175  1.00  0.00     0.012 C 
ENDROOT
BRANCH   1  20
ATOM     20  C   UNL     1     118.254 120.011 120.086  1.00  0.00     0.133 C 
ATOM     21  C   UNL     1     117.978 119.079 118.935  1.00  0.00     0.088 C 
ATOM     22  O   UNL     1     118.820 119.558 121.074  1.00  0.00    -0.300 OA
ENDBRANCH   1  20
BRANCH  16  23
ATOM     23  O   UNL     1     115.950 126.009 127.159  1.00  0.00    -0.393 OA
ATOM     24  H   UNL     1     115.867 126.415 128.061  1.00  0.00     0.210 HD
ENDBRANCH  16  23
TORSDOF 2
ENDMDL
MODEL 3
REMARK VINA RESULT:    -5.941      3.203      5.919
REMARK INTER + INTRA:          -6.554
REMARK INTER:                  -6.518
REMARK INTRA:                  -0.036
REMARK UNBOUND:                -0.092
REMARK SMILES CC(=O)[C@@H]1CC[C@H]2[C@@H]3CC=C4C[C@@H](O)CC[C@@]4(C)[C@@H]3CC[C@@]12C
REMARK SMILES IDX 4 1 5 2 6 3 7 4 22 5 21 6 20 7 19 8 8 9 9 10 10 11 11 12
REMARK SMILES IDX 17 13 16 14 15 15 13 16 12 17 18 18 23 19 2 20 1 21 3 22
REMARK SMILES IDX 14 23
REMARK H PARENT 14 24
REMARK Flexibility Score: inf
ROOT
ATOM      1  C   UNL     1     117.126 124.746 122.274  1.00  0.00     0.062 C 
ATOM      2  C   UNL     1     116.885 124.983 120.777  1.00  0.00     0.012 C 
ATOM      3  C   UNL     1     116.343 123.678 120.195  1.00  0.00     0.005 C 
ATOM      4  C   UNL     1     116.225 122.672 121.352  1.00  0.00    -0.001 C 
ATOM      5  C   UNL     1     117.174 123.197 122.464  1.00  0.00    -0.020 C 
ATOM      6  C   UNL     1     118.634 122.708 122.227  1.00  0.00     0.008 C 
ATOM      7  C   UNL     1     118.749 121.208 121.915  1.00  0.00     0.005 C 
ATOM      8  C   UNL     1     117.931 120.842 120.649  1.00  0.00     0.003 C 
ATOM      9  C   UNL     1     116.441 121.203 120.875  1.00  0.00     0.000 C 
ATOM     10  C   UNL     1     115.774 120.198 121.829  1.00  0.00     0.031 C 
ATOM     11  C   UNL     1     115.986 118.785 121.386  1.00  0.00    -0.027 C 
ATOM     12  C   UNL     1     117.060 118.377 120.682  1.00  0.00    -0.065 C 
ATOM     13  C   UNL     1     118.103 119.354 120.115  1.00  0.00    -0.008 C 
ATOM     14  C   UNL     1     117.911 119.359 118.564  1.00  0.00     0.014 C 
ATOM     15  C   UNL     1     117.873 117.953 117.919  1.00  0.00     0.033 C 
ATOM     16  C   UNL     1     116.891 116.985 118.609  1.00  0.00     0.118 C 
ATOM     17  C   UNL     1     117.064 116.963 120.139  1.00  0.00     0.063 C 
ATOM     18  C   UNL     1     119.530 118.827 120.427  1.00  0.00     0.016 C 
ATOM     19  C   UNL     1     116.728 122.788 123.895  1.00  0.00     0.012 C 
ENDROOT
BRANCH   1  20
ATOM     20  C   UNL     1     116.087 125.472 123.129  1.00  0.00     0.133 C 
ATOM     21  C   UNL     1     114.602 125.271 122.970  1.00  0.00     0.088 C 
ATOM     22  O   UNL     1     116.477 126.229 124.010  1.00  0.00    -0.300 OA
ENDBRANCH   1  20
BRANCH  16  23
ATOM     23  O   UNL     1     115.559 117.271 118.252  1.00  0.00    -0.393 OA
ATOM     24  H   UNL     1     115.432 118.254 118.297  1.00  0.00     0.210 HD
ENDBRANCH  16  23
TORSDOF 2
ENDMDL
MODEL 4
REMARK VINA RESULT:    -5.920      3.276      5.263
REMARK INTER + INTRA:          -6.531
REMARK INTER:                  -6.434
REMARK INTRA:                  -0.097
REMARK UNBOUND:                -0.092
REMARK SMILES CC(=O)[C@@H]1CC[C@H]2[C@@H]3CC=C4C[C@@H](O)CC[C@@]4(C)[C@@H]3CC[C@@]12C
REMARK SMILES IDX 4 1 5 2 6 3 7 4 22 5 21 6 20 7 19 8 8 9 9 10 10 11 11 12
REMARK SMILES IDX 17 13 16 14 15 15 13 16 12 17 18 18 23 19 2 20 1 21 3 22
REMARK SMILES IDX 14 23
REMARK H PARENT 14 24
REMARK Flexibility Score: inf
ROOT
ATOM      1  C   UNL     1     115.324 122.861 121.906  1.00  0.00     0.062 C 
ATOM      2  C   UNL     1     115.999 121.794 121.034  1.00  0.00     0.012 C 
ATOM      3  C   UNL     1     116.026 120.498 121.843  1.00  0.00     0.005 C 
ATOM      4  C   UNL     1     115.333 120.781 123.187  1.00  0.00    -0.001 C 
ATOM      5  C   UNL     1     115.387 122.323 123.371  1.00  0.00    -0.020 C 
ATOM      6  C   UNL     1     116.738 122.760 124.009  1.00  0.00     0.008 C 
ATOM      7  C   UNL     1     117.147 121.935 125.238  1.00  0.00     0.005 C 
ATOM      8  C   UNL     1     117.276 120.432 124.878  1.00  0.00     0.003 C 
ATOM      9  C   UNL     1     115.918 119.912 124.342  1.00  0.00     0.000 C 
ATOM     10  C   UNL     1     114.907 119.746 125.489  1.00  0.00     0.031 C 
ATOM     11  C   UNL     1     115.463 118.922 126.607  1.00  0.00    -0.027 C 
ATOM     12  C   UNL     1     116.777 118.856 126.902  1.00  0.00    -0.065 C 
ATOM     13  C   UNL     1     117.862 119.489 126.017  1.00  0.00    -0.008 C 
ATOM     14  C   UNL     1     118.627 118.309 125.337  1.00  0.00     0.014 C 
ATOM     15  C   UNL     1     119.104 117.208 126.315  1.00  0.00     0.033 C 
ATOM     16  C   UNL     1     117.994 116.698 127.256  1.00  0.00     0.118 C 
ATOM     17  C   UNL     1     117.226 117.846 127.938  1.00  0.00     0.063 C 
ATOM     18  C   UNL     1     118.864 120.273 126.907  1.00  0.00     0.016 C 
ATOM     19  C   UNL     1     114.216 122.879 124.229  1.00  0.00     0.012 C 
ENDROOT
BRANCH   1  20
ATOM     20  C   UNL     1     113.922 123.194 121.398  1.00  0.00     0.133 C 
ATOM     21  C   UNL     1     112.978 122.159 120.843  1.00  0.00     0.088 C 
ATOM     22  O   UNL     1     113.530 124.353 121.475  1.00  0.00    -0.300 OA
ENDBRANCH   1  20
BRANCH  16  23
ATOM     23  O   UNL     1     117.114 115.829 126.582  1.00  0.00    -0.393 OA
ATOM     24  H   UNL     1     116.258 115.806 127.084  1.00  0.00     0.210 HD
ENDBRANCH  16  23
TORSDOF 2
ENDMDL
MODEL 5
REMARK VINA RESULT:    -5.672      3.167      5.551
REMARK INTER + INTRA:          -6.261
REMARK INTER:                  -6.160
REMARK INTRA:                  -0.101
REMARK UNBOUND:                -0.092
REMARK SMILES CC(=O)[C@@H]1CC[C@H]2[C@@H]3CC=C4C[C@@H](O)CC[C@@]4(C)[C@@H]3CC[C@@]12C
REMARK SMILES IDX 4 1 5 2 6 3 7 4 22 5 21 6 20 7 19 8 8 9 9 10 10 11 11 12
REMARK SMILES IDX 17 13 16 14 15 15 13 16 12 17 18 18 23 19 2 20 1 21 3 22
REMARK SMILES IDX 14 23
REMARK H PARENT 14 24
REMARK Flexibility Score: inf
ROOT
ATOM      1  C   UNL     1     116.809 118.691 127.523  1.00  0.00     0.062 C 
ATOM      2  C   UNL     1     115.344 119.062 127.789  1.00  0.00     0.012 C 
ATOM      3  C   UNL     1     114.721 119.437 126.445  1.00  0.00     0.005 C 
ATOM      4  C   UNL     1     115.805 119.255 125.369  1.00  0.00    -0.001 C 
ATOM      5  C   UNL     1     117.161 119.297 126.127  1.00  0.00    -0.020 C 
ATOM      6  C   UNL     1     117.643 120.764 126.323  1.00  0.00     0.008 C 
ATOM      7  C   UNL     1     117.571 121.623 125.051  1.00  0.00     0.005 C 
ATOM      8  C   UNL     1     116.121 121.687 124.508  1.00  0.00     0.003 C 
ATOM      9  C   UNL     1     115.628 120.253 124.185  1.00  0.00     0.000 C 
ATOM     10  C   UNL     1     116.288 119.725 122.900  1.00  0.00     0.031 C 
ATOM     11  C   UNL     1     116.133 120.681 121.761  1.00  0.00    -0.027 C 
ATOM     12  C   UNL     1     116.021 122.016 121.916  1.00  0.00    -0.065 C 
ATOM     13  C   UNL     1     115.874 122.683 123.293  1.00  0.00    -0.008 C 
ATOM     14  C   UNL     1     114.407 123.212 123.377  1.00  0.00     0.014 C 
ATOM     15  C   UNL     1     113.961 124.058 122.159  1.00  0.00     0.033 C 
ATOM     16  C   UNL     1     114.244 123.381 120.803  1.00  0.00     0.118 C 
ATOM     17  C   UNL     1     115.686 122.852 120.699  1.00  0.00     0.063 C 
ATOM     18  C   UNL     1     116.837 123.898 123.385  1.00  0.00     0.016 C 
ATOM     19  C   UNL     1     118.282 118.483 125.423  1.00  0.00     0.012 C 
ENDROOT
BRANCH   1  20
ATOM     20  C   UNL     1     117.037 117.186 127.653  1.00  0.00     0.133 C 
ATOM     21  C   UNL     1     118.269 116.589 128.283  1.00  0.00     0.088 C 
ATOM     22  O   UNL     1     116.163 116.424 127.258  1.00  0.00    -0.300 OA
ENDBRANCH   1  20
BRANCH  16  23
ATOM     23  O   UNL     1     113.309 122.362 120.538  1.00  0.00    -0.393 OA
ATOM     24  H   UNL     1     113.646 121.520 120.942  1.00  0.00     0.210 HD
ENDBRANCH  16  23
TORSDOF 2
ENDMDL
MODEL 6
REMARK VINA RESULT:    -5.637      2.258      3.281
REMARK INTER + INTRA:          -6.223
REMARK INTER:                  -6.125
REMARK INTRA:                  -0.098
REMARK UNBOUND:                -0.092
REMARK SMILES CC(=O)[C@@H]1CC[C@H]2[C@@H]3CC=C4C[C@@H](O)CC[C@@]4(C)[C@@H]3CC[C@@]12C
REMARK SMILES IDX 4 1 5 2 6 3 7 4 22 5 21 6 20 7 19 8 8 9 9 10 10 11 11 12
REMARK SMILES IDX 17 13 16 14 15 15 13 16 12 17 18 18 23 19 2 20 1 21 3 22
REMARK SMILES IDX 14 23
REMARK H PARENT 14 24
REMARK Flexibility Score: inf
ROOT
ATOM      1  C   UNL     1     120.788 120.336 120.755  1.00  0.00     0.062 C 
ATOM      2  C   UNL     1     120.080 119.051 120.303  1.00  0.00     0.012 C 
ATOM      3  C   UNL     1     118.680 119.446 119.835  1.00  0.00     0.005 C 
ATOM      4  C   UNL     1     118.564 120.973 119.972  1.00  0.00    -0.001 C 
ATOM      5  C   UNL     1     119.659 121.389 120.993  1.00  0.00    -0.020 C 
ATOM      6  C   UNL     1     119.140 121.247 122.454  1.00  0.00     0.008 C 
ATOM      7  C   UNL     1     117.753 121.862 122.689  1.00  0.00     0.005 C 
ATOM      8  C   UNL     1     116.694 121.211 121.762  1.00  0.00     0.003 C 
ATOM      9  C   UNL     1     117.104 121.424 120.283  1.00  0.00     0.000 C 
ATOM     10  C   UNL     1     116.860 122.880 119.853  1.00  0.00     0.031 C 
ATOM     11  C   UNL     1     115.465 123.325 120.157  1.00  0.00    -0.027 C 
ATOM     12  C   UNL     1     114.728 122.829 121.172  1.00  0.00    -0.065 C 
ATOM     13  C   UNL     1     115.184 121.634 122.024  1.00  0.00    -0.008 C 
ATOM     14  C   UNL     1     114.260 120.435 121.638  1.00  0.00     0.014 C 
ATOM     15  C   UNL     1     112.746 120.756 121.670  1.00  0.00     0.033 C 
ATOM     16  C   UNL     1     112.372 122.034 120.892  1.00  0.00     0.118 C 
ATOM     17  C   UNL     1     113.270 123.230 121.258  1.00  0.00     0.063 C 
ATOM     18  C   UNL     1     114.963 121.955 123.527  1.00  0.00     0.016 C 
ATOM     19  C   UNL     1     120.181 122.836 120.777  1.00  0.00     0.012 C 
ENDROOT
BRANCH   1  20
ATOM     20  C   UNL     1     121.869 120.757 119.761  1.00  0.00     0.133 C 
ATOM     21  C   UNL     1     123.199 121.326 120.180  1.00  0.00     0.088 C 
ATOM     22  O   UNL     1     121.661 120.595 118.564  1.00  0.00    -0.300 OA
ENDBRANCH   1  20
BRANCH  16  23
ATOM     23  O   UNL     1     112.374 121.804 119.503  1.00  0.00    -0.393 OA
ATOM     24  H   UNL     1     113.301 121.578 119.229  1.00  0.00     0.210 HD
ENDBRANCH  16  23
TORSDOF 2
ENDMDL
MODEL 7
REMARK VINA RESULT:    -5.582      2.968      6.698
REMARK INTER + INTRA:          -6.163
REMARK INTER:                  -6.056
REMARK INTRA:                  -0.107
REMARK UNBOUND:                -0.092
REMARK SMILES CC(=O)[C@@H]1CC[C@H]2[C@@H]3CC=C4C[C@@H](O)CC[C@@]4(C)[C@@H]3CC[C@@]12C
REMARK SMILES IDX 4 1 5 2 6 3 7 4 22 5 21 6 20 7 19 8 8 9 9 10 10 11 11 12
REMARK SMILES IDX 17 13 16 14 15 15 13 16 12 17 18 18 23 19 2 20 1 21 3 22
REMARK SMILES IDX 14 23
REMARK H PARENT 14 24
REMARK Flexibility Score: inf
ROOT
ATOM      1  C   UNL     1     114.663 124.243 123.261  1.00  0.00     0.062 C 
ATOM      2  C   UNL     1     114.234 122.901 123.869  1.00  0.00     0.012 C 
ATOM      3  C   UNL     1     115.459 121.987 123.857  1.00  0.00     0.005 C 
ATOM      4  C   UNL     1     116.630 122.796 123.274  1.00  0.00    -0.001 C 
ATOM      5  C   UNL     1     115.981 123.958 122.473  1.00  0.00    -0.020 C 
ATOM      6  C   UNL     1     115.615 123.503 121.029  1.00  0.00     0.008 C 
ATOM      7  C   UNL     1     116.742 122.752 120.305  1.00  0.00     0.005 C 
ATOM      8  C   UNL     1     117.157 121.483 121.093  1.00  0.00     0.003 C 
ATOM      9  C   UNL     1     117.643 121.891 122.508  1.00  0.00     0.000 C 
ATOM     10  C   UNL     1     119.036 122.537 122.441  1.00  0.00     0.031 C 
ATOM     11  C   UNL     1     120.012 121.681 121.698  1.00  0.00    -0.027 C 
ATOM     12  C   UNL     1     119.659 120.827 120.717  1.00  0.00    -0.065 C 
ATOM     13  C   UNL     1     118.194 120.519 120.368  1.00  0.00    -0.008 C 
ATOM     14  C   UNL     1     117.923 119.055 120.840  1.00  0.00     0.014 C 
ATOM     15  C   UNL     1     118.969 118.022 120.356  1.00  0.00     0.033 C 
ATOM     16  C   UNL     1     120.426 118.446 120.631  1.00  0.00     0.118 C 
ATOM     17  C   UNL     1     120.716 119.888 120.173  1.00  0.00     0.063 C 
ATOM     18  C   UNL     1     118.005 120.579 118.829  1.00  0.00     0.016 C 
ATOM     19  C   UNL     1     116.878 125.225 122.395  1.00  0.00     0.012 C 
ENDROOT
BRANCH   1  20
ATOM     20  C   UNL     1     114.767 125.332 124.327  1.00  0.00     0.133 C 
ATOM     21  C   UNL     1     114.170 126.706 124.165  1.00  0.00     0.088 C 
ATOM     22  O   UNL     1     115.335 125.069 125.381  1.00  0.00    -0.300 OA
ENDBRANCH   1  20
BRANCH  16  23
ATOM     23  O   UNL     1     120.760 118.267 121.987  1.00  0.00    -0.393 OA
ATOM     24  H   UNL     1     121.648 117.824 122.030  1.00  0.00     0.210 HD
ENDBRANCH  16  23
TORSDOF 2
ENDMDL
MODEL 8
REMARK VINA RESULT:    -5.577      2.686      4.159
REMARK INTER + INTRA:          -6.157
REMARK INTER:                  -6.048
REMARK INTRA:                  -0.109
REMARK UNBOUND:                -0.092
REMARK SMILES CC(=O)[C@@H]1CC[C@H]2[C@@H]3CC=C4C[C@@H](O)CC[C@@]4(C)[C@@H]3CC[C@@]12C
REMARK SMILES IDX 4 1 5 2 6 3 7 4 22 5 21 6 20 7 19 8 8 9 9 10 10 11 11 12
REMARK SMILES IDX 17 13 16 14 15 15 13 16 12 17 18 18 23 19 2 20 1 21 3 22
REMARK SMILES IDX 14 23
REMARK H PARENT 14 24
REMARK Flexibility Score: inf
ROOT
ATOM      1  C   UNL     1     118.237 118.209 119.188  1.00  0.00     0.062 C 
ATOM      2  C   UNL     1     118.150 119.360 118.178  1.00  0.00     0.012 C 
ATOM      3  C   UNL     1     118.000 120.654 118.977  1.00  0.00     0.005 C 
ATOM      4  C   UNL     1     118.034 120.278 120.468  1.00  0.00    -0.001 C 
ATOM      5  C   UNL     1     117.670 118.770 120.531  1.00  0.00    -0.020 C 
ATOM      6  C   UNL     1     116.125 118.570 120.546  1.00  0.00     0.008 C 
ATOM      7  C   UNL     1     115.387 119.469 121.549  1.00  0.00     0.005 C 
ATOM      8  C   UNL     1     115.652 120.967 121.250  1.00  0.00     0.003 C 
ATOM      9  C   UNL     1     117.174 121.248 121.336  1.00  0.00     0.000 C 
ATOM     10  C   UNL     1     117.645 121.261 122.799  1.00  0.00     0.031 C 
ATOM     11  C   UNL     1     116.819 122.181 123.642  1.00  0.00    -0.027 C 
ATOM     12  C   UNL     1     115.527 122.467 123.387  1.00  0.00    -0.065 C 
ATOM     13  C   UNL     1     114.810 122.009 122.107  1.00  0.00    -0.008 C 
ATOM     14  C   UNL     1     114.581 123.290 121.242  1.00  0.00     0.014 C 
ATOM     15  C   UNL     1     113.927 124.468 122.004  1.00  0.00     0.033 C 
ATOM     16  C   UNL     1     114.625 124.801 123.338  1.00  0.00     0.118 C 
ATOM     17  C   UNL     1     114.860 123.551 124.208  1.00  0.00     0.063 C 
ATOM     18  C   UNL     1     113.424 121.414 122.474  1.00  0.00     0.016 C 
ATOM     19  C   UNL     1     118.289 118.040 121.756  1.00  0.00     0.012 C 
ENDROOT
BRANCH   1  20
ATOM     20  C   UNL     1     119.653 117.642 119.270  1.00  0.00     0.133 C 
ATOM     21  C   UNL     1     119.953 116.165 119.266  1.00  0.00     0.088 C 
ATOM     22  O   UNL     1     120.597 118.423 119.305  1.00  0.00    -0.300 OA
ENDBRANCH   1  20
BRANCH  16  23
ATOM     23  O   UNL     1     115.826 125.504 123.124  1.00  0.00    -0.393 OA
ATOM     24  H   UNL     1     115.741 126.397 123.549  1.00  0.00     0.210 HD
ENDBRANCH  16  23
TORSDOF 2
ENDMDL
MODEL 9
REMARK VINA RESULT:    -5.492      3.619      5.684
REMARK INTER + INTRA:          -6.065
REMARK INTER:                  -5.987
REMARK INTRA:                  -0.078
REMARK UNBOUND:                -0.092
REMARK SMILES CC(=O)[C@@H]1CC[C@H]2[C@@H]3CC=C4C[C@@H](O)CC[C@@]4(C)[C@@H]3CC[C@@]12C
REMARK SMILES IDX 4 1 5 2 6 3 7 4 22 5 21 6 20 7 19 8 8 9 9 10 10 11 11 12
REMARK SMILES IDX 17 13 16 14 15 15 13 16 12 17 18 18 23 19 2 20 1 21 3 22
REMARK SMILES IDX 14 23
REMARK H PARENT 14 24
REMARK Flexibility Score: inf
ROOT
ATOM      1  C   UNL     1     114.248 122.709 122.858  1.00  0.00     0.062 C 
ATOM      2  C   UNL     1     114.696 123.722 123.921  1.00  0.00     0.012 C 
ATOM      3  C   UNL     1     115.938 123.146 124.599  1.00  0.00     0.005 C 
ATOM      4  C   UNL     1     116.254 121.804 123.916  1.00  0.00    -0.001 C 
ATOM      5  C   UNL     1     114.931 121.357 123.235  1.00  0.00    -0.020 C 
ATOM      6  C   UNL     1     114.017 120.596 124.242  1.00  0.00     0.008 C 
ATOM      7  C   UNL     1     114.743 119.510 125.050  1.00  0.00     0.005 C 
ATOM      8  C   UNL     1     115.915 120.117 125.864  1.00  0.00     0.003 C 
ATOM      9  C   UNL     1     116.921 120.791 124.896  1.00  0.00     0.000 C 
ATOM     10  C   UNL     1     117.743 119.735 124.140  1.00  0.00     0.031 C 
ATOM     11  C   UNL     1     118.378 118.751 125.071  1.00  0.00    -0.027 C 
ATOM     12  C   UNL     1     117.858 118.415 126.269  1.00  0.00    -0.065 C 
ATOM     13  C   UNL     1     116.643 119.132 126.879  1.00  0.00    -0.008 C 
ATOM     14  C   UNL     1     117.179 119.970 128.084  1.00  0.00     0.014 C 
ATOM     15  C   UNL     1     118.067 119.175 129.071  1.00  0.00     0.033 C 
ATOM     16  C   UNL     1     119.197 118.384 128.383  1.00  0.00     0.118 C 
ATOM     17  C   UNL     1     118.690 117.550 127.192  1.00  0.00     0.063 C 
ATOM     18  C   UNL     1     115.640 118.079 127.425  1.00  0.00     0.016 C 
ATOM     19  C   UNL     1     115.157 120.468 121.981  1.00  0.00     0.012 C 
ENDROOT
BRANCH   1  20
ATOM     20  C   UNL     1     114.543 123.213 121.446  1.00  0.00     0.133 C 
ATOM     21  C   UNL     1     115.757 124.036 121.100  1.00  0.00     0.088 C 
ATOM     22  O   UNL     1     113.776 122.906 120.541  1.00  0.00    -0.300 OA
ENDBRANCH   1  20
BRANCH  16  23
ATOM     23  O   UNL     1     120.251 119.234 127.996  1.00  0.00    -0.393 OA
ATOM     24  H   UNL     1     119.885 119.917 127.375  1.00  0.00     0.210 HD
ENDBRANCH  16  23
TORSDOF 2
ENDMDL
