MODEL 1
REMARK VINA RESULT:    -3.842      0.000      0.000
REMARK INTER + INTRA:          -6.258
REMARK INTER:                  -5.414
REMARK INTRA:                  -0.844
REMARK UNBOUND:                -0.844
REMARK SMILES C=CCCCCCCC(=O)[O-]
REMARK SMILES IDX 6 1 7 2 8 3 9 4 10 5 11 6 5 7 4 8 3 9 2 10 1 11
REMARK H PARENT
REMARK Flexibility Score: inf
ROOT
ATOM      1  C   UNL     1     -20.236  16.689 -23.236  1.00  0.00     0.000 C 
ENDROOT
BRANCH   1   2
ATOM      2  C   UNL     1     -20.945  17.112 -24.532  1.00  0.00     0.006 C 
BRANCH   2   3
ATOM      3  C   UNL     1     -20.498  18.493 -25.025  1.00  0.00     0.053 C 
BRANCH   3   4
ATOM      4  C   UNL     1     -21.653  19.443 -25.037  1.00  0.00     0.041 C 
ATOM      5  O   UNL     1     -22.833  19.005 -25.056  1.00  0.00    -0.550 OA
ATOM      6  O   UNL     1     -21.426  20.813 -25.077  1.00  0.00    -0.550 OA
ENDBRANCH   3   4
ENDBRANCH   2   3
ENDBRANCH   1   2
BRANCH   1   7
ATOM      7  C   UNL     1     -21.157  16.764 -22.005  1.00  0.00     0.000 C 
BRANCH   7   8
ATOM      8  C   UNL     1     -22.646  16.696 -22.378  1.00  0.00     0.004 C 
BRANCH   8   9
ATOM      9  C   UNL     1     -23.468  17.825 -21.738  1.00  0.00     0.027 C 
BRANCH   9  10
ATOM     10  C   UNL     1     -22.621  19.045 -21.499  1.00  0.00    -0.035 C 
ATOM     11  C   UNL     1     -23.145  20.274 -21.489  1.00  0.00     0.004 C 
ENDBRANCH   9  10
ENDBRANCH   8   9
ENDBRANCH   7   8
ENDBRANCH   1   7
TORSDOF 7
ENDMDL
MODEL 2
REMARK VINA RESULT:    -3.800      1.721      3.041
REMARK INTER + INTRA:          -6.198
REMARK INTER:                  -5.462
REMARK INTRA:                  -0.736
REMARK UNBOUND:                -0.844
REMARK SMILES C=CCCCCCCC(=O)[O-]
REMARK SMILES IDX 6 1 7 2 8 3 9 4 10 5 11 6 5 7 4 8 3 9 2 10 1 11
REMARK H PARENT
REMARK Flexibility Score: inf
ROOT
ATOM      1  C   UNL     1     -22.822  19.102 -24.225  1.00  0.00     0.000 C 
ENDROOT
BRANCH   1   2
ATOM      2  C   UNL     1     -21.683  19.687 -25.075  1.00  0.00     0.006 C 
BRANCH   2   3
ATOM      3  C   UNL     1     -20.621  18.641 -25.437  1.00  0.00     0.053 C 
BRANCH   3   4
ATOM      4  C   UNL     1     -21.176  17.649 -26.410  1.00  0.00     0.041 C 
ATOM      5  O   UNL     1     -21.419  16.470 -26.043  1.00  0.00    -0.550 OA
ATOM      6  O   UNL     1     -21.378  18.014 -27.735  1.00  0.00    -0.550 OA
ENDBRANCH   3   4
ENDBRANCH   2   3
ENDBRANCH   1   2
BRANCH   1   7
ATOM      7  C   UNL     1     -22.852  19.679 -22.798  1.00  0.00     0.000 C 
BRANCH   7   8
ATOM      8  C   UNL     1     -22.548  18.620 -21.728  1.00  0.00     0.004 C 
BRANCH   8   9
ATOM      9  C   UNL     1     -22.577  17.190 -22.288  1.00  0.00     0.027 C 
BRANCH   9  10
ATOM     10  C   UNL     1     -21.350  16.422 -21.880  1.00  0.00    -0.035 C 
ATOM     11  C   UNL     1     -20.245  16.411 -22.632  1.00  0.00     0.004 C 
ENDBRANCH   9  10
ENDBRANCH   8   9
ENDBRANCH   7   8
ENDBRANCH   1   7
TORSDOF 7
ENDMDL
MODEL 3
REMARK VINA RESULT:    -3.793      2.519      3.641
REMARK INTER + INTRA:          -6.190
REMARK INTER:                  -5.307
REMARK INTRA:                  -0.882
REMARK UNBOUND:                -0.844
REMARK SMILES C=CCCCCCCC(=O)[O-]
REMARK SMILES IDX 6 1 7 2 8 3 9 4 10 5 11 6 5 7 4 8 3 9 2 10 1 11
REMARK H PARENT
REMARK Flexibility Score: inf
ROOT
ATOM      1  C   UNL     1     -20.960  17.288 -24.758  1.00  0.00     0.000 C 
ENDROOT
BRANCH   1   2
ATOM      2  C   UNL     1     -20.580  16.128 -23.826  1.00  0.00     0.006 C 
BRANCH   2   3
ATOM      3  C   UNL     1     -20.645  16.517 -22.343  1.00  0.00     0.053 C 
BRANCH   3   4
ATOM      4  C   UNL     1     -21.734  15.759 -21.652  1.00  0.00     0.041 C 
ATOM      5  O   UNL     1     -21.450  14.902 -20.774  1.00  0.00    -0.550 OA
ATOM      6  O   UNL     1     -23.060  15.965 -22.011  1.00  0.00    -0.550 OA
ENDBRANCH   3   4
ENDBRANCH   2   3
ENDBRANCH   1   2
BRANCH   1   7
ATOM      7  C   UNL     1     -22.378  17.141 -25.338  1.00  0.00     0.000 C 
BRANCH   7   8
ATOM      8  C   UNL     1     -23.325  18.256 -24.869  1.00  0.00     0.004 C 
BRANCH   8   9
ATOM      9  C   UNL     1     -22.633  19.268 -23.942  1.00  0.00     0.027 C 
BRANCH   9  10
ATOM     10  C   UNL     1     -23.377  19.412 -22.644  1.00  0.00    -0.035 C 
ATOM     11  C   UNL     1     -22.739  19.509 -21.474  1.00  0.00     0.004 C 
ENDBRANCH   9  10
ENDBRANCH   8   9
ENDBRANCH   7   8
ENDBRANCH   1   7
TORSDOF 7
ENDMDL
MODEL 4
REMARK VINA RESULT:    -3.745      2.310      4.682
REMARK INTER + INTRA:          -6.122
REMARK INTER:                  -5.612
REMARK INTRA:                  -0.510
REMARK UNBOUND:                -0.844
REMARK SMILES C=CCCCCCCC(=O)[O-]
REMARK SMILES IDX 6 1 7 2 8 3 9 4 10 5 11 6 5 7 4 8 3 9 2 10 1 11
REMARK H PARENT
REMARK Flexibility Score: inf
ROOT
ATOM      1  C   UNL     1     -20.559  16.486 -23.943  1.00  0.00     0.000 C 
ENDROOT
BRANCH   1   2
ATOM      2  C   UNL     1     -20.901  16.486 -22.445  1.00  0.00     0.006 C 
BRANCH   2   3
ATOM      3  C   UNL     1     -21.973  17.522 -22.086  1.00  0.00     0.053 C 
BRANCH   3   4
ATOM      4  C   UNL     1     -23.334  17.004 -22.427  1.00  0.00     0.041 C 
ATOM      5  O   UNL     1     -23.935  17.427 -23.450  1.00  0.00    -0.550 OA
ATOM      6  O   UNL     1     -23.961  16.091 -21.588  1.00  0.00    -0.550 OA
ENDBRANCH   3   4
ENDBRANCH   2   3
ENDBRANCH   1   2
BRANCH   1   7
ATOM      7  C   UNL     1     -19.889  17.795 -24.398  1.00  0.00     0.000 C 
BRANCH   7   8
ATOM      8  C   UNL     1     -20.738  18.569 -25.418  1.00  0.00     0.004 C 
BRANCH   8   9
ATOM      9  C   UNL     1     -21.469  17.641 -26.402  1.00  0.00     0.027 C 
BRANCH   9  10
ATOM     10  C   UNL     1     -21.151  18.003 -27.826  1.00  0.00    -0.035 C 
ATOM     11  C   UNL     1     -20.366  17.236 -28.588  1.00  0.00     0.004 C 
ENDBRANCH   9  10
ENDBRANCH   8   9
ENDBRANCH   7   8
ENDBRANCH   1   7
TORSDOF 7
ENDMDL
MODEL 5
REMARK VINA RESULT:    -3.732      2.699      3.200
REMARK INTER + INTRA:          -6.103
REMARK INTER:                  -5.528
REMARK INTRA:                  -0.575
REMARK UNBOUND:                -0.844
REMARK SMILES C=CCCCCCCC(=O)[O-]
REMARK SMILES IDX 6 1 7 2 8 3 9 4 10 5 11 6 5 7 4 8 3 9 2 10 1 11
REMARK H PARENT
REMARK Flexibility Score: inf
ROOT
ATOM      1  C   UNL     1     -20.295  18.216 -25.200  1.00  0.00     0.000 C 
ENDROOT
BRANCH   1   2
ATOM      2  C   UNL     1     -21.486  17.871 -26.106  1.00  0.00     0.006 C 
BRANCH   2   3
ATOM      3  C   UNL     1     -21.252  18.276 -27.567  1.00  0.00     0.053 C 
BRANCH   3   4
ATOM      4  C   UNL     1     -20.461  17.225 -28.280  1.00  0.00     0.041 C 
ATOM      5  O   UNL     1     -19.588  17.553 -29.125  1.00  0.00    -0.550 OA
ATOM      6  O   UNL     1     -20.722  15.880 -28.046  1.00  0.00    -0.550 OA
ENDBRANCH   3   4
ENDBRANCH   2   3
ENDBRANCH   1   2
BRANCH   1   7
ATOM      7  C   UNL     1     -20.131  17.224 -24.034  1.00  0.00     0.000 C 
BRANCH   7   8
ATOM      8  C   UNL     1     -21.479  16.757 -23.465  1.00  0.00     0.004 C 
BRANCH   8   9
ATOM      9  C   UNL     1     -21.715  17.247 -22.027  1.00  0.00     0.027 C 
BRANCH   9  10
ATOM     10  C   UNL     1     -22.505  18.526 -22.013  1.00  0.00    -0.035 C 
ATOM     11  C   UNL     1     -23.479  18.762 -22.897  1.00  0.00     0.004 C 
ENDBRANCH   9  10
ENDBRANCH   8   9
ENDBRANCH   7   8
ENDBRANCH   1   7
TORSDOF 7
ENDMDL
MODEL 6
REMARK VINA RESULT:    -3.692      1.582      2.221
REMARK INTER + INTRA:          -6.047
REMARK INTER:                  -5.353
REMARK INTRA:                  -0.694
REMARK UNBOUND:                -0.844
REMARK SMILES C=CCCCCCCC(=O)[O-]
REMARK SMILES IDX 6 1 7 2 8 3 9 4 10 5 11 6 5 7 4 8 3 9 2 10 1 11
REMARK H PARENT
REMARK Flexibility Score: inf
ROOT
ATOM      1  C   UNL     1     -21.154  17.033 -22.486  1.00  0.00     0.000 C 
ENDROOT
BRANCH   1   2
ATOM      2  C   UNL     1     -20.657  16.714 -23.905  1.00  0.00     0.006 C 
BRANCH   2   3
ATOM      3  C   UNL     1     -20.468  17.974 -24.760  1.00  0.00     0.053 C 
BRANCH   3   4
ATOM      4  C   UNL     1     -21.238  17.858 -26.037  1.00  0.00     0.041 C 
ATOM      5  O   UNL     1     -22.473  17.617 -26.012  1.00  0.00    -0.550 OA
ATOM      6  O   UNL     1     -20.581  17.968 -27.256  1.00  0.00    -0.550 OA
ENDBRANCH   3   4
ENDBRANCH   2   3
ENDBRANCH   1   2
BRANCH   1   7
ATOM      7  C   UNL     1     -22.500  17.781 -22.485  1.00  0.00     0.000 C 
BRANCH   7   8
ATOM      8  C   UNL     1     -22.476  19.034 -21.595  1.00  0.00     0.004 C 
BRANCH   8   9
ATOM      9  C   UNL     1     -23.196  20.229 -22.239  1.00  0.00     0.027 C 
BRANCH   9  10
ATOM     10  C   UNL     1     -23.004  20.239 -23.731  1.00  0.00    -0.035 C 
ATOM     11  C   UNL     1     -22.415  21.262 -24.357  1.00  0.00     0.004 C 
ENDBRANCH   9  10
ENDBRANCH   8   9
ENDBRANCH   7   8
ENDBRANCH   1   7
TORSDOF 7
ENDMDL
MODEL 7
REMARK VINA RESULT:    -3.657      1.079      2.985
REMARK INTER + INTRA:          -5.998
REMARK INTER:                  -5.318
REMARK INTRA:                  -0.680
REMARK UNBOUND:                -0.844
REMARK SMILES C=CCCCCCCC(=O)[O-]
REMARK SMILES IDX 6 1 7 2 8 3 9 4 10 5 11 6 5 7 4 8 3 9 2 10 1 11
REMARK H PARENT
REMARK Flexibility Score: inf
ROOT
ATOM      1  C   UNL     1     -22.798  19.117 -21.634  1.00  0.00     0.000 C 
ENDROOT
BRANCH   1   2
ATOM      2  C   UNL     1     -23.008  20.195 -22.708  1.00  0.00     0.006 C 
BRANCH   2   3
ATOM      3  C   UNL     1     -22.867  19.643 -24.132  1.00  0.00     0.053 C 
BRANCH   3   4
ATOM      4  C   UNL     1     -22.111  20.605 -24.992  1.00  0.00     0.041 C 
ATOM      5  O   UNL     1     -21.465  20.191 -25.990  1.00  0.00    -0.550 OA
ATOM      6  O   UNL     1     -22.078  21.955 -24.663  1.00  0.00    -0.550 OA
ENDBRANCH   3   4
ENDBRANCH   2   3
ENDBRANCH   1   2
BRANCH   1   7
ATOM      7  C   UNL     1     -23.647  17.857 -21.885  1.00  0.00     0.000 C 
BRANCH   7   8
ATOM      8  C   UNL     1     -22.788  16.603 -22.108  1.00  0.00     0.004 C 
BRANCH   8   9
ATOM      9  C   UNL     1     -21.311  16.827 -21.748  1.00  0.00     0.027 C 
BRANCH   9  10
ATOM     10  C   UNL     1     -20.410  16.437 -22.887  1.00  0.00    -0.035 C 
ATOM     11  C   UNL     1     -20.172  17.262 -23.911  1.00  0.00     0.004 C 
ENDBRANCH   9  10
ENDBRANCH   8   9
ENDBRANCH   7   8
ENDBRANCH   1   7
TORSDOF 7
ENDMDL
MODEL 8
REMARK VINA RESULT:    -3.637      2.471      3.693
REMARK INTER + INTRA:          -5.969
REMARK INTER:                  -5.484
REMARK INTRA:                  -0.486
REMARK UNBOUND:                -0.844
REMARK SMILES C=CCCCCCCC(=O)[O-]
REMARK SMILES IDX 6 1 7 2 8 3 9 4 10 5 11 6 5 7 4 8 3 9 2 10 1 11
REMARK H PARENT
REMARK Flexibility Score: inf
ROOT
ATOM      1  C   UNL     1     -21.742  20.931 -25.032  1.00  0.00     0.000 C 
ENDROOT
BRANCH   1   2
ATOM      2  C   UNL     1     -21.877  19.406 -24.900  1.00  0.00     0.006 C 
BRANCH   2   3
ATOM      3  C   UNL     1     -20.716  18.653 -25.563  1.00  0.00     0.053 C 
BRANCH   3   4
ATOM      4  C   UNL     1     -21.236  17.649 -26.541  1.00  0.00     0.041 C 
ATOM      5  O   UNL     1     -21.434  16.458 -26.183  1.00  0.00    -0.550 OA
ATOM      6  O   UNL     1     -21.456  18.016 -27.863  1.00  0.00    -0.550 OA
ENDBRANCH   3   4
ENDBRANCH   2   3
ENDBRANCH   1   2
BRANCH   1   7
ATOM      7  C   UNL     1     -23.027  21.676 -24.625  1.00  0.00     0.000 C 
BRANCH   7   8
ATOM      8  C   UNL     1     -22.902  22.360 -23.256  1.00  0.00     0.004 C 
BRANCH   8   9
ATOM      9  C   UNL     1     -23.939  21.848 -22.243  1.00  0.00     0.027 C 
BRANCH   9  10
ATOM     10  C   UNL     1     -23.283  21.042 -21.156  1.00  0.00    -0.035 C 
ATOM     11  C   UNL     1     -22.884  19.783 -21.357  1.00  0.00     0.004 C 
ENDBRANCH   9  10
ENDBRANCH   8   9
ENDBRANCH   7   8
ENDBRANCH   1   7
TORSDOF 7
ENDMDL
MODEL 9
REMARK VINA RESULT:    -3.605      1.584      2.131
REMARK INTER + INTRA:          -5.924
REMARK INTER:                  -5.243
REMARK INTRA:                  -0.681
REMARK UNBOUND:                -0.844
REMARK SMILES C=CCCCCCCC(=O)[O-]
REMARK SMILES IDX 6 1 7 2 8 3 9 4 10 5 11 6 5 7 4 8 3 9 2 10 1 11
REMARK H PARENT
REMARK Flexibility Score: inf
ROOT
ATOM      1  C   UNL     1     -23.651  17.911 -24.280  1.00  0.00     0.000 C 
ENDROOT
BRANCH   1   2
ATOM      2  C   UNL     1     -22.359  17.253 -24.786  1.00  0.00     0.006 C 
BRANCH   2   3
ATOM      3  C   UNL     1     -21.190  18.242 -24.878  1.00  0.00     0.053 C 
BRANCH   3   4
ATOM      4  C   UNL     1     -21.342  19.120 -26.079  1.00  0.00     0.041 C 
ATOM      5  O   UNL     1     -21.181  18.646 -27.234  1.00  0.00    -0.550 OA
ATOM      6  O   UNL     1     -21.613  20.473 -25.921  1.00  0.00    -0.550 OA
ENDBRANCH   3   4
ENDBRANCH   2   3
ENDBRANCH   1   2
BRANCH   1   7
ATOM      7  C   UNL     1     -24.127  17.327 -22.937  1.00  0.00     0.000 C 
BRANCH   7   8
ATOM      8  C   UNL     1     -24.237  18.394 -21.837  1.00  0.00     0.004 C 
BRANCH   8   9
ATOM      9  C   UNL     1     -22.917  19.147 -21.611  1.00  0.00     0.027 C 
BRANCH   9  10
ATOM     10  C   UNL     1     -23.132  20.635 -21.623  1.00  0.00    -0.035 C 
ATOM     11  C   UNL     1     -23.190  21.329 -22.764  1.00  0.00     0.004 C 
ENDBRANCH   9  10
ENDBRANCH   8   9
ENDBRANCH   7   8
ENDBRANCH   1   7
TORSDOF 7
ENDMDL
