MODEL 1
REMARK VINA RESULT:    -5.158      0.000      0.000
REMARK INTER + INTRA:          -9.894
REMARK INTER:                  -9.077
REMARK INTRA:                  -0.817
REMARK UNBOUND:                -0.817
REMARK SMILES CCCCCCCCCCCCCCC(=O)[O-]
REMARK SMILES IDX 9 1 10 2 11 3 12 4 13 5 14 6 15 7 16 8 17 9 8 10 7 11 6 12
REMARK SMILES IDX 5 13 4 14 3 15 2 16 1 17
REMARK H PARENT
REMARK Flexibility Score: inf
ROOT
ATOM      1  C   UNL     1      21.006  29.819  35.870  1.00  0.00     0.000 C 
ENDROOT
BRANCH   1   2
ATOM      2  C   UNL     1      21.519  31.230  36.207  1.00  0.00     0.000 C 
BRANCH   2   3
ATOM      3  C   UNL     1      20.407  32.161  36.722  1.00  0.00     0.000 C 
BRANCH   3   4
ATOM      4  C   UNL     1      20.437  33.596  36.158  1.00  0.00     0.000 C 
BRANCH   4   5
ATOM      5  C   UNL     1      21.518  33.858  35.090  1.00  0.00     0.006 C 
BRANCH   5   6
ATOM      6  C   UNL     1      21.241  35.073  34.192  1.00  0.00     0.053 C 
BRANCH   6   7
ATOM      7  C   UNL     1      20.234  34.766  33.127  1.00  0.00     0.041 C 
ATOM      8  O   UNL     1      20.605  34.280  32.026  1.00  0.00    -0.550 OA
ATOM      9  O   UNL     1      18.890  35.047  33.337  1.00  0.00    -0.550 OA
ENDBRANCH   6   7
ENDBRANCH   5   6
ENDBRANCH   4   5
ENDBRANCH   3   4
ENDBRANCH   2   3
ENDBRANCH   1   2
BRANCH   1  10
ATOM     10  C   UNL     1      20.621  29.016  37.124  1.00  0.00     0.000 C 
BRANCH  10  11
ATOM     11  C   UNL     1      19.655  27.859  36.813  1.00  0.00    -0.000 C 
BRANCH  11  12
ATOM     12  C   UNL     1      18.182  28.298  36.862  1.00  0.00    -0.000 C 
BRANCH  12  13
ATOM     13  C   UNL     1      17.227  27.227  36.307  1.00  0.00    -0.000 C 
BRANCH  13  14
ATOM     14  C   UNL     1      17.756  25.798  36.549  1.00  0.00    -0.000 C 
BRANCH  14  15
ATOM     15  C   UNL     1      18.017  25.010  35.254  1.00  0.00    -0.000 C 
BRANCH  15  16
ATOM     16  C   UNL     1      19.168  24.003  35.389  1.00  0.00    -0.003 C 
ATOM     17  C   UNL     1      20.487  24.608  34.917  1.00  0.00     0.004 C 
ENDBRANCH  15  16
ENDBRANCH  14  15
ENDBRANCH  13  14
ENDBRANCH  12  13
ENDBRANCH  11  12
ENDBRANCH  10  11
ENDBRANCH   1  10
TORSDOF 13
ENDMDL
MODEL 2
REMARK VINA RESULT:    -4.660     17.261     18.981
REMARK INTER + INTRA:          -9.019
REMARK INTER:                  -7.598
REMARK INTRA:                  -1.421
REMARK UNBOUND:                -0.817
REMARK SMILES CCCCCCCCCCCCCCC(=O)[O-]
REMARK SMILES IDX 9 1 10 2 11 3 12 4 13 5 14 6 15 7 16 8 17 9 8 10 7 11 6 12
REMARK SMILES IDX 5 13 4 14 3 15 2 16 1 17
REMARK H PARENT
REMARK Flexibility Score: inf
ROOT
ATOM      1  C   UNL     1      22.505  22.391  19.814  1.00  0.00     0.000 C 
ENDROOT
BRANCH   1   2
ATOM      2  C   UNL     1      21.888  21.562  20.954  1.00  0.00     0.000 C 
BRANCH   2   3
ATOM      3  C   UNL     1      22.853  20.497  21.506  1.00  0.00     0.000 C 
BRANCH   3   4
ATOM      4  C   UNL     1      22.368  19.039  21.375  1.00  0.00     0.000 C 
BRANCH   4   5
ATOM      5  C   UNL     1      23.484  17.989  21.203  1.00  0.00     0.006 C 
BRANCH   5   6
ATOM      6  C   UNL     1      24.883  18.583  20.981  1.00  0.00     0.053 C 
BRANCH   6   7
ATOM      7  C   UNL     1      25.645  17.843  19.924  1.00  0.00     0.041 C 
ATOM      8  O   UNL     1      25.033  17.299  18.967  1.00  0.00    -0.550 OA
ATOM      9  O   UNL     1      27.026  17.726  20.013  1.00  0.00    -0.550 OA
ENDBRANCH   6   7
ENDBRANCH   5   6
ENDBRANCH   4   5
ENDBRANCH   3   4
ENDBRANCH   2   3
ENDBRANCH   1   2
BRANCH   1  10
ATOM     10  C   UNL     1      21.476  22.771  18.737  1.00  0.00     0.000 C 
BRANCH  10  11
ATOM     11  C   UNL     1      21.186  24.282  18.701  1.00  0.00    -0.000 C 
BRANCH  11  12
ATOM     12  C   UNL     1      20.225  24.719  19.820  1.00  0.00    -0.000 C 
BRANCH  12  13
ATOM     13  C   UNL     1      18.910  23.920  19.814  1.00  0.00    -0.000 C 
BRANCH  13  14
ATOM     14  C   UNL     1      18.664  23.199  21.157  1.00  0.00    -0.000 C 
BRANCH  14  15
ATOM     15  C   UNL     1      17.769  21.955  21.032  1.00  0.00    -0.000 C 
BRANCH  15  16
ATOM     16  C   UNL     1      18.570  20.656  20.870  1.00  0.00    -0.003 C 
ATOM     17  C   UNL     1      18.750  20.299  19.397  1.00  0.00     0.004 C 
ENDBRANCH  15  16
ENDBRANCH  14  15
ENDBRANCH  13  14
ENDBRANCH  12  13
ENDBRANCH  11  12
ENDBRANCH  10  11
ENDBRANCH   1  10
TORSDOF 13
ENDMDL
MODEL 3
REMARK VINA RESULT:    -4.609     16.860     19.225
REMARK INTER + INTRA:          -8.928
REMARK INTER:                  -7.601
REMARK INTRA:                  -1.327
REMARK UNBOUND:                -0.817
REMARK SMILES CCCCCCCCCCCCCCC(=O)[O-]
REMARK SMILES IDX 9 1 10 2 11 3 12 4 13 5 14 6 15 7 16 8 17 9 8 10 7 11 6 12
REMARK SMILES IDX 5 13 4 14 3 15 2 16 1 17
REMARK H PARENT
REMARK Flexibility Score: inf
ROOT
ATOM      1  C   UNL     1      21.648  22.711  21.373  1.00  0.00     0.000 C 
ENDROOT
BRANCH   1   2
ATOM      2  C   UNL     1      21.613  21.266  20.846  1.00  0.00     0.000 C 
BRANCH   2   3
ATOM      3  C   UNL     1      22.807  20.425  21.334  1.00  0.00     0.000 C 
BRANCH   3   4
ATOM      4  C   UNL     1      22.480  18.958  21.678  1.00  0.00     0.000 C 
BRANCH   4   5
ATOM      5  C   UNL     1      23.375  17.908  20.989  1.00  0.00     0.006 C 
BRANCH   5   6
ATOM      6  C   UNL     1      24.859  17.988  21.377  1.00  0.00     0.053 C 
BRANCH   6   7
ATOM      7  C   UNL     1      25.757  17.887  20.183  1.00  0.00     0.041 C 
ATOM      8  O   UNL     1      27.003  18.017  20.314  1.00  0.00    -0.550 OA
ATOM      9  O   UNL     1      25.217  17.684  18.919  1.00  0.00    -0.550 OA
ENDBRANCH   6   7
ENDBRANCH   5   6
ENDBRANCH   4   5
ENDBRANCH   3   4
ENDBRANCH   2   3
ENDBRANCH   1   2
BRANCH   1  10
ATOM     10  C   UNL     1      20.253  23.356  21.416  1.00  0.00     0.000 C 
BRANCH  10  11
ATOM     11  C   UNL     1      20.219  24.740  20.742  1.00  0.00    -0.000 C 
BRANCH  11  12
ATOM     12  C   UNL     1      19.798  24.660  19.265  1.00  0.00    -0.000 C 
BRANCH  12  13
ATOM     13  C   UNL     1      20.960  24.254  18.342  1.00  0.00    -0.000 C 
BRANCH  13  14
ATOM     14  C   UNL     1      20.562  23.122  17.372  1.00  0.00    -0.000 C 
BRANCH  14  15
ATOM     15  C   UNL     1      19.117  22.629  17.561  1.00  0.00    -0.000 C 
BRANCH  15  16
ATOM     16  C   UNL     1      19.033  21.307  18.337  1.00  0.00    -0.003 C 
ATOM     17  C   UNL     1      17.917  21.348  19.376  1.00  0.00     0.004 C 
ENDBRANCH  15  16
ENDBRANCH  14  15
ENDBRANCH  13  14
ENDBRANCH  12  13
ENDBRANCH  11  12
ENDBRANCH  10  11
ENDBRANCH   1  10
TORSDOF 13
ENDMDL
MODEL 4
REMARK VINA RESULT:    -4.571     15.985     18.312
REMARK INTER + INTRA:          -8.861
REMARK INTER:                  -7.607
REMARK INTRA:                  -1.255
REMARK UNBOUND:                -0.817
REMARK SMILES CCCCCCCCCCCCCCC(=O)[O-]
REMARK SMILES IDX 9 1 10 2 11 3 12 4 13 5 14 6 15 7 16 8 17 9 8 10 7 11 6 12
REMARK SMILES IDX 5 13 4 14 3 15 2 16 1 17
REMARK H PARENT
REMARK Flexibility Score: inf
ROOT
ATOM      1  C   UNL     1      21.515  23.346  19.336  1.00  0.00     0.000 C 
ENDROOT
BRANCH   1   2
ATOM      2  C   UNL     1      21.176  22.943  17.890  1.00  0.00     0.000 C 
BRANCH   2   3
ATOM      3  C   UNL     1      19.670  22.714  17.673  1.00  0.00     0.000 C 
BRANCH   3   4
ATOM      4  C   UNL     1      19.066  21.528  18.454  1.00  0.00     0.000 C 
BRANCH   4   5
ATOM      5  C   UNL     1      18.059  21.913  19.555  1.00  0.00     0.006 C 
BRANCH   5   6
ATOM      6  C   UNL     1      18.455  21.451  20.966  1.00  0.00     0.053 C 
BRANCH   6   7
ATOM      7  C   UNL     1      18.392  22.570  21.961  1.00  0.00     0.041 C 
ATOM      8  O   UNL     1      19.084  23.608  21.791  1.00  0.00    -0.550 OA
ATOM      9  O   UNL     1      17.596  22.451  23.093  1.00  0.00    -0.550 OA
ENDBRANCH   6   7
ENDBRANCH   5   6
ENDBRANCH   4   5
ENDBRANCH   3   4
ENDBRANCH   2   3
ENDBRANCH   1   2
BRANCH   1  10
ATOM     10  C   UNL     1      22.560  22.418  19.977  1.00  0.00     0.000 C 
BRANCH  10  11
ATOM     11  C   UNL     1      21.939  21.428  20.977  1.00  0.00    -0.000 C 
BRANCH  11  12
ATOM     12  C   UNL     1      22.964  20.408  21.501  1.00  0.00    -0.000 C 
BRANCH  12  13
ATOM     13  C   UNL     1      22.423  18.968  21.489  1.00  0.00    -0.000 C 
BRANCH  13  14
ATOM     14  C   UNL     1      23.557  17.922  21.526  1.00  0.00    -0.000 C 
BRANCH  14  15
ATOM     15  C   UNL     1      24.890  18.439  20.959  1.00  0.00    -0.000 C 
BRANCH  15  16
ATOM     16  C   UNL     1      25.111  18.039  19.493  1.00  0.00    -0.003 C 
ATOM     17  C   UNL     1      24.412  16.722  19.170  1.00  0.00     0.004 C 
ENDBRANCH  15  16
ENDBRANCH  14  15
ENDBRANCH  13  14
ENDBRANCH  12  13
ENDBRANCH  11  12
ENDBRANCH  10  11
ENDBRANCH   1  10
TORSDOF 13
ENDMDL
MODEL 5
REMARK VINA RESULT:    -4.564     16.719     19.290
REMARK INTER + INTRA:          -8.849
REMARK INTER:                  -7.458
REMARK INTRA:                  -1.391
REMARK UNBOUND:                -0.817
REMARK SMILES CCCCCCCCCCCCCCC(=O)[O-]
REMARK SMILES IDX 9 1 10 2 11 3 12 4 13 5 14 6 15 7 16 8 17 9 8 10 7 11 6 12
REMARK SMILES IDX 5 13 4 14 3 15 2 16 1 17
REMARK H PARENT
REMARK Flexibility Score: inf
ROOT
ATOM      1  C   UNL     1      22.508  22.469  19.900  1.00  0.00     0.000 C 
ENDROOT
BRANCH   1   2
ATOM      2  C   UNL     1      21.844  21.362  20.736  1.00  0.00     0.000 C 
BRANCH   2   3
ATOM      3  C   UNL     1      22.865  20.418  21.393  1.00  0.00     0.000 C 
BRANCH   3   4
ATOM      4  C   UNL     1      22.483  18.923  21.379  1.00  0.00     0.000 C 
BRANCH   4   5
ATOM      5  C   UNL     1      23.650  17.951  21.115  1.00  0.00     0.006 C 
BRANCH   5   6
ATOM      6  C   UNL     1      24.998  18.636  20.845  1.00  0.00     0.053 C 
BRANCH   6   7
ATOM      7  C   UNL     1      25.866  17.827  19.931  1.00  0.00     0.041 C 
ATOM      8  O   UNL     1      25.362  17.229  18.944  1.00  0.00    -0.550 OA
ATOM      9  O   UNL     1      27.225  17.704  20.189  1.00  0.00    -0.550 OA
ENDBRANCH   6   7
ENDBRANCH   5   6
ENDBRANCH   4   5
ENDBRANCH   3   4
ENDBRANCH   2   3
ENDBRANCH   1   2
BRANCH   1  10
ATOM     10  C   UNL     1      21.735  22.777  18.607  1.00  0.00     0.000 C 
BRANCH  10  11
ATOM     11  C   UNL     1      20.821  24.008  18.741  1.00  0.00    -0.000 C 
BRANCH  11  12
ATOM     12  C   UNL     1      19.477  23.820  18.018  1.00  0.00    -0.000 C 
BRANCH  12  13
ATOM     13  C   UNL     1      19.119  22.338  17.814  1.00  0.00    -0.000 C 
BRANCH  13  14
ATOM     14  C   UNL     1      17.964  21.889  18.733  1.00  0.00    -0.000 C 
BRANCH  14  15
ATOM     15  C   UNL     1      18.427  21.439  20.129  1.00  0.00    -0.000 C 
BRANCH  15  16
ATOM     16  C   UNL     1      17.881  22.327  21.255  1.00  0.00    -0.003 C 
ATOM     17  C   UNL     1      18.993  23.155  21.893  1.00  0.00     0.004 C 
ENDBRANCH  15  16
ENDBRANCH  14  15
ENDBRANCH  13  14
ENDBRANCH  12  13
ENDBRANCH  11  12
ENDBRANCH  10  11
ENDBRANCH   1  10
TORSDOF 13
ENDMDL
MODEL 6
REMARK VINA RESULT:    -4.503     16.605     18.923
REMARK INTER + INTRA:          -8.741
REMARK INTER:                  -7.085
REMARK INTRA:                  -1.656
REMARK UNBOUND:                -0.817
REMARK SMILES CCCCCCCCCCCCCCC(=O)[O-]
REMARK SMILES IDX 9 1 10 2 11 3 12 4 13 5 14 6 15 7 16 8 17 9 8 10 7 11 6 12
REMARK SMILES IDX 5 13 4 14 3 15 2 16 1 17
REMARK H PARENT
REMARK Flexibility Score: inf
ROOT
ATOM      1  C   UNL     1      21.752  22.731  18.849  1.00  0.00     0.000 C 
ENDROOT
BRANCH   1   2
ATOM      2  C   UNL     1      21.588  23.363  20.243  1.00  0.00     0.000 C 
BRANCH   2   3
ATOM      3  C   UNL     1      21.924  22.387  21.384  1.00  0.00     0.000 C 
BRANCH   3   4
ATOM      4  C   UNL     1      21.871  20.892  21.007  1.00  0.00     0.000 C 
BRANCH   4   5
ATOM      5  C   UNL     1      23.111  20.070  21.410  1.00  0.00     0.006 C 
BRANCH   5   6
ATOM      6  C   UNL     1      22.888  18.550  21.420  1.00  0.00     0.053 C 
BRANCH   6   7
ATOM      7  C   UNL     1      24.092  17.803  20.934  1.00  0.00     0.041 C 
ATOM      8  O   UNL     1      25.159  17.816  21.605  1.00  0.00    -0.550 OA
ATOM      9  O   UNL     1      24.049  17.121  19.725  1.00  0.00    -0.550 OA
ENDBRANCH   6   7
ENDBRANCH   5   6
ENDBRANCH   4   5
ENDBRANCH   3   4
ENDBRANCH   2   3
ENDBRANCH   1   2
BRANCH   1  10
ATOM     10  C   UNL     1      21.259  23.652  17.722  1.00  0.00     0.000 C 
BRANCH  10  11
ATOM     11  C   UNL     1      19.723  23.729  17.648  1.00  0.00    -0.000 C 
BRANCH  11  12
ATOM     12  C   UNL     1      19.086  22.370  17.313  1.00  0.00    -0.000 C 
BRANCH  12  13
ATOM     13  C   UNL     1      18.105  21.895  18.399  1.00  0.00    -0.000 C 
BRANCH  13  14
ATOM     14  C   UNL     1      18.595  20.612  19.102  1.00  0.00    -0.000 C 
BRANCH  14  15
ATOM     15  C   UNL     1      18.462  20.660  20.633  1.00  0.00    -0.000 C 
BRANCH  15  16
ATOM     16  C   UNL     1      18.203  22.076  21.167  1.00  0.00    -0.003 C 
ATOM     17  C   UNL     1      17.443  22.036  22.489  1.00  0.00     0.004 C 
ENDBRANCH  15  16
ENDBRANCH  14  15
ENDBRANCH  13  14
ENDBRANCH  12  13
ENDBRANCH  11  12
ENDBRANCH  10  11
ENDBRANCH   1  10
TORSDOF 13
ENDMDL
MODEL 7
REMARK VINA RESULT:    -4.471     16.545     18.869
REMARK INTER + INTRA:          -8.686
REMARK INTER:                  -6.977
REMARK INTRA:                  -1.710
REMARK UNBOUND:                -0.817
REMARK SMILES CCCCCCCCCCCCCCC(=O)[O-]
REMARK SMILES IDX 9 1 10 2 11 3 12 4 13 5 14 6 15 7 16 8 17 9 8 10 7 11 6 12
REMARK SMILES IDX 5 13 4 14 3 15 2 16 1 17
REMARK H PARENT
REMARK Flexibility Score: inf
ROOT
ATOM      1  C   UNL     1      21.189  23.441  21.778  1.00  0.00     0.000 C 
ENDROOT
BRANCH   1   2
ATOM      2  C   UNL     1      21.873  22.704  20.614  1.00  0.00     0.000 C 
BRANCH   2   3
ATOM      3  C   UNL     1      21.720  21.175  20.704  1.00  0.00     0.000 C 
BRANCH   3   4
ATOM      4  C   UNL     1      22.828  20.448  21.493  1.00  0.00     0.000 C 
BRANCH   4   5
ATOM      5  C   UNL     1      22.723  18.910  21.505  1.00  0.00     0.006 C 
BRANCH   5   6
ATOM      6  C   UNL     1      24.076  18.182  21.463  1.00  0.00     0.053 C 
BRANCH   6   7
ATOM      7  C   UNL     1      24.287  17.465  20.165  1.00  0.00     0.041 C 
ATOM      8  O   UNL     1      23.705  16.369  19.945  1.00  0.00    -0.550 OA
ATOM      9  O   UNL     1      25.151  17.988  19.212  1.00  0.00    -0.550 OA
ENDBRANCH   6   7
ENDBRANCH   5   6
ENDBRANCH   4   5
ENDBRANCH   3   4
ENDBRANCH   2   3
ENDBRANCH   1   2
BRANCH   1  10
ATOM     10  C   UNL     1      19.744  23.850  21.450  1.00  0.00     0.000 C 
BRANCH  10  11
ATOM     11  C   UNL     1      18.703  22.915  22.093  1.00  0.00    -0.000 C 
BRANCH  11  12
ATOM     12  C   UNL     1      18.191  21.849  21.110  1.00  0.00    -0.000 C 
BRANCH  12  13
ATOM     13  C   UNL     1      18.056  22.385  19.675  1.00  0.00    -0.000 C 
BRANCH  13  14
ATOM     14  C   UNL     1      18.845  21.531  18.660  1.00  0.00    -0.000 C 
BRANCH  14  15
ATOM     15  C   UNL     1      19.621  22.363  17.626  1.00  0.00    -0.000 C 
BRANCH  15  16
ATOM     16  C   UNL     1      19.357  23.870  17.752  1.00  0.00    -0.003 C 
ATOM     17  C   UNL     1      20.664  24.657  17.780  1.00  0.00     0.004 C 
ENDBRANCH  15  16
ENDBRANCH  14  15
ENDBRANCH  13  14
ENDBRANCH  12  13
ENDBRANCH  11  12
ENDBRANCH  10  11
ENDBRANCH   1  10
TORSDOF 13
ENDMDL
MODEL 8
REMARK VINA RESULT:    -4.442     16.263     18.285
REMARK INTER + INTRA:          -8.635
REMARK INTER:                  -7.762
REMARK INTRA:                  -0.873
REMARK UNBOUND:                -0.817
REMARK SMILES CCCCCCCCCCCCCCC(=O)[O-]
REMARK SMILES IDX 9 1 10 2 11 3 12 4 13 5 14 6 15 7 16 8 17 9 8 10 7 11 6 12
REMARK SMILES IDX 5 13 4 14 3 15 2 16 1 17
REMARK H PARENT
REMARK Flexibility Score: inf
ROOT
ATOM      1  C   UNL     1      22.547  22.491  19.956  1.00  0.00     0.000 C 
ENDROOT
BRANCH   1   2
ATOM      2  C   UNL     1      21.810  22.409  18.608  1.00  0.00     0.000 C 
BRANCH   2   3
ATOM      3  C   UNL     1      21.455  23.794  18.038  1.00  0.00     0.000 C 
BRANCH   3   4
ATOM      4  C   UNL     1      20.012  23.938  17.512  1.00  0.00     0.000 C 
BRANCH   4   5
ATOM      5  C   UNL     1      18.962  24.322  18.574  1.00  0.00     0.006 C 
BRANCH   5   6
ATOM      6  C   UNL     1      19.548  24.638  19.959  1.00  0.00     0.053 C 
BRANCH   6   7
ATOM      7  C   UNL     1      19.082  23.666  20.999  1.00  0.00     0.041 C 
ATOM      8  O   UNL     1      19.410  23.823  22.205  1.00  0.00    -0.550 OA
ATOM      9  O   UNL     1      18.315  22.567  20.633  1.00  0.00    -0.550 OA
ENDBRANCH   6   7
ENDBRANCH   5   6
ENDBRANCH   4   5
ENDBRANCH   3   4
ENDBRANCH   2   3
ENDBRANCH   1   2
BRANCH   1  10
ATOM     10  C   UNL     1      21.949  21.548  21.013  1.00  0.00     0.000 C 
BRANCH  10  11
ATOM     11  C   UNL     1      22.915  20.420  21.417  1.00  0.00    -0.000 C 
BRANCH  11  12
ATOM     12  C   UNL     1      22.205  19.063  21.554  1.00  0.00    -0.000 C 
BRANCH  12  13
ATOM     13  C   UNL     1      23.123  17.878  21.208  1.00  0.00    -0.000 C 
BRANCH  13  14
ATOM     14  C   UNL     1      24.587  18.320  21.001  1.00  0.00    -0.000 C 
BRANCH  14  15
ATOM     15  C   UNL     1      25.077  18.168  19.552  1.00  0.00    -0.000 C 
BRANCH  15  16
ATOM     16  C   UNL     1      26.375  17.356  19.442  1.00  0.00    -0.003 C 
ATOM     17  C   UNL     1      27.355  17.730  20.551  1.00  0.00     0.004 C 
ENDBRANCH  15  16
ENDBRANCH  14  15
ENDBRANCH  13  14
ENDBRANCH  12  13
ENDBRANCH  11  12
ENDBRANCH  10  11
ENDBRANCH   1  10
TORSDOF 13
ENDMDL
MODEL 9
REMARK VINA RESULT:    -4.364     16.523     18.719
REMARK INTER + INTRA:          -8.498
REMARK INTER:                  -6.464
REMARK INTRA:                  -2.033
REMARK UNBOUND:                -0.817
REMARK SMILES CCCCCCCCCCCCCCC(=O)[O-]
REMARK SMILES IDX 9 1 10 2 11 3 12 4 13 5 14 6 15 7 16 8 17 9 8 10 7 11 6 12
REMARK SMILES IDX 5 13 4 14 3 15 2 16 1 17
REMARK H PARENT
REMARK Flexibility Score: inf
ROOT
ATOM      1  C   UNL     1      20.594  22.772  17.506  1.00  0.00     0.000 C 
ENDROOT
BRANCH   1   2
ATOM      2  C   UNL     1      19.191  22.767  16.875  1.00  0.00     0.000 C 
BRANCH   2   3
ATOM      3  C   UNL     1      18.178  21.935  17.683  1.00  0.00     0.000 C 
BRANCH   3   4
ATOM      4  C   UNL     1      18.787  20.799  18.529  1.00  0.00     0.000 C 
BRANCH   4   5
ATOM      5  C   UNL     1      17.764  19.870  19.213  1.00  0.00     0.006 C 
BRANCH   5   6
ATOM      6  C   UNL     1      18.356  18.977  20.314  1.00  0.00     0.053 C 
BRANCH   6   7
ATOM      7  C   UNL     1      17.792  19.302  21.663  1.00  0.00     0.041 C 
ATOM      8  O   UNL     1      17.195  20.395  21.854  1.00  0.00    -0.550 OA
ATOM      9  O   UNL     1      17.955  18.414  22.719  1.00  0.00    -0.550 OA
ENDBRANCH   6   7
ENDBRANCH   5   6
ENDBRANCH   4   5
ENDBRANCH   3   4
ENDBRANCH   2   3
ENDBRANCH   1   2
BRANCH   1  10
ATOM     10  C   UNL     1      21.059  24.185  17.897  1.00  0.00     0.000 C 
BRANCH  10  11
ATOM     11  C   UNL     1      19.974  24.980  18.645  1.00  0.00    -0.000 C 
BRANCH  11  12
ATOM     12  C   UNL     1      20.127  24.882  20.172  1.00  0.00    -0.000 C 
BRANCH  12  13
ATOM     13  C   UNL     1      19.202  23.820  20.790  1.00  0.00    -0.000 C 
BRANCH  13  14
ATOM     14  C   UNL     1      19.995  22.641  21.393  1.00  0.00    -0.000 C 
BRANCH  14  15
ATOM     15  C   UNL     1      21.518  22.857  21.389  1.00  0.00    -0.000 C 
BRANCH  15  16
ATOM     16  C   UNL     1      22.269  21.802  20.565  1.00  0.00    -0.003 C 
ATOM     17  C   UNL     1      22.596  20.573  21.409  1.00  0.00     0.004 C 
ENDBRANCH  15  16
ENDBRANCH  14  15
ENDBRANCH  13  14
ENDBRANCH  12  13
ENDBRANCH  11  12
ENDBRANCH  10  11
ENDBRANCH   1  10
TORSDOF 13
ENDMDL
