MODEL 1
REMARK VINA RESULT:    -4.114      0.000      0.000
REMARK INTER + INTRA:          -4.927
REMARK INTER:                  -4.836
REMARK INTRA:                  -0.092
REMARK UNBOUND:                -0.092
REMARK SMILES O=C([O-])CCC(=O)[O-]
REMARK SMILES IDX 4 1 2 2 1 3 3 4 5 5 6 6 7 7 8 8
REMARK H PARENT
REMARK Flexibility Score: inf
ROOT
ATOM      1  C   UNL     1      14.616  34.531  13.301  1.00  0.00     0.059 C 
ENDROOT
BRANCH   1   2
ATOM      2  C   UNL     1      13.723  35.681  12.949  1.00  0.00     0.042 C 
ATOM      3  O   UNL     1      12.845  36.073  13.762  1.00  0.00    -0.550 OA
ATOM      4  O   UNL     1      13.889  36.346  11.741  1.00  0.00    -0.550 OA
ENDBRANCH   1   2
BRANCH   1   5
ATOM      5  C   UNL     1      13.908  33.525  14.216  1.00  0.00     0.059 C 
BRANCH   5   6
ATOM      6  C   UNL     1      13.329  32.383  13.438  1.00  0.00     0.042 C 
ATOM      7  O   UNL     1      13.747  32.131  12.277  1.00  0.00    -0.550 OA
ATOM      8  O   UNL     1      12.357  31.571  14.011  1.00  0.00    -0.550 OA
ENDBRANCH   5   6
ENDBRANCH   1   5
TORSDOF 3
ENDMDL
MODEL 2
REMARK VINA RESULT:    -4.091      0.127      3.945
REMARK INTER + INTRA:          -4.900
REMARK INTER:                  -4.809
REMARK INTRA:                  -0.091
REMARK UNBOUND:                -0.092
REMARK SMILES O=C([O-])CCC(=O)[O-]
REMARK SMILES IDX 4 1 2 2 1 3 3 4 5 5 6 6 7 7 8 8
REMARK H PARENT
REMARK Flexibility Score: inf
ROOT
ATOM      1  C   UNL     1      13.844  33.556  14.237  1.00  0.00     0.059 C 
ENDROOT
BRANCH   1   2
ATOM      2  C   UNL     1      13.343  32.398  13.432  1.00  0.00     0.042 C 
ATOM      3  O   UNL     1      13.933  32.061  12.372  1.00  0.00    -0.550 OA
ATOM      4  O   UNL     1      12.248  31.664  13.872  1.00  0.00    -0.550 OA
ENDBRANCH   1   2
BRANCH   1   5
ATOM      5  C   UNL     1      14.618  34.555  13.371  1.00  0.00     0.059 C 
BRANCH   5   6
ATOM      6  C   UNL     1      13.744  35.684  12.914  1.00  0.00     0.042 C 
ATOM      7  O   UNL     1      12.816  36.106  13.654  1.00  0.00    -0.550 OA
ATOM      8  O   UNL     1      13.981  36.296  11.689  1.00  0.00    -0.550 OA
ENDBRANCH   5   6
ENDBRANCH   1   5
TORSDOF 3
ENDMDL
MODEL 3
REMARK VINA RESULT:    -3.506     14.702     15.532
REMARK INTER + INTRA:          -4.213
REMARK INTER:                  -4.144
REMARK INTRA:                  -0.069
REMARK UNBOUND:                -0.092
REMARK SMILES O=C([O-])CCC(=O)[O-]
REMARK SMILES IDX 4 1 2 2 1 3 3 4 5 5 6 6 7 7 8 8
REMARK H PARENT
REMARK Flexibility Score: inf
ROOT
ATOM      1  C   UNL     1       5.180  47.214   8.999  1.00  0.00     0.059 C 
ENDROOT
BRANCH   1   2
ATOM      2  C   UNL     1       6.482  47.946   9.111  1.00  0.00     0.042 C 
ATOM      3  O   UNL     1       7.494  47.369   9.587  1.00  0.00    -0.550 OA
ATOM      4  O   UNL     1       6.587  49.253   8.652  1.00  0.00    -0.550 OA
ENDBRANCH   1   2
BRANCH   1   5
ATOM      5  C   UNL     1       4.626  46.832  10.375  1.00  0.00     0.059 C 
BRANCH   5   6
ATOM      6  C   UNL     1       4.411  45.353  10.494  1.00  0.00     0.042 C 
ATOM      7  O   UNL     1       4.312  44.817  11.629  1.00  0.00    -0.550 OA
ATOM      8  O   UNL     1       4.279  44.574   9.350  1.00  0.00    -0.550 OA
ENDBRANCH   5   6
ENDBRANCH   1   5
TORSDOF 3
ENDMDL
MODEL 4
REMARK VINA RESULT:    -3.483     11.722     13.204
REMARK INTER + INTRA:          -4.186
REMARK INTER:                  -4.159
REMARK INTRA:                  -0.027
REMARK UNBOUND:                -0.092
REMARK SMILES O=C([O-])CCC(=O)[O-]
REMARK SMILES IDX 4 1 2 2 1 3 3 4 5 5 6 6 7 7 8 8
REMARK H PARENT
REMARK Flexibility Score: inf
ROOT
ATOM      1  C   UNL     1       2.594  40.234  12.608  1.00  0.00     0.059 C 
ENDROOT
BRANCH   1   2
ATOM      2  C   UNL     1       3.489  39.037  12.708  1.00  0.00     0.042 C 
ATOM      3  O   UNL     1       3.087  37.911  12.314  1.00  0.00    -0.550 OA
ATOM      4  O   UNL     1       4.782  39.173  13.199  1.00  0.00    -0.550 OA
ENDBRANCH   1   2
BRANCH   1   5
ATOM      5  C   UNL     1       3.325  41.438  12.007  1.00  0.00     0.059 C 
BRANCH   5   6
ATOM      6  C   UNL     1       2.375  42.383  11.336  1.00  0.00     0.042 C 
ATOM      7  O   UNL     1       1.635  43.133  12.026  1.00  0.00    -0.550 OA
ATOM      8  O   UNL     1       2.337  42.466   9.949  1.00  0.00    -0.550 OA
ENDBRANCH   5   6
ENDBRANCH   1   5
TORSDOF 3
ENDMDL
MODEL 5
REMARK VINA RESULT:    -3.451     14.808     15.971
REMARK INTER + INTRA:          -4.148
REMARK INTER:                  -4.089
REMARK INTRA:                  -0.059
REMARK UNBOUND:                -0.092
REMARK SMILES O=C([O-])CCC(=O)[O-]
REMARK SMILES IDX 4 1 2 2 1 3 3 4 5 5 6 6 7 7 8 8
REMARK H PARENT
REMARK Flexibility Score: inf
ROOT
ATOM      1  C   UNL     1       4.521  46.834  10.386  1.00  0.00     0.059 C 
ENDROOT
BRANCH   1   2
ATOM      2  C   UNL     1       4.281  45.362  10.525  1.00  0.00     0.042 C 
ATOM      3  O   UNL     1       4.123  44.851  11.664  1.00  0.00    -0.550 OA
ATOM      4  O   UNL     1       4.192  44.562   9.393  1.00  0.00    -0.550 OA
ENDBRANCH   1   2
BRANCH   1   5
ATOM      5  C   UNL     1       5.091  47.188   9.008  1.00  0.00     0.059 C 
BRANCH   5   6
ATOM      6  C   UNL     1       6.343  48.003   9.121  1.00  0.00     0.042 C 
ATOM      7  O   UNL     1       7.419  47.464   9.492  1.00  0.00    -0.550 OA
ATOM      8  O   UNL     1       6.331  49.349   8.776  1.00  0.00    -0.550 OA
ENDBRANCH   5   6
ENDBRANCH   1   5
TORSDOF 3
ENDMDL
MODEL 6
REMARK VINA RESULT:    -3.392     13.560     14.379
REMARK INTER + INTRA:          -4.079
REMARK INTER:                  -3.961
REMARK INTRA:                  -0.119
REMARK UNBOUND:                -0.092
REMARK SMILES O=C([O-])CCC(=O)[O-]
REMARK SMILES IDX 4 1 2 2 1 3 3 4 5 5 6 6 7 7 8 8
REMARK H PARENT
REMARK Flexibility Score: inf
ROOT
ATOM      1  C   UNL     1       4.061  44.473  11.836  1.00  0.00     0.059 C 
ENDROOT
BRANCH   1   2
ATOM      2  C   UNL     1       4.132  45.417  10.676  1.00  0.00     0.042 C 
ATOM      3  O   UNL     1       3.991  46.655  10.857  1.00  0.00    -0.550 OA
ATOM      4  O   UNL     1       4.394  44.934   9.400  1.00  0.00    -0.550 OA
ENDBRANCH   1   2
BRANCH   1   5
ATOM      5  C   UNL     1       2.686  43.806  11.940  1.00  0.00     0.059 C 
BRANCH   5   6
ATOM      6  C   UNL     1       2.673  42.460  11.281  1.00  0.00     0.042 C 
ATOM      7  O   UNL     1       2.382  42.356  10.060  1.00  0.00    -0.550 OA
ATOM      8  O   UNL     1       3.021  41.326  12.005  1.00  0.00    -0.550 OA
ENDBRANCH   5   6
ENDBRANCH   1   5
TORSDOF 3
ENDMDL
MODEL 7
REMARK VINA RESULT:    -3.389     14.066     15.558
REMARK INTER + INTRA:          -4.076
REMARK INTER:                  -4.039
REMARK INTRA:                  -0.036
REMARK UNBOUND:                -0.092
REMARK SMILES O=C([O-])CCC(=O)[O-]
REMARK SMILES IDX 4 1 2 2 1 3 3 4 5 5 6 6 7 7 8 8
REMARK H PARENT
REMARK Flexibility Score: inf
ROOT
ATOM      1  C   UNL     1       4.166  45.942  10.775  1.00  0.00     0.059 C 
ENDROOT
BRANCH   1   2
ATOM      2  C   UNL     1       4.169  44.541  11.306  1.00  0.00     0.042 C 
ATOM      3  O   UNL     1       4.172  44.335  12.547  1.00  0.00    -0.550 OA
ATOM      4  O   UNL     1       4.126  43.465  10.429  1.00  0.00    -0.550 OA
ENDBRANCH   1   2
BRANCH   1   5
ATOM      5  C   UNL     1       4.585  45.990   9.302  1.00  0.00     0.059 C 
BRANCH   5   6
ATOM      6  C   UNL     1       5.362  47.232   8.988  1.00  0.00     0.042 C 
ATOM      7  O   UNL     1       4.808  48.193   8.391  1.00  0.00    -0.550 OA
ATOM      8  O   UNL     1       6.687  47.346   9.392  1.00  0.00    -0.550 OA
ENDBRANCH   5   6
ENDBRANCH   1   5
TORSDOF 3
ENDMDL
MODEL 8
REMARK VINA RESULT:    -3.359     11.526     12.538
REMARK INTER + INTRA:          -4.040
REMARK INTER:                  -4.008
REMARK INTRA:                  -0.031
REMARK UNBOUND:                -0.092
REMARK SMILES O=C([O-])CCC(=O)[O-]
REMARK SMILES IDX 4 1 2 2 1 3 3 4 5 5 6 6 7 7 8 8
REMARK H PARENT
REMARK Flexibility Score: inf
ROOT
ATOM      1  C   UNL     1       3.740  41.612  12.008  1.00  0.00     0.059 C 
ENDROOT
BRANCH   1   2
ATOM      2  C   UNL     1       3.032  42.631  11.170  1.00  0.00     0.042 C 
ATOM      3  O   UNL     1       3.666  43.288  10.302  1.00  0.00    -0.550 OA
ATOM      4  O   UNL     1       1.665  42.827  11.318  1.00  0.00    -0.550 OA
ENDBRANCH   1   2
BRANCH   1   5
ATOM      5  C   UNL     1       2.809  40.464  12.411  1.00  0.00     0.059 C 
BRANCH   5   6
ATOM      6  C   UNL     1       3.575  39.220  12.743  1.00  0.00     0.042 C 
ATOM      7  O   UNL     1       4.660  39.295  13.378  1.00  0.00    -0.550 OA
ATOM      8  O   UNL     1       3.071  37.975  12.386  1.00  0.00    -0.550 OA
ENDBRANCH   5   6
ENDBRANCH   1   5
TORSDOF 3
ENDMDL
MODEL 9
REMARK VINA RESULT:    -3.302     13.946     14.893
REMARK INTER + INTRA:          -3.973
REMARK INTER:                  -3.951
REMARK INTRA:                  -0.022
REMARK UNBOUND:                -0.092
REMARK SMILES O=C([O-])CCC(=O)[O-]
REMARK SMILES IDX 4 1 2 2 1 3 3 4 5 5 6 6 7 7 8 8
REMARK H PARENT
REMARK Flexibility Score: inf
ROOT
ATOM      1  C   UNL     1       3.752  43.844  12.013  1.00  0.00     0.059 C 
ENDROOT
BRANCH   1   2
ATOM      2  C   UNL     1       2.378  43.250  11.960  1.00  0.00     0.042 C 
ATOM      3  O   UNL     1       1.373  43.994  11.809  1.00  0.00    -0.550 OA
ATOM      4  O   UNL     1       2.211  41.873  12.035  1.00  0.00    -0.550 OA
ENDBRANCH   1   2
BRANCH   1   5
ATOM      5  C   UNL     1       3.835  45.152  11.220  1.00  0.00     0.059 C 
BRANCH   5   6
ATOM      6  C   UNL     1       4.216  44.909   9.791  1.00  0.00     0.042 C 
ATOM      7  O   UNL     1       4.565  45.871   9.057  1.00  0.00    -0.550 OA
ATOM      8  O   UNL     1       4.226  43.616   9.283  1.00  0.00    -0.550 OA
ENDBRANCH   5   6
ENDBRANCH   1   5
TORSDOF 3
ENDMDL
