MODEL 1
REMARK VINA RESULT:    -7.605      0.000      0.000
REMARK INTER + INTRA:          -8.941
REMARK INTER:                  -9.161
REMARK INTRA:                   0.219
REMARK UNBOUND:                 0.219
REMARK SMILES O=c1c(O)c(-c2ccc(O)c(O)c2)oc2cc(O)cc(O)c12
REMARK SMILES IDX 5 1 3 2 2 3 1 4 22 5 20 6 19 7 17 8 16 9 15 10 14 11 6 12
REMARK SMILES IDX 7 13 8 14 9 15 13 16 11 17 10 18 12 20 4 22 21 24 18 26
REMARK H PARENT 10 19 12 21 4 23 21 25 18 27
REMARK Flexibility Score: inf
ROOT
ATOM      1  C   UNL     1     -63.157 -41.734 -33.577  1.00  0.00     0.180 A 
ATOM      2  C   UNL     1     -64.170 -42.362 -32.831  1.00  0.00     0.208 A 
ATOM      3  C   UNL     1     -65.202 -43.028 -33.511  1.00  0.00     0.238 A 
ATOM      4  O   UNL     1     -66.134 -43.542 -32.840  1.00  0.00    -0.285 OA
ATOM      5  C   UNL     1     -65.199 -43.073 -34.926  1.00  0.00     0.111 A 
ATOM      6  C   UNL     1     -66.172 -43.756 -35.718  1.00  0.00     0.134 A 
ATOM      7  C   UNL     1     -66.144 -43.623 -37.111  1.00  0.00     0.093 A 
ATOM      8  C   UNL     1     -65.142 -42.891 -37.746  1.00  0.00     0.123 A 
ATOM      9  C   UNL     1     -64.151 -42.269 -36.985  1.00  0.00     0.094 A 
ATOM     10  C   UNL     1     -64.173 -42.352 -35.590  1.00  0.00     0.146 A 
ATOM     11  O   UNL     1     -63.218 -41.738 -34.903  1.00  0.00    -0.452 OA
ENDROOT
BRANCH   1  12
ATOM     12  C   UNL     1     -62.024 -41.033 -32.932  1.00  0.00     0.025 A 
ATOM     13  C   UNL     1     -61.416 -39.951 -33.589  1.00  0.00     0.016 A 
ATOM     14  C   UNL     1     -60.331 -39.289 -33.008  1.00  0.00     0.051 A 
ATOM     15  C   UNL     1     -59.829 -39.708 -31.769  1.00  0.00     0.157 A 
ATOM     16  C   UNL     1     -61.503 -41.464 -31.697  1.00  0.00     0.062 A 
ATOM     17  C   UNL     1     -60.414 -40.800 -31.115  1.00  0.00     0.158 A 
BRANCH  15  18
ATOM     18  O   UNL     1     -58.749 -39.049 -31.184  1.00  0.00    -0.504 OA
ATOM     19  H   UNL     1     -58.753 -38.044 -31.048  1.00  0.00     0.293 HD
ENDBRANCH  15  18
BRANCH  17  20
ATOM     20  O   UNL     1     -59.903 -41.223 -29.888  1.00  0.00    -0.504 OA
ATOM     21  H   UNL     1     -59.870 -40.604 -29.086  1.00  0.00     0.293 HD
ENDBRANCH  17  20
ENDBRANCH   1  12
BRANCH   2  22
ATOM     22  O   UNL     1     -64.165 -42.285 -31.436  1.00  0.00    -0.502 OA
ATOM     23  H   UNL     1     -63.673 -42.955 -30.857  1.00  0.00     0.293 HD
ENDBRANCH   2  22
BRANCH   6  24
ATOM     24  O   UNL     1     -67.162 -44.589 -35.188  1.00  0.00    -0.507 OA
ATOM     25  H   UNL     1     -67.889 -44.290 -34.557  1.00  0.00     0.293 HD
ENDBRANCH   6  24
BRANCH   8  26
ATOM     26  O   UNL     1     -65.137 -42.794 -39.135  1.00  0.00    -0.508 OA
ATOM     27  H   UNL     1     -65.855 -43.233 -39.700  1.00  0.00     0.293 HD
ENDBRANCH   8  26
TORSDOF 6
ENDMDL
MODEL 2
REMARK VINA RESULT:    -7.389      2.524      6.702
REMARK INTER + INTRA:          -8.682
REMARK INTER:                  -8.428
REMARK INTRA:                  -0.253
REMARK UNBOUND:                 0.219
REMARK SMILES O=c1c(O)c(-c2ccc(O)c(O)c2)oc2cc(O)cc(O)c12
REMARK SMILES IDX 5 1 3 2 2 3 1 4 22 5 20 6 19 7 17 8 16 9 15 10 14 11 6 12
REMARK SMILES IDX 7 13 8 14 9 15 13 16 11 17 10 18 12 20 4 22 21 24 18 26
REMARK H PARENT 10 19 12 21 4 23 21 25 18 27
REMARK Flexibility Score: inf
ROOT
ATOM      1  C   UNL     1     -61.574 -42.714 -35.117  1.00  0.00     0.180 A 
ATOM      2  C   UNL     1     -62.434 -43.486 -34.315  1.00  0.00     0.208 A 
ATOM      3  C   UNL     1     -62.494 -43.229 -32.937  1.00  0.00     0.238 A 
ATOM      4  O   UNL     1     -63.224 -43.958 -32.217  1.00  0.00    -0.285 OA
ATOM      5  C   UNL     1     -61.706 -42.193 -32.378  1.00  0.00     0.111 A 
ATOM      6  C   UNL     1     -61.718 -41.818 -31.001  1.00  0.00     0.134 A 
ATOM      7  C   UNL     1     -60.801 -40.867 -30.537  1.00  0.00     0.093 A 
ATOM      8  C   UNL     1     -59.920 -40.229 -31.410  1.00  0.00     0.123 A 
ATOM      9  C   UNL     1     -59.941 -40.544 -32.768  1.00  0.00     0.094 A 
ATOM     10  C   UNL     1     -60.819 -41.516 -33.255  1.00  0.00     0.146 A 
ATOM     11  O   UNL     1     -60.800 -41.794 -34.553  1.00  0.00    -0.452 OA
ENDROOT
BRANCH   1  12
ATOM     12  C   UNL     1     -61.475 -42.910 -36.580  1.00  0.00     0.025 A 
ATOM     13  C   UNL     1     -60.762 -44.009 -37.084  1.00  0.00     0.016 A 
ATOM     14  C   UNL     1     -60.637 -44.201 -38.463  1.00  0.00     0.051 A 
ATOM     15  C   UNL     1     -61.211 -43.288 -39.357  1.00  0.00     0.157 A 
ATOM     16  C   UNL     1     -62.032 -41.984 -37.482  1.00  0.00     0.062 A 
ATOM     17  C   UNL     1     -61.906 -42.176 -38.866  1.00  0.00     0.158 A 
BRANCH  15  18
ATOM     18  O   UNL     1     -61.091 -43.477 -40.733  1.00  0.00    -0.504 OA
ATOM     19  H   UNL     1     -60.661 -42.778 -41.328  1.00  0.00     0.293 HD
ENDBRANCH  15  18
BRANCH  17  20
ATOM     20  O   UNL     1     -62.464 -41.262 -39.759  1.00  0.00    -0.504 OA
ATOM     21  H   UNL     1     -62.241 -40.274 -39.716  1.00  0.00     0.293 HD
ENDBRANCH  17  20
ENDBRANCH   1  12
BRANCH   2  22
ATOM     22  O   UNL     1     -63.186 -44.519 -34.884  1.00  0.00    -0.502 OA
ATOM     23  H   UNL     1     -64.192 -44.576 -34.784  1.00  0.00     0.293 HD
ENDBRANCH   2  22
BRANCH   6  24
ATOM     24  O   UNL     1     -62.620 -42.327 -30.062  1.00  0.00    -0.507 OA
ATOM     25  H   UNL     1     -62.369 -42.653 -29.141  1.00  0.00     0.293 HD
ENDBRANCH   6  24
BRANCH   8  26
ATOM     26  O   UNL     1     -59.033 -39.275 -30.915  1.00  0.00    -0.508 OA
ATOM     27  H   UNL     1     -59.353 -38.367 -30.599  1.00  0.00     0.293 HD
ENDBRANCH   8  26
TORSDOF 6
ENDMDL
MODEL 3
REMARK VINA RESULT:    -7.099      1.231      2.867
REMARK INTER + INTRA:          -8.332
REMARK INTER:                  -8.536
REMARK INTRA:                   0.205
REMARK UNBOUND:                 0.219
REMARK SMILES O=c1c(O)c(-c2ccc(O)c(O)c2)oc2cc(O)cc(O)c12
REMARK SMILES IDX 5 1 3 2 2 3 1 4 22 5 20 6 19 7 17 8 16 9 15 10 14 11 6 12
REMARK SMILES IDX 7 13 8 14 9 15 13 16 11 17 10 18 12 20 4 22 21 24 18 26
REMARK H PARENT 10 19 12 21 4 23 21 25 18 27
REMARK Flexibility Score: inf
ROOT
ATOM      1  C   UNL     1     -62.781 -41.767 -34.046  1.00  0.00     0.180 A 
ATOM      2  C   UNL     1     -62.664 -41.905 -35.441  1.00  0.00     0.208 A 
ATOM      3  C   UNL     1     -63.670 -42.586 -36.144  1.00  0.00     0.238 A 
ATOM      4  O   UNL     1     -63.533 -42.754 -37.384  1.00  0.00    -0.285 OA
ATOM      5  C   UNL     1     -64.789 -43.106 -35.448  1.00  0.00     0.111 A 
ATOM      6  C   UNL     1     -65.887 -43.778 -36.065  1.00  0.00     0.134 A 
ATOM      7  C   UNL     1     -66.874 -44.365 -35.265  1.00  0.00     0.093 A 
ATOM      8  C   UNL     1     -66.840 -44.248 -33.875  1.00  0.00     0.123 A 
ATOM      9  C   UNL     1     -65.802 -43.542 -33.265  1.00  0.00     0.094 A 
ATOM     10  C   UNL     1     -64.783 -42.977 -34.035  1.00  0.00     0.146 A 
ATOM     11  O   UNL     1     -63.809 -42.322 -33.415  1.00  0.00    -0.452 OA
ENDROOT
BRANCH   1  12
ATOM     12  C   UNL     1     -61.774 -41.041 -33.240  1.00  0.00     0.025 A 
ATOM     13  C   UNL     1     -61.164 -39.892 -33.766  1.00  0.00     0.016 A 
ATOM     14  C   UNL     1     -60.196 -39.204 -33.030  1.00  0.00     0.051 A 
ATOM     15  C   UNL     1     -59.812 -39.665 -31.764  1.00  0.00     0.157 A 
ATOM     16  C   UNL     1     -61.371 -41.512 -31.976  1.00  0.00     0.062 A 
ATOM     17  C   UNL     1     -60.398 -40.823 -31.238  1.00  0.00     0.158 A 
BRANCH  15  18
ATOM     18  O   UNL     1     -58.848 -38.980 -31.025  1.00  0.00    -0.504 OA
ATOM     19  H   UNL     1     -58.557 -39.301 -30.109  1.00  0.00     0.293 HD
ENDBRANCH  15  18
BRANCH  17  20
ATOM     20  O   UNL     1     -60.005 -41.286 -29.983  1.00  0.00    -0.504 OA
ATOM     21  H   UNL     1     -60.642 -41.287 -29.195  1.00  0.00     0.293 HD
ENDBRANCH  17  20
ENDBRANCH   1  12
BRANCH   2  22
ATOM     22  O   UNL     1     -61.541 -41.404 -36.105  1.00  0.00    -0.502 OA
ATOM     23  H   UNL     1     -60.595 -41.612 -35.805  1.00  0.00     0.293 HD
ENDBRANCH   2  22
BRANCH   6  24
ATOM     24  O   UNL     1     -66.066 -43.872 -37.448  1.00  0.00    -0.507 OA
ATOM     25  H   UNL     1     -65.443 -43.479 -38.137  1.00  0.00     0.293 HD
ENDBRANCH   6  24
BRANCH   8  26
ATOM     26  O   UNL     1     -67.848 -44.832 -33.112  1.00  0.00    -0.508 OA
ATOM     27  H   UNL     1     -68.432 -45.573 -33.482  1.00  0.00     0.293 HD
ENDBRANCH   8  26
TORSDOF 6
ENDMDL
MODEL 4
REMARK VINA RESULT:    -6.957      2.359      7.118
REMARK INTER + INTRA:          -8.161
REMARK INTER:                  -7.842
REMARK INTRA:                  -0.319
REMARK UNBOUND:                 0.219
REMARK SMILES O=c1c(O)c(-c2ccc(O)c(O)c2)oc2cc(O)cc(O)c12
REMARK SMILES IDX 5 1 3 2 2 3 1 4 22 5 20 6 19 7 17 8 16 9 15 10 14 11 6 12
REMARK SMILES IDX 7 13 8 14 9 15 13 16 11 17 10 18 12 20 4 22 21 24 18 26
REMARK H PARENT 10 19 12 21 4 23 21 25 18 27
REMARK Flexibility Score: inf
ROOT
ATOM      1  C   UNL     1     -62.634 -42.454 -35.724  1.00  0.00     0.180 A 
ATOM      2  C   UNL     1     -61.592 -43.395 -35.805  1.00  0.00     0.208 A 
ATOM      3  C   UNL     1     -60.734 -43.557 -34.706  1.00  0.00     0.238 A 
ATOM      4  O   UNL     1     -59.772 -44.362 -34.805  1.00  0.00    -0.285 OA
ATOM      5  C   UNL     1     -60.936 -42.788 -33.535  1.00  0.00     0.111 A 
ATOM      6  C   UNL     1     -60.153 -42.900 -32.346  1.00  0.00     0.134 A 
ATOM      7  C   UNL     1     -60.360 -41.998 -31.296  1.00  0.00     0.093 A 
ATOM      8  C   UNL     1     -61.365 -41.033 -31.362  1.00  0.00     0.123 A 
ATOM      9  C   UNL     1     -62.177 -40.955 -32.494  1.00  0.00     0.094 A 
ATOM     10  C   UNL     1     -61.970 -41.817 -33.574  1.00  0.00     0.146 A 
ATOM     11  O   UNL     1     -62.757 -41.702 -34.637  1.00  0.00    -0.452 OA
ENDROOT
BRANCH   1  12
ATOM     12  C   UNL     1     -63.593 -42.244 -36.831  1.00  0.00     0.025 A 
ATOM     13  C   UNL     1     -64.717 -43.077 -36.939  1.00  0.00     0.016 A 
ATOM     14  C   UNL     1     -65.625 -42.910 -37.989  1.00  0.00     0.051 A 
ATOM     15  C   UNL     1     -65.413 -41.917 -38.954  1.00  0.00     0.157 A 
ATOM     16  C   UNL     1     -63.373 -41.261 -37.815  1.00  0.00     0.062 A 
ATOM     17  C   UNL     1     -64.283 -41.094 -38.869  1.00  0.00     0.158 A 
BRANCH  15  18
ATOM     18  O   UNL     1     -66.317 -41.745 -40.001  1.00  0.00    -0.504 OA
ATOM     19  H   UNL     1     -66.401 -40.860 -40.488  1.00  0.00     0.293 HD
ENDBRANCH  15  18
BRANCH  17  20
ATOM     20  O   UNL     1     -64.068 -40.116 -39.838  1.00  0.00    -0.504 OA
ATOM     21  H   UNL     1     -63.144 -39.934 -40.213  1.00  0.00     0.293 HD
ENDBRANCH  17  20
ENDBRANCH   1  12
BRANCH   2  22
ATOM     22  O   UNL     1     -61.397 -44.127 -36.980  1.00  0.00    -0.502 OA
ATOM     23  H   UNL     1     -61.554 -45.127 -37.030  1.00  0.00     0.293 HD
ENDBRANCH   2  22
BRANCH   6  24
ATOM     24  O   UNL     1     -59.185 -43.887 -32.140  1.00  0.00    -0.507 OA
ATOM     25  H   UNL     1     -59.250 -44.622 -31.453  1.00  0.00     0.293 HD
ENDBRANCH   6  24
BRANCH   8  26
ATOM     26  O   UNL     1     -61.553 -40.163 -30.291  1.00  0.00    -0.508 OA
ATOM     27  H   UNL     1     -60.772 -39.699 -29.841  1.00  0.00     0.293 HD
ENDBRANCH   8  26
TORSDOF 6
ENDMDL
MODEL 5
REMARK VINA RESULT:    -6.934      1.809      3.492
REMARK INTER + INTRA:          -8.134
REMARK INTER:                  -7.864
REMARK INTRA:                  -0.269
REMARK UNBOUND:                 0.219
REMARK SMILES O=c1c(O)c(-c2ccc(O)c(O)c2)oc2cc(O)cc(O)c12
REMARK SMILES IDX 5 1 3 2 2 3 1 4 22 5 20 6 19 7 17 8 16 9 15 10 14 11 6 12
REMARK SMILES IDX 7 13 8 14 9 15 13 16 11 17 10 18 12 20 4 22 21 24 18 26
REMARK H PARENT 10 19 12 21 4 23 21 25 18 27
REMARK Flexibility Score: inf
ROOT
ATOM      1  C   UNL     1     -63.188 -42.578 -34.721  1.00  0.00     0.180 A 
ATOM      2  C   UNL     1     -63.042 -43.049 -36.038  1.00  0.00     0.208 A 
ATOM      3  C   UNL     1     -64.051 -43.854 -36.589  1.00  0.00     0.238 A 
ATOM      4  O   UNL     1     -63.890 -44.316 -37.748  1.00  0.00    -0.285 OA
ATOM      5  C   UNL     1     -65.201 -44.166 -35.823  1.00  0.00     0.111 A 
ATOM      6  C   UNL     1     -66.304 -44.939 -36.295  1.00  0.00     0.134 A 
ATOM      7  C   UNL     1     -67.327 -45.294 -35.408  1.00  0.00     0.093 A 
ATOM      8  C   UNL     1     -67.322 -44.849 -34.086  1.00  0.00     0.123 A 
ATOM      9  C   UNL     1     -66.279 -44.042 -33.631  1.00  0.00     0.094 A 
ATOM     10  C   UNL     1     -65.225 -43.702 -34.482  1.00  0.00     0.146 A 
ATOM     11  O   UNL     1     -64.246 -42.941 -34.006  1.00  0.00    -0.452 OA
ENDROOT
BRANCH   1  12
ATOM     12  C   UNL     1     -62.179 -41.704 -34.080  1.00  0.00     0.025 A 
ATOM     13  C   UNL     1     -61.378 -42.216 -33.047  1.00  0.00     0.016 A 
ATOM     14  C   UNL     1     -60.435 -41.403 -32.414  1.00  0.00     0.051 A 
ATOM     15  C   UNL     1     -60.289 -40.062 -32.794  1.00  0.00     0.157 A 
ATOM     16  C   UNL     1     -62.044 -40.352 -34.445  1.00  0.00     0.062 A 
ATOM     17  C   UNL     1     -61.098 -39.535 -33.809  1.00  0.00     0.158 A 
BRANCH  15  18
ATOM     18  O   UNL     1     -59.347 -39.248 -32.167  1.00  0.00    -0.504 OA
ATOM     19  H   UNL     1     -58.609 -39.639 -31.592  1.00  0.00     0.293 HD
ENDBRANCH  15  18
BRANCH  17  20
ATOM     20  O   UNL     1     -60.959 -38.197 -34.176  1.00  0.00    -0.504 OA
ATOM     21  H   UNL     1     -61.124 -37.889 -35.128  1.00  0.00     0.293 HD
ENDBRANCH  17  20
ENDBRANCH   1  12
BRANCH   2  22
ATOM     22  O   UNL     1     -61.888 -42.747 -36.767  1.00  0.00    -0.502 OA
ATOM     23  H   UNL     1     -61.375 -41.883 -36.640  1.00  0.00     0.293 HD
ENDBRANCH   2  22
BRANCH   6  24
ATOM     24  O   UNL     1     -66.453 -45.357 -37.621  1.00  0.00    -0.507 OA
ATOM     25  H   UNL     1     -67.338 -45.521 -38.076  1.00  0.00     0.293 HD
ENDBRANCH   6  24
BRANCH   8  26
ATOM     26  O   UNL     1     -68.366 -45.209 -33.237  1.00  0.00    -0.508 OA
ATOM     27  H   UNL     1     -69.212 -45.642 -33.590  1.00  0.00     0.293 HD
ENDBRANCH   8  26
TORSDOF 6
ENDMDL
MODEL 6
REMARK VINA RESULT:    -6.933      3.356      7.493
REMARK INTER + INTRA:          -8.133
REMARK INTER:                  -7.812
REMARK INTRA:                  -0.321
REMARK UNBOUND:                 0.219
REMARK SMILES O=c1c(O)c(-c2ccc(O)c(O)c2)oc2cc(O)cc(O)c12
REMARK SMILES IDX 5 1 3 2 2 3 1 4 22 5 20 6 19 7 17 8 16 9 15 10 14 11 6 12
REMARK SMILES IDX 7 13 8 14 9 15 13 16 11 17 10 18 12 20 4 22 21 24 18 26
REMARK H PARENT 10 19 12 21 4 23 21 25 18 27
REMARK Flexibility Score: inf
ROOT
ATOM      1  C   UNL     1     -61.608 -43.384 -36.533  1.00  0.00     0.180 A 
ATOM      2  C   UNL     1     -62.295 -42.286 -35.985  1.00  0.00     0.208 A 
ATOM      3  C   UNL     1     -62.033 -41.911 -34.659  1.00  0.00     0.238 A 
ATOM      4  O   UNL     1     -62.690 -40.962 -34.158  1.00  0.00    -0.285 OA
ATOM      5  C   UNL     1     -61.076 -42.628 -33.900  1.00  0.00     0.111 A 
ATOM      6  C   UNL     1     -60.701 -42.310 -32.559  1.00  0.00     0.134 A 
ATOM      7  C   UNL     1     -59.841 -43.166 -31.862  1.00  0.00     0.093 A 
ATOM      8  C   UNL     1     -59.289 -44.290 -32.476  1.00  0.00     0.123 A 
ATOM      9  C   UNL     1     -59.601 -44.577 -33.805  1.00  0.00     0.094 A 
ATOM     10  C   UNL     1     -60.486 -43.762 -34.515  1.00  0.00     0.146 A 
ATOM     11  O   UNL     1     -60.765 -44.076 -35.775  1.00  0.00    -0.452 OA
ENDROOT
BRANCH   1  12
ATOM     12  C   UNL     1     -61.813 -43.824 -37.931  1.00  0.00     0.025 A 
ATOM     13  C   UNL     1     -62.649 -44.920 -38.195  1.00  0.00     0.016 A 
ATOM     14  C   UNL     1     -62.839 -45.366 -39.506  1.00  0.00     0.051 A 
ATOM     15  C   UNL     1     -62.184 -44.731 -40.570  1.00  0.00     0.157 A 
ATOM     16  C   UNL     1     -61.140 -43.203 -39.000  1.00  0.00     0.062 A 
ATOM     17  C   UNL     1     -61.329 -43.651 -40.315  1.00  0.00     0.158 A 
BRANCH  15  18
ATOM     18  O   UNL     1     -62.372 -45.171 -41.879  1.00  0.00    -0.504 OA
ATOM     19  H   UNL     1     -61.598 -45.505 -42.442  1.00  0.00     0.293 HD
ENDBRANCH  15  18
BRANCH  17  20
ATOM     20  O   UNL     1     -60.669 -43.030 -41.374  1.00  0.00    -0.504 OA
ATOM     21  H   UNL     1     -60.456 -42.039 -41.359  1.00  0.00     0.293 HD
ENDBRANCH  17  20
ENDBRANCH   1  12
BRANCH   2  22
ATOM     22  O   UNL     1     -63.252 -41.607 -36.745  1.00  0.00    -0.502 OA
ATOM     23  H   UNL     1     -63.971 -42.090 -37.272  1.00  0.00     0.293 HD
ENDBRANCH   2  22
BRANCH   6  24
ATOM     24  O   UNL     1     -61.123 -41.161 -31.883  1.00  0.00    -0.507 OA
ATOM     25  H   UNL     1     -62.081 -40.855 -31.810  1.00  0.00     0.293 HD
ENDBRANCH   6  24
BRANCH   8  26
ATOM     26  O   UNL     1     -58.424 -45.111 -31.756  1.00  0.00    -0.508 OA
ATOM     27  H   UNL     1     -57.797 -45.758 -32.221  1.00  0.00     0.293 HD
ENDBRANCH   8  26
TORSDOF 6
ENDMDL
MODEL 7
REMARK VINA RESULT:    -6.837      2.482      3.820
REMARK INTER + INTRA:          -8.016
REMARK INTER:                  -7.846
REMARK INTRA:                  -0.170
REMARK UNBOUND:                 0.219
REMARK SMILES O=c1c(O)c(-c2ccc(O)c(O)c2)oc2cc(O)cc(O)c12
REMARK SMILES IDX 5 1 3 2 2 3 1 4 22 5 20 6 19 7 17 8 16 9 15 10 14 11 6 12
REMARK SMILES IDX 7 13 8 14 9 15 13 16 11 17 10 18 12 20 4 22 21 24 18 26
REMARK H PARENT 10 19 12 21 4 23 21 25 18 27
REMARK Flexibility Score: inf
ROOT
ATOM      1  C   UNL     1     -61.475 -42.760 -35.471  1.00  0.00     0.180 A 
ATOM      2  C   UNL     1     -60.708 -43.654 -36.239  1.00  0.00     0.208 A 
ATOM      3  C   UNL     1     -61.249 -44.170 -37.426  1.00  0.00     0.238 A 
ATOM      4  O   UNL     1     -60.580 -45.011 -38.080  1.00  0.00    -0.285 OA
ATOM      5  C   UNL     1     -62.545 -43.775 -37.840  1.00  0.00     0.111 A 
ATOM      6  C   UNL     1     -63.176 -44.204 -39.047  1.00  0.00     0.134 A 
ATOM      7  C   UNL     1     -64.509 -43.853 -39.290  1.00  0.00     0.093 A 
ATOM      8  C   UNL     1     -65.212 -43.034 -38.407  1.00  0.00     0.123 A 
ATOM      9  C   UNL     1     -64.585 -42.560 -37.254  1.00  0.00     0.094 A 
ATOM     10  C   UNL     1     -63.267 -42.924 -36.965  1.00  0.00     0.146 A 
ATOM     11  O   UNL     1     -62.711 -42.459 -35.853  1.00  0.00    -0.452 OA
ENDROOT
BRANCH   1  12
ATOM     12  C   UNL     1     -60.963 -42.154 -34.221  1.00  0.00     0.025 A 
ATOM     13  C   UNL     1     -60.745 -42.967 -33.099  1.00  0.00     0.016 A 
ATOM     14  C   UNL     1     -60.282 -42.413 -31.902  1.00  0.00     0.051 A 
ATOM     15  C   UNL     1     -60.046 -41.035 -31.807  1.00  0.00     0.157 A 
ATOM     16  C   UNL     1     -60.744 -40.768 -34.116  1.00  0.00     0.062 A 
ATOM     17  C   UNL     1     -60.282 -40.211 -32.914  1.00  0.00     0.158 A 
BRANCH  15  18
ATOM     18  O   UNL     1     -59.582 -40.478 -30.616  1.00  0.00    -0.504 OA
ATOM     19  H   UNL     1     -60.156 -39.848 -30.068  1.00  0.00     0.293 HD
ENDBRANCH  15  18
BRANCH  17  20
ATOM     20  O   UNL     1     -60.058 -38.839 -32.812  1.00  0.00    -0.504 OA
ATOM     21  H   UNL     1     -60.693 -38.166 -33.227  1.00  0.00     0.293 HD
ENDBRANCH  17  20
ENDBRANCH   1  12
BRANCH   2  22
ATOM     22  O   UNL     1     -59.441 -44.048 -35.799  1.00  0.00    -0.502 OA
ATOM     23  H   UNL     1     -58.608 -43.931 -36.365  1.00  0.00     0.293 HD
ENDBRANCH   2  22
BRANCH   6  24
ATOM     24  O   UNL     1     -62.534 -44.948 -40.041  1.00  0.00    -0.507 OA
ATOM     25  H   UNL     1     -61.772 -44.612 -40.609  1.00  0.00     0.293 HD
ENDBRANCH   6  24
BRANCH   8  26
ATOM     26  O   UNL     1     -66.532 -42.692 -38.690  1.00  0.00    -0.508 OA
ATOM     27  H   UNL     1     -66.762 -42.014 -39.407  1.00  0.00     0.293 HD
ENDBRANCH   8  26
TORSDOF 6
ENDMDL
MODEL 8
REMARK VINA RESULT:    -6.793      1.144      6.660
REMARK INTER + INTRA:          -7.963
REMARK INTER:                  -8.514
REMARK INTRA:                   0.551
REMARK UNBOUND:                 0.219
REMARK SMILES O=c1c(O)c(-c2ccc(O)c(O)c2)oc2cc(O)cc(O)c12
REMARK SMILES IDX 5 1 3 2 2 3 1 4 22 5 20 6 19 7 17 8 16 9 15 10 14 11 6 12
REMARK SMILES IDX 7 13 8 14 9 15 13 16 11 17 10 18 12 20 4 22 21 24 18 26
REMARK H PARENT 10 19 12 21 4 23 21 25 18 27
REMARK Flexibility Score: inf
ROOT
ATOM      1  C   UNL     1     -63.472 -42.043 -34.377  1.00  0.00     0.180 A 
ATOM      2  C   UNL     1     -64.011 -42.686 -33.249  1.00  0.00     0.208 A 
ATOM      3  C   UNL     1     -63.434 -42.451 -31.991  1.00  0.00     0.238 A 
ATOM      4  O   UNL     1     -63.886 -43.072 -30.994  1.00  0.00    -0.285 OA
ATOM      5  C   UNL     1     -62.337 -41.564 -31.873  1.00  0.00     0.111 A 
ATOM      6  C   UNL     1     -61.701 -41.220 -30.643  1.00  0.00     0.134 A 
ATOM      7  C   UNL     1     -60.542 -40.434 -30.661  1.00  0.00     0.093 A 
ATOM      8  C   UNL     1     -60.036 -39.924 -31.856  1.00  0.00     0.123 A 
ATOM      9  C   UNL     1     -60.684 -40.205 -33.059  1.00  0.00     0.094 A 
ATOM     10  C   UNL     1     -61.821 -41.017 -33.077  1.00  0.00     0.146 A 
ATOM     11  O   UNL     1     -62.403 -41.267 -34.244  1.00  0.00    -0.452 OA
ENDROOT
BRANCH   1  12
ATOM     12  C   UNL     1     -64.041 -42.221 -35.732  1.00  0.00     0.025 A 
ATOM     13  C   UNL     1     -65.146 -43.068 -35.912  1.00  0.00     0.016 A 
ATOM     14  C   UNL     1     -65.685 -43.267 -37.186  1.00  0.00     0.051 A 
ATOM     15  C   UNL     1     -65.117 -42.635 -38.300  1.00  0.00     0.157 A 
ATOM     16  C   UNL     1     -63.461 -41.604 -36.857  1.00  0.00     0.062 A 
ATOM     17  C   UNL     1     -64.001 -41.805 -38.136  1.00  0.00     0.158 A 
BRANCH  15  18
ATOM     18  O   UNL     1     -65.653 -42.829 -39.572  1.00  0.00    -0.504 OA
ATOM     19  H   UNL     1     -66.231 -42.124 -40.016  1.00  0.00     0.293 HD
ENDBRANCH  15  18
BRANCH  17  20
ATOM     20  O   UNL     1     -63.431 -41.188 -39.248  1.00  0.00    -0.504 OA
ATOM     21  H   UNL     1     -62.874 -41.709 -39.916  1.00  0.00     0.293 HD
ENDBRANCH  17  20
ENDBRANCH   1  12
BRANCH   2  22
ATOM     22  O   UNL     1     -65.080 -43.576 -33.392  1.00  0.00    -0.502 OA
ATOM     23  H   UNL     1     -65.797 -43.681 -32.684  1.00  0.00     0.293 HD
ENDBRANCH   2  22
BRANCH   6  24
ATOM     24  O   UNL     1     -62.178 -41.601 -29.385  1.00  0.00    -0.507 OA
ATOM     25  H   UNL     1     -62.046 -41.073 -28.536  1.00  0.00     0.293 HD
ENDBRANCH   6  24
BRANCH   8  26
ATOM     26  O   UNL     1     -58.890 -39.132 -31.834  1.00  0.00    -0.508 OA
ATOM     27  H   UNL     1     -58.452 -38.809 -32.689  1.00  0.00     0.293 HD
ENDBRANCH   8  26
TORSDOF 6
ENDMDL
MODEL 9
REMARK VINA RESULT:    -6.784      2.610      3.323
REMARK INTER + INTRA:          -7.953
REMARK INTER:                  -7.702
REMARK INTRA:                  -0.250
REMARK UNBOUND:                 0.219
REMARK SMILES O=c1c(O)c(-c2ccc(O)c(O)c2)oc2cc(O)cc(O)c12
REMARK SMILES IDX 5 1 3 2 2 3 1 4 22 5 20 6 19 7 17 8 16 9 15 10 14 11 6 12
REMARK SMILES IDX 7 13 8 14 9 15 13 16 11 17 10 18 12 20 4 22 21 24 18 26
REMARK H PARENT 10 19 12 21 4 23 21 25 18 27
REMARK Flexibility Score: inf
ROOT
ATOM      1  C   UNL     1     -62.063 -42.548 -35.638  1.00  0.00     0.180 A 
ATOM      2  C   UNL     1     -63.221 -43.345 -35.585  1.00  0.00     0.208 A 
ATOM      3  C   UNL     1     -63.637 -44.019 -36.743  1.00  0.00     0.238 A 
ATOM      4  O   UNL     1     -64.703 -44.686 -36.703  1.00  0.00    -0.285 OA
ATOM      5  C   UNL     1     -62.884 -43.901 -37.937  1.00  0.00     0.111 A 
ATOM      6  C   UNL     1     -63.191 -44.573 -39.159  1.00  0.00     0.134 A 
ATOM      7  C   UNL     1     -62.452 -44.281 -40.311  1.00  0.00     0.093 A 
ATOM      8  C   UNL     1     -61.376 -43.394 -40.272  1.00  0.00     0.123 A 
ATOM      9  C   UNL     1     -61.030 -42.777 -39.069  1.00  0.00     0.094 A 
ATOM     10  C   UNL     1     -61.772 -43.020 -37.910  1.00  0.00     0.146 A 
ATOM     11  O   UNL     1     -61.416 -42.406 -36.788  1.00  0.00    -0.452 OA
ENDROOT
BRANCH   1  12
ATOM     12  C   UNL     1     -61.548 -41.827 -34.453  1.00  0.00     0.025 A 
ATOM     13  C   UNL     1     -61.595 -40.424 -34.422  1.00  0.00     0.016 A 
ATOM     14  C   UNL     1     -61.094 -39.723 -33.323  1.00  0.00     0.051 A 
ATOM     15  C   UNL     1     -60.525 -40.413 -32.244  1.00  0.00     0.157 A 
ATOM     16  C   UNL     1     -60.957 -42.515 -33.377  1.00  0.00     0.062 A 
ATOM     17  C   UNL     1     -60.452 -41.811 -32.273  1.00  0.00     0.158 A 
BRANCH  15  18
ATOM     18  O   UNL     1     -60.027 -39.717 -31.144  1.00  0.00    -0.504 OA
ATOM     19  H   UNL     1     -59.961 -38.706 -31.143  1.00  0.00     0.293 HD
ENDBRANCH  15  18
BRANCH  17  20
ATOM     20  O   UNL     1     -59.874 -42.494 -31.205  1.00  0.00    -0.504 OA
ATOM     21  H   UNL     1     -59.310 -42.015 -30.512  1.00  0.00     0.293 HD
ENDBRANCH  17  20
ENDBRANCH   1  12
BRANCH   2  22
ATOM     22  O   UNL     1     -63.962 -43.428 -34.402  1.00  0.00    -0.502 OA
ATOM     23  H   UNL     1     -63.539 -43.657 -33.511  1.00  0.00     0.293 HD
ENDBRANCH   2  22
BRANCH   6  24
ATOM     24  O   UNL     1     -64.186 -45.546 -39.285  1.00  0.00    -0.507 OA
ATOM     25  H   UNL     1     -64.322 -46.128 -40.097  1.00  0.00     0.293 HD
ENDBRANCH   6  24
BRANCH   8  26
ATOM     26  O   UNL     1     -60.653 -43.139 -41.435  1.00  0.00    -0.508 OA
ATOM     27  H   UNL     1     -59.737 -43.544 -41.588  1.00  0.00     0.293 HD
ENDBRANCH   8  26
TORSDOF 6
ENDMDL
