MODEL 1
REMARK VINA RESULT:    -6.773      0.000      0.000
REMARK INTER + INTRA:          -8.553
REMARK INTER:                  -8.159
REMARK INTRA:                  -0.395
REMARK UNBOUND:                -0.395
REMARK SMILES O=c1c(O)c(-c2ccc(O)cc2O)oc2cc(O)cc(O)c12
REMARK SMILES IDX 5 1 3 2 2 3 1 4 22 5 20 6 19 7 17 8 16 9 15 10 14 11 6 12
REMARK SMILES IDX 8 13 7 14 9 15 11 16 12 17 10 18 13 20 4 22 21 24 18 26
REMARK H PARENT 10 19 13 21 4 23 21 25 18 27
REMARK Flexibility Score: inf
ROOT
ATOM      1  C   UNL     1      36.057  55.142 -35.433  1.00  0.00     0.184 A 
ATOM      2  C   UNL     1      35.982  53.784 -35.087  1.00  0.00     0.208 A 
ATOM      3  C   UNL     1      34.849  53.318 -34.401  1.00  0.00     0.238 A 
ATOM      4  O   UNL     1      34.815  52.113 -34.041  1.00  0.00    -0.285 OA
ATOM      5  C   UNL     1      33.795  54.213 -34.094  1.00  0.00     0.111 A 
ATOM      6  C   UNL     1      32.583  53.843 -33.437  1.00  0.00     0.134 A 
ATOM      7  C   UNL     1      31.663  54.834 -33.075  1.00  0.00     0.093 A 
ATOM      8  C   UNL     1      31.881  56.175 -33.405  1.00  0.00     0.123 A 
ATOM      9  C   UNL     1      33.034  56.538 -34.098  1.00  0.00     0.094 A 
ATOM     10  C   UNL     1      33.987  55.577 -34.439  1.00  0.00     0.146 A 
ATOM     11  O   UNL     1      35.078  55.968 -35.088  1.00  0.00    -0.451 OA
ENDROOT
BRANCH   1  12
ATOM     12  C   UNL     1      37.214  55.684 -36.176  1.00  0.00     0.063 A 
ATOM     13  C   UNL     1      38.326  56.073 -38.306  1.00  0.00     0.047 A 
ATOM     14  C   UNL     1      37.273  55.524 -37.572  1.00  0.00     0.020 A 
ATOM     15  C   UNL     1      39.333  56.797 -37.657  1.00  0.00     0.119 A 
ATOM     16  C   UNL     1      39.284  56.963 -36.270  1.00  0.00     0.093 A 
ATOM     17  C   UNL     1      38.239  56.408 -35.521  1.00  0.00     0.130 A 
BRANCH  15  18
ATOM     18  O   UNL     1      40.385  57.354 -38.379  1.00  0.00    -0.508 OA
ATOM     19  H   UNL     1      41.350  57.131 -38.166  1.00  0.00     0.293 HD
ENDBRANCH  15  18
BRANCH  17  20
ATOM     20  O   UNL     1      38.260  56.574 -34.135  1.00  0.00    -0.507 OA
ATOM     21  H   UNL     1      38.828  57.270 -33.670  1.00  0.00     0.293 HD
ENDBRANCH  17  20
ENDBRANCH   1  12
BRANCH   2  22
ATOM     22  O   UNL     1      37.036  52.924 -35.406  1.00  0.00    -0.502 OA
ATOM     23  H   UNL     1      36.883  51.982 -35.745  1.00  0.00     0.293 HD
ENDBRANCH   2  22
BRANCH   6  24
ATOM     24  O   UNL     1      32.225  52.524 -33.143  1.00  0.00    -0.507 OA
ATOM     25  H   UNL     1      31.632  51.946 -33.719  1.00  0.00     0.293 HD
ENDBRANCH   6  24
BRANCH   8  26
ATOM     26  O   UNL     1      30.952  57.153 -33.055  1.00  0.00    -0.508 OA
ATOM     27  H   UNL     1      30.965  57.593 -32.144  1.00  0.00     0.293 HD
ENDBRANCH   8  26
TORSDOF 6
ENDMDL
MODEL 2
REMARK VINA RESULT:    -6.634      1.685      2.607
REMARK INTER + INTRA:          -8.386
REMARK INTER:                  -8.329
REMARK INTRA:                  -0.058
REMARK UNBOUND:                -0.395
REMARK SMILES O=c1c(O)c(-c2ccc(O)cc2O)oc2cc(O)cc(O)c12
REMARK SMILES IDX 5 1 3 2 2 3 1 4 22 5 20 6 19 7 17 8 16 9 15 10 14 11 6 12
REMARK SMILES IDX 8 13 7 14 9 15 11 16 12 17 10 18 13 20 4 22 21 24 18 26
REMARK H PARENT 10 19 13 21 4 23 21 25 18 27
REMARK Flexibility Score: inf
ROOT
ATOM      1  C   UNL     1      35.826  55.425 -35.185  1.00  0.00     0.184 A 
ATOM      2  C   UNL     1      34.533  55.702 -35.656  1.00  0.00     0.208 A 
ATOM      3  C   UNL     1      33.431  55.384 -34.847  1.00  0.00     0.238 A 
ATOM      4  O   UNL     1      32.274  55.579 -35.300  1.00  0.00    -0.285 OA
ATOM      5  C   UNL     1      33.639  54.815 -33.567  1.00  0.00     0.111 A 
ATOM      6  C   UNL     1      32.598  54.488 -32.646  1.00  0.00     0.134 A 
ATOM      7  C   UNL     1      32.912  53.818 -31.458  1.00  0.00     0.093 A 
ATOM      8  C   UNL     1      34.237  53.521 -31.126  1.00  0.00     0.123 A 
ATOM      9  C   UNL     1      35.265  53.889 -31.991  1.00  0.00     0.094 A 
ATOM     10  C   UNL     1      34.980  54.525 -33.201  1.00  0.00     0.146 A 
ATOM     11  O   UNL     1      35.989  54.845 -34.002  1.00  0.00    -0.451 OA
ENDROOT
BRANCH   1  12
ATOM     12  C   UNL     1      37.025  55.761 -35.982  1.00  0.00     0.063 A 
ATOM     13  C   UNL     1      38.131  55.843 -38.148  1.00  0.00     0.047 A 
ATOM     14  C   UNL     1      37.035  55.487 -37.361  1.00  0.00     0.020 A 
ATOM     15  C   UNL     1      39.232  56.487 -37.570  1.00  0.00     0.119 A 
ATOM     16  C   UNL     1      39.232  56.764 -36.201  1.00  0.00     0.093 A 
ATOM     17  C   UNL     1      38.143  56.402 -35.399  1.00  0.00     0.130 A 
BRANCH  15  18
ATOM     18  O   UNL     1      40.329  56.852 -38.347  1.00  0.00    -0.508 OA
ATOM     19  H   UNL     1      41.093  57.393 -37.961  1.00  0.00     0.293 HD
ENDBRANCH  15  18
BRANCH  17  20
ATOM     20  O   UNL     1      38.213  56.672 -34.030  1.00  0.00    -0.507 OA
ATOM     21  H   UNL     1      37.512  57.209 -33.536  1.00  0.00     0.293 HD
ENDBRANCH  17  20
ENDBRANCH   1  12
BRANCH   2  22
ATOM     22  O   UNL     1      34.360  56.266 -36.922  1.00  0.00    -0.502 OA
ATOM     23  H   UNL     1      34.769  57.156 -37.181  1.00  0.00     0.293 HD
ENDBRANCH   2  22
BRANCH   6  24
ATOM     24  O   UNL     1      31.253  54.820 -32.838  1.00  0.00    -0.507 OA
ATOM     25  H   UNL     1      30.636  55.161 -32.116  1.00  0.00     0.293 HD
ENDBRANCH   6  24
BRANCH   8  26
ATOM     26  O   UNL     1      34.542  52.869 -29.933  1.00  0.00    -0.508 OA
ATOM     27  H   UNL     1      35.416  53.032 -29.449  1.00  0.00     0.293 HD
ENDBRANCH   8  26
TORSDOF 6
ENDMDL
MODEL 3
REMARK VINA RESULT:    -5.920      1.705      3.278
REMARK INTER + INTRA:          -7.526
REMARK INTER:                  -7.123
REMARK INTRA:                  -0.402
REMARK UNBOUND:                -0.395
REMARK SMILES O=c1c(O)c(-c2ccc(O)cc2O)oc2cc(O)cc(O)c12
REMARK SMILES IDX 5 1 3 2 2 3 1 4 22 5 20 6 19 7 17 8 16 9 15 10 14 11 6 12
REMARK SMILES IDX 8 13 7 14 9 15 11 16 12 17 10 18 13 20 4 22 21 24 18 26
REMARK H PARENT 10 19 13 21 4 23 21 25 18 27
REMARK Flexibility Score: inf
ROOT
ATOM      1  C   UNL     1      34.389  55.501 -34.685  1.00  0.00     0.184 A 
ATOM      2  C   UNL     1      33.404  56.459 -34.969  1.00  0.00     0.208 A 
ATOM      3  C   UNL     1      32.102  56.262 -34.482  1.00  0.00     0.238 A 
ATOM      4  O   UNL     1      31.210  57.093 -34.791  1.00  0.00    -0.285 OA
ATOM      5  C   UNL     1      31.811  55.121 -33.695  1.00  0.00     0.111 A 
ATOM      6  C   UNL     1      30.537  54.838 -33.116  1.00  0.00     0.134 A 
ATOM      7  C   UNL     1      30.332  53.620 -32.459  1.00  0.00     0.093 A 
ATOM      8  C   UNL     1      31.373  52.701 -32.303  1.00  0.00     0.123 A 
ATOM      9  C   UNL     1      32.635  52.993 -32.813  1.00  0.00     0.094 A 
ATOM     10  C   UNL     1      32.861  54.184 -33.506  1.00  0.00     0.146 A 
ATOM     11  O   UNL     1      34.076  54.416 -33.988  1.00  0.00    -0.451 OA
ENDROOT
BRANCH   1  12
ATOM     12  C   UNL     1      35.782  55.668 -35.151  1.00  0.00     0.063 A 
ATOM     13  C   UNL     1      37.455  55.330 -36.887  1.00  0.00     0.047 A 
ATOM     14  C   UNL     1      36.161  55.139 -36.397  1.00  0.00     0.020 A 
ATOM     15  C   UNL     1      38.388  56.058 -36.141  1.00  0.00     0.119 A 
ATOM     16  C   UNL     1      38.022  56.590 -34.901  1.00  0.00     0.093 A 
ATOM     17  C   UNL     1      36.731  56.397 -34.394  1.00  0.00     0.130 A 
BRANCH  15  18
ATOM     18  O   UNL     1      39.679  56.259 -36.621  1.00  0.00    -0.508 OA
ATOM     19  H   UNL     1      39.870  56.332 -37.614  1.00  0.00     0.293 HD
ENDBRANCH  15  18
BRANCH  17  20
ATOM     20  O   UNL     1      36.432  56.919 -33.134  1.00  0.00    -0.507 OA
ATOM     21  H   UNL     1      37.133  57.303 -32.514  1.00  0.00     0.293 HD
ENDBRANCH  17  20
ENDBRANCH   1  12
BRANCH   2  22
ATOM     22  O   UNL     1      33.722  57.577 -35.745  1.00  0.00    -0.502 OA
ATOM     23  H   UNL     1      33.241  57.790 -36.611  1.00  0.00     0.293 HD
ENDBRANCH   2  22
BRANCH   6  24
ATOM     24  O   UNL     1      29.456  55.726 -33.136  1.00  0.00    -0.507 OA
ATOM     25  H   UNL     1      28.878  55.947 -32.339  1.00  0.00     0.293 HD
ENDBRANCH   6  24
BRANCH   8  26
ATOM     26  O   UNL     1      31.164  51.497 -31.632  1.00  0.00    -0.508 OA
ATOM     27  H   UNL     1      31.834  51.141 -30.962  1.00  0.00     0.293 HD
ENDBRANCH   8  26
TORSDOF 6
ENDMDL
MODEL 4
REMARK VINA RESULT:    -5.511      2.831      6.558
REMARK INTER + INTRA:          -7.033
REMARK INTER:                  -6.661
REMARK INTRA:                  -0.373
REMARK UNBOUND:                -0.395
REMARK SMILES O=c1c(O)c(-c2ccc(O)cc2O)oc2cc(O)cc(O)c12
REMARK SMILES IDX 5 1 3 2 2 3 1 4 22 5 20 6 19 7 17 8 16 9 15 10 14 11 6 12
REMARK SMILES IDX 8 13 7 14 9 15 11 16 12 17 10 18 13 20 4 22 21 24 18 26
REMARK H PARENT 10 19 13 21 4 23 21 25 18 27
REMARK Flexibility Score: inf
ROOT
ATOM      1  C   UNL     1      34.688  54.864 -36.628  1.00  0.00     0.184 A 
ATOM      2  C   UNL     1      34.780  55.118 -35.251  1.00  0.00     0.208 A 
ATOM      3  C   UNL     1      35.963  55.673 -34.738  1.00  0.00     0.238 A 
ATOM      4  O   UNL     1      36.061  55.842 -33.496  1.00  0.00    -0.285 OA
ATOM      5  C   UNL     1      37.029  55.990 -35.615  1.00  0.00     0.111 A 
ATOM      6  C   UNL     1      38.259  56.592 -35.212  1.00  0.00     0.134 A 
ATOM      7  C   UNL     1      39.290  56.749 -36.146  1.00  0.00     0.093 A 
ATOM      8  C   UNL     1      39.112  56.385 -37.484  1.00  0.00     0.123 A 
ATOM      9  C   UNL     1      37.895  55.851 -37.899  1.00  0.00     0.094 A 
ATOM     10  C   UNL     1      36.861  55.648 -36.983  1.00  0.00     0.146 A 
ATOM     11  O   UNL     1      35.721  55.124 -37.419  1.00  0.00    -0.451 OA
ENDROOT
BRANCH   1  12
ATOM     12  C   UNL     1      33.459  54.303 -37.227  1.00  0.00     0.063 A 
ATOM     13  C   UNL     1      31.992  52.391 -37.571  1.00  0.00     0.047 A 
ATOM     14  C   UNL     1      33.173  52.936 -37.063  1.00  0.00     0.020 A 
ATOM     15  C   UNL     1      31.075  53.206 -38.245  1.00  0.00     0.119 A 
ATOM     16  C   UNL     1      31.349  54.566 -38.413  1.00  0.00     0.093 A 
ATOM     17  C   UNL     1      32.534  55.122 -37.918  1.00  0.00     0.130 A 
BRANCH  15  18
ATOM     18  O   UNL     1      29.892  52.675 -38.751  1.00  0.00    -0.508 OA
ATOM     19  H   UNL     1      29.571  52.893 -39.687  1.00  0.00     0.293 HD
ENDBRANCH  15  18
BRANCH  17  20
ATOM     20  O   UNL     1      32.773  56.479 -38.147  1.00  0.00    -0.507 OA
ATOM     21  H   UNL     1      33.560  56.977 -37.751  1.00  0.00     0.293 HD
ENDBRANCH  17  20
ENDBRANCH   1  12
BRANCH   2  22
ATOM     22  O   UNL     1      33.711  54.797 -34.411  1.00  0.00    -0.502 OA
ATOM     23  H   UNL     1      33.837  54.292 -33.542  1.00  0.00     0.293 HD
ENDBRANCH   2  22
BRANCH   6  24
ATOM     24  O   UNL     1      38.507  57.073 -33.923  1.00  0.00    -0.507 OA
ATOM     25  H   UNL     1      39.408  57.376 -33.585  1.00  0.00     0.293 HD
ENDBRANCH   6  24
BRANCH   8  26
ATOM     26  O   UNL     1      40.139  56.560 -38.410  1.00  0.00    -0.508 OA
ATOM     27  H   UNL     1      41.096  56.712 -38.117  1.00  0.00     0.293 HD
ENDBRANCH   8  26
TORSDOF 6
ENDMDL
MODEL 5
REMARK VINA RESULT:    -5.492      1.606      2.387
REMARK INTER + INTRA:          -7.010
REMARK INTER:                  -6.603
REMARK INTRA:                  -0.407
REMARK UNBOUND:                -0.395
REMARK SMILES O=c1c(O)c(-c2ccc(O)cc2O)oc2cc(O)cc(O)c12
REMARK SMILES IDX 5 1 3 2 2 3 1 4 22 5 20 6 19 7 17 8 16 9 15 10 14 11 6 12
REMARK SMILES IDX 8 13 7 14 9 15 11 16 12 17 10 18 13 20 4 22 21 24 18 26
REMARK H PARENT 10 19 13 21 4 23 21 25 18 27
REMARK Flexibility Score: inf
ROOT
ATOM      1  C   UNL     1      34.296  55.564 -34.460  1.00  0.00     0.184 A 
ATOM      2  C   UNL     1      33.825  54.343 -33.953  1.00  0.00     0.208 A 
ATOM      3  C   UNL     1      32.493  54.254 -33.520  1.00  0.00     0.238 A 
ATOM      4  O   UNL     1      32.095  53.175 -33.011  1.00  0.00    -0.285 OA
ATOM      5  C   UNL     1      31.642  55.381 -33.626  1.00  0.00     0.111 A 
ATOM      6  C   UNL     1      30.263  55.395 -33.255  1.00  0.00     0.134 A 
ATOM      7  C   UNL     1      29.551  56.599 -33.288  1.00  0.00     0.093 A 
ATOM      8  C   UNL     1      30.148  57.778 -33.741  1.00  0.00     0.123 A 
ATOM      9  C   UNL     1      31.476  57.763 -34.161  1.00  0.00     0.094 A 
ATOM     10  C   UNL     1      32.224  56.585 -34.104  1.00  0.00     0.146 A 
ATOM     11  O   UNL     1      33.491  56.618 -34.501  1.00  0.00    -0.451 OA
ENDROOT
BRANCH   1  12
ATOM     12  C   UNL     1      35.682  55.710 -34.953  1.00  0.00     0.063 A 
ATOM     13  C   UNL     1      37.319  55.330 -36.713  1.00  0.00     0.047 A 
ATOM     14  C   UNL     1      36.033  55.160 -36.198  1.00  0.00     0.020 A 
ATOM     15  C   UNL     1      38.273  56.059 -35.994  1.00  0.00     0.119 A 
ATOM     16  C   UNL     1      37.935  56.611 -34.755  1.00  0.00     0.093 A 
ATOM     17  C   UNL     1      36.652  56.438 -34.223  1.00  0.00     0.130 A 
BRANCH  15  18
ATOM     18  O   UNL     1      39.558  56.240 -36.500  1.00  0.00    -0.508 OA
ATOM     19  H   UNL     1      39.715  56.487 -37.470  1.00  0.00     0.293 HD
ENDBRANCH  15  18
BRANCH  17  20
ATOM     20  O   UNL     1      36.380  56.981 -32.965  1.00  0.00    -0.507 OA
ATOM     21  H   UNL     1      36.155  57.957 -32.821  1.00  0.00     0.293 HD
ENDBRANCH  17  20
ENDBRANCH   1  12
BRANCH   2  22
ATOM     22  O   UNL     1      34.687  53.247 -33.864  1.00  0.00    -0.502 OA
ATOM     23  H   UNL     1      35.598  53.236 -34.307  1.00  0.00     0.293 HD
ENDBRANCH   2  22
BRANCH   6  24
ATOM     24  O   UNL     1      29.546  54.256 -32.875  1.00  0.00    -0.507 OA
ATOM     25  H   UNL     1      28.841  53.804 -33.438  1.00  0.00     0.293 HD
ENDBRANCH   6  24
BRANCH   8  26
ATOM     26  O   UNL     1      29.426  58.969 -33.786  1.00  0.00    -0.508 OA
ATOM     27  H   UNL     1      29.863  59.861 -33.588  1.00  0.00     0.293 HD
ENDBRANCH   8  26
TORSDOF 6
ENDMDL
MODEL 6
REMARK VINA RESULT:    -5.472      2.083      2.997
REMARK INTER + INTRA:          -6.986
REMARK INTER:                  -6.752
REMARK INTRA:                  -0.233
REMARK UNBOUND:                -0.395
REMARK SMILES O=c1c(O)c(-c2ccc(O)cc2O)oc2cc(O)cc(O)c12
REMARK SMILES IDX 5 1 3 2 2 3 1 4 22 5 20 6 19 7 17 8 16 9 15 10 14 11 6 12
REMARK SMILES IDX 8 13 7 14 9 15 11 16 12 17 10 18 13 20 4 22 21 24 18 26
REMARK H PARENT 10 19 13 21 4 23 21 25 18 27
REMARK Flexibility Score: inf
ROOT
ATOM      1  C   UNL     1      34.805  54.964 -33.635  1.00  0.00     0.184 A 
ATOM      2  C   UNL     1      34.928  54.612 -32.282  1.00  0.00     0.208 A 
ATOM      3  C   UNL     1      33.804  54.117 -31.603  1.00  0.00     0.238 A 
ATOM      4  O   UNL     1      33.905  53.861 -30.376  1.00  0.00    -0.285 OA
ATOM      5  C   UNL     1      32.578  53.956 -32.294  1.00  0.00     0.111 A 
ATOM      6  C   UNL     1      31.385  53.426 -31.717  1.00  0.00     0.134 A 
ATOM      7  C   UNL     1      30.199  53.425 -32.460  1.00  0.00     0.093 A 
ATOM      8  C   UNL     1      30.177  53.875 -33.783  1.00  0.00     0.123 A 
ATOM      9  C   UNL     1      31.350  54.340 -34.374  1.00  0.00     0.094 A 
ATOM     10  C   UNL     1      32.540  54.387 -33.647  1.00  0.00     0.146 A 
ATOM     11  O   UNL     1      33.631  54.850 -34.245  1.00  0.00    -0.451 OA
ENDROOT
BRANCH   1  12
ATOM     12  C   UNL     1      35.960  55.468 -34.408  1.00  0.00     0.063 A 
ATOM     13  C   UNL     1      37.801  57.047 -34.614  1.00  0.00     0.047 A 
ATOM     14  C   UNL     1      36.673  56.583 -33.934  1.00  0.00     0.020 A 
ATOM     15  C   UNL     1      38.238  56.399 -35.774  1.00  0.00     0.119 A 
ATOM     16  C   UNL     1      37.537  55.289 -36.254  1.00  0.00     0.093 A 
ATOM     17  C   UNL     1      36.398  54.820 -35.588  1.00  0.00     0.130 A 
BRANCH  15  18
ATOM     18  O   UNL     1      39.364  56.849 -36.458  1.00  0.00    -0.508 OA
ATOM     19  H   UNL     1      40.283  56.836 -36.031  1.00  0.00     0.293 HD
ENDBRANCH  15  18
BRANCH  17  20
ATOM     20  O   UNL     1      35.717  53.730 -36.132  1.00  0.00    -0.507 OA
ATOM     21  H   UNL     1      36.168  52.853 -36.359  1.00  0.00     0.293 HD
ENDBRANCH  17  20
ENDBRANCH   1  12
BRANCH   2  22
ATOM     22  O   UNL     1      36.151  54.780 -31.628  1.00  0.00    -0.502 OA
ATOM     23  H   UNL     1      36.250  55.361 -30.804  1.00  0.00     0.293 HD
ENDBRANCH   2  22
BRANCH   6  24
ATOM     24  O   UNL     1      31.318  52.868 -30.436  1.00  0.00    -0.507 OA
ATOM     25  H   UNL     1      30.714  52.104 -30.172  1.00  0.00     0.293 HD
ENDBRANCH   6  24
BRANCH   8  26
ATOM     26  O   UNL     1      28.995  53.856 -34.521  1.00  0.00    -0.508 OA
ATOM     27  H   UNL     1      28.997  53.984 -35.526  1.00  0.00     0.293 HD
ENDBRANCH   8  26
TORSDOF 6
ENDMDL
MODEL 7
REMARK VINA RESULT:    -5.428      2.852      4.762
REMARK INTER + INTRA:          -6.934
REMARK INTER:                  -6.545
REMARK INTRA:                  -0.389
REMARK UNBOUND:                -0.395
REMARK SMILES O=c1c(O)c(-c2ccc(O)cc2O)oc2cc(O)cc(O)c12
REMARK SMILES IDX 5 1 3 2 2 3 1 4 22 5 20 6 19 7 17 8 16 9 15 10 14 11 6 12
REMARK SMILES IDX 8 13 7 14 9 15 11 16 12 17 10 18 13 20 4 22 21 24 18 26
REMARK H PARENT 10 19 13 21 4 23 21 25 18 27
REMARK Flexibility Score: inf
ROOT
ATOM      1  C   UNL     1      33.474  54.251 -32.784  1.00  0.00     0.184 A 
ATOM      2  C   UNL     1      32.166  54.562 -33.188  1.00  0.00     0.208 A 
ATOM      3  C   UNL     1      31.088  53.936 -32.544  1.00  0.00     0.238 A 
ATOM      4  O   UNL     1      29.922  54.173 -32.951  1.00  0.00    -0.285 OA
ATOM      5  C   UNL     1      31.332  53.025 -31.487  1.00  0.00     0.111 A 
ATOM      6  C   UNL     1      30.315  52.361 -30.737  1.00  0.00     0.134 A 
ATOM      7  C   UNL     1      30.674  51.390 -29.794  1.00  0.00     0.093 A 
ATOM      8  C   UNL     1      32.015  51.105 -29.529  1.00  0.00     0.123 A 
ATOM      9  C   UNL     1      33.016  51.790 -30.214  1.00  0.00     0.094 A 
ATOM     10  C   UNL     1      32.689  52.737 -31.186  1.00  0.00     0.146 A 
ATOM     11  O   UNL     1      33.675  53.356 -31.825  1.00  0.00    -0.451 OA
ENDROOT
BRANCH   1  12
ATOM     12  C   UNL     1      34.647  54.897 -33.410  1.00  0.00     0.063 A 
ATOM     13  C   UNL     1      36.258  54.977 -35.233  1.00  0.00     0.047 A 
ATOM     14  C   UNL     1      35.185  54.356 -34.590  1.00  0.00     0.020 A 
ATOM     15  C   UNL     1      36.805  56.153 -34.708  1.00  0.00     0.119 A 
ATOM     16  C   UNL     1      36.277  56.701 -33.535  1.00  0.00     0.093 A 
ATOM     17  C   UNL     1      35.209  56.082 -32.876  1.00  0.00     0.130 A 
BRANCH  15  18
ATOM     18  O   UNL     1      37.872  56.785 -35.343  1.00  0.00    -0.508 OA
ATOM     19  H   UNL     1      37.976  56.763 -36.350  1.00  0.00     0.293 HD
ENDBRANCH  15  18
BRANCH  17  20
ATOM     20  O   UNL     1      34.745  56.653 -31.689  1.00  0.00    -0.507 OA
ATOM     21  H   UNL     1      34.866  56.220 -30.783  1.00  0.00     0.293 HD
ENDBRANCH  17  20
ENDBRANCH   1  12
BRANCH   2  22
ATOM     22  O   UNL     1      31.956  55.466 -34.232  1.00  0.00    -0.502 OA
ATOM     23  H   UNL     1      31.205  55.355 -34.902  1.00  0.00     0.293 HD
ENDBRANCH   2  22
BRANCH   6  24
ATOM     24  O   UNL     1      28.949  52.637 -30.859  1.00  0.00    -0.507 OA
ATOM     25  H   UNL     1      28.536  53.184 -31.599  1.00  0.00     0.293 HD
ENDBRANCH   6  24
BRANCH   8  26
ATOM     26  O   UNL     1      32.364  50.148 -28.577  1.00  0.00    -0.508 OA
ATOM     27  H   UNL     1      31.761  49.940 -27.791  1.00  0.00     0.293 HD
ENDBRANCH   8  26
TORSDOF 6
ENDMDL
MODEL 8
REMARK VINA RESULT:    -5.131      3.192      4.482
REMARK INTER + INTRA:          -6.576
REMARK INTER:                  -6.230
REMARK INTRA:                  -0.346
REMARK UNBOUND:                -0.395
REMARK SMILES O=c1c(O)c(-c2ccc(O)cc2O)oc2cc(O)cc(O)c12
REMARK SMILES IDX 5 1 3 2 2 3 1 4 22 5 20 6 19 7 17 8 16 9 15 10 14 11 6 12
REMARK SMILES IDX 8 13 7 14 9 15 11 16 12 17 10 18 13 20 4 22 21 24 18 26
REMARK H PARENT 10 19 13 21 4 23 21 25 18 27
REMARK Flexibility Score: inf
ROOT
ATOM      1  C   UNL     1      34.204  53.125 -32.521  1.00  0.00     0.184 A 
ATOM      2  C   UNL     1      34.984  52.284 -31.712  1.00  0.00     0.208 A 
ATOM      3  C   UNL     1      34.368  51.589 -30.660  1.00  0.00     0.238 A 
ATOM      4  O   UNL     1      35.084  50.885 -29.902  1.00  0.00    -0.285 OA
ATOM      5  C   UNL     1      32.975  51.724 -30.448  1.00  0.00     0.111 A 
ATOM      6  C   UNL     1      32.237  51.037 -29.437  1.00  0.00     0.134 A 
ATOM      7  C   UNL     1      30.885  51.339 -29.242  1.00  0.00     0.093 A 
ATOM      8  C   UNL     1      30.226  52.258 -30.063  1.00  0.00     0.123 A 
ATOM      9  C   UNL     1      30.922  52.890 -31.090  1.00  0.00     0.094 A 
ATOM     10  C   UNL     1      32.281  52.636 -31.286  1.00  0.00     0.146 A 
ATOM     11  O   UNL     1      32.910  53.272 -32.268  1.00  0.00    -0.451 OA
ENDROOT
BRANCH   1  12
ATOM     12  C   UNL     1      34.794  53.863 -33.658  1.00  0.00     0.063 A 
ATOM     13  C   UNL     1      34.976  54.187 -36.063  1.00  0.00     0.047 A 
ATOM     14  C   UNL     1      34.478  53.474 -34.971  1.00  0.00     0.020 A 
ATOM     15  C   UNL     1      35.792  55.305 -35.859  1.00  0.00     0.119 A 
ATOM     16  C   UNL     1      36.113  55.701 -34.557  1.00  0.00     0.093 A 
ATOM     17  C   UNL     1      35.628  54.988 -33.454  1.00  0.00     0.130 A 
BRANCH  15  18
ATOM     18  O   UNL     1      36.291  56.027 -36.940  1.00  0.00    -0.508 OA
ATOM     19  H   UNL     1      35.936  56.948 -37.171  1.00  0.00     0.293 HD
ENDBRANCH  15  18
BRANCH  17  20
ATOM     20  O   UNL     1      36.010  55.408 -32.178  1.00  0.00    -0.507 OA
ATOM     21  H   UNL     1      36.744  56.084 -32.015  1.00  0.00     0.293 HD
ENDBRANCH  17  20
ENDBRANCH   1  12
BRANCH   2  22
ATOM     22  O   UNL     1      36.357  52.168 -31.947  1.00  0.00    -0.502 OA
ATOM     23  H   UNL     1      36.785  52.465 -32.815  1.00  0.00     0.293 HD
ENDBRANCH   2  22
BRANCH   6  24
ATOM     24  O   UNL     1      32.776  50.036 -28.622  1.00  0.00    -0.507 OA
ATOM     25  H   UNL     1      32.568  49.052 -28.704  1.00  0.00     0.293 HD
ENDBRANCH   6  24
BRANCH   8  26
ATOM     26  O   UNL     1      28.875  52.541 -29.872  1.00  0.00    -0.508 OA
ATOM     27  H   UNL     1      28.266  52.766 -30.649  1.00  0.00     0.293 HD
ENDBRANCH   8  26
TORSDOF 6
ENDMDL
MODEL 9
REMARK VINA RESULT:    -5.106     10.273     12.878
REMARK INTER + INTRA:          -6.545
REMARK INTER:                  -6.208
REMARK INTRA:                  -0.337
REMARK UNBOUND:                -0.395
REMARK SMILES O=c1c(O)c(-c2ccc(O)cc2O)oc2cc(O)cc(O)c12
REMARK SMILES IDX 5 1 3 2 2 3 1 4 22 5 20 6 19 7 17 8 16 9 15 10 14 11 6 12
REMARK SMILES IDX 8 13 7 14 9 15 11 16 12 17 10 18 13 20 4 22 21 24 18 26
REMARK H PARENT 10 19 13 21 4 23 21 25 18 27
REMARK Flexibility Score: inf
ROOT
ATOM      1  C   UNL     1      41.126  53.479 -25.846  1.00  0.00     0.184 A 
ATOM      2  C   UNL     1      41.466  54.171 -24.674  1.00  0.00     0.208 A 
ATOM      3  C   UNL     1      42.758  54.708 -24.550  1.00  0.00     0.238 A 
ATOM      4  O   UNL     1      43.075  55.274 -23.473  1.00  0.00    -0.285 OA
ATOM      5  C   UNL     1      43.682  54.567 -25.614  1.00  0.00     0.111 A 
ATOM      6  C   UNL     1      45.005  55.103 -25.614  1.00  0.00     0.134 A 
ATOM      7  C   UNL     1      45.874  54.799 -26.669  1.00  0.00     0.093 A 
ATOM      8  C   UNL     1      45.447  54.030 -27.755  1.00  0.00     0.123 A 
ATOM      9  C   UNL     1      44.140  53.550 -27.791  1.00  0.00     0.094 A 
ATOM     10  C   UNL     1      43.262  53.806 -26.737  1.00  0.00     0.146 A 
ATOM     11  O   UNL     1      42.028  53.318 -26.805  1.00  0.00    -0.451 OA
ENDROOT
BRANCH   1  12
ATOM     12  C   UNL     1      39.774  52.914 -26.041  1.00  0.00     0.063 A 
ATOM     13  C   UNL     1      38.048  51.348 -25.339  1.00  0.00     0.047 A 
ATOM     14  C   UNL     1      39.339  51.864 -25.214  1.00  0.00     0.020 A 
ATOM     15  C   UNL     1      37.169  51.879 -26.290  1.00  0.00     0.119 A 
ATOM     16  C   UNL     1      37.590  52.923 -27.117  1.00  0.00     0.093 A 
ATOM     17  C   UNL     1      38.886  53.442 -27.008  1.00  0.00     0.130 A 
BRANCH  15  18
ATOM     18  O   UNL     1      35.877  51.376 -26.421  1.00  0.00    -0.508 OA
ATOM     19  H   UNL     1      35.177  51.852 -26.979  1.00  0.00     0.293 HD
ENDBRANCH  15  18
BRANCH  17  20
ATOM     20  O   UNL     1      39.265  54.461 -27.885  1.00  0.00    -0.507 OA
ATOM     21  H   UNL     1      40.010  55.115 -27.684  1.00  0.00     0.293 HD
ENDBRANCH  17  20
ENDBRANCH   1  12
BRANCH   2  22
ATOM     22  O   UNL     1      40.532  54.297 -23.642  1.00  0.00    -0.502 OA
ATOM     23  H   UNL     1      39.557  54.050 -23.761  1.00  0.00     0.293 HD
ENDBRANCH   2  22
BRANCH   6  24
ATOM     24  O   UNL     1      45.502  55.957 -24.624  1.00  0.00    -0.507 OA
ATOM     25  H   UNL     1      45.989  56.823 -24.801  1.00  0.00     0.293 HD
ENDBRANCH   6  24
BRANCH   8  26
ATOM     26  O   UNL     1      46.314  53.745 -28.808  1.00  0.00    -0.508 OA
ATOM     27  H   UNL     1      46.887  52.910 -28.811  1.00  0.00     0.293 HD
ENDBRANCH   8  26
TORSDOF 6
ENDMDL
