MODEL 1
REMARK VINA RESULT:    11.503      0.000      0.000
REMARK INTER + INTRA:          18.872
REMARK INTER:                  20.245
REMARK INTRA:                  -1.373
REMARK UNBOUND:                -1.373
REMARK SMILES CCCCCCCCCCCCCCC(=O)[O-]
REMARK SMILES IDX 9 1 10 2 11 3 12 4 13 5 14 6 15 7 16 8 17 9 8 10 7 11 6 12
REMARK SMILES IDX 5 13 4 14 3 15 2 16 1 17
REMARK H PARENT
REMARK Flexibility Score: inf
ROOT
ATOM      1  C   UNL     1     -17.786  60.985  -3.391  1.00  0.00     0.000 C 
ENDROOT
BRANCH   1   2
ATOM      2  C   UNL     1     -16.527  60.380  -2.742  1.00  0.00     0.000 C 
BRANCH   2   3
ATOM      3  C   UNL     1     -15.254  60.429  -3.611  1.00  0.00     0.000 C 
BRANCH   3   4
ATOM      4  C   UNL     1     -14.971  59.156  -4.431  1.00  0.00     0.000 C 
BRANCH   4   5
ATOM      5  C   UNL     1     -13.469  58.845  -4.549  1.00  0.00     0.006 C 
BRANCH   5   6
ATOM      6  C   UNL     1     -12.993  57.875  -3.460  1.00  0.00     0.053 C 
BRANCH   6   7
ATOM      7  C   UNL     1     -11.504  57.711  -3.473  1.00  0.00     0.041 C 
ATOM      8  O   UNL     1     -10.761  58.615  -3.009  1.00  0.00    -0.550 OA
ATOM      9  O   UNL     1     -10.936  56.570  -4.024  1.00  0.00    -0.550 OA
ENDBRANCH   6   7
ENDBRANCH   5   6
ENDBRANCH   4   5
ENDBRANCH   3   4
ENDBRANCH   2   3
ENDBRANCH   1   2
BRANCH   1  10
ATOM     10  C   UNL     1     -18.990  60.028  -3.361  1.00  0.00     0.000 C 
BRANCH  10  11
ATOM     11  C   UNL     1     -18.565  58.550  -3.342  1.00  0.00    -0.000 C 
BRANCH  11  12
ATOM     12  C   UNL     1     -18.847  57.874  -1.990  1.00  0.00    -0.000 C 
BRANCH  12  13
ATOM     13  C   UNL     1     -17.565  57.576  -1.194  1.00  0.00    -0.000 C 
BRANCH  13  14
ATOM     14  C   UNL     1     -16.464  56.888  -2.030  1.00  0.00    -0.000 C 
BRANCH  14  15
ATOM     15  C   UNL     1     -16.977  55.619  -2.732  1.00  0.00    -0.000 C 
BRANCH  15  16
ATOM     16  C   UNL     1     -16.353  55.420  -4.122  1.00  0.00    -0.003 C 
ATOM     17  C   UNL     1     -17.377  55.538  -5.251  1.00  0.00     0.004 C 
ENDBRANCH  15  16
ENDBRANCH  14  15
ENDBRANCH  13  14
ENDBRANCH  12  13
ENDBRANCH  11  12
ENDBRANCH  10  11
ENDBRANCH   1  10
TORSDOF 13
ENDMDL
MODEL 2
REMARK VINA RESULT:    11.585      2.539      4.939
REMARK INTER + INTRA:          19.016
REMARK INTER:                  20.138
REMARK INTRA:                  -1.123
REMARK UNBOUND:                -1.373
REMARK SMILES CCCCCCCCCCCCCCC(=O)[O-]
REMARK SMILES IDX 9 1 10 2 11 3 12 4 13 5 14 6 15 7 16 8 17 9 8 10 7 11 6 12
REMARK SMILES IDX 5 13 4 14 3 15 2 16 1 17
REMARK H PARENT
REMARK Flexibility Score: inf
ROOT
ATOM      1  C   UNL     1     -18.395  58.873  -3.189  1.00  0.00     0.000 C 
ENDROOT
BRANCH   1   2
ATOM      2  C   UNL     1     -19.057  58.299  -1.922  1.00  0.00     0.000 C 
BRANCH   2   3
ATOM      3  C   UNL     1     -18.103  58.055  -0.736  1.00  0.00     0.000 C 
BRANCH   3   4
ATOM      4  C   UNL     1     -16.919  57.115  -1.029  1.00  0.00     0.000 C 
BRANCH   4   5
ATOM      5  C   UNL     1     -17.304  55.940  -1.944  1.00  0.00     0.006 C 
BRANCH   5   6
ATOM      6  C   UNL     1     -16.498  55.936  -3.250  1.00  0.00     0.053 C 
BRANCH   6   7
ATOM      7  C   UNL     1     -17.167  55.122  -4.314  1.00  0.00     0.041 C 
ATOM      8  O   UNL     1     -17.628  53.981  -4.045  1.00  0.00    -0.550 OA
ATOM      9  O   UNL     1     -17.255  55.611  -5.611  1.00  0.00    -0.550 OA
ENDBRANCH   6   7
ENDBRANCH   5   6
ENDBRANCH   4   5
ENDBRANCH   3   4
ENDBRANCH   2   3
ENDBRANCH   1   2
BRANCH   1  10
ATOM     10  C   UNL     1     -18.581  60.393  -3.322  1.00  0.00     0.000 C 
BRANCH  10  11
ATOM     11  C   UNL     1     -17.244  61.138  -3.470  1.00  0.00    -0.000 C 
BRANCH  11  12
ATOM     12  C   UNL     1     -16.046  60.299  -2.994  1.00  0.00    -0.000 C 
BRANCH  12  13
ATOM     13  C   UNL     1     -15.000  60.071  -4.099  1.00  0.00    -0.000 C 
BRANCH  13  14
ATOM     14  C   UNL     1     -14.532  58.605  -4.215  1.00  0.00    -0.000 C 
BRANCH  14  15
ATOM     15  C   UNL     1     -13.013  58.498  -4.434  1.00  0.00    -0.000 C 
BRANCH  15  16
ATOM     16  C   UNL     1     -12.321  57.640  -3.363  1.00  0.00    -0.003 C 
ATOM     17  C   UNL     1     -10.916  58.137  -3.024  1.00  0.00     0.004 C 
ENDBRANCH  15  16
ENDBRANCH  14  15
ENDBRANCH  13  14
ENDBRANCH  12  13
ENDBRANCH  11  12
ENDBRANCH  10  11
ENDBRANCH   1  10
TORSDOF 13
ENDMDL
MODEL 3
REMARK VINA RESULT:    11.821      2.581      4.922
REMARK INTER + INTRA:          19.432
REMARK INTER:                  19.840
REMARK INTRA:                  -0.407
REMARK UNBOUND:                -1.373
REMARK SMILES CCCCCCCCCCCCCCC(=O)[O-]
REMARK SMILES IDX 9 1 10 2 11 3 12 4 13 5 14 6 15 7 16 8 17 9 8 10 7 11 6 12
REMARK SMILES IDX 5 13 4 14 3 15 2 16 1 17
REMARK H PARENT
REMARK Flexibility Score: inf
ROOT
ATOM      1  C   UNL     1     -18.849  60.595  -3.458  1.00  0.00     0.000 C 
ENDROOT
BRANCH   1   2
ATOM      2  C   UNL     1     -18.935  59.057  -3.479  1.00  0.00     0.000 C 
BRANCH   2   3
ATOM      3  C   UNL     1     -18.931  58.381  -2.093  1.00  0.00     0.000 C 
BRANCH   3   4
ATOM      4  C   UNL     1     -17.608  57.699  -1.699  1.00  0.00     0.000 C 
BRANCH   4   5
ATOM      5  C   UNL     1     -17.506  56.253  -2.215  1.00  0.00     0.006 C 
BRANCH   5   6
ATOM      6  C   UNL     1     -16.523  56.125  -3.386  1.00  0.00     0.053 C 
BRANCH   6   7
ATOM      7  C   UNL     1     -17.127  55.390  -4.542  1.00  0.00     0.041 C 
ATOM      8  O   UNL     1     -17.567  56.023  -5.538  1.00  0.00    -0.550 OA
ATOM      9  O   UNL     1     -17.232  54.005  -4.507  1.00  0.00    -0.550 OA
ENDBRANCH   6   7
ENDBRANCH   5   6
ENDBRANCH   4   5
ENDBRANCH   3   4
ENDBRANCH   2   3
ENDBRANCH   1   2
BRANCH   1  10
ATOM     10  C   UNL     1     -17.402  61.110  -3.381  1.00  0.00     0.000 C 
BRANCH  10  11
ATOM     11  C   UNL     1     -16.403  60.003  -3.006  1.00  0.00    -0.000 C 
BRANCH  11  12
ATOM     12  C   UNL     1     -14.965  60.338  -3.433  1.00  0.00    -0.000 C 
BRANCH  12  13
ATOM     13  C   UNL     1     -14.648  59.884  -4.868  1.00  0.00    -0.000 C 
BRANCH  13  14
ATOM     14  C   UNL     1     -13.883  58.545  -4.939  1.00  0.00    -0.000 C 
BRANCH  14  15
ATOM     15  C   UNL     1     -13.347  58.110  -3.563  1.00  0.00    -0.000 C 
BRANCH  15  16
ATOM     16  C   UNL     1     -11.962  57.452  -3.649  1.00  0.00    -0.003 C 
ATOM     17  C   UNL     1     -10.858  58.314  -3.036  1.00  0.00     0.004 C 
ENDBRANCH  15  16
ENDBRANCH  14  15
ENDBRANCH  13  14
ENDBRANCH  12  13
ENDBRANCH  11  12
ENDBRANCH  10  11
ENDBRANCH   1  10
TORSDOF 13
ENDMDL
MODEL 4
REMARK VINA RESULT:    13.519     10.682     13.575
REMARK INTER + INTRA:          22.420
REMARK INTER:                  23.364
REMARK INTRA:                  -0.944
REMARK UNBOUND:                -1.373
REMARK SMILES CCCCCCCCCCCCCCC(=O)[O-]
REMARK SMILES IDX 9 1 10 2 11 3 12 4 13 5 14 6 15 7 16 8 17 9 8 10 7 11 6 12
REMARK SMILES IDX 5 13 4 14 3 15 2 16 1 17
REMARK H PARENT
REMARK Flexibility Score: inf
ROOT
ATOM      1  C   UNL     1      -4.764  50.597  -2.840  1.00  0.00     0.000 C 
ENDROOT
BRANCH   1   2
ATOM      2  C   UNL     1      -3.837  49.509  -2.266  1.00  0.00     0.000 C 
BRANCH   2   3
ATOM      3  C   UNL     1      -4.403  48.731  -1.061  1.00  0.00     0.000 C 
BRANCH   3   4
ATOM      4  C   UNL     1      -4.840  47.285  -1.360  1.00  0.00     0.000 C 
BRANCH   4   5
ATOM      5  C   UNL     1      -6.314  47.023  -1.006  1.00  0.00     0.006 C 
BRANCH   5   6
ATOM      6  C   UNL     1      -6.664  45.530  -1.060  1.00  0.00     0.053 C 
BRANCH   6   7
ATOM      7  C   UNL     1      -6.030  44.851  -2.235  1.00  0.00     0.041 C 
ATOM      8  O   UNL     1      -6.436  45.092  -3.402  1.00  0.00    -0.550 OA
ATOM      9  O   UNL     1      -5.009  43.930  -2.038  1.00  0.00    -0.550 OA
ENDBRANCH   6   7
ENDBRANCH   5   6
ENDBRANCH   4   5
ENDBRANCH   3   4
ENDBRANCH   2   3
ENDBRANCH   1   2
BRANCH   1  10
ATOM     10  C   UNL     1      -6.189  50.527  -2.266  1.00  0.00     0.000 C 
BRANCH  10  11
ATOM     11  C   UNL     1      -7.224  51.201  -3.182  1.00  0.00    -0.000 C 
BRANCH  11  12
ATOM     12  C   UNL     1      -8.644  51.161  -2.594  1.00  0.00    -0.000 C 
BRANCH  12  13
ATOM     13  C   UNL     1      -9.060  49.754  -2.133  1.00  0.00    -0.000 C 
BRANCH  13  14
ATOM     14  C   UNL     1      -9.784  48.934  -3.223  1.00  0.00    -0.000 C 
BRANCH  14  15
ATOM     15  C   UNL     1     -11.278  48.743  -2.907  1.00  0.00    -0.000 C 
BRANCH  15  16
ATOM     16  C   UNL     1     -11.742  49.590  -1.712  1.00  0.00    -0.003 C 
ATOM     17  C   UNL     1     -12.526  48.779  -0.681  1.00  0.00     0.004 C 
ENDBRANCH  15  16
ENDBRANCH  14  15
ENDBRANCH  13  14
ENDBRANCH  12  13
ENDBRANCH  11  12
ENDBRANCH  10  11
ENDBRANCH   1  10
TORSDOF 13
ENDMDL
MODEL 5
REMARK VINA RESULT:    13.940     10.872     13.570
REMARK INTER + INTRA:          23.160
REMARK INTER:                  23.204
REMARK INTRA:                  -0.044
REMARK UNBOUND:                -1.373
REMARK SMILES CCCCCCCCCCCCCCC(=O)[O-]
REMARK SMILES IDX 9 1 10 2 11 3 12 4 13 5 14 6 15 7 16 8 17 9 8 10 7 11 6 12
REMARK SMILES IDX 5 13 4 14 3 15 2 16 1 17
REMARK H PARENT
REMARK Flexibility Score: inf
ROOT
ATOM      1  C   UNL     1      -4.997  50.258  -2.229  1.00  0.00     0.000 C 
ENDROOT
BRANCH   1   2
ATOM      2  C   UNL     1      -4.175  49.737  -1.035  1.00  0.00     0.000 C 
BRANCH   2   3
ATOM      3  C   UNL     1      -3.892  48.221  -1.045  1.00  0.00     0.000 C 
BRANCH   3   4
ATOM      4  C   UNL     1      -4.979  47.356  -1.708  1.00  0.00     0.000 C 
BRANCH   4   5
ATOM      5  C   UNL     1      -6.112  46.976  -0.740  1.00  0.00     0.006 C 
BRANCH   5   6
ATOM      6  C   UNL     1      -6.861  45.715  -1.192  1.00  0.00     0.053 C 
BRANCH   6   7
ATOM      7  C   UNL     1      -6.130  44.996  -2.284  1.00  0.00     0.041 C 
ATOM      8  O   UNL     1      -6.444  45.183  -3.489  1.00  0.00    -0.550 OA
ATOM      9  O   UNL     1      -5.121  44.095  -1.968  1.00  0.00    -0.550 OA
ENDBRANCH   6   7
ENDBRANCH   5   6
ENDBRANCH   4   5
ENDBRANCH   3   4
ENDBRANCH   2   3
ENDBRANCH   1   2
BRANCH   1  10
ATOM     10  C   UNL     1      -6.411  50.709  -1.828  1.00  0.00     0.000 C 
BRANCH  10  11
ATOM     11  C   UNL     1      -7.232  51.207  -3.028  1.00  0.00    -0.000 C 
BRANCH  11  12
ATOM     12  C   UNL     1      -8.706  50.777  -2.952  1.00  0.00    -0.000 C 
BRANCH  12  13
ATOM     13  C   UNL     1      -9.091  50.209  -1.575  1.00  0.00    -0.000 C 
BRANCH  13  14
ATOM     14  C   UNL     1     -10.012  48.972  -1.651  1.00  0.00    -0.000 C 
BRANCH  14  15
ATOM     15  C   UNL     1     -11.296  49.254  -2.450  1.00  0.00    -0.000 C 
BRANCH  15  16
ATOM     16  C   UNL     1     -11.094  49.105  -3.965  1.00  0.00    -0.003 C 
ATOM     17  C   UNL     1      -9.896  48.224  -4.318  1.00  0.00     0.004 C 
ENDBRANCH  15  16
ENDBRANCH  14  15
ENDBRANCH  13  14
ENDBRANCH  12  13
ENDBRANCH  11  12
ENDBRANCH  10  11
ENDBRANCH   1  10
TORSDOF 13
ENDMDL
MODEL 6
REMARK VINA RESULT:    14.045     10.539     13.335
REMARK INTER + INTRA:          23.346
REMARK INTER:                  24.178
REMARK INTRA:                  -0.833
REMARK UNBOUND:                -1.373
REMARK SMILES CCCCCCCCCCCCCCC(=O)[O-]
REMARK SMILES IDX 9 1 10 2 11 3 12 4 13 5 14 6 15 7 16 8 17 9 8 10 7 11 6 12
REMARK SMILES IDX 5 13 4 14 3 15 2 16 1 17
REMARK H PARENT
REMARK Flexibility Score: inf
ROOT
ATOM      1  C   UNL     1      -5.396  50.752  -2.257  1.00  0.00     0.000 C 
ENDROOT
BRANCH   1   2
ATOM      2  C   UNL     1      -4.509  49.847  -1.382  1.00  0.00     0.000 C 
BRANCH   2   3
ATOM      3  C   UNL     1      -4.108  48.503  -2.023  1.00  0.00     0.000 C 
BRANCH   3   4
ATOM      4  C   UNL     1      -4.537  47.249  -1.239  1.00  0.00     0.000 C 
BRANCH   4   5
ATOM      5  C   UNL     1      -6.063  47.141  -1.077  1.00  0.00     0.006 C 
BRANCH   5   6
ATOM      6  C   UNL     1      -6.539  45.683  -1.046  1.00  0.00     0.053 C 
BRANCH   6   7
ATOM      7  C   UNL     1      -5.983  44.891  -2.189  1.00  0.00     0.041 C 
ATOM      8  O   UNL     1      -6.392  45.096  -3.362  1.00  0.00    -0.550 OA
ATOM      9  O   UNL     1      -5.033  43.906  -1.955  1.00  0.00    -0.550 OA
ENDBRANCH   6   7
ENDBRANCH   5   6
ENDBRANCH   4   5
ENDBRANCH   3   4
ENDBRANCH   2   3
ENDBRANCH   1   2
BRANCH   1  10
ATOM     10  C   UNL     1      -6.883  50.682  -1.872  1.00  0.00     0.000 C 
BRANCH  10  11
ATOM     11  C   UNL     1      -7.806  51.183  -2.996  1.00  0.00    -0.000 C 
BRANCH  11  12
ATOM     12  C   UNL     1      -9.279  50.818  -2.754  1.00  0.00    -0.000 C 
BRANCH  12  13
ATOM     13  C   UNL     1      -9.532  49.301  -2.795  1.00  0.00    -0.000 C 
BRANCH  13  14
ATOM     14  C   UNL     1     -11.006  48.912  -2.549  1.00  0.00    -0.000 C 
BRANCH  14  15
ATOM     15  C   UNL     1     -11.459  49.237  -1.114  1.00  0.00    -0.000 C 
BRANCH  15  16
ATOM     16  C   UNL     1     -12.961  48.995  -0.901  1.00  0.00    -0.003 C 
ATOM     17  C   UNL     1     -13.709  50.259  -0.475  1.00  0.00     0.004 C 
ENDBRANCH  15  16
ENDBRANCH  14  15
ENDBRANCH  13  14
ENDBRANCH  12  13
ENDBRANCH  11  12
ENDBRANCH  10  11
ENDBRANCH   1  10
TORSDOF 13
ENDMDL
