MODEL 1
REMARK VINA RESULT:     6.213      0.000      0.000
REMARK INTER + INTRA:           6.213
REMARK INTER:                   6.213
REMARK INTRA:                   0.000
REMARK UNBOUND:                 0.000
REMARK SMILES C[C@@H]1CCC=C2CC[C@H]3[C@@H](C3(C)C)[C@@]21C
REMARK SMILES IDX 1 1 2 2 3 3 4 4 5 5 6 6 14 7 10 8 9 9 11 10 12 11 13 12 8 13
REMARK SMILES IDX 7 14 15 15
REMARK H PARENT
REMARK Flexibility Score: inf
ROOT
ATOM      1  C   UNL     1       6.805   8.241  15.370  1.00  0.00     0.008 C 
ATOM      2  C   UNL     1       7.375   7.160  14.423  1.00  0.00    -0.004 C 
ATOM      3  C   UNL     1       8.894   7.388  14.250  1.00  0.00     0.008 C 
ATOM      4  C   UNL     1       9.202   8.625  13.398  1.00  0.00     0.027 C 
ATOM      5  C   UNL     1       8.265   8.831  12.233  1.00  0.00    -0.027 C 
ATOM      6  C   UNL     1       7.054   8.242  12.120  1.00  0.00    -0.068 C 
ATOM      7  C   UNL     1       6.653   7.055  13.022  1.00  0.00    -0.005 C 
ATOM      8  C   UNL     1       5.106   7.174  13.214  1.00  0.00     0.009 C 
ATOM      9  C   UNL     1       4.477   7.052  11.782  1.00  0.00    -0.000 C 
ATOM     10  C   UNL     1       3.820   6.398  12.981  1.00  0.00    -0.028 C 
ATOM     11  C   UNL     1       2.526   7.055  13.476  1.00  0.00     0.012 C 
ATOM     12  C   UNL     1       3.933   4.876  13.129  1.00  0.00     0.012 C 
ATOM     13  C   UNL     1       4.612   8.473  11.247  1.00  0.00     0.009 C 
ATOM     14  C   UNL     1       6.121   8.735  10.996  1.00  0.00     0.031 C 
ATOM     15  C   UNL     1       7.106   5.723  12.351  1.00  0.00     0.017 C 
ENDROOT
TORSDOF 0
ENDMDL
MODEL 2
REMARK VINA RESULT:     6.936      1.526      2.016
REMARK INTER + INTRA:           6.936
REMARK INTER:                   6.936
REMARK INTRA:                   0.000
REMARK UNBOUND:                 0.000
REMARK SMILES C[C@@H]1CCC=C2CC[C@H]3[C@@H](C3(C)C)[C@@]21C
REMARK SMILES IDX 1 1 2 2 3 3 4 4 5 5 6 6 14 7 10 8 9 9 11 10 12 11 13 12 8 13
REMARK SMILES IDX 7 14 15 15
REMARK H PARENT
REMARK Flexibility Score: inf
ROOT
ATOM      1  C   UNL     1       7.244   6.663  14.729  1.00  0.00     0.008 C 
ATOM      2  C   UNL     1       6.550   5.718  13.721  1.00  0.00    -0.004 C 
ATOM      3  C   UNL     1       7.623   4.875  12.995  1.00  0.00     0.008 C 
ATOM      4  C   UNL     1       8.441   5.710  12.002  1.00  0.00     0.027 C 
ATOM      5  C   UNL     1       7.642   6.740  11.243  1.00  0.00    -0.027 C 
ATOM      6  C   UNL     1       6.420   7.180  11.618  1.00  0.00    -0.068 C 
ATOM      7  C   UNL     1       5.593   6.434  12.688  1.00  0.00    -0.005 C 
ATOM      8  C   UNL     1       4.756   7.534  13.418  1.00  0.00     0.009 C 
ATOM      9  C   UNL     1       3.837   8.181  12.322  1.00  0.00    -0.000 C 
ATOM     10  C   UNL     1       3.317   7.920  13.722  1.00  0.00    -0.028 C 
ATOM     11  C   UNL     1       3.114   9.159  14.603  1.00  0.00     0.012 C 
ATOM     12  C   UNL     1       2.351   6.747  13.930  1.00  0.00     0.012 C 
ATOM     13  C   UNL     1       4.773   9.194  11.673  1.00  0.00     0.009 C 
ATOM     14  C   UNL     1       5.839   8.400  10.875  1.00  0.00     0.031 C 
ATOM     15  C   UNL     1       4.730   5.335  11.997  1.00  0.00     0.017 C 
ENDROOT
TORSDOF 0
ENDMDL
MODEL 3
REMARK VINA RESULT:     7.672      1.189      2.823
REMARK INTER + INTRA:           7.672
REMARK INTER:                   7.672
REMARK INTRA:                   0.000
REMARK UNBOUND:                 0.000
REMARK SMILES C[C@@H]1CCC=C2CC[C@H]3[C@@H](C3(C)C)[C@@]21C
REMARK SMILES IDX 1 1 2 2 3 3 4 4 5 5 6 6 14 7 10 8 9 9 11 10 12 11 13 12 8 13
REMARK SMILES IDX 7 14 15 15
REMARK H PARENT
REMARK Flexibility Score: inf
ROOT
ATOM      1  C   UNL     1       6.425   8.947  11.336  1.00  0.00     0.008 C 
ATOM      2  C   UNL     1       6.927   8.414  12.698  1.00  0.00    -0.004 C 
ATOM      3  C   UNL     1       8.391   7.942  12.549  1.00  0.00     0.008 C 
ATOM      4  C   UNL     1       8.503   6.644  11.739  1.00  0.00     0.027 C 
ATOM      5  C   UNL     1       7.405   5.644  12.006  1.00  0.00    -0.027 C 
ATOM      6  C   UNL     1       6.228   5.948  12.597  1.00  0.00    -0.068 C 
ATOM      7  C   UNL     1       6.029   7.286  13.343  1.00  0.00    -0.005 C 
ATOM      8  C   UNL     1       4.518   7.648  13.164  1.00  0.00     0.009 C 
ATOM      9  C   UNL     1       3.708   6.483  13.835  1.00  0.00    -0.000 C 
ATOM     10  C   UNL     1       3.263   7.925  13.975  1.00  0.00    -0.028 C 
ATOM     11  C   UNL     1       2.010   8.318  13.182  1.00  0.00     0.012 C 
ATOM     12  C   UNL     1       3.489   8.628  15.319  1.00  0.00     0.012 C 
ATOM     13  C   UNL     1       3.681   5.430  12.734  1.00  0.00     0.009 C 
ATOM     14  C   UNL     1       5.122   4.875  12.584  1.00  0.00     0.031 C 
ATOM     15  C   UNL     1       6.467   7.119  14.829  1.00  0.00     0.017 C 
ENDROOT
TORSDOF 0
ENDMDL
MODEL 4
REMARK VINA RESULT:     8.849      1.148      2.526
REMARK INTER + INTRA:           8.849
REMARK INTER:                   8.849
REMARK INTRA:                   0.000
REMARK UNBOUND:                 0.000
REMARK SMILES C[C@@H]1CCC=C2CC[C@H]3[C@@H](C3(C)C)[C@@]21C
REMARK SMILES IDX 1 1 2 2 3 3 4 4 5 5 6 6 14 7 10 8 9 9 11 10 12 11 13 12 8 13
REMARK SMILES IDX 7 14 15 15
REMARK H PARENT
REMARK Flexibility Score: inf
ROOT
ATOM      1  C   UNL     1       8.014   5.081  12.461  1.00  0.00     0.008 C 
ATOM      2  C   UNL     1       7.754   6.442  11.774  1.00  0.00    -0.004 C 
ATOM      3  C   UNL     1       9.062   7.267  11.772  1.00  0.00     0.008 C 
ATOM      4  C   UNL     1       9.424   7.781  13.171  1.00  0.00     0.027 C 
ATOM      5  C   UNL     1       8.245   8.228  13.998  1.00  0.00    -0.027 C 
ATOM      6  C   UNL     1       6.962   7.890  13.737  1.00  0.00    -0.068 C 
ATOM      7  C   UNL     1       6.557   7.275  12.379  1.00  0.00    -0.005 C 
ATOM      8  C   UNL     1       5.355   6.324  12.689  1.00  0.00     0.009 C 
ATOM      9  C   UNL     1       4.219   7.234  13.276  1.00  0.00    -0.000 C 
ATOM     10  C   UNL     1       3.897   6.101  12.322  1.00  0.00    -0.028 C 
ATOM     11  C   UNL     1       3.216   4.876  12.944  1.00  0.00     0.012 C 
ATOM     12  C   UNL     1       3.520   6.453  10.877  1.00  0.00     0.012 C 
ATOM     13  C   UNL     1       4.622   7.351  14.741  1.00  0.00     0.009 C 
ATOM     14  C   UNL     1       5.901   8.226  14.803  1.00  0.00     0.031 C 
ATOM     15  C   UNL     1       6.217   8.419  11.376  1.00  0.00     0.017 C 
ENDROOT
TORSDOF 0
ENDMDL
