MODEL 1
REMARK VINA RESULT:    -6.058      0.000      0.000
REMARK INTER + INTRA:          -7.236
REMARK INTER:                  -6.943
REMARK INTRA:                  -0.293
REMARK UNBOUND:                -0.293
REMARK SMILES O=C1C[C@H](c2ccc(O)cc2)Oc2cc(O)cc(O)c21
REMARK SMILES IDX 3 1 4 2 12 3 13 4 14 5 15 6 17 7 18 8 20 9 2 10 1 11 5 12
REMARK SMILES IDX 6 13 11 14 7 15 10 16 8 17 9 18 19 20 16 22
REMARK H PARENT 9 19 19 21 16 23
REMARK Flexibility Score: inf
ROOT
ATOM      1  C   UNL     1       1.386   5.527   3.787  1.00  0.00     0.131 C 
ATOM      2  C   UNL     1       2.592   5.552   2.833  1.00  0.00     0.211 C 
ATOM      3  O   UNL     1       3.600   4.639   3.274  1.00  0.00    -0.484 OA
ATOM      4  C   UNL     1       3.961   4.524   4.622  1.00  0.00     0.138 A 
ATOM      5  C   UNL     1       5.147   3.870   4.962  1.00  0.00     0.093 A 
ATOM      6  C   UNL     1       5.535   3.767   6.303  1.00  0.00     0.123 A 
ATOM      7  C   UNL     1       4.729   4.314   7.304  1.00  0.00     0.093 A 
ATOM      8  C   UNL     1       3.525   4.957   6.978  1.00  0.00     0.133 A 
ATOM      9  C   UNL     1       3.131   5.059   5.627  1.00  0.00     0.102 A 
ATOM     10  C   UNL     1       1.850   5.678   5.208  1.00  0.00     0.174 C 
ATOM     11  O   UNL     1       1.117   6.284   6.035  1.00  0.00    -0.294 OA
ENDROOT
BRANCH   2  12
ATOM     12  C   UNL     1       2.166   5.213   1.426  1.00  0.00    -0.007 A 
ATOM     13  C   UNL     1       3.104   5.233   0.379  1.00  0.00     0.011 A 
ATOM     14  C   UNL     1       0.820   4.929   1.134  1.00  0.00     0.011 A 
ATOM     15  C   UNL     1       2.706   4.950  -0.931  1.00  0.00     0.046 A 
ATOM     16  C   UNL     1       0.426   4.645  -0.178  1.00  0.00     0.046 A 
ATOM     17  C   UNL     1       1.367   4.653  -1.212  1.00  0.00     0.115 A 
BRANCH  17  18
ATOM     18  O   UNL     1       0.959   4.369  -2.514  1.00  0.00    -0.508 OA
ATOM     19  H   UNL     1       1.513   4.652  -3.315  1.00  0.00     0.293 HD
ENDBRANCH  17  18
ENDBRANCH   2  12
BRANCH   8  20
ATOM     20  O   UNL     1       2.725   5.481   7.993  1.00  0.00    -0.507 OA
ATOM     21  H   UNL     1       2.333   4.892   8.719  1.00  0.00     0.293 HD
ENDBRANCH   8  20
BRANCH   6  22
ATOM     22  O   UNL     1       6.722   3.125   6.651  1.00  0.00    -0.508 OA
ATOM     23  H   UNL     1       6.850   2.710   7.566  1.00  0.00     0.293 HD
ENDBRANCH   6  22
TORSDOF 4
ENDMDL
MODEL 2
REMARK VINA RESULT:    -6.022     11.003     11.751
REMARK INTER + INTRA:          -7.196
REMARK INTER:                  -6.903
REMARK INTRA:                  -0.293
REMARK UNBOUND:                -0.293
REMARK SMILES O=C1C[C@H](c2ccc(O)cc2)Oc2cc(O)cc(O)c21
REMARK SMILES IDX 3 1 4 2 12 3 13 4 14 5 15 6 17 7 18 8 20 9 2 10 1 11 5 12
REMARK SMILES IDX 6 13 11 14 7 15 10 16 8 17 9 18 19 20 16 22
REMARK H PARENT 9 19 19 21 16 23
REMARK Flexibility Score: inf
ROOT
ATOM      1  C   UNL     1      -1.445  -5.379   3.810  1.00  0.00     0.131 C 
ATOM      2  C   UNL     1      -2.665  -5.430   2.875  1.00  0.00     0.211 C 
ATOM      3  O   UNL     1      -3.673  -4.516   3.312  1.00  0.00    -0.484 OA
ATOM      4  C   UNL     1      -4.014  -4.376   4.663  1.00  0.00     0.138 A 
ATOM      5  C   UNL     1      -5.200  -3.723   5.009  1.00  0.00     0.093 A 
ATOM      6  C   UNL     1      -5.568  -3.596   6.353  1.00  0.00     0.123 A 
ATOM      7  C   UNL     1      -4.743  -4.118   7.352  1.00  0.00     0.093 A 
ATOM      8  C   UNL     1      -3.539  -4.760   7.021  1.00  0.00     0.133 A 
ATOM      9  C   UNL     1      -3.165  -4.886   5.666  1.00  0.00     0.102 A 
ATOM     10  C   UNL     1      -1.887  -5.505   5.240  1.00  0.00     0.174 C 
ATOM     11  O   UNL     1      -1.137  -6.090   6.068  1.00  0.00    -0.294 OA
ENDROOT
BRANCH   2  12
ATOM     12  C   UNL     1      -2.263  -5.117   1.455  1.00  0.00    -0.007 A 
ATOM     13  C   UNL     1      -3.210  -5.190   0.419  1.00  0.00     0.011 A 
ATOM     14  C   UNL     1      -0.928  -4.804   1.141  1.00  0.00     0.011 A 
ATOM     15  C   UNL     1      -2.834  -4.930  -0.902  1.00  0.00     0.046 A 
ATOM     16  C   UNL     1      -0.555  -4.544  -0.181  1.00  0.00     0.046 A 
ATOM     17  C   UNL     1      -1.506  -4.604  -1.205  1.00  0.00     0.115 A 
BRANCH  17  18
ATOM     18  O   UNL     1      -1.119  -4.342  -2.518  1.00  0.00    -0.508 OA
ATOM     19  H   UNL     1      -0.982  -5.091  -3.188  1.00  0.00     0.293 HD
ENDBRANCH  17  18
ENDBRANCH   2  12
BRANCH   8  20
ATOM     20  O   UNL     1      -2.722  -5.258   8.034  1.00  0.00    -0.507 OA
ATOM     21  H   UNL     1      -2.530  -6.249   8.125  1.00  0.00     0.293 HD
ENDBRANCH   8  20
BRANCH   6  22
ATOM     22  O   UNL     1      -6.754  -2.955   6.706  1.00  0.00    -0.508 OA
ATOM     23  H   UNL     1      -7.256  -3.201   7.551  1.00  0.00     0.293 HD
ENDBRANCH   6  22
TORSDOF 4
ENDMDL
MODEL 3
REMARK VINA RESULT:    -5.851      3.089      6.167
REMARK INTER + INTRA:          -7.000
REMARK INTER:                  -6.712
REMARK INTRA:                  -0.288
REMARK UNBOUND:                -0.293
REMARK SMILES O=C1C[C@H](c2ccc(O)cc2)Oc2cc(O)cc(O)c21
REMARK SMILES IDX 3 1 4 2 12 3 13 4 14 5 15 6 17 7 18 8 20 9 2 10 1 11 5 12
REMARK SMILES IDX 6 13 11 14 7 15 10 16 8 17 9 18 19 20 16 22
REMARK H PARENT 9 19 19 21 16 23
REMARK Flexibility Score: inf
ROOT
ATOM      1  C   UNL     1       2.297   4.833   4.303  1.00  0.00     0.131 C 
ATOM      2  C   UNL     1       3.381   4.997   5.381  1.00  0.00     0.211 C 
ATOM      3  O   UNL     1       2.817   5.519   6.586  1.00  0.00    -0.484 OA
ATOM      4  C   UNL     1       1.880   6.559   6.579  1.00  0.00     0.138 A 
ATOM      5  C   UNL     1       1.603   7.243   7.765  1.00  0.00     0.093 A 
ATOM      6  C   UNL     1       0.687   8.301   7.771  1.00  0.00     0.123 A 
ATOM      7  C   UNL     1       0.042   8.669   6.587  1.00  0.00     0.093 A 
ATOM      8  C   UNL     1       0.297   7.979   5.392  1.00  0.00     0.133 A 
ATOM      9  C   UNL     1       1.218   6.910   5.385  1.00  0.00     0.102 A 
ATOM     10  C   UNL     1       1.502   6.102   4.175  1.00  0.00     0.174 C 
ATOM     11  O   UNL     1       1.043   6.430   3.048  1.00  0.00    -0.294 OA
ENDROOT
BRANCH   2  12
ATOM     12  C   UNL     1       4.063   3.680   5.656  1.00  0.00    -0.007 A 
ATOM     13  C   UNL     1       3.342   2.616   6.225  1.00  0.00     0.011 A 
ATOM     14  C   UNL     1       5.437   3.518   5.402  1.00  0.00     0.011 A 
ATOM     15  C   UNL     1       3.979   1.404   6.510  1.00  0.00     0.046 A 
ATOM     16  C   UNL     1       6.070   2.304   5.688  1.00  0.00     0.046 A 
ATOM     17  C   UNL     1       5.344   1.244   6.241  1.00  0.00     0.115 A 
BRANCH  17  18
ATOM     18  O   UNL     1       5.989   0.042   6.520  1.00  0.00    -0.508 OA
ATOM     19  H   UNL     1       6.880  -0.191   6.097  1.00  0.00     0.293 HD
ENDBRANCH  17  18
ENDBRANCH   2  12
BRANCH   8  20
ATOM     20  O   UNL     1      -0.370   8.350   4.225  1.00  0.00    -0.507 OA
ATOM     21  H   UNL     1       0.091   8.339   3.322  1.00  0.00     0.293 HD
ENDBRANCH   8  20
BRANCH   6  22
ATOM     22  O   UNL     1       0.411   8.995   8.947  1.00  0.00    -0.508 OA
ATOM     23  H   UNL     1      -0.023   9.910   8.932  1.00  0.00     0.293 HD
ENDBRANCH   6  22
TORSDOF 4
ENDMDL
MODEL 4
REMARK VINA RESULT:    -5.789     11.802     12.543
REMARK INTER + INTRA:          -6.929
REMARK INTER:                  -6.635
REMARK INTRA:                  -0.294
REMARK UNBOUND:                -0.293
REMARK SMILES O=C1C[C@H](c2ccc(O)cc2)Oc2cc(O)cc(O)c21
REMARK SMILES IDX 3 1 4 2 12 3 13 4 14 5 15 6 17 7 18 8 20 9 2 10 1 11 5 12
REMARK SMILES IDX 6 13 11 14 7 15 10 16 8 17 9 18 19 20 16 22
REMARK H PARENT 9 19 19 21 16 23
REMARK Flexibility Score: inf
ROOT
ATOM      1  C   UNL     1      -2.538  -4.785   4.361  1.00  0.00     0.131 C 
ATOM      2  C   UNL     1      -3.485  -4.867   5.570  1.00  0.00     0.211 C 
ATOM      3  O   UNL     1      -2.781  -5.314   6.731  1.00  0.00    -0.484 OA
ATOM      4  C   UNL     1      -1.854  -6.362   6.681  1.00  0.00     0.138 A 
ATOM      5  C   UNL     1      -1.437  -6.968   7.868  1.00  0.00     0.093 A 
ATOM      6  C   UNL     1      -0.530  -8.033   7.835  1.00  0.00     0.123 A 
ATOM      7  C   UNL     1      -0.034  -8.486   6.609  1.00  0.00     0.093 A 
ATOM      8  C   UNL     1      -0.429  -7.873   5.410  1.00  0.00     0.133 A 
ATOM      9  C   UNL     1      -1.342  -6.797   5.443  1.00  0.00     0.102 A 
ATOM     10  C   UNL     1      -1.768  -6.068   4.224  1.00  0.00     0.174 C 
ATOM     11  O   UNL     1      -1.449  -6.475   3.074  1.00  0.00    -0.294 OA
ENDROOT
BRANCH   2  12
ATOM     12  C   UNL     1      -4.126  -3.527   5.837  1.00  0.00    -0.007 A 
ATOM     13  C   UNL     1      -3.408  -2.521   6.507  1.00  0.00     0.011 A 
ATOM     14  C   UNL     1      -5.462  -3.287   5.472  1.00  0.00     0.011 A 
ATOM     15  C   UNL     1      -4.009  -1.290   6.783  1.00  0.00     0.046 A 
ATOM     16  C   UNL     1      -6.060  -2.054   5.749  1.00  0.00     0.046 A 
ATOM     17  C   UNL     1      -5.336  -1.052   6.403  1.00  0.00     0.115 A 
BRANCH  17  18
ATOM     18  O   UNL     1      -5.946   0.171   6.673  1.00  0.00    -0.508 OA
ATOM     19  H   UNL     1      -6.837   0.224   7.153  1.00  0.00     0.293 HD
ENDBRANCH  17  18
ENDBRANCH   2  12
BRANCH   8  20
ATOM     20  O   UNL     1       0.091  -8.328   4.199  1.00  0.00    -0.507 OA
ATOM     21  H   UNL     1      -0.280  -8.015   3.309  1.00  0.00     0.293 HD
ENDBRANCH   8  20
BRANCH   6  22
ATOM     22  O   UNL     1      -0.115  -8.651   9.013  1.00  0.00    -0.508 OA
ATOM     23  H   UNL     1      -0.065  -8.142   9.887  1.00  0.00     0.293 HD
ENDBRANCH   6  22
TORSDOF 4
ENDMDL
MODEL 5
REMARK VINA RESULT:    -5.746      3.287      6.082
REMARK INTER + INTRA:          -6.879
REMARK INTER:                  -6.590
REMARK INTRA:                  -0.289
REMARK UNBOUND:                -0.293
REMARK SMILES O=C1C[C@H](c2ccc(O)cc2)Oc2cc(O)cc(O)c21
REMARK SMILES IDX 3 1 4 2 12 3 13 4 14 5 15 6 17 7 18 8 20 9 2 10 1 11 5 12
REMARK SMILES IDX 6 13 11 14 7 15 10 16 8 17 9 18 19 20 16 22
REMARK H PARENT 9 19 19 21 16 23
REMARK Flexibility Score: inf
ROOT
ATOM      1  C   UNL     1       2.333   4.681  -2.035  1.00  0.00     0.131 C 
ATOM      2  C   UNL     1       3.290   5.586  -1.241  1.00  0.00     0.211 C 
ATOM      3  O   UNL     1       3.271   5.242   0.147  1.00  0.00    -0.484 OA
ATOM      4  C   UNL     1       2.080   4.962   0.827  1.00  0.00     0.138 A 
ATOM      5  C   UNL     1       2.073   4.947   2.224  1.00  0.00     0.093 A 
ATOM      6  C   UNL     1       0.887   4.693   2.920  1.00  0.00     0.123 A 
ATOM      7  C   UNL     1      -0.294   4.445   2.215  1.00  0.00     0.093 A 
ATOM      8  C   UNL     1      -0.298   4.437   0.811  1.00  0.00     0.133 A 
ATOM      9  C   UNL     1       0.899   4.691   0.108  1.00  0.00     0.102 A 
ATOM     10  C   UNL     1       0.985   4.650  -1.371  1.00  0.00     0.174 C 
ATOM     11  O   UNL     1      -0.050   4.536  -2.083  1.00  0.00    -0.294 OA
ENDROOT
BRANCH   2  12
ATOM     12  C   UNL     1       4.695   5.481  -1.781  1.00  0.00    -0.007 A 
ATOM     13  C   UNL     1       5.417   4.282  -1.646  1.00  0.00     0.011 A 
ATOM     14  C   UNL     1       5.318   6.593  -2.374  1.00  0.00     0.011 A 
ATOM     15  C   UNL     1       6.729   4.192  -2.118  1.00  0.00     0.046 A 
ATOM     16  C   UNL     1       6.632   6.498  -2.846  1.00  0.00     0.046 A 
ATOM     17  C   UNL     1       7.340   5.299  -2.721  1.00  0.00     0.115 A 
BRANCH  17  18
ATOM     18  O   UNL     1       8.647   5.220  -3.196  1.00  0.00    -0.508 OA
ATOM     19  H   UNL     1       9.112   6.025  -3.601  1.00  0.00     0.293 HD
ENDBRANCH  17  18
ENDBRANCH   2  12
BRANCH   8  20
ATOM     20  O   UNL     1      -1.483   4.170   0.127  1.00  0.00    -0.507 OA
ATOM     21  H   UNL     1      -2.332   3.909   0.614  1.00  0.00     0.293 HD
ENDBRANCH   8  20
BRANCH   6  22
ATOM     22  O   UNL     1       0.868   4.686   4.314  1.00  0.00    -0.508 OA
ATOM     23  H   UNL     1       0.146   4.198   4.831  1.00  0.00     0.293 HD
ENDBRANCH   6  22
TORSDOF 4
ENDMDL
MODEL 6
REMARK VINA RESULT:    -5.720     11.121     14.890
REMARK INTER + INTRA:          -6.850
REMARK INTER:                  -6.553
REMARK INTRA:                  -0.297
REMARK UNBOUND:                -0.293
REMARK SMILES O=C1C[C@H](c2ccc(O)cc2)Oc2cc(O)cc(O)c21
REMARK SMILES IDX 3 1 4 2 12 3 13 4 14 5 15 6 17 7 18 8 20 9 2 10 1 11 5 12
REMARK SMILES IDX 6 13 11 14 7 15 10 16 8 17 9 18 19 20 16 22
REMARK H PARENT 9 19 19 21 16 23
REMARK Flexibility Score: inf
ROOT
ATOM      1  C   UNL     1      -4.509  -6.000  -1.833  1.00  0.00     0.131 C 
ATOM      2  C   UNL     1      -3.225  -5.423  -2.450  1.00  0.00     0.211 C 
ATOM      3  O   UNL     1      -3.514  -4.239  -3.197  1.00  0.00    -0.484 OA
ATOM      4  C   UNL     1      -4.626  -4.145  -4.042  1.00  0.00     0.138 A 
ATOM      5  C   UNL     1      -4.693  -3.111  -4.978  1.00  0.00     0.093 A 
ATOM      6  C   UNL     1      -5.786  -3.017  -5.847  1.00  0.00     0.123 A 
ATOM      7  C   UNL     1      -6.818  -3.957  -5.771  1.00  0.00     0.093 A 
ATOM      8  C   UNL     1      -6.773  -4.990  -4.822  1.00  0.00     0.133 A 
ATOM      9  C   UNL     1      -5.673  -5.084  -3.943  1.00  0.00     0.102 A 
ATOM     10  C   UNL     1      -5.578  -6.115  -2.882  1.00  0.00     0.174 C 
ATOM     11  O   UNL     1      -6.412  -7.058  -2.812  1.00  0.00    -0.294 OA
ENDROOT
BRANCH   2  12
ATOM     12  C   UNL     1      -2.205  -5.124  -1.379  1.00  0.00    -0.007 A 
ATOM     13  C   UNL     1      -2.528  -5.312  -0.024  1.00  0.00     0.011 A 
ATOM     14  C   UNL     1      -0.944  -4.603  -1.717  1.00  0.00     0.011 A 
ATOM     15  C   UNL     1      -1.596  -5.006   0.972  1.00  0.00     0.046 A 
ATOM     16  C   UNL     1      -0.014  -4.299  -0.718  1.00  0.00     0.046 A 
ATOM     17  C   UNL     1      -0.336  -4.501   0.628  1.00  0.00     0.115 A 
BRANCH  17  18
ATOM     18  O   UNL     1       0.601  -4.194   1.612  1.00  0.00    -0.508 OA
ATOM     19  H   UNL     1       1.051  -4.920   2.159  1.00  0.00     0.293 HD
ENDBRANCH  17  18
ENDBRANCH   2  12
BRANCH   8  20
ATOM     20  O   UNL     1      -7.821  -5.907  -4.750  1.00  0.00    -0.507 OA
ATOM     21  H   UNL     1      -8.180  -6.370  -5.577  1.00  0.00     0.293 HD
ENDBRANCH   8  20
BRANCH   6  22
ATOM     22  O   UNL     1      -5.857  -1.995  -6.791  1.00  0.00    -0.508 OA
ATOM     23  H   UNL     1      -6.702  -1.452  -6.921  1.00  0.00     0.293 HD
ENDBRANCH   6  22
TORSDOF 4
ENDMDL
MODEL 7
REMARK VINA RESULT:    -5.715      4.816      8.549
REMARK INTER + INTRA:          -6.843
REMARK INTER:                  -6.546
REMARK INTRA:                  -0.298
REMARK UNBOUND:                -0.293
REMARK SMILES O=C1C[C@H](c2ccc(O)cc2)Oc2cc(O)cc(O)c21
REMARK SMILES IDX 3 1 4 2 12 3 13 4 14 5 15 6 17 7 18 8 20 9 2 10 1 11 5 12
REMARK SMILES IDX 6 13 11 14 7 15 10 16 8 17 9 18 19 20 16 22
REMARK H PARENT 9 19 19 21 16 23
REMARK Flexibility Score: inf
ROOT
ATOM      1  C   UNL     1       4.457   6.007  -1.850  1.00  0.00     0.131 C 
ATOM      2  C   UNL     1       3.183   5.466  -2.520  1.00  0.00     0.211 C 
ATOM      3  O   UNL     1       3.474   4.287  -3.274  1.00  0.00    -0.484 OA
ATOM      4  C   UNL     1       4.613   4.182  -4.081  1.00  0.00     0.138 A 
ATOM      5  C   UNL     1       4.692   3.161  -5.031  1.00  0.00     0.093 A 
ATOM      6  C   UNL     1       5.812   3.057  -5.863  1.00  0.00     0.123 A 
ATOM      7  C   UNL     1       6.860   3.973  -5.737  1.00  0.00     0.093 A 
ATOM      8  C   UNL     1       6.803   4.993  -4.774  1.00  0.00     0.133 A 
ATOM      9  C   UNL     1       5.675   5.097  -3.933  1.00  0.00     0.102 A 
ATOM     10  C   UNL     1       5.564   6.115  -2.860  1.00  0.00     0.174 C 
ATOM     11  O   UNL     1       6.414   7.039  -2.746  1.00  0.00    -0.294 OA
ENDROOT
BRANCH   2  12
ATOM     12  C   UNL     1       2.121   5.173  -1.489  1.00  0.00    -0.007 A 
ATOM     13  C   UNL     1       2.395   5.351  -0.122  1.00  0.00     0.011 A 
ATOM     14  C   UNL     1       0.868   4.666  -1.877  1.00  0.00     0.011 A 
ATOM     15  C   UNL     1       1.423   5.051   0.837  1.00  0.00     0.046 A 
ATOM     16  C   UNL     1      -0.102   4.367  -0.915  1.00  0.00     0.046 A 
ATOM     17  C   UNL     1       0.172   4.560   0.443  1.00  0.00     0.115 A 
BRANCH  17  18
ATOM     18  O   UNL     1      -0.805   4.258   1.390  1.00  0.00    -0.508 OA
ATOM     19  H   UNL     1      -1.750   4.014   1.115  1.00  0.00     0.293 HD
ENDBRANCH  17  18
ENDBRANCH   2  12
BRANCH   8  20
ATOM     20  O   UNL     1       7.866   5.886  -4.652  1.00  0.00    -0.507 OA
ATOM     21  H   UNL     1       7.955   6.694  -5.258  1.00  0.00     0.293 HD
ENDBRANCH   8  20
BRANCH   6  22
ATOM     22  O   UNL     1       5.895   2.047  -6.820  1.00  0.00    -0.508 OA
ATOM     23  H   UNL     1       6.354   2.199  -7.710  1.00  0.00     0.293 HD
ENDBRANCH   6  22
TORSDOF 4
ENDMDL
MODEL 8
REMARK VINA RESULT:    -5.714      3.129      7.391
REMARK INTER + INTRA:          -6.843
REMARK INTER:                  -6.547
REMARK INTRA:                  -0.295
REMARK UNBOUND:                -0.293
REMARK SMILES O=C1C[C@H](c2ccc(O)cc2)Oc2cc(O)cc(O)c21
REMARK SMILES IDX 3 1 4 2 12 3 13 4 14 5 15 6 17 7 18 8 20 9 2 10 1 11 5 12
REMARK SMILES IDX 6 13 11 14 7 15 10 16 8 17 9 18 19 20 16 22
REMARK H PARENT 9 19 19 21 16 23
REMARK Flexibility Score: inf
ROOT
ATOM      1  C   UNL     1       1.718   4.298  -0.608  1.00  0.00     0.131 C 
ATOM      2  C   UNL     1       2.766   4.730   0.431  1.00  0.00     0.211 C 
ATOM      3  O   UNL     1       3.712   5.629  -0.153  1.00  0.00    -0.484 OA
ATOM      4  C   UNL     1       4.249   5.418  -1.429  1.00  0.00     0.138 A 
ATOM      5  C   UNL     1       5.386   6.129  -1.822  1.00  0.00     0.093 A 
ATOM      6  C   UNL     1       5.950   5.913  -3.084  1.00  0.00     0.123 A 
ATOM      7  C   UNL     1       5.370   4.988  -3.956  1.00  0.00     0.093 A 
ATOM      8  C   UNL     1       4.216   4.281  -3.582  1.00  0.00     0.133 A 
ATOM      9  C   UNL     1       3.644   4.501  -2.310  1.00  0.00     0.102 A 
ATOM     10  C   UNL     1       2.400   3.830  -1.863  1.00  0.00     0.174 C 
ATOM     11  O   UNL     1       1.873   2.910  -2.545  1.00  0.00    -0.294 OA
ENDROOT
BRANCH   2  12
ATOM     12  C   UNL     1       2.102   5.377   1.621  1.00  0.00    -0.007 A 
ATOM     13  C   UNL     1       0.717   5.616   1.614  1.00  0.00     0.011 A 
ATOM     14  C   UNL     1       2.865   5.800   2.724  1.00  0.00     0.011 A 
ATOM     15  C   UNL     1       0.104   6.244   2.703  1.00  0.00     0.046 A 
ATOM     16  C   UNL     1       2.248   6.427   3.811  1.00  0.00     0.046 A 
ATOM     17  C   UNL     1       0.867   6.649   3.805  1.00  0.00     0.115 A 
BRANCH  17  18
ATOM     18  O   UNL     1       0.267   7.275   4.895  1.00  0.00    -0.508 OA
ATOM     19  H   UNL     1       0.716   7.299   5.804  1.00  0.00     0.293 HD
ENDBRANCH  17  18
ENDBRANCH   2  12
BRANCH   8  20
ATOM     20  O   UNL     1       3.642   3.376  -4.474  1.00  0.00    -0.507 OA
ATOM     21  H   UNL     1       3.435   3.632  -5.432  1.00  0.00     0.293 HD
ENDBRANCH   8  20
BRANCH   6  22
ATOM     22  O   UNL     1       7.089   6.609  -3.481  1.00  0.00    -0.508 OA
ATOM     23  H   UNL     1       7.914   6.653  -2.895  1.00  0.00     0.293 HD
ENDBRANCH   6  22
TORSDOF 4
ENDMDL
MODEL 9
REMARK VINA RESULT:    -5.612     10.964     13.757
REMARK INTER + INTRA:          -6.725
REMARK INTER:                  -6.429
REMARK INTRA:                  -0.296
REMARK UNBOUND:                -0.293
REMARK SMILES O=C1C[C@H](c2ccc(O)cc2)Oc2cc(O)cc(O)c21
REMARK SMILES IDX 3 1 4 2 12 3 13 4 14 5 15 6 17 7 18 8 20 9 2 10 1 11 5 12
REMARK SMILES IDX 6 13 11 14 7 15 10 16 8 17 9 18 19 20 16 22
REMARK H PARENT 9 19 19 21 16 23
REMARK Flexibility Score: inf
ROOT
ATOM      1  C   UNL     1      -0.925  -4.393   0.031  1.00  0.00     0.131 C 
ATOM      2  C   UNL     1      -2.112  -4.811   0.914  1.00  0.00     0.211 C 
ATOM      3  O   UNL     1      -3.051  -5.583   0.161  1.00  0.00    -0.484 OA
ATOM      4  C   UNL     1      -3.424  -5.235  -1.143  1.00  0.00     0.138 A 
ATOM      5  C   UNL     1      -4.559  -5.817  -1.712  1.00  0.00     0.093 A 
ATOM      6  C   UNL     1      -4.960  -5.462  -3.005  1.00  0.00     0.123 A 
ATOM      7  C   UNL     1      -4.217  -4.528  -3.732  1.00  0.00     0.093 A 
ATOM      8  C   UNL     1      -3.063  -3.949  -3.180  1.00  0.00     0.133 A 
ATOM      9  C   UNL     1      -2.656  -4.309  -1.877  1.00  0.00     0.102 A 
ATOM     10  C   UNL     1      -1.423  -3.780  -1.246  1.00  0.00     0.174 C 
ATOM     11  O   UNL     1      -0.755  -2.859  -1.790  1.00  0.00    -0.294 OA
ENDROOT
BRANCH   2  12
ATOM     12  C   UNL     1      -1.637  -5.598   2.111  1.00  0.00    -0.007 A 
ATOM     13  C   UNL     1      -0.278  -5.930   2.244  1.00  0.00     0.011 A 
ATOM     14  C   UNL     1      -2.553  -6.056   3.075  1.00  0.00     0.011 A 
ATOM     15  C   UNL     1       0.160  -6.685   3.336  1.00  0.00     0.046 A 
ATOM     16  C   UNL     1      -2.110  -6.811   4.167  1.00  0.00     0.046 A 
ATOM     17  C   UNL     1      -0.754  -7.126   4.301  1.00  0.00     0.115 A 
BRANCH  17  18
ATOM     18  O   UNL     1      -0.329  -7.878   5.394  1.00  0.00    -0.508 OA
ATOM     19  H   UNL     1      -0.750  -7.765   6.309  1.00  0.00     0.293 HD
ENDBRANCH  17  18
ENDBRANCH   2  12
BRANCH   8  20
ATOM     20  O   UNL     1      -2.326  -3.033  -3.928  1.00  0.00    -0.507 OA
ATOM     21  H   UNL     1      -2.139  -3.177  -4.914  1.00  0.00     0.293 HD
ENDBRANCH   8  20
BRANCH   6  22
ATOM     22  O   UNL     1      -6.096  -6.030  -3.577  1.00  0.00    -0.508 OA
ATOM     23  H   UNL     1      -6.042  -6.874  -4.135  1.00  0.00     0.293 HD
ENDBRANCH   6  22
TORSDOF 4
ENDMDL
