MODEL 1
REMARK VINA RESULT:    -5.565      0.000      0.000
REMARK INTER + INTRA:         -11.311
REMARK INTER:                  -8.493
REMARK INTRA:                  -2.818
REMARK UNBOUND:                -2.818
REMARK SMILES CC(=O)CCC=C(C)CCC=C(C)CCC=C(C)C
REMARK SMILES IDX 10 1 11 2 12 3 13 4 14 5 15 6 16 7 18 8 17 9 19 10 9 11 7 12
REMARK SMILES IDX 6 13 8 14 5 15 4 16 2 17 3 18 1 19
REMARK H PARENT
REMARK Flexibility Score: inf
ROOT
ATOM      1  C   UNL     1     212.899 150.121 179.039  1.00  0.00     0.032 C 
ENDROOT
BRANCH   1   2
ATOM      2  C   UNL     1     213.112 150.210 180.530  1.00  0.00    -0.028 C 
ATOM      3  C   UNL     1     214.289 150.498 181.130  1.00  0.00    -0.077 C 
ATOM      4  C   UNL     1     215.563 150.689 180.343  1.00  0.00     0.039 C 
BRANCH   3   5
ATOM      5  C   UNL     1     214.329 150.638 182.636  1.00  0.00     0.034 C 
BRANCH   5   6
ATOM      6  C   UNL     1     212.915 150.604 183.225  1.00  0.00     0.032 C 
BRANCH   6   7
ATOM      7  C   UNL     1     212.547 151.945 183.809  1.00  0.00    -0.028 C 
ATOM      8  C   UNL     1     210.547 152.221 182.325  1.00  0.00     0.039 C 
ATOM      9  C   UNL     1     211.472 152.673 183.432  1.00  0.00    -0.080 C 
ATOM     10  C   UNL     1     211.208 153.980 184.134  1.00  0.00     0.039 C 
ENDBRANCH   6   7
ENDBRANCH   5   6
ENDBRANCH   3   5
ENDBRANCH   1   2
BRANCH   1  11
ATOM     11  C   UNL     1     212.240 151.393 178.487  1.00  0.00     0.034 C 
BRANCH  11  12
ATOM     12  C   UNL     1     213.267 152.419 178.044  1.00  0.00    -0.077 C 
ATOM     13  C   UNL     1     213.619 153.498 178.782  1.00  0.00    -0.028 C 
ATOM     14  C   UNL     1     213.958 152.211 176.721  1.00  0.00     0.039 C 
BRANCH  13  15
ATOM     15  C   UNL     1     212.999 153.915 180.095  1.00  0.00     0.035 C 
BRANCH  15  16
ATOM     16  C   UNL     1     214.075 154.300 181.116  1.00  0.00     0.079 C 
BRANCH  16  17
ATOM     17  C   UNL     1     214.147 155.793 181.308  1.00  0.00     0.130 C 
ATOM     18  O   UNL     1     214.948 156.446 180.657  1.00  0.00    -0.300 OA
ATOM     19  C   UNL     1     213.258 156.495 182.291  1.00  0.00     0.087 C 
ENDBRANCH  16  17
ENDBRANCH  15  16
ENDBRANCH  13  15
ENDBRANCH  11  12
ENDBRANCH   1  11
TORSDOF 9
ENDMDL
MODEL 2
REMARK VINA RESULT:    -5.494      1.458      4.551
REMARK INTER + INTRA:         -11.203
REMARK INTER:                  -8.814
REMARK INTRA:                  -2.389
REMARK UNBOUND:                -2.818
REMARK SMILES CC(=O)CCC=C(C)CCC=C(C)CCC=C(C)C
REMARK SMILES IDX 10 1 11 2 12 3 13 4 14 5 15 6 16 7 18 8 17 9 19 10 9 11 7 12
REMARK SMILES IDX 6 13 8 14 5 15 4 16 2 17 3 18 1 19
REMARK H PARENT
REMARK Flexibility Score: inf
ROOT
ATOM      1  C   UNL     1     213.551 152.429 184.929  1.00  0.00     0.032 C 
ENDROOT
BRANCH   1   2
ATOM      2  C   UNL     1     212.592 151.839 183.923  1.00  0.00    -0.028 C 
ATOM      3  C   UNL     1     211.564 152.503 183.348  1.00  0.00    -0.077 C 
ATOM      4  C   UNL     1     211.218 153.923 183.726  1.00  0.00     0.039 C 
BRANCH   3   5
ATOM      5  C   UNL     1     210.740 151.803 182.290  1.00  0.00     0.034 C 
BRANCH   5   6
ATOM      6  C   UNL     1     211.615 150.875 181.441  1.00  0.00     0.032 C 
BRANCH   6   7
ATOM      7  C   UNL     1     211.863 151.474 180.079  1.00  0.00    -0.028 C 
ATOM      8  C   UNL     1     213.715 149.875 179.538  1.00  0.00     0.039 C 
ATOM      9  C   UNL     1     212.786 151.019 179.203  1.00  0.00    -0.080 C 
ATOM     10  C   UNL     1     212.894 151.695 177.859  1.00  0.00     0.039 C 
ENDBRANCH   6   7
ENDBRANCH   5   6
ENDBRANCH   3   5
ENDBRANCH   1   2
BRANCH   1  11
ATOM     11  C   UNL     1     214.866 152.861 184.267  1.00  0.00     0.034 C 
BRANCH  11  12
ATOM     12  C   UNL     1     215.172 152.043 183.025  1.00  0.00    -0.077 C 
ATOM     13  C   UNL     1     214.989 152.495 181.762  1.00  0.00    -0.028 C 
ATOM     14  C   UNL     1     215.740 150.659 183.205  1.00  0.00     0.039 C 
BRANCH  13  15
ATOM     15  C   UNL     1     214.374 153.820 181.375  1.00  0.00     0.035 C 
BRANCH  15  16
ATOM     16  C   UNL     1     214.826 154.251 179.976  1.00  0.00     0.079 C 
BRANCH  16  17
ATOM     17  C   UNL     1     214.082 155.473 179.505  1.00  0.00     0.130 C 
ATOM     18  O   UNL     1     214.513 156.583 179.777  1.00  0.00    -0.300 OA
ATOM     19  C   UNL     1     212.814 155.355 178.712  1.00  0.00     0.087 C 
ENDBRANCH  16  17
ENDBRANCH  15  16
ENDBRANCH  13  15
ENDBRANCH  11  12
ENDBRANCH   1  11
TORSDOF 9
ENDMDL
MODEL 3
REMARK VINA RESULT:    -5.446      1.765      4.220
REMARK INTER + INTRA:         -11.129
REMARK INTER:                  -8.865
REMARK INTRA:                  -2.264
REMARK UNBOUND:                -2.818
REMARK SMILES CC(=O)CCC=C(C)CCC=C(C)CCC=C(C)C
REMARK SMILES IDX 10 1 11 2 12 3 13 4 14 5 15 6 16 7 18 8 17 9 19 10 9 11 7 12
REMARK SMILES IDX 6 13 8 14 5 15 4 16 2 17 3 18 1 19
REMARK H PARENT
REMARK Flexibility Score: inf
ROOT
ATOM      1  C   UNL     1     213.092 149.875 182.271  1.00  0.00     0.032 C 
ENDROOT
BRANCH   1   2
ATOM      2  C   UNL     1     214.296 150.300 181.465  1.00  0.00    -0.028 C 
ATOM      3  C   UNL     1     214.344 150.357 180.115  1.00  0.00    -0.077 C 
ATOM      4  C   UNL     1     213.188 149.913 179.252  1.00  0.00     0.039 C 
BRANCH   3   5
ATOM      5  C   UNL     1     215.596 150.886 179.449  1.00  0.00     0.034 C 
BRANCH   5   6
ATOM      6  C   UNL     1     215.373 152.305 178.916  1.00  0.00     0.032 C 
BRANCH   6   7
ATOM      7  C   UNL     1     215.256 153.290 180.052  1.00  0.00    -0.028 C 
ATOM      8  C   UNL     1     212.804 153.658 179.691  1.00  0.00     0.039 C 
ATOM      9  C   UNL     1     214.103 153.887 180.428  1.00  0.00    -0.080 C 
ATOM     10  C   UNL     1     214.132 154.821 181.611  1.00  0.00     0.039 C 
ENDBRANCH   6   7
ENDBRANCH   5   6
ENDBRANCH   3   5
ENDBRANCH   1   2
BRANCH   1  11
ATOM     11  C   UNL     1     212.655 150.973 183.251  1.00  0.00     0.034 C 
BRANCH  11  12
ATOM     12  C   UNL     1     211.468 151.762 182.728  1.00  0.00    -0.077 C 
ATOM     13  C   UNL     1     211.116 152.985 183.189  1.00  0.00    -0.028 C 
ATOM     14  C   UNL     1     210.650 151.163 181.613  1.00  0.00     0.039 C 
BRANCH  13  15
ATOM     15  C   UNL     1     211.765 153.720 184.338  1.00  0.00     0.035 C 
BRANCH  15  16
ATOM     16  C   UNL     1     210.902 154.900 184.796  1.00  0.00     0.079 C 
BRANCH  16  17
ATOM     17  C   UNL     1     211.633 156.210 184.655  1.00  0.00     0.130 C 
ATOM     18  O   UNL     1     211.113 157.128 184.039  1.00  0.00    -0.300 OA
ATOM     19  C   UNL     1     212.995 156.409 185.252  1.00  0.00     0.087 C 
ENDBRANCH  16  17
ENDBRANCH  15  16
ENDBRANCH  13  15
ENDBRANCH  11  12
ENDBRANCH   1  11
TORSDOF 9
ENDMDL
MODEL 4
REMARK VINA RESULT:    -5.241      1.471      4.812
REMARK INTER + INTRA:         -10.817
REMARK INTER:                  -8.439
REMARK INTRA:                  -2.378
REMARK UNBOUND:                -2.818
REMARK SMILES CC(=O)CCC=C(C)CCC=C(C)CCC=C(C)C
REMARK SMILES IDX 10 1 11 2 12 3 13 4 14 5 15 6 16 7 18 8 17 9 19 10 9 11 7 12
REMARK SMILES IDX 6 13 8 14 5 15 4 16 2 17 3 18 1 19
REMARK H PARENT
REMARK Flexibility Score: inf
ROOT
ATOM      1  C   UNL     1     213.016 152.144 184.430  1.00  0.00     0.032 C 
ENDROOT
BRANCH   1   2
ATOM      2  C   UNL     1     212.668 151.266 183.252  1.00  0.00    -0.028 C 
ATOM      3  C   UNL     1     211.621 151.463 182.419  1.00  0.00    -0.077 C 
ATOM      4  C   UNL     1     210.621 152.572 182.640  1.00  0.00     0.039 C 
BRANCH   3   5
ATOM      5  C   UNL     1     211.450 150.546 181.228  1.00  0.00     0.034 C 
BRANCH   5   6
ATOM      6  C   UNL     1     212.806 150.029 180.738  1.00  0.00     0.032 C 
BRANCH   6   7
ATOM      7  C   UNL     1     213.154 150.629 179.399  1.00  0.00    -0.028 C 
ATOM      8  C   UNL     1     215.606 150.736 179.904  1.00  0.00     0.039 C 
ATOM      9  C   UNL     1     214.411 150.929 179.000  1.00  0.00    -0.080 C 
ATOM     10  C   UNL     1     214.609 151.489 177.615  1.00  0.00     0.039 C 
ENDBRANCH   6   7
ENDBRANCH   5   6
ENDBRANCH   3   5
ENDBRANCH   1   2
BRANCH   1  11
ATOM     11  C   UNL     1     214.123 153.147 184.076  1.00  0.00     0.034 C 
BRANCH  11  12
ATOM     12  C   UNL     1     213.559 154.445 183.526  1.00  0.00    -0.077 C 
ATOM     13  C   UNL     1     213.576 154.775 182.213  1.00  0.00    -0.028 C 
ATOM     14  C   UNL     1     212.918 155.410 184.491  1.00  0.00     0.039 C 
BRANCH  13  15
ATOM     15  C   UNL     1     214.225 153.979 181.107  1.00  0.00     0.035 C 
BRANCH  15  16
ATOM     16  C   UNL     1     214.732 154.897 179.989  1.00  0.00     0.079 C 
BRANCH  16  17
ATOM     17  C   UNL     1     213.595 155.459 179.176  1.00  0.00     0.130 C 
ATOM     18  O   UNL     1     213.310 156.643 179.276  1.00  0.00    -0.300 OA
ATOM     19  C   UNL     1     212.798 154.591 178.248  1.00  0.00     0.087 C 
ENDBRANCH  16  17
ENDBRANCH  15  16
ENDBRANCH  13  15
ENDBRANCH  11  12
ENDBRANCH   1  11
TORSDOF 9
ENDMDL
MODEL 5
REMARK VINA RESULT:    -5.231      2.399      4.415
REMARK INTER + INTRA:         -10.801
REMARK INTER:                  -8.978
REMARK INTRA:                  -1.823
REMARK UNBOUND:                -2.818
REMARK SMILES CC(=O)CCC=C(C)CCC=C(C)CCC=C(C)C
REMARK SMILES IDX 10 1 11 2 12 3 13 4 14 5 15 6 16 7 18 8 17 9 19 10 9 11 7 12
REMARK SMILES IDX 6 13 8 14 5 15 4 16 2 17 3 18 1 19
REMARK H PARENT
REMARK Flexibility Score: inf
ROOT
ATOM      1  C   UNL     1     212.401 150.791 179.152  1.00  0.00     0.032 C 
ENDROOT
BRANCH   1   2
ATOM      2  C   UNL     1     211.742 150.996 180.495  1.00  0.00    -0.028 C 
ATOM      3  C   UNL     1     211.814 152.129 181.230  1.00  0.00    -0.077 C 
ATOM      4  C   UNL     1     212.652 153.309 180.801  1.00  0.00     0.039 C 
BRANCH   3   5
ATOM      5  C   UNL     1     211.028 152.216 182.520  1.00  0.00     0.034 C 
BRANCH   5   6
ATOM      6  C   UNL     1     211.954 152.508 183.705  1.00  0.00     0.032 C 
BRANCH   6   7
ATOM      7  C   UNL     1     212.897 151.355 183.942  1.00  0.00    -0.028 C 
ATOM      8  C   UNL     1     214.887 152.842 184.266  1.00  0.00     0.039 C 
ATOM      9  C   UNL     1     214.213 151.490 184.220  1.00  0.00    -0.080 C 
ATOM     10  C   UNL     1     215.024 150.246 184.474  1.00  0.00     0.039 C 
ENDBRANCH   6   7
ENDBRANCH   5   6
ENDBRANCH   3   5
ENDBRANCH   1   2
BRANCH   1  11
ATOM     11  C   UNL     1     213.639 149.891 179.263  1.00  0.00     0.034 C 
BRANCH  11  12
ATOM     12  C   UNL     1     214.908 150.696 179.485  1.00  0.00    -0.077 C 
ATOM     13  C   UNL     1     215.553 151.369 178.504  1.00  0.00    -0.028 C 
ATOM     14  C   UNL     1     215.467 150.773 180.883  1.00  0.00     0.039 C 
BRANCH  13  15
ATOM     15  C   UNL     1     215.190 151.362 177.038  1.00  0.00     0.035 C 
BRANCH  15  16
ATOM     16  C   UNL     1     214.221 152.501 176.702  1.00  0.00     0.079 C 
BRANCH  16  17
ATOM     17  C   UNL     1     213.647 152.351 175.318  1.00  0.00     0.130 C 
ATOM     18  O   UNL     1     214.084 151.486 174.574  1.00  0.00    -0.300 OA
ATOM     19  C   UNL     1     212.550 153.250 174.829  1.00  0.00     0.087 C 
ENDBRANCH  16  17
ENDBRANCH  15  16
ENDBRANCH  13  15
ENDBRANCH  11  12
ENDBRANCH   1  11
TORSDOF 9
ENDMDL
MODEL 6
REMARK VINA RESULT:    -5.225      2.015      4.740
REMARK INTER + INTRA:         -10.793
REMARK INTER:                  -8.822
REMARK INTRA:                  -1.971
REMARK UNBOUND:                -2.818
REMARK SMILES CC(=O)CCC=C(C)CCC=C(C)CCC=C(C)C
REMARK SMILES IDX 10 1 11 2 12 3 13 4 14 5 15 6 16 7 18 8 17 9 19 10 9 11 7 12
REMARK SMILES IDX 6 13 8 14 5 15 4 16 2 17 3 18 1 19
REMARK H PARENT
REMARK Flexibility Score: inf
ROOT
ATOM      1  C   UNL     1     212.665 150.032 180.674  1.00  0.00     0.032 C 
ENDROOT
BRANCH   1   2
ATOM      2  C   UNL     1     213.402 151.193 180.049  1.00  0.00    -0.028 C 
ATOM      3  C   UNL     1     213.049 151.805 178.896  1.00  0.00    -0.077 C 
ATOM      4  C   UNL     1     211.893 151.323 178.054  1.00  0.00     0.039 C 
BRANCH   3   5
ATOM      5  C   UNL     1     213.837 153.014 178.439  1.00  0.00     0.034 C 
BRANCH   5   6
ATOM      6  C   UNL     1     213.795 154.124 179.494  1.00  0.00     0.032 C 
BRANCH   6   7
ATOM      7  C   UNL     1     212.873 155.237 179.061  1.00  0.00    -0.028 C 
ATOM      8  C   UNL     1     214.423 157.041 179.848  1.00  0.00     0.039 C 
ATOM      9  C   UNL     1     213.153 156.553 179.191  1.00  0.00    -0.080 C 
ATOM     10  C   UNL     1     212.151 157.554 178.675  1.00  0.00     0.039 C 
ENDBRANCH   6   7
ENDBRANCH   5   6
ENDBRANCH   3   5
ENDBRANCH   1   2
BRANCH   1  11
ATOM     11  C   UNL     1     212.197 150.363 182.098  1.00  0.00     0.034 C 
BRANCH  11  12
ATOM     12  C   UNL     1     211.053 151.362 182.102  1.00  0.00    -0.077 C 
ATOM     13  C   UNL     1     211.051 152.500 182.835  1.00  0.00    -0.028 C 
ATOM     14  C   UNL     1     209.863 151.086 181.219  1.00  0.00     0.039 C 
BRANCH  13  15
ATOM     15  C   UNL     1     212.113 152.919 183.824  1.00  0.00     0.035 C 
BRANCH  15  16
ATOM     16  C   UNL     1     213.357 153.453 183.105  1.00  0.00     0.079 C 
BRANCH  16  17
ATOM     17  C   UNL     1     214.624 152.909 183.713  1.00  0.00     0.130 C 
ATOM     18  O   UNL     1     214.962 153.274 184.828  1.00  0.00    -0.300 OA
ATOM     19  C   UNL     1     215.485 151.931 182.970  1.00  0.00     0.087 C 
ENDBRANCH  16  17
ENDBRANCH  15  16
ENDBRANCH  13  15
ENDBRANCH  11  12
ENDBRANCH   1  11
TORSDOF 9
ENDMDL
MODEL 7
REMARK VINA RESULT:    -5.181      1.195      2.155
REMARK INTER + INTRA:         -10.725
REMARK INTER:                  -8.278
REMARK INTRA:                  -2.447
REMARK UNBOUND:                -2.818
REMARK SMILES CC(=O)CCC=C(C)CCC=C(C)CCC=C(C)C
REMARK SMILES IDX 10 1 11 2 12 3 13 4 14 5 15 6 16 7 18 8 17 9 19 10 9 11 7 12
REMARK SMILES IDX 6 13 8 14 5 15 4 16 2 17 3 18 1 19
REMARK H PARENT
REMARK Flexibility Score: inf
ROOT
ATOM      1  C   UNL     1     214.394 149.876 180.037  1.00  0.00     0.032 C 
ENDROOT
BRANCH   1   2
ATOM      2  C   UNL     1     213.291 150.407 180.920  1.00  0.00    -0.028 C 
ATOM      3  C   UNL     1     212.139 150.957 180.476  1.00  0.00    -0.077 C 
ATOM      4  C   UNL     1     211.869 151.173 179.007  1.00  0.00     0.039 C 
BRANCH   3   5
ATOM      5  C   UNL     1     211.087 151.366 181.484  1.00  0.00     0.034 C 
BRANCH   5   6
ATOM      6  C   UNL     1     211.719 151.639 182.853  1.00  0.00     0.032 C 
BRANCH   6   7
ATOM      7  C   UNL     1     211.123 152.875 183.480  1.00  0.00    -0.028 C 
ATOM      8  C   UNL     1     213.326 153.688 184.353  1.00  0.00     0.039 C 
ATOM      9  C   UNL     1     211.837 153.817 184.135  1.00  0.00    -0.080 C 
ATOM     10  C   UNL     1     211.108 155.022 184.675  1.00  0.00     0.039 C 
ENDBRANCH   6   7
ENDBRANCH   5   6
ENDBRANCH   3   5
ENDBRANCH   1   2
BRANCH   1  11
ATOM     11  C   UNL     1     215.543 150.886 179.902  1.00  0.00     0.034 C 
BRANCH  11  12
ATOM     12  C   UNL     1     215.245 151.949 178.860  1.00  0.00    -0.077 C 
ATOM     13  C   UNL     1     214.988 153.244 179.159  1.00  0.00    -0.028 C 
ATOM     14  C   UNL     1     215.264 151.548 177.407  1.00  0.00     0.039 C 
BRANCH  13  15
ATOM     15  C   UNL     1     214.860 153.825 180.547  1.00  0.00     0.035 C 
BRANCH  15  16
ATOM     16  C   UNL     1     213.499 154.502 180.739  1.00  0.00     0.079 C 
BRANCH  16  17
ATOM     17  C   UNL     1     213.635 155.998 180.853  1.00  0.00     0.130 C 
ATOM     18  O   UNL     1     214.271 156.611 180.008  1.00  0.00    -0.300 OA
ATOM     19  C   UNL     1     213.010 156.753 181.988  1.00  0.00     0.087 C 
ENDBRANCH  16  17
ENDBRANCH  15  16
ENDBRANCH  13  15
ENDBRANCH  11  12
ENDBRANCH   1  11
TORSDOF 9
ENDMDL
MODEL 8
REMARK VINA RESULT:    -5.091      1.932      4.461
REMARK INTER + INTRA:         -10.588
REMARK INTER:                  -8.421
REMARK INTRA:                  -2.167
REMARK UNBOUND:                -2.818
REMARK SMILES CC(=O)CCC=C(C)CCC=C(C)CCC=C(C)C
REMARK SMILES IDX 10 1 11 2 12 3 13 4 14 5 15 6 16 7 18 8 17 9 19 10 9 11 7 12
REMARK SMILES IDX 6 13 8 14 5 15 4 16 2 17 3 18 1 19
REMARK H PARENT
REMARK Flexibility Score: inf
ROOT
ATOM      1  C   UNL     1     213.683 150.435 182.131  1.00  0.00     0.032 C 
ENDROOT
BRANCH   1   2
ATOM      2  C   UNL     1     214.451 151.625 181.608  1.00  0.00    -0.028 C 
ATOM      3  C   UNL     1     214.475 152.027 180.317  1.00  0.00    -0.077 C 
ATOM      4  C   UNL     1     213.777 151.254 179.225  1.00  0.00     0.039 C 
BRANCH   3   5
ATOM      5  C   UNL     1     215.223 153.293 179.958  1.00  0.00     0.034 C 
BRANCH   5   6
ATOM      6  C   UNL     1     214.449 154.533 180.416  1.00  0.00     0.032 C 
BRANCH   6   7
ATOM      7  C   UNL     1     213.314 154.834 179.468  1.00  0.00    -0.028 C 
ATOM      8  C   UNL     1     213.863 157.274 179.331  1.00  0.00     0.039 C 
ATOM      9  C   UNL     1     213.053 156.056 178.953  1.00  0.00    -0.080 C 
ATOM     10  C   UNL     1     211.907 156.197 177.985  1.00  0.00     0.039 C 
ENDBRANCH   6   7
ENDBRANCH   5   6
ENDBRANCH   3   5
ENDBRANCH   1   2
BRANCH   1  11
ATOM     11  C   UNL     1     212.647 150.852 183.184  1.00  0.00     0.034 C 
BRANCH  11  12
ATOM     12  C   UNL     1     211.510 151.655 182.575  1.00  0.00    -0.077 C 
ATOM     13  C   UNL     1     211.148 152.887 183.001  1.00  0.00    -0.028 C 
ATOM     14  C   UNL     1     210.760 151.058 181.412  1.00  0.00     0.039 C 
BRANCH  13  15
ATOM     15  C   UNL     1     211.729 153.623 184.185  1.00  0.00     0.035 C 
BRANCH  15  16
ATOM     16  C   UNL     1     212.977 154.416 183.784  1.00  0.00     0.079 C 
BRANCH  16  17
ATOM     17  C   UNL     1     212.748 155.901 183.888  1.00  0.00     0.130 C 
ATOM     18  O   UNL     1     212.857 156.453 184.973  1.00  0.00    -0.300 OA
ATOM     19  C   UNL     1     212.380 156.718 182.686  1.00  0.00     0.087 C 
ENDBRANCH  16  17
ENDBRANCH  15  16
ENDBRANCH  13  15
ENDBRANCH  11  12
ENDBRANCH   1  11
TORSDOF 9
ENDMDL
MODEL 9
REMARK VINA RESULT:    -5.038      1.214      3.912
REMARK INTER + INTRA:         -10.507
REMARK INTER:                  -7.869
REMARK INTRA:                  -2.638
REMARK UNBOUND:                -2.818
REMARK SMILES CC(=O)CCC=C(C)CCC=C(C)CCC=C(C)C
REMARK SMILES IDX 10 1 11 2 12 3 13 4 14 5 15 6 16 7 18 8 17 9 19 10 9 11 7 12
REMARK SMILES IDX 6 13 8 14 5 15 4 16 2 17 3 18 1 19
REMARK H PARENT
REMARK Flexibility Score: inf
ROOT
ATOM      1  C   UNL     1     213.004 150.329 183.268  1.00  0.00     0.032 C 
ENDROOT
BRANCH   1   2
ATOM      2  C   UNL     1     213.765 150.282 181.965  1.00  0.00    -0.028 C 
ATOM      3  C   UNL     1     215.065 150.621 181.814  1.00  0.00    -0.077 C 
ATOM      4  C   UNL     1     215.887 151.172 182.954  1.00  0.00     0.039 C 
BRANCH   3   5
ATOM      5  C   UNL     1     215.716 150.440 180.460  1.00  0.00     0.034 C 
BRANCH   5   6
ATOM      6  C   UNL     1     214.660 150.241 179.368  1.00  0.00     0.032 C 
BRANCH   6   7
ATOM      7  C   UNL     1     214.404 151.532 178.631  1.00  0.00    -0.028 C 
ATOM      8  C   UNL     1     211.918 151.223 178.628  1.00  0.00     0.039 C 
ATOM      9  C   UNL     1     213.176 151.999 178.313  1.00  0.00    -0.080 C 
ATOM     10  C   UNL     1     213.073 153.328 177.610  1.00  0.00     0.039 C 
ENDBRANCH   6   7
ENDBRANCH   5   6
ENDBRANCH   3   5
ENDBRANCH   1   2
BRANCH   1  11
ATOM     11  C   UNL     1     212.580 151.761 183.622  1.00  0.00     0.034 C 
BRANCH  11  12
ATOM     12  C   UNL     1     211.889 152.452 182.460  1.00  0.00    -0.077 C 
ATOM     13  C   UNL     1     212.442 153.464 181.750  1.00  0.00    -0.028 C 
ATOM     14  C   UNL     1     210.521 151.967 182.053  1.00  0.00     0.039 C 
BRANCH  13  15
ATOM     15  C   UNL     1     213.766 154.130 182.040  1.00  0.00     0.035 C 
BRANCH  15  16
ATOM     16  C   UNL     1     214.420 154.643 180.753  1.00  0.00     0.079 C 
BRANCH  16  17
ATOM     17  C   UNL     1     214.119 156.101 180.520  1.00  0.00     0.130 C 
ATOM     18  O   UNL     1     214.401 156.919 181.382  1.00  0.00    -0.300 OA
ATOM     19  C   UNL     1     213.472 156.568 179.250  1.00  0.00     0.087 C 
ENDBRANCH  16  17
ENDBRANCH  15  16
ENDBRANCH  13  15
ENDBRANCH  11  12
ENDBRANCH   1  11
TORSDOF 9
ENDMDL
