MODEL 1
REMARK VINA RESULT:    -0.532      0.000      0.000
REMARK INTER + INTRA:          -1.897
REMARK INTER:                  -1.153
REMARK INTRA:                  -0.743
REMARK UNBOUND:                -0.743
REMARK SMILES CCCCCCCCCCCCCCCCCCCCCC(=O)[O-]
REMARK SMILES IDX 12 1 11 2 10 3 9 4 8 5 7 6 6 7 5 8 4 9 3 10 2 11 1 12 13 13
REMARK SMILES IDX 14 14 15 15 16 16 17 17 18 18 19 19 20 20 21 21 22 22 23 23
REMARK SMILES IDX 24 24
REMARK H PARENT
REMARK Flexibility Score: inf
ROOT
ATOM      1  C   UNL     1       0.180   4.141 -15.125  1.00  0.00     0.000 C 
ENDROOT
BRANCH   1   2
ATOM      2  C   UNL     1      -0.238   5.621 -15.102  1.00  0.00     0.000 C 
BRANCH   2   3
ATOM      3  C   UNL     1      -1.700   5.815 -14.668  1.00  0.00     0.000 C 
BRANCH   3   4
ATOM      4  C   UNL     1      -2.216   7.237 -14.939  1.00  0.00    -0.000 C 
BRANCH   4   5
ATOM      5  C   UNL     1      -3.740   7.240 -15.123  1.00  0.00    -0.000 C 
BRANCH   5   6
ATOM      6  C   UNL     1      -4.426   8.423 -14.415  1.00  0.00    -0.000 C 
BRANCH   6   7
ATOM      7  C   UNL     1      -5.690   8.963 -15.116  1.00  0.00    -0.000 C 
BRANCH   7   8
ATOM      8  C   UNL     1      -6.938   8.067 -15.006  1.00  0.00    -0.000 C 
BRANCH   8   9
ATOM      9  C   UNL     1      -7.466   7.951 -13.567  1.00  0.00    -0.000 C 
BRANCH   9  10
ATOM     10  C   UNL     1      -8.137   9.244 -13.069  1.00  0.00    -0.000 C 
BRANCH  10  11
ATOM     11  C   UNL     1      -9.385   9.677 -13.858  1.00  0.00    -0.003 C 
ATOM     12  C   UNL     1     -10.681   9.527 -13.063  1.00  0.00     0.004 C 
ENDBRANCH  10  11
ENDBRANCH   9  10
ENDBRANCH   8   9
ENDBRANCH   7   8
ENDBRANCH   6   7
ENDBRANCH   5   6
ENDBRANCH   4   5
ENDBRANCH   3   4
ENDBRANCH   2   3
ENDBRANCH   1   2
BRANCH   1  13
ATOM     13  C   UNL     1       1.272   3.821 -14.090  1.00  0.00     0.000 C 
BRANCH  13  14
ATOM     14  C   UNL     1       2.608   3.424 -14.742  1.00  0.00     0.000 C 
BRANCH  14  15
ATOM     15  C   UNL     1       3.252   2.197 -14.077  1.00  0.00     0.000 C 
BRANCH  15  16
ATOM     16  C   UNL     1       3.301   0.976 -15.012  1.00  0.00     0.000 C 
BRANCH  16  17
ATOM     17  C   UNL     1       2.845  -0.315 -14.312  1.00  0.00     0.000 C 
BRANCH  17  18
ATOM     18  C   UNL     1       3.968  -0.952 -13.474  1.00  0.00     0.000 C 
BRANCH  18  19
ATOM     19  C   UNL     1       4.402  -2.330 -14.003  1.00  0.00     0.000 C 
BRANCH  19  20
ATOM     20  C   UNL     1       5.888  -2.669 -13.794  1.00  0.00     0.006 C 
BRANCH  20  21
ATOM     21  C   UNL     1       6.102  -3.947 -12.971  1.00  0.00     0.053 C 
BRANCH  21  22
ATOM     22  C   UNL     1       7.092  -3.704 -11.877  1.00  0.00     0.041 C 
ATOM     23  O   UNL     1       7.587  -2.557 -11.714  1.00  0.00    -0.550 OA
ATOM     24  O   UNL     1       7.514  -4.757 -11.076  1.00  0.00    -0.550 OA
ENDBRANCH  21  22
ENDBRANCH  20  21
ENDBRANCH  19  20
ENDBRANCH  18  19
ENDBRANCH  17  18
ENDBRANCH  16  17
ENDBRANCH  15  16
ENDBRANCH  14  15
ENDBRANCH  13  14
ENDBRANCH   1  13
TORSDOF 20
ENDMDL
MODEL 2
REMARK VINA RESULT:    -0.359      6.259     14.283
REMARK INTER + INTRA:          -1.522
REMARK INTER:                  -0.767
REMARK INTRA:                  -0.756
REMARK UNBOUND:                -0.743
REMARK SMILES CCCCCCCCCCCCCCCCCCCCCC(=O)[O-]
REMARK SMILES IDX 12 1 11 2 10 3 9 4 8 5 7 6 6 7 5 8 4 9 3 10 2 11 1 12 13 13
REMARK SMILES IDX 14 14 15 15 16 16 17 17 18 18 19 19 20 20 21 21 22 22 23 23
REMARK SMILES IDX 24 24
REMARK H PARENT
REMARK Flexibility Score: inf
ROOT
ATOM      1  C   UNL     1      -0.249   4.818 -14.229  1.00  0.00     0.000 C 
ENDROOT
BRANCH   1   2
ATOM      2  C   UNL     1       1.215   4.597 -13.810  1.00  0.00     0.000 C 
BRANCH   2   3
ATOM      3  C   UNL     1       2.150   4.397 -15.014  1.00  0.00     0.000 C 
BRANCH   3   4
ATOM      4  C   UNL     1       2.674   2.958 -15.125  1.00  0.00    -0.000 C 
BRANCH   4   5
ATOM      5  C   UNL     1       1.596   1.949 -14.703  1.00  0.00    -0.000 C 
BRANCH   5   6
ATOM      6  C   UNL     1       2.058   0.487 -14.840  1.00  0.00    -0.000 C 
BRANCH   6   7
ATOM      7  C   UNL     1       3.572   0.257 -14.650  1.00  0.00    -0.000 C 
BRANCH   7   8
ATOM      8  C   UNL     1       3.971  -0.469 -13.352  1.00  0.00    -0.000 C 
BRANCH   8   9
ATOM      9  C   UNL     1       3.862  -1.999 -13.464  1.00  0.00    -0.000 C 
BRANCH   9  10
ATOM     10  C   UNL     1       5.200  -2.669 -13.824  1.00  0.00    -0.000 C 
BRANCH  10  11
ATOM     11  C   UNL     1       5.553  -3.912 -12.988  1.00  0.00    -0.003 C 
ATOM     12  C   UNL     1       6.857  -3.760 -12.208  1.00  0.00     0.004 C 
ENDBRANCH  10  11
ENDBRANCH   9  10
ENDBRANCH   8   9
ENDBRANCH   7   8
ENDBRANCH   6   7
ENDBRANCH   5   6
ENDBRANCH   4   5
ENDBRANCH   3   4
ENDBRANCH   2   3
ENDBRANCH   1   2
BRANCH   1  13
ATOM     13  C   UNL     1      -0.681   6.289 -14.105  1.00  0.00     0.000 C 
BRANCH  13  14
ATOM     14  C   UNL     1      -1.767   6.676 -15.125  1.00  0.00     0.000 C 
BRANCH  14  15
ATOM     15  C   UNL     1      -3.058   7.175 -14.457  1.00  0.00     0.000 C 
BRANCH  15  16
ATOM     16  C   UNL     1      -4.231   6.194 -14.632  1.00  0.00     0.000 C 
BRANCH  16  17
ATOM     17  C   UNL     1      -5.347   6.427 -13.600  1.00  0.00     0.000 C 
BRANCH  17  18
ATOM     18  C   UNL     1      -6.748   6.371 -14.234  1.00  0.00     0.000 C 
BRANCH  18  19
ATOM     19  C   UNL     1      -7.752   7.317 -13.550  1.00  0.00     0.000 C 
BRANCH  19  20
ATOM     20  C   UNL     1      -7.616   8.800 -13.937  1.00  0.00     0.006 C 
BRANCH  20  21
ATOM     21  C   UNL     1      -8.818   9.647 -13.496  1.00  0.00     0.053 C 
BRANCH  21  22
ATOM     22  C   UNL     1      -8.415  11.078 -13.327  1.00  0.00     0.041 C 
ATOM     23  O   UNL     1      -9.217  12.001 -13.628  1.00  0.00    -0.550 OA
ATOM     24  O   UNL     1      -7.134  11.392 -12.892  1.00  0.00    -0.550 OA
ENDBRANCH  21  22
ENDBRANCH  20  21
ENDBRANCH  19  20
ENDBRANCH  18  19
ENDBRANCH  17  18
ENDBRANCH  16  17
ENDBRANCH  15  16
ENDBRANCH  14  15
ENDBRANCH  13  14
ENDBRANCH   1  13
TORSDOF 20
ENDMDL
MODEL 3
REMARK VINA RESULT:    -0.191      7.147     13.974
REMARK INTER + INTRA:          -1.157
REMARK INTER:                  -1.586
REMARK INTRA:                   0.429
REMARK UNBOUND:                -0.743
REMARK SMILES CCCCCCCCCCCCCCCCCCCCCC(=O)[O-]
REMARK SMILES IDX 12 1 11 2 10 3 9 4 8 5 7 6 6 7 5 8 4 9 3 10 2 11 1 12 13 13
REMARK SMILES IDX 14 14 15 15 16 16 17 17 18 18 19 19 20 20 21 21 22 22 23 23
REMARK SMILES IDX 24 24
REMARK H PARENT
REMARK Flexibility Score: inf
ROOT
ATOM      1  C   UNL     1      -5.876   5.493 -12.810  1.00  0.00     0.000 C 
ENDROOT
BRANCH   1   2
ATOM      2  C   UNL     1      -5.967   5.462 -14.345  1.00  0.00     0.000 C 
BRANCH   2   3
ATOM      3  C   UNL     1      -4.634   5.821 -15.023  1.00  0.00     0.000 C 
BRANCH   3   4
ATOM      4  C   UNL     1      -4.051   7.149 -14.517  1.00  0.00    -0.000 C 
BRANCH   4   5
ATOM      5  C   UNL     1      -2.624   6.953 -13.985  1.00  0.00    -0.000 C 
BRANCH   5   6
ATOM      6  C   UNL     1      -1.589   6.744 -15.105  1.00  0.00    -0.000 C 
BRANCH   6   7
ATOM      7  C   UNL     1      -0.460   5.745 -14.777  1.00  0.00    -0.000 C 
BRANCH   7   8
ATOM      8  C   UNL     1       0.965   6.234 -15.094  1.00  0.00    -0.000 C 
BRANCH   8   9
ATOM      9  C   UNL     1       2.049   5.227 -14.678  1.00  0.00    -0.000 C 
BRANCH   9  10
ATOM     10  C   UNL     1       1.612   4.323 -13.512  1.00  0.00    -0.000 C 
BRANCH  10  11
ATOM     11  C   UNL     1       0.917   3.014 -13.926  1.00  0.00    -0.003 C 
ATOM     12  C   UNL     1       1.587   2.329 -15.115  1.00  0.00     0.004 C 
ENDBRANCH  10  11
ENDBRANCH   9  10
ENDBRANCH   8   9
ENDBRANCH   7   8
ENDBRANCH   6   7
ENDBRANCH   5   6
ENDBRANCH   4   5
ENDBRANCH   3   4
ENDBRANCH   2   3
ENDBRANCH   1   2
BRANCH   1  13
ATOM     13  C   UNL     1      -7.242   5.726 -12.144  1.00  0.00     0.000 C 
BRANCH  13  14
ATOM     14  C   UNL     1      -8.085   6.788 -12.873  1.00  0.00     0.000 C 
BRANCH  14  15
ATOM     15  C   UNL     1      -7.322   7.464 -14.023  1.00  0.00     0.000 C 
BRANCH  15  16
ATOM     16  C   UNL     1      -8.190   8.474 -14.794  1.00  0.00     0.000 C 
BRANCH  16  17
ATOM     17  C   UNL     1      -7.432   9.772 -15.116  1.00  0.00     0.000 C 
BRANCH  17  18
ATOM     18  C   UNL     1      -8.018  10.989 -14.381  1.00  0.00     0.000 C 
BRANCH  18  19
ATOM     19  C   UNL     1      -9.460  11.311 -14.812  1.00  0.00     0.000 C 
BRANCH  19  20
ATOM     20  C   UNL     1     -10.472  11.436 -13.659  1.00  0.00     0.006 C 
BRANCH  20  21
ATOM     21  C   UNL     1     -10.458  10.226 -12.716  1.00  0.00     0.053 C 
BRANCH  21  22
ATOM     22  C   UNL     1     -10.136  10.655 -11.320  1.00  0.00     0.041 C 
ATOM     23  O   UNL     1      -8.985  10.456 -10.846  1.00  0.00    -0.550 OA
ATOM     24  O   UNL     1     -11.121  11.221 -10.521  1.00  0.00    -0.550 OA
ENDBRANCH  21  22
ENDBRANCH  20  21
ENDBRANCH  19  20
ENDBRANCH  18  19
ENDBRANCH  17  18
ENDBRANCH  16  17
ENDBRANCH  15  16
ENDBRANCH  14  15
ENDBRANCH  13  14
ENDBRANCH   1  13
TORSDOF 20
ENDMDL
MODEL 4
REMARK VINA RESULT:    -0.186      6.160     14.374
REMARK INTER + INTRA:          -1.147
REMARK INTER:                  -0.283
REMARK INTRA:                  -0.864
REMARK UNBOUND:                -0.743
REMARK SMILES CCCCCCCCCCCCCCCCCCCCCC(=O)[O-]
REMARK SMILES IDX 12 1 11 2 10 3 9 4 8 5 7 6 6 7 5 8 4 9 3 10 2 11 1 12 13 13
REMARK SMILES IDX 14 14 15 15 16 16 17 17 18 18 19 19 20 20 21 21 22 22 23 23
REMARK SMILES IDX 24 24
REMARK H PARENT
REMARK Flexibility Score: inf
ROOT
ATOM      1  C   UNL     1      -3.146   6.506 -13.705  1.00  0.00     0.000 C 
ENDROOT
BRANCH   1   2
ATOM      2  C   UNL     1      -1.674   6.884 -13.945  1.00  0.00     0.000 C 
BRANCH   2   3
ATOM      3  C   UNL     1      -1.052   6.116 -15.124  1.00  0.00     0.000 C 
BRANCH   3   4
ATOM      4  C   UNL     1       0.332   5.540 -14.792  1.00  0.00    -0.000 C 
BRANCH   4   5
ATOM      5  C   UNL     1       0.391   4.039 -15.109  1.00  0.00    -0.000 C 
BRANCH   5   6
ATOM      6  C   UNL     1       1.420   3.284 -14.248  1.00  0.00    -0.000 C 
BRANCH   6   7
ATOM      7  C   UNL     1       2.193   2.166 -14.980  1.00  0.00    -0.000 C 
BRANCH   7   8
ATOM      8  C   UNL     1       1.585   0.757 -14.860  1.00  0.00    -0.000 C 
BRANCH   8   9
ATOM      9  C   UNL     1       2.649  -0.345 -14.731  1.00  0.00    -0.000 C 
BRANCH   9  10
ATOM     10  C   UNL     1       3.883   0.105 -13.929  1.00  0.00    -0.000 C 
BRANCH  10  11
ATOM     11  C   UNL     1       5.190  -0.632 -14.274  1.00  0.00    -0.003 C 
ATOM     12  C   UNL     1       5.114  -2.137 -14.025  1.00  0.00     0.004 C 
ENDBRANCH  10  11
ENDBRANCH   9  10
ENDBRANCH   8   9
ENDBRANCH   7   8
ENDBRANCH   6   7
ENDBRANCH   5   6
ENDBRANCH   4   5
ENDBRANCH   3   4
ENDBRANCH   2   3
ENDBRANCH   1   2
BRANCH   1  13
ATOM     13  C   UNL     1      -4.116   7.367 -14.530  1.00  0.00     0.000 C 
BRANCH  13  14
ATOM     14  C   UNL     1      -3.800   8.871 -14.439  1.00  0.00     0.000 C 
BRANCH  14  15
ATOM     15  C   UNL     1      -4.875   9.745 -15.105  1.00  0.00     0.000 C 
BRANCH  15  16
ATOM     16  C   UNL     1      -5.136  11.051 -14.333  1.00  0.00     0.000 C 
BRANCH  16  17
ATOM     17  C   UNL     1      -6.381  11.793 -14.844  1.00  0.00     0.000 C 
BRANCH  17  18
ATOM     18  C   UNL     1      -7.656  10.939 -14.732  1.00  0.00     0.000 C 
BRANCH  18  19
ATOM     19  C   UNL     1      -8.217  10.885 -13.299  1.00  0.00     0.000 C 
BRANCH  19  20
ATOM     20  C   UNL     1      -9.750  10.965 -13.196  1.00  0.00     0.006 C 
BRANCH  20  21
ATOM     21  C   UNL     1     -10.465   9.963 -14.111  1.00  0.00     0.053 C 
BRANCH  21  22
ATOM     22  C   UNL     1     -10.055   8.564 -13.776  1.00  0.00     0.041 C 
ATOM     23  O   UNL     1      -9.333   7.908 -14.573  1.00  0.00    -0.550 OA
ATOM     24  O   UNL     1     -10.519   7.963 -12.613  1.00  0.00    -0.550 OA
ENDBRANCH  21  22
ENDBRANCH  20  21
ENDBRANCH  19  20
ENDBRANCH  18  19
ENDBRANCH  17  18
ENDBRANCH  16  17
ENDBRANCH  15  16
ENDBRANCH  14  15
ENDBRANCH  13  14
ENDBRANCH   1  13
TORSDOF 20
ENDMDL
MODEL 5
REMARK VINA RESULT:    -0.102      6.611     14.677
REMARK INTER + INTRA:          -0.965
REMARK INTER:                  -0.191
REMARK INTRA:                  -0.774
REMARK UNBOUND:                -0.743
REMARK SMILES CCCCCCCCCCCCCCCCCCCCCC(=O)[O-]
REMARK SMILES IDX 12 1 11 2 10 3 9 4 8 5 7 6 6 7 5 8 4 9 3 10 2 11 1 12 13 13
REMARK SMILES IDX 14 14 15 15 16 16 17 17 18 18 19 19 20 20 21 21 22 22 23 23
REMARK SMILES IDX 24 24
REMARK H PARENT
REMARK Flexibility Score: inf
ROOT
ATOM      1  C   UNL     1      -2.915   6.744 -14.309  1.00  0.00     0.000 C 
ENDROOT
BRANCH   1   2
ATOM      2  C   UNL     1      -1.400   6.692 -14.047  1.00  0.00     0.000 C 
BRANCH   2   3
ATOM      3  C   UNL     1      -0.642   5.898 -15.124  1.00  0.00     0.000 C 
BRANCH   3   4
ATOM      4  C   UNL     1       0.567   5.138 -14.559  1.00  0.00    -0.000 C 
BRANCH   4   5
ATOM      5  C   UNL     1       0.629   3.711 -15.125  1.00  0.00    -0.000 C 
BRANCH   5   6
ATOM      6  C   UNL     1       1.287   2.711 -14.157  1.00  0.00    -0.000 C 
BRANCH   6   7
ATOM      7  C   UNL     1       2.295   1.739 -14.803  1.00  0.00    -0.000 C 
BRANCH   7   8
ATOM      8  C   UNL     1       2.329   0.324 -14.196  1.00  0.00    -0.000 C 
BRANCH   8   9
ATOM      9  C   UNL     1       3.741  -0.110 -13.772  1.00  0.00    -0.000 C 
BRANCH   9  10
ATOM     10  C   UNL     1       3.961  -1.630 -13.888  1.00  0.00    -0.000 C 
BRANCH  10  11
ATOM     11  C   UNL     1       5.413  -2.060 -14.161  1.00  0.00    -0.003 C 
ATOM     12  C   UNL     1       5.819  -3.321 -13.402  1.00  0.00     0.004 C 
ENDBRANCH  10  11
ENDBRANCH   9  10
ENDBRANCH   8   9
ENDBRANCH   7   8
ENDBRANCH   6   7
ENDBRANCH   5   6
ENDBRANCH   4   5
ENDBRANCH   3   4
ENDBRANCH   2   3
ENDBRANCH   1   2
BRANCH   1  13
ATOM     13  C   UNL     1      -3.334   7.998 -15.094  1.00  0.00     0.000 C 
BRANCH  13  14
ATOM     14  C   UNL     1      -4.046   9.040 -14.213  1.00  0.00     0.000 C 
BRANCH  14  15
ATOM     15  C   UNL     1      -4.991   9.949 -15.014  1.00  0.00     0.000 C 
BRANCH  15  16
ATOM     16  C   UNL     1      -6.475   9.651 -14.736  1.00  0.00     0.000 C 
BRANCH  16  17
ATOM     17  C   UNL     1      -6.787   8.147 -14.778  1.00  0.00     0.000 C 
BRANCH  17  18
ATOM     18  C   UNL     1      -8.107   7.805 -14.064  1.00  0.00     0.000 C 
BRANCH  18  19
ATOM     19  C   UNL     1      -9.296   8.642 -14.569  1.00  0.00     0.000 C 
BRANCH  19  20
ATOM     20  C   UNL     1     -10.124   9.326 -13.468  1.00  0.00     0.006 C 
BRANCH  20  21
ATOM     21  C   UNL     1      -9.276   9.777 -12.271  1.00  0.00     0.053 C 
BRANCH  21  22
ATOM     22  C   UNL     1     -10.092  10.610 -11.335  1.00  0.00     0.041 C 
ATOM     23  O   UNL     1      -9.882  10.559 -10.094  1.00  0.00    -0.550 OA
ATOM     24  O   UNL     1     -11.125  11.399 -11.827  1.00  0.00    -0.550 OA
ENDBRANCH  21  22
ENDBRANCH  20  21
ENDBRANCH  19  20
ENDBRANCH  18  19
ENDBRANCH  17  18
ENDBRANCH  16  17
ENDBRANCH  15  16
ENDBRANCH  14  15
ENDBRANCH  13  14
ENDBRANCH   1  13
TORSDOF 20
ENDMDL
MODEL 6
REMARK VINA RESULT:     0.331      1.521      2.038
REMARK INTER + INTRA:          -0.026
REMARK INTER:                   0.480
REMARK INTRA:                  -0.506
REMARK UNBOUND:                -0.743
REMARK SMILES CCCCCCCCCCCCCCCCCCCCCC(=O)[O-]
REMARK SMILES IDX 12 1 11 2 10 3 9 4 8 5 7 6 6 7 5 8 4 9 3 10 2 11 1 12 13 13
REMARK SMILES IDX 14 14 15 15 16 16 17 17 18 18 19 19 20 20 21 21 22 22 23 23
REMARK SMILES IDX 24 24
REMARK H PARENT
REMARK Flexibility Score: inf
ROOT
ATOM      1  C   UNL     1       0.596   6.504 -14.888  1.00  0.00     0.000 C 
ENDROOT
BRANCH   1   2
ATOM      2  C   UNL     1      -0.621   7.414 -15.125  1.00  0.00     0.000 C 
BRANCH   2   3
ATOM      3  C   UNL     1      -1.764   7.141 -14.133  1.00  0.00     0.000 C 
BRANCH   3   4
ATOM      4  C   UNL     1      -3.005   6.539 -14.810  1.00  0.00    -0.000 C 
BRANCH   4   5
ATOM      5  C   UNL     1      -4.057   7.623 -15.086  1.00  0.00    -0.000 C 
BRANCH   5   6
ATOM      6  C   UNL     1      -5.500   7.090 -15.010  1.00  0.00    -0.000 C 
BRANCH   6   7
ATOM      7  C   UNL     1      -6.493   7.994 -14.249  1.00  0.00    -0.000 C 
BRANCH   7   8
ATOM      8  C   UNL     1      -7.789   7.304 -13.785  1.00  0.00    -0.000 C 
BRANCH   8   9
ATOM      9  C   UNL     1      -8.942   8.293 -13.551  1.00  0.00    -0.000 C 
BRANCH   9  10
ATOM     10  C   UNL     1      -8.468   9.755 -13.454  1.00  0.00    -0.000 C 
BRANCH  10  11
ATOM     11  C   UNL     1      -8.308  10.480 -14.801  1.00  0.00    -0.003 C 
ATOM     12  C   UNL     1      -8.102  11.986 -14.652  1.00  0.00     0.004 C 
ENDBRANCH  10  11
ENDBRANCH   9  10
ENDBRANCH   8   9
ENDBRANCH   7   8
ENDBRANCH   6   7
ENDBRANCH   5   6
ENDBRANCH   4   5
ENDBRANCH   3   4
ENDBRANCH   2   3
ENDBRANCH   1   2
BRANCH   1  13
ATOM     13  C   UNL     1       0.240   5.011 -14.980  1.00  0.00     0.000 C 
BRANCH  13  14
ATOM     14  C   UNL     1       1.240   4.115 -14.227  1.00  0.00     0.000 C 
BRANCH  14  15
ATOM     15  C   UNL     1       1.806   2.987 -15.106  1.00  0.00     0.000 C 
BRANCH  15  16
ATOM     16  C   UNL     1       1.084   1.646 -14.883  1.00  0.00     0.000 C 
BRANCH  16  17
ATOM     17  C   UNL     1       2.005   0.440 -15.125  1.00  0.00     0.000 C 
BRANCH  17  18
ATOM     18  C   UNL     1       3.305   0.524 -14.307  1.00  0.00     0.000 C 
BRANCH  18  19
ATOM     19  C   UNL     1       4.499  -0.147 -15.009  1.00  0.00     0.000 C 
BRANCH  19  20
ATOM     20  C   UNL     1       4.569  -1.677 -14.856  1.00  0.00     0.006 C 
BRANCH  20  21
ATOM     21  C   UNL     1       4.575  -2.133 -13.390  1.00  0.00     0.053 C 
BRANCH  21  22
ATOM     22  C   UNL     1       5.318  -3.423 -13.247  1.00  0.00     0.041 C 
ATOM     23  O   UNL     1       6.564  -3.419 -13.065  1.00  0.00    -0.550 OA
ATOM     24  O   UNL     1       4.644  -4.631 -13.374  1.00  0.00    -0.550 OA
ENDBRANCH  21  22
ENDBRANCH  20  21
ENDBRANCH  19  20
ENDBRANCH  18  19
ENDBRANCH  17  18
ENDBRANCH  16  17
ENDBRANCH  15  16
ENDBRANCH  14  15
ENDBRANCH  13  14
ENDBRANCH   1  13
TORSDOF 20
ENDMDL
MODEL 7
REMARK VINA RESULT:     1.562     13.103     15.251
REMARK INTER + INTRA:           2.645
REMARK INTER:                   4.439
REMARK INTRA:                  -1.794
REMARK UNBOUND:                -0.743
REMARK SMILES CCCCCCCCCCCCCCCCCCCCCC(=O)[O-]
REMARK SMILES IDX 12 1 11 2 10 3 9 4 8 5 7 6 6 7 5 8 4 9 3 10 2 11 1 12 13 13
REMARK SMILES IDX 14 14 15 15 16 16 17 17 18 18 19 19 20 20 21 21 22 22 23 23
REMARK SMILES IDX 24 24
REMARK H PARENT
REMARK Flexibility Score: inf
ROOT
ATOM      1  C   UNL     1      -9.996  -7.883  -9.273  1.00  0.00     0.000 C 
ENDROOT
BRANCH   1   2
ATOM      2  C   UNL     1      -8.732  -8.124 -10.115  1.00  0.00     0.000 C 
BRANCH   2   3
ATOM      3  C   UNL     1      -7.488  -7.442  -9.522  1.00  0.00     0.000 C 
BRANCH   3   4
ATOM      4  C   UNL     1      -7.011  -6.247 -10.360  1.00  0.00    -0.000 C 
BRANCH   4   5
ATOM      5  C   UNL     1      -8.031  -5.100 -10.309  1.00  0.00    -0.000 C 
BRANCH   5   6
ATOM      6  C   UNL     1      -7.495  -3.853  -9.583  1.00  0.00    -0.000 C 
BRANCH   6   7
ATOM      7  C   UNL     1      -6.038  -3.959  -9.086  1.00  0.00    -0.000 C 
BRANCH   7   8
ATOM      8  C   UNL     1      -5.738  -3.233  -7.762  1.00  0.00    -0.000 C 
BRANCH   8   9
ATOM      9  C   UNL     1      -4.362  -3.593  -7.180  1.00  0.00    -0.000 C 
BRANCH   9  10
ATOM     10  C   UNL     1      -3.904  -5.013  -7.559  1.00  0.00    -0.000 C 
BRANCH  10  11
ATOM     11  C   UNL     1      -4.274  -6.110  -6.544  1.00  0.00    -0.003 C 
ATOM     12  C   UNL     1      -4.897  -7.344  -7.194  1.00  0.00     0.004 C 
ENDBRANCH  10  11
ENDBRANCH   9  10
ENDBRANCH   8   9
ENDBRANCH   7   8
ENDBRANCH   6   7
ENDBRANCH   5   6
ENDBRANCH   4   5
ENDBRANCH   3   4
ENDBRANCH   2   3
ENDBRANCH   1   2
BRANCH   1  13
ATOM     13  C   UNL     1     -11.125  -7.221 -10.080  1.00  0.00     0.000 C 
BRANCH  13  14
ATOM     14  C   UNL     1     -10.714  -6.911 -11.531  1.00  0.00     0.000 C 
BRANCH  14  15
ATOM     15  C   UNL     1     -10.861  -8.125 -12.462  1.00  0.00     0.000 C 
BRANCH  15  16
ATOM     16  C   UNL     1     -10.713  -7.751 -13.948  1.00  0.00     0.000 C 
BRANCH  16  17
ATOM     17  C   UNL     1      -9.656  -6.658 -14.173  1.00  0.00     0.000 C 
BRANCH  17  18
ATOM     18  C   UNL     1      -8.233  -7.148 -13.855  1.00  0.00     0.000 C 
BRANCH  18  19
ATOM     19  C   UNL     1      -7.141  -6.243 -14.452  1.00  0.00     0.000 C 
BRANCH  19  20
ATOM     20  C   UNL     1      -6.146  -5.663 -13.431  1.00  0.00     0.006 C 
BRANCH  20  21
ATOM     21  C   UNL     1      -5.877  -4.167 -13.639  1.00  0.00     0.053 C 
BRANCH  21  22
ATOM     22  C   UNL     1      -7.082  -3.362 -13.267  1.00  0.00     0.041 C 
ATOM     23  O   UNL     1      -8.191  -3.589 -13.821  1.00  0.00    -0.550 OA
ATOM     24  O   UNL     1      -6.969  -2.323 -12.352  1.00  0.00    -0.550 OA
ENDBRANCH  21  22
ENDBRANCH  20  21
ENDBRANCH  19  20
ENDBRANCH  18  19
ENDBRANCH  17  18
ENDBRANCH  16  17
ENDBRANCH  15  16
ENDBRANCH  14  15
ENDBRANCH  13  14
ENDBRANCH   1  13
TORSDOF 20
ENDMDL
