MODEL 1
REMARK VINA RESULT:    -6.534      0.000      0.000
REMARK INTER + INTRA:         -13.729
REMARK INTER:                 -10.735
REMARK INTRA:                  -2.994
REMARK UNBOUND:                -2.994
REMARK SMILES C[C@H]1O[C@@H](OC[C@@H]2O[C@H](Oc3c(-c4ccc(O)c(O)c4)oc4cc(O)cc(O)c4c3=O)[C@H](O)[C@H](O)[C@H]2O)[C@@H](O)[C@@H](O)[C@H]1O
REMARK SMILES IDX 7 1 36 2 34 3 32 4 9 5 8 6 6 7 5 8 4 9 1 10 2 11 42 12 3 13
REMARK SMILES IDX 40 14 38 15 43 16 41 18 39 20 37 22 35 24 10 26 11 27 12 28
REMARK SMILES IDX 30 29 21 30 29 31 31 32 22 33 27 34 23 35 26 36 24 37 13 38
REMARK SMILES IDX 20 39 14 40 18 41 15 42 16 43 19 44 17 46 28 48 25 50 33 52
REMARK H PARENT 43 17 41 19 39 21 37 23 35 25 19 45 17 47 28 49 25 51 33 53
REMARK Flexibility Score: inf
ROOT
ATOM      1  C   UNL     1     -26.679 -65.765  54.856  1.00  0.00     0.180 C 
ATOM      2  C   UNL     1     -27.395 -65.579  53.413  1.00  0.00     0.177 C 
ATOM      3  C   UNL     1     -26.594 -66.010  52.059  1.00  0.00     0.180 C 
ATOM      4  C   UNL     1     -25.074 -65.671  52.330  1.00  0.00     0.214 C 
ATOM      5  C   UNL     1     -24.628 -66.462  53.725  1.00  0.00     0.339 C 
ATOM      6  O   UNL     1     -25.234 -65.683  54.782  1.00  0.00    -0.332 OA
ENDROOT
BRANCH   1   7
ATOM      7  C   UNL     1     -27.106 -64.942  56.155  1.00  0.00     0.198 C 
BRANCH   7   8
ATOM      8  O   UNL     1     -26.206 -64.896  57.237  1.00  0.00    -0.347 OA
BRANCH   8   9
ATOM      9  C   UNL     1     -25.908 -63.521  57.628  1.00  0.00     0.281 C 
ATOM     10  C   UNL     1     -26.634 -60.402  55.497  1.00  0.00     0.041 C 
ATOM     11  C   UNL     1     -26.017 -61.276  56.783  1.00  0.00     0.150 C 
ATOM     12  C   UNL     1     -24.605 -60.910  57.232  1.00  0.00     0.174 C 
ATOM     13  O   UNL     1     -25.966 -62.678  56.450  1.00  0.00    -0.344 OA
ATOM     14  C   UNL     1     -24.172 -61.756  58.562  1.00  0.00     0.179 C 
ATOM     15  C   UNL     1     -24.628 -63.264  58.470  1.00  0.00     0.202 C 
BRANCH  12  16
ATOM     16  O   UNL     1     -23.784 -61.210  56.087  1.00  0.00    -0.388 OA
ATOM     17  H   UNL     1     -23.656 -60.322  55.617  1.00  0.00     0.211 HD
ENDBRANCH  12  16
BRANCH  14  18
ATOM     18  O   UNL     1     -22.755 -61.753  58.854  1.00  0.00    -0.387 OA
ATOM     19  H   UNL     1     -22.615 -61.535  59.828  1.00  0.00     0.211 HD
ENDBRANCH  14  18
BRANCH  15  20
ATOM     20  O   UNL     1     -23.596 -64.120  58.054  1.00  0.00    -0.385 OA
ATOM     21  H   UNL     1     -22.809 -63.521  57.873  1.00  0.00     0.211 HD
ENDBRANCH  15  20
ENDBRANCH   8   9
ENDBRANCH   7   8
ENDBRANCH   1   7
BRANCH   2  22
ATOM     22  O   UNL     1     -28.701 -66.089  53.463  1.00  0.00    -0.387 OA
ATOM     23  H   UNL     1     -28.824 -66.797  52.796  1.00  0.00     0.211 HD
ENDBRANCH   2  22
BRANCH   3  24
ATOM     24  O   UNL     1     -26.993 -65.261  50.875  1.00  0.00    -0.387 OA
ATOM     25  H   UNL     1     -26.722 -64.302  50.957  1.00  0.00     0.211 HD
ENDBRANCH   3  24
BRANCH   5  26
ATOM     26  O   UNL     1     -23.217 -67.057  54.186  1.00  0.00    -0.454 OA
BRANCH  26  27
ATOM     27  C   UNL     1     -22.105 -66.386  55.026  1.00  0.00     0.214 A 
ATOM     28  C   UNL     1     -21.549 -67.091  56.168  1.00  0.00     0.180 A 
ATOM     29  C   UNL     1     -21.572 -65.038  54.913  1.00  0.00     0.239 A 
ATOM     30  O   UNL     1     -20.266 -66.820  56.605  1.00  0.00    -0.452 OA
ATOM     31  C   UNL     1     -20.663 -64.645  55.966  1.00  0.00     0.111 A 
ATOM     32  O   UNL     1     -21.258 -64.559  53.757  1.00  0.00    -0.285 OA
ATOM     33  C   UNL     1     -19.784 -65.636  56.360  1.00  0.00     0.146 A 
ATOM     34  C   UNL     1     -20.457 -63.481  56.733  1.00  0.00     0.134 A 
ATOM     35  C   UNL     1     -18.476 -65.248  56.708  1.00  0.00     0.094 A 
ATOM     36  C   UNL     1     -19.176 -62.855  56.488  1.00  0.00     0.093 A 
ATOM     37  C   UNL     1     -18.141 -63.826  56.592  1.00  0.00     0.123 A 
BRANCH  28  38
ATOM     38  C   UNL     1     -22.548 -67.784  57.084  1.00  0.00     0.025 A 
ATOM     39  C   UNL     1     -23.918 -67.535  56.944  1.00  0.00     0.062 A 
ATOM     40  C   UNL     1     -22.089 -68.681  58.082  1.00  0.00     0.016 A 
ATOM     41  C   UNL     1     -24.808 -68.059  57.920  1.00  0.00     0.158 A 
ATOM     42  C   UNL     1     -22.945 -69.081  59.098  1.00  0.00     0.051 A 
ATOM     43  C   UNL     1     -24.277 -68.651  59.076  1.00  0.00     0.157 A 
BRANCH  41  44
ATOM     44  O   UNL     1     -26.173 -67.887  57.760  1.00  0.00    -0.504 OA
ATOM     45  H   UNL     1     -26.788 -68.108  58.532  1.00  0.00     0.293 HD
ENDBRANCH  41  44
BRANCH  43  46
ATOM     46  O   UNL     1     -25.009 -68.550  60.284  1.00  0.00    -0.504 OA
ATOM     47  H   UNL     1     -24.816 -67.903  61.057  1.00  0.00     0.293 HD
ENDBRANCH  43  46
ENDBRANCH  28  38
BRANCH  34  48
ATOM     48  O   UNL     1     -20.758 -63.750  58.076  1.00  0.00    -0.507 OA
ATOM     49  H   UNL     1     -21.611 -64.264  58.314  1.00  0.00     0.293 HD
ENDBRANCH  34  48
BRANCH  37  50
ATOM     50  O   UNL     1     -16.816 -63.453  56.444  1.00  0.00    -0.508 OA
ATOM     51  H   UNL     1     -16.338 -62.994  57.228  1.00  0.00     0.293 HD
ENDBRANCH  37  50
ENDBRANCH  26  27
ENDBRANCH   5  26
BRANCH   4  52
ATOM     52  O   UNL     1     -24.890 -64.289  52.607  1.00  0.00    -0.384 OA
ATOM     53  H   UNL     1     -23.972 -64.072  52.983  1.00  0.00     0.211 HD
ENDBRANCH   4  52
TORSDOF 16
ENDMDL
MODEL 2
REMARK VINA RESULT:    -6.388      2.010      7.421
REMARK INTER + INTRA:         -13.490
REMARK INTER:                 -10.794
REMARK INTRA:                  -2.696
REMARK UNBOUND:                -2.994
REMARK SMILES C[C@H]1O[C@@H](OC[C@@H]2O[C@H](Oc3c(-c4ccc(O)c(O)c4)oc4cc(O)cc(O)c4c3=O)[C@H](O)[C@H](O)[C@H]2O)[C@@H](O)[C@@H](O)[C@H]1O
REMARK SMILES IDX 7 1 36 2 34 3 32 4 9 5 8 6 6 7 5 8 4 9 1 10 2 11 42 12 3 13
REMARK SMILES IDX 40 14 38 15 43 16 41 18 39 20 37 22 35 24 10 26 11 27 12 28
REMARK SMILES IDX 30 29 21 30 29 31 31 32 22 33 27 34 23 35 26 36 24 37 13 38
REMARK SMILES IDX 20 39 14 40 18 41 15 42 16 43 19 44 17 46 28 48 25 50 33 52
REMARK H PARENT 43 17 41 19 39 21 37 23 35 25 19 45 17 47 28 49 25 51 33 53
REMARK Flexibility Score: inf
ROOT
ATOM      1  C   UNL     1     -20.515 -66.163  55.366  1.00  0.00     0.180 C 
ATOM      2  C   UNL     1     -20.752 -67.192  56.596  1.00  0.00     0.177 C 
ATOM      3  C   UNL     1     -22.273 -67.597  57.022  1.00  0.00     0.180 C 
ATOM      4  C   UNL     1     -23.146 -66.300  56.787  1.00  0.00     0.214 C 
ATOM      5  C   UNL     1     -22.930 -65.833  55.205  1.00  0.00     0.339 C 
ATOM      6  O   UNL     1     -21.614 -65.235  55.190  1.00  0.00    -0.332 OA
ENDROOT
BRANCH   1   7
ATOM      7  C   UNL     1     -19.179 -65.309  55.187  1.00  0.00     0.198 C 
BRANCH   7   8
ATOM      8  O   UNL     1     -18.557 -64.798  56.343  1.00  0.00    -0.347 OA
BRANCH   8   9
ATOM      9  C   UNL     1     -18.966 -63.421  56.607  1.00  0.00     0.281 C 
ATOM     10  C   UNL     1     -16.630 -60.366  56.577  1.00  0.00     0.041 C 
ATOM     11  C   UNL     1     -18.052 -61.211  56.820  1.00  0.00     0.150 C 
ATOM     12  C   UNL     1     -18.820 -60.885  58.098  1.00  0.00     0.174 C 
ATOM     13  O   UNL     1     -17.784 -62.626  56.879  1.00  0.00    -0.344 OA
ATOM     14  C   UNL     1     -20.241 -61.693  58.153  1.00  0.00     0.179 C 
ATOM     15  C   UNL     1     -20.086 -63.183  57.657  1.00  0.00     0.202 C 
BRANCH  12  16
ATOM     16  O   UNL     1     -17.920 -61.267  59.155  1.00  0.00    -0.388 OA
ATOM     17  H   UNL     1     -17.376 -62.030  58.772  1.00  0.00     0.211 HD
ENDBRANCH  12  16
BRANCH  14  18
ATOM     18  O   UNL     1     -20.869 -61.736  59.455  1.00  0.00    -0.387 OA
ATOM     19  H   UNL     1     -21.781 -61.311  59.401  1.00  0.00     0.211 HD
ENDBRANCH  14  18
BRANCH  15  20
ATOM     20  O   UNL     1     -19.961 -64.098  58.714  1.00  0.00    -0.385 OA
ATOM     21  H   UNL     1     -19.090 -64.574  58.552  1.00  0.00     0.211 HD
ENDBRANCH  15  20
ENDBRANCH   8   9
ENDBRANCH   7   8
ENDBRANCH   1   7
BRANCH   2  22
ATOM     22  O   UNL     1     -19.908 -68.305  56.451  1.00  0.00    -0.387 OA
ATOM     23  H   UNL     1     -18.967 -68.032  56.476  1.00  0.00     0.211 HD
ENDBRANCH   2  22
BRANCH   3  24
ATOM     24  O   UNL     1     -22.416 -67.960  58.425  1.00  0.00    -0.387 OA
ATOM     25  H   UNL     1     -21.920 -68.805  58.623  1.00  0.00     0.211 HD
ENDBRANCH   3  24
BRANCH   5  26
ATOM     26  O   UNL     1     -23.914 -65.083  54.191  1.00  0.00    -0.454 OA
BRANCH  26  27
ATOM     27  C   UNL     1     -25.440 -64.853  54.306  1.00  0.00     0.214 A 
ATOM     28  C   UNL     1     -25.933 -63.602  54.856  1.00  0.00     0.180 A 
ATOM     29  C   UNL     1     -26.520 -65.787  54.035  1.00  0.00     0.239 A 
ATOM     30  O   UNL     1     -27.183 -63.126  54.507  1.00  0.00    -0.452 OA
ATOM     31  C   UNL     1     -27.838 -65.330  54.414  1.00  0.00     0.111 A 
ATOM     32  O   UNL     1     -26.511 -66.496  52.957  1.00  0.00    -0.285 OA
ATOM     33  C   UNL     1     -28.079 -63.996  54.143  1.00  0.00     0.146 A 
ATOM     34  C   UNL     1     -28.964 -65.911  55.031  1.00  0.00     0.134 A 
ATOM     35  C   UNL     1     -29.374 -63.641  53.718  1.00  0.00     0.094 A 
ATOM     36  C   UNL     1     -30.116 -65.989  54.159  1.00  0.00     0.093 A 
ATOM     37  C   UNL     1     -30.354 -64.719  53.564  1.00  0.00     0.123 A 
BRANCH  28  38
ATOM     38  C   UNL     1     -25.234 -63.094  56.109  1.00  0.00     0.025 A 
ATOM     39  C   UNL     1     -25.646 -63.536  57.371  1.00  0.00     0.062 A 
ATOM     40  C   UNL     1     -24.165 -62.168  55.996  1.00  0.00     0.016 A 
ATOM     41  C   UNL     1     -25.094 -62.916  58.524  1.00  0.00     0.158 A 
ATOM     42  C   UNL     1     -23.726 -61.481  57.119  1.00  0.00     0.051 A 
ATOM     43  C   UNL     1     -24.296 -61.773  58.363  1.00  0.00     0.157 A 
BRANCH  41  44
ATOM     44  O   UNL     1     -25.432 -63.389  59.781  1.00  0.00    -0.504 OA
ATOM     45  H   UNL     1     -25.703 -64.358  59.883  1.00  0.00     0.293 HD
ENDBRANCH  41  44
BRANCH  43  46
ATOM     46  O   UNL     1     -24.310 -60.791  59.384  1.00  0.00    -0.504 OA
ATOM     47  H   UNL     1     -23.653 -60.726  60.171  1.00  0.00     0.293 HD
ENDBRANCH  43  46
ENDBRANCH  28  38
BRANCH  34  48
ATOM     48  O   UNL     1     -29.180 -65.299  56.274  1.00  0.00    -0.507 OA
ATOM     49  H   UNL     1     -29.228 -64.278  56.338  1.00  0.00     0.293 HD
ENDBRANCH  34  48
BRANCH  37  50
ATOM     50  O   UNL     1     -31.438 -64.533  52.723  1.00  0.00    -0.508 OA
ATOM     51  H   UNL     1     -31.325 -63.948  51.888  1.00  0.00     0.293 HD
ENDBRANCH  37  50
ENDBRANCH  26  27
ENDBRANCH   5  26
BRANCH   4  52
ATOM     52  O   UNL     1     -22.677 -65.208  57.569  1.00  0.00    -0.384 OA
ATOM     53  H   UNL     1     -21.696 -65.284  57.817  1.00  0.00     0.211 HD
ENDBRANCH   4  52
TORSDOF 16
ENDMDL
MODEL 3
REMARK VINA RESULT:    -6.335      2.044      7.396
REMARK INTER + INTRA:         -13.403
REMARK INTER:                 -11.137
REMARK INTRA:                  -2.266
REMARK UNBOUND:                -2.994
REMARK SMILES C[C@H]1O[C@@H](OC[C@@H]2O[C@H](Oc3c(-c4ccc(O)c(O)c4)oc4cc(O)cc(O)c4c3=O)[C@H](O)[C@H](O)[C@H]2O)[C@@H](O)[C@@H](O)[C@H]1O
REMARK SMILES IDX 7 1 36 2 34 3 32 4 9 5 8 6 6 7 5 8 4 9 1 10 2 11 42 12 3 13
REMARK SMILES IDX 40 14 38 15 43 16 41 18 39 20 37 22 35 24 10 26 11 27 12 28
REMARK SMILES IDX 30 29 21 30 29 31 31 32 22 33 27 34 23 35 26 36 24 37 13 38
REMARK SMILES IDX 20 39 14 40 18 41 15 42 16 43 19 44 17 46 28 48 25 50 33 52
REMARK H PARENT 43 17 41 19 39 21 37 23 35 25 19 45 17 47 28 49 25 51 33 53
REMARK Flexibility Score: inf
ROOT
ATOM      1  C   UNL     1     -21.194 -66.261  57.450  1.00  0.00     0.180 C 
ATOM      2  C   UNL     1     -21.674 -67.596  58.235  1.00  0.00     0.177 C 
ATOM      3  C   UNL     1     -22.999 -68.397  57.722  1.00  0.00     0.180 C 
ATOM      4  C   UNL     1     -23.995 -67.288  57.193  1.00  0.00     0.214 C 
ATOM      5  C   UNL     1     -23.186 -66.399  56.042  1.00  0.00     0.339 C 
ATOM      6  O   UNL     1     -22.289 -65.562  56.808  1.00  0.00    -0.332 OA
ENDROOT
BRANCH   1   7
ATOM      7  C   UNL     1     -20.279 -65.137  58.117  1.00  0.00     0.198 C 
BRANCH   7   8
ATOM      8  O   UNL     1     -20.739 -63.807  58.096  1.00  0.00    -0.347 OA
BRANCH   8   9
ATOM      9  C   UNL     1     -19.846 -62.944  57.327  1.00  0.00     0.281 C 
ATOM     10  C   UNL     1     -16.807 -64.141  55.297  1.00  0.00     0.041 C 
ATOM     11  C   UNL     1     -17.847 -63.036  55.999  1.00  0.00     0.150 C 
ATOM     12  C   UNL     1     -17.198 -61.832  56.674  1.00  0.00     0.174 C 
ATOM     13  O   UNL     1     -18.633 -63.678  57.024  1.00  0.00    -0.344 OA
ATOM     14  C   UNL     1     -18.328 -60.780  57.214  1.00  0.00     0.179 C 
ATOM     15  C   UNL     1     -19.547 -61.524  57.883  1.00  0.00     0.202 C 
BRANCH  12  16
ATOM     16  O   UNL     1     -16.415 -62.406  57.738  1.00  0.00    -0.388 OA
ATOM     17  H   UNL     1     -15.943 -61.620  58.167  1.00  0.00     0.211 HD
ENDBRANCH  12  16
BRANCH  14  18
ATOM     18  O   UNL     1     -17.846 -59.802  58.166  1.00  0.00    -0.387 OA
ATOM     19  H   UNL     1     -18.271 -58.909  57.972  1.00  0.00     0.211 HD
ENDBRANCH  14  18
BRANCH  15  20
ATOM     20  O   UNL     1     -19.461 -61.562  59.283  1.00  0.00    -0.385 OA
ATOM     21  H   UNL     1     -18.638 -61.031  59.514  1.00  0.00     0.211 HD
ENDBRANCH  15  20
ENDBRANCH   8   9
ENDBRANCH   7   8
ENDBRANCH   1   7
BRANCH   2  22
ATOM     22  O   UNL     1     -20.574 -68.440  58.452  1.00  0.00    -0.387 OA
ATOM     23  H   UNL     1     -19.983 -68.070  59.142  1.00  0.00     0.211 HD
ENDBRANCH   2  22
BRANCH   3  24
ATOM     24  O   UNL     1     -23.692 -69.125  58.775  1.00  0.00    -0.387 OA
ATOM     25  H   UNL     1     -23.775 -70.093  58.539  1.00  0.00     0.211 HD
ENDBRANCH   3  24
BRANCH   5  26
ATOM     26  O   UNL     1     -23.721 -65.632  54.745  1.00  0.00    -0.454 OA
BRANCH  26  27
ATOM     27  C   UNL     1     -25.117 -65.017  54.484  1.00  0.00     0.214 A 
ATOM     28  C   UNL     1     -25.342 -63.611  54.771  1.00  0.00     0.180 A 
ATOM     29  C   UNL     1     -26.340 -65.687  54.075  1.00  0.00     0.239 A 
ATOM     30  O   UNL     1     -26.321 -62.904  54.098  1.00  0.00    -0.452 OA
ATOM     31  C   UNL     1     -27.528 -64.863  54.093  1.00  0.00     0.111 A 
ATOM     32  O   UNL     1     -26.321 -66.542  53.109  1.00  0.00    -0.285 OA
ATOM     33  C   UNL     1     -27.335 -63.575  53.634  1.00  0.00     0.146 A 
ATOM     34  C   UNL     1     -28.867 -65.040  54.496  1.00  0.00     0.134 A 
ATOM     35  C   UNL     1     -28.376 -62.984  52.890  1.00  0.00     0.094 A 
ATOM     36  C   UNL     1     -29.807 -64.973  53.397  1.00  0.00     0.093 A 
ATOM     37  C   UNL     1     -29.567 -63.798  52.633  1.00  0.00     0.123 A 
BRANCH  28  38
ATOM     38  C   UNL     1     -24.783 -63.093  56.088  1.00  0.00     0.025 A 
ATOM     39  C   UNL     1     -25.341 -63.513  57.301  1.00  0.00     0.062 A 
ATOM     40  C   UNL     1     -23.696 -62.181  56.087  1.00  0.00     0.016 A 
ATOM     41  C   UNL     1     -24.915 -62.884  58.502  1.00  0.00     0.158 A 
ATOM     42  C   UNL     1     -23.378 -61.484  57.243  1.00  0.00     0.051 A 
ATOM     43  C   UNL     1     -24.090 -61.752  58.419  1.00  0.00     0.157 A 
BRANCH  41  44
ATOM     44  O   UNL     1     -25.400 -63.336  59.718  1.00  0.00    -0.504 OA
ATOM     45  H   UNL     1     -25.059 -62.909  60.569  1.00  0.00     0.293 HD
ENDBRANCH  41  44
BRANCH  43  46
ATOM     46  O   UNL     1     -24.207 -60.756  59.419  1.00  0.00    -0.504 OA
ATOM     47  H   UNL     1     -23.466 -60.456  60.064  1.00  0.00     0.293 HD
ENDBRANCH  43  46
ENDBRANCH  28  38
BRANCH  34  48
ATOM     48  O   UNL     1     -29.139 -64.200  55.584  1.00  0.00    -0.507 OA
ATOM     49  H   UNL     1     -28.406 -63.586  55.950  1.00  0.00     0.293 HD
ENDBRANCH  34  48
BRANCH  37  50
ATOM     50  O   UNL     1     -30.376 -63.491  51.552  1.00  0.00    -0.508 OA
ATOM     51  H   UNL     1     -30.784 -64.255  51.002  1.00  0.00     0.293 HD
ENDBRANCH  37  50
ENDBRANCH  26  27
ENDBRANCH   5  26
BRANCH   4  52
ATOM     52  O   UNL     1     -24.331 -66.359  58.217  1.00  0.00    -0.384 OA
ATOM     53  H   UNL     1     -24.184 -65.392  57.947  1.00  0.00     0.211 HD
ENDBRANCH   4  52
TORSDOF 16
ENDMDL
MODEL 4
REMARK VINA RESULT:    -6.236      2.144      4.730
REMARK INTER + INTRA:         -13.240
REMARK INTER:                 -10.830
REMARK INTRA:                  -2.409
REMARK UNBOUND:                -2.994
REMARK SMILES C[C@H]1O[C@@H](OC[C@@H]2O[C@H](Oc3c(-c4ccc(O)c(O)c4)oc4cc(O)cc(O)c4c3=O)[C@H](O)[C@H](O)[C@H]2O)[C@@H](O)[C@@H](O)[C@H]1O
REMARK SMILES IDX 7 1 36 2 34 3 32 4 9 5 8 6 6 7 5 8 4 9 1 10 2 11 42 12 3 13
REMARK SMILES IDX 40 14 38 15 43 16 41 18 39 20 37 22 35 24 10 26 11 27 12 28
REMARK SMILES IDX 30 29 21 30 29 31 31 32 22 33 27 34 23 35 26 36 24 37 13 38
REMARK SMILES IDX 20 39 14 40 18 41 15 42 16 43 19 44 17 46 28 48 25 50 33 52
REMARK H PARENT 43 17 41 19 39 21 37 23 35 25 19 45 17 47 28 49 25 51 33 53
REMARK Flexibility Score: inf
ROOT
ATOM      1  C   UNL     1     -26.784 -62.962  56.258  1.00  0.00     0.180 C 
ATOM      2  C   UNL     1     -26.374 -61.808  57.321  1.00  0.00     0.177 C 
ATOM      3  C   UNL     1     -24.823 -61.680  57.809  1.00  0.00     0.180 C 
ATOM      4  C   UNL     1     -24.265 -63.159  57.865  1.00  0.00     0.214 C 
ATOM      5  C   UNL     1     -24.506 -63.841  56.367  1.00  0.00     0.339 C 
ATOM      6  O   UNL     1     -25.923 -64.126  56.333  1.00  0.00    -0.332 OA
ENDROOT
BRANCH   1   7
ATOM      7  C   UNL     1     -28.271 -63.517  56.103  1.00  0.00     0.198 C 
BRANCH   7   8
ATOM      8  O   UNL     1     -28.620 -64.155  54.897  1.00  0.00    -0.347 OA
BRANCH   8   9
ATOM      9  C   UNL     1     -29.438 -65.341  55.135  1.00  0.00     0.281 C 
ATOM     10  C   UNL     1     -32.027 -65.722  57.953  1.00  0.00     0.041 C 
ATOM     11  C   UNL     1     -31.070 -66.205  56.670  1.00  0.00     0.150 C 
ATOM     12  C   UNL     1     -30.398 -67.569  56.806  1.00  0.00     0.174 C 
ATOM     13  O   UNL     1     -29.997 -65.263  56.470  1.00  0.00    -0.344 OA
ATOM     14  C   UNL     1     -29.590 -67.965  55.440  1.00  0.00     0.179 C 
ATOM     15  C   UNL     1     -28.807 -66.732  54.845  1.00  0.00     0.202 C 
BRANCH  12  16
ATOM     16  O   UNL     1     -29.530 -67.420  57.945  1.00  0.00    -0.388 OA
ATOM     17  H   UNL     1     -29.197 -68.356  58.144  1.00  0.00     0.211 HD
ENDBRANCH  12  16
BRANCH  14  18
ATOM     18  O   UNL     1     -28.640 -69.047  55.585  1.00  0.00    -0.387 OA
ATOM     19  H   UNL     1     -28.567 -69.300  56.558  1.00  0.00     0.211 HD
ENDBRANCH  14  18
BRANCH  15  20
ATOM     20  O   UNL     1     -27.448 -66.728  55.195  1.00  0.00    -0.385 OA
ATOM     21  H   UNL     1     -27.393 -66.189  56.042  1.00  0.00     0.211 HD
ENDBRANCH  15  20
ENDBRANCH   8   9
ENDBRANCH   7   8
ENDBRANCH   1   7
BRANCH   2  22
ATOM     22  O   UNL     1     -26.927 -60.581  56.924  1.00  0.00    -0.387 OA
ATOM     23  H   UNL     1     -27.888 -60.555  57.115  1.00  0.00     0.211 HD
ENDBRANCH   2  22
BRANCH   3  24
ATOM     24  O   UNL     1     -24.668 -61.115  59.141  1.00  0.00    -0.387 OA
ATOM     25  H   UNL     1     -25.247 -61.597  59.798  1.00  0.00     0.211 HD
ENDBRANCH   3  24
BRANCH   5  26
ATOM     26  O   UNL     1     -23.676 -64.958  55.579  1.00  0.00    -0.454 OA
BRANCH  26  27
ATOM     27  C   UNL     1     -22.211 -65.409  55.787  1.00  0.00     0.214 A 
ATOM     28  C   UNL     1     -21.920 -66.818  55.992  1.00  0.00     0.180 A 
ATOM     29  C   UNL     1     -21.020 -64.587  55.926  1.00  0.00     0.239 A 
ATOM     30  O   UNL     1     -20.684 -67.337  55.657  1.00  0.00    -0.452 OA
ATOM     31  C   UNL     1     -19.818 -65.302  56.294  1.00  0.00     0.111 A 
ATOM     32  O   UNL     1     -20.808 -63.608  55.112  1.00  0.00    -0.285 OA
ATOM     33  C   UNL     1     -19.667 -66.524  55.668  1.00  0.00     0.146 A 
ATOM     34  C   UNL     1     -18.743 -65.071  57.175  1.00  0.00     0.134 A 
ATOM     35  C   UNL     1     -18.364 -66.912  55.301  1.00  0.00     0.094 A 
ATOM     36  C   UNL     1     -17.476 -64.902  56.498  1.00  0.00     0.093 A 
ATOM     37  C   UNL     1     -17.275 -65.973  55.583  1.00  0.00     0.123 A 
BRANCH  28  38
ATOM     38  C   UNL     1     -22.836 -67.563  56.953  1.00  0.00     0.025 A 
ATOM     39  C   UNL     1     -24.226 -67.446  56.829  1.00  0.00     0.062 A 
ATOM     40  C   UNL     1     -22.281 -68.372  57.976  1.00  0.00     0.016 A 
ATOM     41  C   UNL     1     -25.049 -68.010  57.840  1.00  0.00     0.158 A 
ATOM     42  C   UNL     1     -23.081 -68.808  59.022  1.00  0.00     0.051 A 
ATOM     43  C   UNL     1     -24.448 -68.504  59.008  1.00  0.00     0.157 A 
BRANCH  41  44
ATOM     44  O   UNL     1     -26.426 -67.972  57.700  1.00  0.00    -0.504 OA
ATOM     45  H   UNL     1     -26.970 -68.775  57.986  1.00  0.00     0.293 HD
ENDBRANCH  41  44
BRANCH  43  46
ATOM     46  O   UNL     1     -25.168 -68.423  60.225  1.00  0.00    -0.504 OA
ATOM     47  H   UNL     1     -25.045 -67.711  60.955  1.00  0.00     0.293 HD
ENDBRANCH  43  46
ENDBRANCH  28  38
BRANCH  34  48
ATOM     48  O   UNL     1     -18.766 -66.032  58.197  1.00  0.00    -0.507 OA
ATOM     49  H   UNL     1     -18.108 -66.815  58.173  1.00  0.00     0.293 HD
ENDBRANCH  34  48
BRANCH  37  50
ATOM     50  O   UNL     1     -16.104 -66.055  54.849  1.00  0.00    -0.508 OA
ATOM     51  H   UNL     1     -16.162 -66.122  53.826  1.00  0.00     0.293 HD
ENDBRANCH  37  50
ENDBRANCH  26  27
ENDBRANCH   5  26
BRANCH   4  52
ATOM     52  O   UNL     1     -25.013 -63.963  58.769  1.00  0.00    -0.384 OA
ATOM     53  H   UNL     1     -25.811 -63.481  59.170  1.00  0.00     0.211 HD
ENDBRANCH   4  52
TORSDOF 16
ENDMDL
MODEL 5
REMARK VINA RESULT:    -6.188      1.605      4.491
REMARK INTER + INTRA:         -13.161
REMARK INTER:                 -10.858
REMARK INTRA:                  -2.303
REMARK UNBOUND:                -2.994
REMARK SMILES C[C@H]1O[C@@H](OC[C@@H]2O[C@H](Oc3c(-c4ccc(O)c(O)c4)oc4cc(O)cc(O)c4c3=O)[C@H](O)[C@H](O)[C@H]2O)[C@@H](O)[C@@H](O)[C@H]1O
REMARK SMILES IDX 7 1 36 2 34 3 32 4 9 5 8 6 6 7 5 8 4 9 1 10 2 11 42 12 3 13
REMARK SMILES IDX 40 14 38 15 43 16 41 18 39 20 37 22 35 24 10 26 11 27 12 28
REMARK SMILES IDX 30 29 21 30 29 31 31 32 22 33 27 34 23 35 26 36 24 37 13 38
REMARK SMILES IDX 20 39 14 40 18 41 15 42 16 43 19 44 17 46 28 48 25 50 33 52
REMARK H PARENT 43 17 41 19 39 21 37 23 35 25 19 45 17 47 28 49 25 51 33 53
REMARK Flexibility Score: inf
ROOT
ATOM      1  C   UNL     1     -25.835 -61.892  55.661  1.00  0.00     0.180 C 
ATOM      2  C   UNL     1     -25.543 -60.988  56.974  1.00  0.00     0.177 C 
ATOM      3  C   UNL     1     -24.335 -61.409  57.986  1.00  0.00     0.180 C 
ATOM      4  C   UNL     1     -24.307 -62.991  57.989  1.00  0.00     0.214 C 
ATOM      5  C   UNL     1     -24.145 -63.490  56.410  1.00  0.00     0.339 C 
ATOM      6  O   UNL     1     -25.456 -63.280  55.837  1.00  0.00    -0.332 OA
ENDROOT
BRANCH   1   7
ATOM      7  C   UNL     1     -27.241 -61.908  54.906  1.00  0.00     0.198 C 
BRANCH   7   8
ATOM      8  O   UNL     1     -27.245 -62.103  53.512  1.00  0.00    -0.347 OA
BRANCH   8   9
ATOM      9  C   UNL     1     -27.570 -63.484  53.165  1.00  0.00     0.281 C 
ATOM     10  C   UNL     1     -29.982 -65.755  55.118  1.00  0.00     0.041 C 
ATOM     11  C   UNL     1     -28.842 -65.359  53.961  1.00  0.00     0.150 C 
ATOM     12  C   UNL     1     -27.715 -66.367  53.751  1.00  0.00     0.174 C 
ATOM     13  O   UNL     1     -28.192 -64.120  54.309  1.00  0.00    -0.344 OA
ATOM     14  C   UNL     1     -26.741 -65.913  52.519  1.00  0.00     0.179 C 
ATOM     15  C   UNL     1     -26.447 -64.363  52.546  1.00  0.00     0.202 C 
BRANCH  12  16
ATOM     16  O   UNL     1     -27.034 -66.400  55.019  1.00  0.00    -0.388 OA
ATOM     17  H   UNL     1     -27.755 -66.228  55.708  1.00  0.00     0.211 HD
ENDBRANCH  12  16
BRANCH  14  18
ATOM     18  O   UNL     1     -25.464 -66.592  52.467  1.00  0.00    -0.387 OA
ATOM     19  H   UNL     1     -24.922 -66.226  51.701  1.00  0.00     0.211 HD
ENDBRANCH  14  18
BRANCH  15  20
ATOM     20  O   UNL     1     -25.211 -64.053  53.135  1.00  0.00    -0.385 OA
ATOM     21  H   UNL     1     -25.286 -63.092  53.422  1.00  0.00     0.211 HD
ENDBRANCH  15  20
ENDBRANCH   8   9
ENDBRANCH   7   8
ENDBRANCH   1   7
BRANCH   2  22
ATOM     22  O   UNL     1     -25.511 -59.631  56.618  1.00  0.00    -0.387 OA
ATOM     23  H   UNL     1     -24.656 -59.225  56.871  1.00  0.00     0.211 HD
ENDBRANCH   2  22
BRANCH   3  24
ATOM     24  O   UNL     1     -24.544 -60.984  59.363  1.00  0.00    -0.387 OA
ATOM     25  H   UNL     1     -24.080 -61.602  59.997  1.00  0.00     0.211 HD
ENDBRANCH   3  24
BRANCH   5  26
ATOM     26  O   UNL     1     -23.447 -64.787  55.789  1.00  0.00    -0.454 OA
BRANCH  26  27
ATOM     27  C   UNL     1     -21.989 -65.280  55.952  1.00  0.00     0.214 A 
ATOM     28  C   UNL     1     -21.727 -66.704  56.072  1.00  0.00     0.180 A 
ATOM     29  C   UNL     1     -20.779 -64.493  56.121  1.00  0.00     0.239 A 
ATOM     30  O   UNL     1     -20.506 -67.229  55.691  1.00  0.00    -0.452 OA
ATOM     31  C   UNL     1     -19.589 -65.253  56.432  1.00  0.00     0.111 A 
ATOM     32  O   UNL     1     -20.556 -63.474  55.362  1.00  0.00    -0.285 OA
ATOM     33  C   UNL     1     -19.472 -66.440  55.735  1.00  0.00     0.146 A 
ATOM     34  C   UNL     1     -18.499 -65.096  57.311  1.00  0.00     0.134 A 
ATOM     35  C   UNL     1     -18.182 -66.835  55.330  1.00  0.00     0.094 A 
ATOM     36  C   UNL     1     -17.236 -64.915  56.628  1.00  0.00     0.093 A 
ATOM     37  C   UNL     1     -17.070 -65.936  55.651  1.00  0.00     0.123 A 
BRANCH  28  38
ATOM     38  C   UNL     1     -22.648 -67.483  57.000  1.00  0.00     0.025 A 
ATOM     39  C   UNL     1     -24.036 -67.391  56.850  1.00  0.00     0.062 A 
ATOM     40  C   UNL     1     -22.098 -68.301  58.020  1.00  0.00     0.016 A 
ATOM     41  C   UNL     1     -24.869 -67.989  57.834  1.00  0.00     0.158 A 
ATOM     42  C   UNL     1     -22.911 -68.771  59.042  1.00  0.00     0.051 A 
ATOM     43  C   UNL     1     -24.282 -68.492  59.005  1.00  0.00     0.157 A 
BRANCH  41  44
ATOM     44  O   UNL     1     -26.244 -67.974  57.665  1.00  0.00    -0.504 OA
ATOM     45  H   UNL     1     -26.640 -68.403  56.840  1.00  0.00     0.293 HD
ENDBRANCH  41  44
BRANCH  43  46
ATOM     46  O   UNL     1     -25.029 -68.447  60.208  1.00  0.00    -0.504 OA
ATOM     47  H   UNL     1     -24.863 -69.018  61.045  1.00  0.00     0.293 HD
ENDBRANCH  43  46
ENDBRANCH  28  38
BRANCH  34  48
ATOM     48  O   UNL     1     -18.531 -66.113  58.277  1.00  0.00    -0.507 OA
ATOM     49  H   UNL     1     -18.544 -65.872  59.271  1.00  0.00     0.293 HD
ENDBRANCH  34  48
BRANCH  37  50
ATOM     50  O   UNL     1     -15.910 -66.000  54.899  1.00  0.00    -0.508 OA
ATOM     51  H   UNL     1     -15.107 -66.523  55.266  1.00  0.00     0.293 HD
ENDBRANCH  37  50
ENDBRANCH  26  27
ENDBRANCH   5  26
BRANCH   4  52
ATOM     52  O   UNL     1     -25.546 -63.533  58.429  1.00  0.00    -0.384 OA
ATOM     53  H   UNL     1     -26.139 -63.849  57.669  1.00  0.00     0.211 HD
ENDBRANCH   4  52
TORSDOF 16
ENDMDL
MODEL 6
REMARK VINA RESULT:    -6.108      5.616     11.236
REMARK INTER + INTRA:         -13.030
REMARK INTER:                 -11.047
REMARK INTRA:                  -1.983
REMARK UNBOUND:                -2.994
REMARK SMILES C[C@H]1O[C@@H](OC[C@@H]2O[C@H](Oc3c(-c4ccc(O)c(O)c4)oc4cc(O)cc(O)c4c3=O)[C@H](O)[C@H](O)[C@H]2O)[C@@H](O)[C@@H](O)[C@H]1O
REMARK SMILES IDX 7 1 36 2 34 3 32 4 9 5 8 6 6 7 5 8 4 9 1 10 2 11 42 12 3 13
REMARK SMILES IDX 40 14 38 15 43 16 41 18 39 20 37 22 35 24 10 26 11 27 12 28
REMARK SMILES IDX 30 29 21 30 29 31 31 32 22 33 27 34 23 35 26 36 24 37 13 38
REMARK SMILES IDX 20 39 14 40 18 41 15 42 16 43 19 44 17 46 28 48 25 50 33 52
REMARK H PARENT 43 17 41 19 39 21 37 23 35 25 19 45 17 47 28 49 25 51 33 53
REMARK Flexibility Score: inf
ROOT
ATOM      1  C   UNL     1     -23.533 -59.550  53.851  1.00  0.00     0.180 C 
ATOM      2  C   UNL     1     -21.924 -59.427  53.691  1.00  0.00     0.177 C 
ATOM      3  C   UNL     1     -21.249 -57.958  53.476  1.00  0.00     0.180 C 
ATOM      4  C   UNL     1     -22.280 -57.133  52.605  1.00  0.00     0.214 C 
ATOM      5  C   UNL     1     -23.740 -57.157  53.404  1.00  0.00     0.339 C 
ATOM      6  O   UNL     1     -24.249 -58.490  53.170  1.00  0.00    -0.332 OA
ENDROOT
BRANCH   1   7
ATOM      7  C   UNL     1     -24.340 -60.894  53.553  1.00  0.00     0.198 C 
BRANCH   7   8
ATOM      8  O   UNL     1     -25.246 -61.355  54.528  1.00  0.00    -0.347 OA
BRANCH   8   9
ATOM      9  C   UNL     1     -24.552 -61.946  55.668  1.00  0.00     0.281 C 
ATOM     10  C   UNL     1     -25.150 -65.489  57.039  1.00  0.00     0.041 C 
ATOM     11  C   UNL     1     -24.518 -63.941  57.004  1.00  0.00     0.150 C 
ATOM     12  C   UNL     1     -24.486 -63.195  58.335  1.00  0.00     0.174 C 
ATOM     13  O   UNL     1     -25.291 -63.111  56.113  1.00  0.00    -0.344 OA
ATOM     14  C   UNL     1     -23.743 -61.747  58.180  1.00  0.00     0.179 C 
ATOM     15  C   UNL     1     -24.165 -61.012  56.849  1.00  0.00     0.202 C 
BRANCH  12  16
ATOM     16  O   UNL     1     -25.873 -63.075  58.703  1.00  0.00    -0.388 OA
ATOM     17  H   UNL     1     -26.117 -62.115  58.491  1.00  0.00     0.211 HD
ENDBRANCH  12  16
BRANCH  14  18
ATOM     18  O   UNL     1     -23.970 -60.824  59.271  1.00  0.00    -0.387 OA
ATOM     19  H   UNL     1     -24.370 -61.321  60.051  1.00  0.00     0.211 HD
ENDBRANCH  14  18
BRANCH  15  20
ATOM     20  O   UNL     1     -25.166 -60.050  57.052  1.00  0.00    -0.385 OA
ATOM     21  H   UNL     1     -24.735 -59.332  57.609  1.00  0.00     0.211 HD
ENDBRANCH  15  20
ENDBRANCH   8   9
ENDBRANCH   7   8
ENDBRANCH   1   7
BRANCH   2  22
ATOM     22  O   UNL     1     -21.290 -60.181  54.691  1.00  0.00    -0.387 OA
ATOM     23  H   UNL     1     -21.391 -59.751  55.567  1.00  0.00     0.211 HD
ENDBRANCH   2  22
BRANCH   3  24
ATOM     24  O   UNL     1     -19.995 -57.988  52.737  1.00  0.00    -0.387 OA
ATOM     25  H   UNL     1     -19.499 -57.127  52.848  1.00  0.00     0.211 HD
ENDBRANCH   3  24
BRANCH   5  26
ATOM     26  O   UNL     1     -24.927 -56.087  53.447  1.00  0.00    -0.454 OA
BRANCH  26  27
ATOM     27  C   UNL     1     -26.404 -56.288  53.859  1.00  0.00     0.214 A 
ATOM     28  C   UNL     1     -27.456 -55.673  53.067  1.00  0.00     0.180 A 
ATOM     29  C   UNL     1     -26.934 -56.944  55.042  1.00  0.00     0.239 A 
ATOM     30  O   UNL     1     -28.726 -56.217  53.041  1.00  0.00    -0.452 OA
ATOM     31  C   UNL     1     -28.361 -56.808  55.235  1.00  0.00     0.111 A 
ATOM     32  O   UNL     1     -26.472 -58.090  55.412  1.00  0.00    -0.285 OA
ATOM     33  C   UNL     1     -29.105 -56.910  54.075  1.00  0.00     0.146 A 
ATOM     34  C   UNL     1     -29.207 -56.565  56.335  1.00  0.00     0.134 A 
ATOM     35  C   UNL     1     -30.354 -57.557  54.157  1.00  0.00     0.094 A 
ATOM     36  C   UNL     1     -30.080 -57.678  56.641  1.00  0.00     0.093 A 
ATOM     37  C   UNL     1     -30.749 -58.100  55.459  1.00  0.00     0.123 A 
BRANCH  28  38
ATOM     38  C   UNL     1     -27.224 -54.229  52.644  1.00  0.00     0.025 A 
ATOM     39  C   UNL     1     -26.582 -53.339  53.512  1.00  0.00     0.062 A 
ATOM     40  C   UNL     1     -27.664 -53.785  51.371  1.00  0.00     0.016 A 
ATOM     41  C   UNL     1     -26.534 -51.962  53.163  1.00  0.00     0.158 A 
ATOM     42  C   UNL     1     -27.727 -52.426  51.098  1.00  0.00     0.051 A 
ATOM     43  C   UNL     1     -27.280 -51.515  52.061  1.00  0.00     0.157 A 
BRANCH  41  44
ATOM     44  O   UNL     1     -25.839 -51.077  53.970  1.00  0.00    -0.504 OA
ATOM     45  H   UNL     1     -25.798 -51.251  54.966  1.00  0.00     0.293 HD
ENDBRANCH  41  44
BRANCH  43  46
ATOM     46  O   UNL     1     -27.802 -50.198  52.088  1.00  0.00    -0.504 OA
ATOM     47  H   UNL     1     -28.037 -49.658  52.929  1.00  0.00     0.293 HD
ENDBRANCH  43  46
ENDBRANCH  28  38
BRANCH  34  48
ATOM     48  O   UNL     1     -29.836 -55.322  56.172  1.00  0.00    -0.507 OA
ATOM     49  H   UNL     1     -30.040 -54.743  56.990  1.00  0.00     0.293 HD
ENDBRANCH  34  48
BRANCH  37  50
ATOM     50  O   UNL     1     -31.678 -59.125  55.510  1.00  0.00    -0.508 OA
ATOM     51  H   UNL     1     -31.347 -60.092  55.611  1.00  0.00     0.293 HD
ENDBRANCH  37  50
ENDBRANCH  26  27
ENDBRANCH   5  26
BRANCH   4  52
ATOM     52  O   UNL     1     -22.527 -57.764  51.354  1.00  0.00    -0.384 OA
ATOM     53  H   UNL     1     -21.897 -57.459  50.619  1.00  0.00     0.211 HD
ENDBRANCH   4  52
TORSDOF 16
ENDMDL
MODEL 7
REMARK VINA RESULT:    -6.000      2.122      6.607
REMARK INTER + INTRA:         -12.852
REMARK INTER:                 -10.015
REMARK INTRA:                  -2.836
REMARK UNBOUND:                -2.994
REMARK SMILES C[C@H]1O[C@@H](OC[C@@H]2O[C@H](Oc3c(-c4ccc(O)c(O)c4)oc4cc(O)cc(O)c4c3=O)[C@H](O)[C@H](O)[C@H]2O)[C@@H](O)[C@@H](O)[C@H]1O
REMARK SMILES IDX 7 1 36 2 34 3 32 4 9 5 8 6 6 7 5 8 4 9 1 10 2 11 42 12 3 13
REMARK SMILES IDX 40 14 38 15 43 16 41 18 39 20 37 22 35 24 10 26 11 27 12 28
REMARK SMILES IDX 30 29 21 30 29 31 31 32 22 33 27 34 23 35 26 36 24 37 13 38
REMARK SMILES IDX 20 39 14 40 18 41 15 42 16 43 19 44 17 46 28 48 25 50 33 52
REMARK H PARENT 43 17 41 19 39 21 37 23 35 25 19 45 17 47 28 49 25 51 33 53
REMARK Flexibility Score: inf
ROOT
ATOM      1  C   UNL     1     -25.042 -66.873  57.141  1.00  0.00     0.180 C 
ATOM      2  C   UNL     1     -24.309 -67.943  58.115  1.00  0.00     0.177 C 
ATOM      3  C   UNL     1     -22.697 -67.849  58.341  1.00  0.00     0.180 C 
ATOM      4  C   UNL     1     -22.095 -67.370  56.959  1.00  0.00     0.214 C 
ATOM      5  C   UNL     1     -22.859 -65.950  56.548  1.00  0.00     0.339 C 
ATOM      6  O   UNL     1     -24.168 -66.370  56.100  1.00  0.00    -0.332 OA
ENDROOT
BRANCH   1   7
ATOM      7  C   UNL     1     -26.451 -67.149  56.445  1.00  0.00     0.198 C 
BRANCH   7   8
ATOM      8  O   UNL     1     -27.432 -66.140  56.506  1.00  0.00    -0.347 OA
BRANCH   8   9
ATOM      9  C   UNL     1     -27.999 -65.863  55.190  1.00  0.00     0.281 C 
ATOM     10  C   UNL     1     -26.449 -66.932  51.836  1.00  0.00     0.041 C 
ATOM     11  C   UNL     1     -27.522 -66.152  52.854  1.00  0.00     0.150 C 
ATOM     12  C   UNL     1     -27.888 -64.719  52.478  1.00  0.00     0.174 C 
ATOM     13  O   UNL     1     -26.975 -66.075  54.186  1.00  0.00    -0.344 OA
ATOM     14  C   UNL     1     -29.027 -64.119  53.486  1.00  0.00     0.179 C 
ATOM     15  C   UNL     1     -28.747 -64.516  54.987  1.00  0.00     0.202 C 
BRANCH  12  16
ATOM     16  O   UNL     1     -26.640 -64.006  52.557  1.00  0.00    -0.388 OA
ATOM     17  H   UNL     1     -26.201 -64.341  53.405  1.00  0.00     0.211 HD
ENDBRANCH  12  16
BRANCH  14  18
ATOM     18  O   UNL     1     -29.182 -62.681  53.445  1.00  0.00    -0.387 OA
ATOM     19  H   UNL     1     -28.273 -62.246  53.446  1.00  0.00     0.211 HD
ENDBRANCH  14  18
BRANCH  15  20
ATOM     20  O   UNL     1     -28.111 -63.497  55.712  1.00  0.00    -0.385 OA
ATOM     21  H   UNL     1     -28.757 -63.245  56.440  1.00  0.00     0.211 HD
ENDBRANCH  15  20
ENDBRANCH   8   9
ENDBRANCH   7   8
ENDBRANCH   1   7
BRANCH   2  22
ATOM     22  O   UNL     1     -25.025 -68.057  59.317  1.00  0.00    -0.387 OA
ATOM     23  H   UNL     1     -25.867 -67.556  59.268  1.00  0.00     0.211 HD
ENDBRANCH   2  22
BRANCH   3  24
ATOM     24  O   UNL     1     -22.071 -69.125  58.658  1.00  0.00    -0.387 OA
ATOM     25  H   UNL     1     -22.699 -69.707  59.174  1.00  0.00     0.211 HD
ENDBRANCH   3  24
BRANCH   5  26
ATOM     26  O   UNL     1     -22.343 -64.688  55.713  1.00  0.00    -0.454 OA
BRANCH  26  27
ATOM     27  C   UNL     1     -22.972 -63.279  55.590  1.00  0.00     0.214 A 
ATOM     28  C   UNL     1     -22.108 -62.111  55.576  1.00  0.00     0.180 A 
ATOM     29  C   UNL     1     -24.377 -62.910  55.594  1.00  0.00     0.239 A 
ATOM     30  O   UNL     1     -22.514 -60.943  54.957  1.00  0.00    -0.452 OA
ATOM     31  C   UNL     1     -24.641 -61.489  55.647  1.00  0.00     0.111 A 
ATOM     32  O   UNL     1     -25.223 -63.564  54.871  1.00  0.00    -0.285 OA
ATOM     33  C   UNL     1     -23.794 -60.724  54.869  1.00  0.00     0.146 A 
ATOM     34  C   UNL     1     -25.554 -60.662  56.331  1.00  0.00     0.134 A 
ATOM     35  C   UNL     1     -24.341 -59.598  54.223  1.00  0.00     0.094 A 
ATOM     36  C   UNL     1     -26.486 -59.991  55.451  1.00  0.00     0.093 A 
ATOM     37  C   UNL     1     -25.774 -59.349  54.399  1.00  0.00     0.123 A 
BRANCH  28  38
ATOM     38  C   UNL     1     -20.983 -62.092  56.601  1.00  0.00     0.025 A 
ATOM     39  C   UNL     1     -21.199 -61.541  57.869  1.00  0.00     0.062 A 
ATOM     40  C   UNL     1     -19.713 -62.630  56.269  1.00  0.00     0.016 A 
ATOM     41  C   UNL     1     -20.088 -61.380  58.740  1.00  0.00     0.158 A 
ATOM     42  C   UNL     1     -18.615 -62.354  57.070  1.00  0.00     0.051 A 
ATOM     43  C   UNL     1     -18.796 -61.610  58.242  1.00  0.00     0.157 A 
BRANCH  41  44
ATOM     44  O   UNL     1     -20.292 -60.907  60.026  1.00  0.00    -0.504 OA
ATOM     45  H   UNL     1     -19.847 -61.384  60.799  1.00  0.00     0.293 HD
ENDBRANCH  41  44
BRANCH  43  46
ATOM     46  O   UNL     1     -17.723 -60.855  58.776  1.00  0.00    -0.504 OA
ATOM     47  H   UNL     1     -17.711 -60.379  59.685  1.00  0.00     0.293 HD
ENDBRANCH  43  46
ENDBRANCH  28  38
BRANCH  34  48
ATOM     48  O   UNL     1     -24.854 -59.837  57.223  1.00  0.00    -0.507 OA
ATOM     49  H   UNL     1     -25.276 -58.962  57.545  1.00  0.00     0.293 HD
ENDBRANCH  34  48
BRANCH  37  50
ATOM     50  O   UNL     1     -26.452 -58.598  53.454  1.00  0.00    -0.508 OA
ATOM     51  H   UNL     1     -25.913 -58.045  52.778  1.00  0.00     0.293 HD
ENDBRANCH  37  50
ENDBRANCH  26  27
ENDBRANCH   5  26
BRANCH   4  52
ATOM     52  O   UNL     1     -22.406 -68.281  55.912  1.00  0.00    -0.384 OA
ATOM     53  H   UNL     1     -21.618 -68.481  55.305  1.00  0.00     0.211 HD
ENDBRANCH   4  52
TORSDOF 16
ENDMDL
MODEL 8
REMARK VINA RESULT:    -5.936      2.334      7.065
REMARK INTER + INTRA:         -12.747
REMARK INTER:                 -10.840
REMARK INTRA:                  -1.907
REMARK UNBOUND:                -2.994
REMARK SMILES C[C@H]1O[C@@H](OC[C@@H]2O[C@H](Oc3c(-c4ccc(O)c(O)c4)oc4cc(O)cc(O)c4c3=O)[C@H](O)[C@H](O)[C@H]2O)[C@@H](O)[C@@H](O)[C@H]1O
REMARK SMILES IDX 7 1 36 2 34 3 32 4 9 5 8 6 6 7 5 8 4 9 1 10 2 11 42 12 3 13
REMARK SMILES IDX 40 14 38 15 43 16 41 18 39 20 37 22 35 24 10 26 11 27 12 28
REMARK SMILES IDX 30 29 21 30 29 31 31 32 22 33 27 34 23 35 26 36 24 37 13 38
REMARK SMILES IDX 20 39 14 40 18 41 15 42 16 43 19 44 17 46 28 48 25 50 33 52
REMARK H PARENT 43 17 41 19 39 21 37 23 35 25 19 45 17 47 28 49 25 51 33 53
REMARK Flexibility Score: inf
ROOT
ATOM      1  C   UNL     1     -23.972 -66.936  57.207  1.00  0.00     0.180 C 
ATOM      2  C   UNL     1     -22.967 -68.013  57.885  1.00  0.00     0.177 C 
ATOM      3  C   UNL     1     -21.356 -67.830  57.708  1.00  0.00     0.180 C 
ATOM      4  C   UNL     1     -21.146 -67.230  56.260  1.00  0.00     0.214 C 
ATOM      5  C   UNL     1     -22.056 -65.840  56.159  1.00  0.00     0.339 C 
ATOM      6  O   UNL     1     -23.414 -66.316  56.022  1.00  0.00    -0.332 OA
ENDROOT
BRANCH   1   7
ATOM      7  C   UNL     1     -25.496 -67.260  56.865  1.00  0.00     0.198 C 
BRANCH   7   8
ATOM      8  O   UNL     1     -26.134 -66.486  55.875  1.00  0.00    -0.347 OA
BRANCH   8   9
ATOM      9  C   UNL     1     -27.555 -66.315  56.163  1.00  0.00     0.281 C 
ATOM     10  C   UNL     1     -29.712 -68.743  58.223  1.00  0.00     0.041 C 
ATOM     11  C   UNL     1     -29.389 -67.430  57.240  1.00  0.00     0.150 C 
ATOM     12  C   UNL     1     -30.366 -67.190  56.092  1.00  0.00     0.174 C 
ATOM     13  O   UNL     1     -28.095 -67.580  56.621  1.00  0.00    -0.344 OA
ATOM     14  C   UNL     1     -30.001 -65.816  55.285  1.00  0.00     0.179 C 
ATOM     15  C   UNL     1     -28.446 -65.659  55.071  1.00  0.00     0.202 C 
BRANCH  12  16
ATOM     16  O   UNL     1     -30.242 -68.369  55.274  1.00  0.00    -0.388 OA
ATOM     17  H   UNL     1     -29.950 -68.027  54.367  1.00  0.00     0.211 HD
ENDBRANCH  12  16
BRANCH  14  18
ATOM     18  O   UNL     1     -30.628 -65.684  53.988  1.00  0.00    -0.387 OA
ATOM     19  H   UNL     1     -31.254 -64.894  53.998  1.00  0.00     0.211 HD
ENDBRANCH  14  18
BRANCH  15  20
ATOM     20  O   UNL     1     -28.027 -66.069  53.796  1.00  0.00    -0.385 OA
ATOM     21  H   UNL     1     -28.633 -65.593  53.151  1.00  0.00     0.211 HD
ENDBRANCH  15  20
ENDBRANCH   8   9
ENDBRANCH   7   8
ENDBRANCH   1   7
BRANCH   2  22
ATOM     22  O   UNL     1     -23.349 -68.246  59.215  1.00  0.00    -0.387 OA
ATOM     23  H   UNL     1     -23.871 -67.492  59.563  1.00  0.00     0.211 HD
ENDBRANCH   2  22
BRANCH   3  24
ATOM     24  O   UNL     1     -20.611 -69.080  57.764  1.00  0.00    -0.387 OA
ATOM     25  H   UNL     1     -21.199 -69.852  57.524  1.00  0.00     0.211 HD
ENDBRANCH   3  24
BRANCH   5  26
ATOM     26  O   UNL     1     -21.828 -64.499  55.319  1.00  0.00    -0.454 OA
BRANCH  26  27
ATOM     27  C   UNL     1     -22.623 -63.173  55.367  1.00  0.00     0.214 A 
ATOM     28  C   UNL     1     -21.905 -61.913  55.457  1.00  0.00     0.180 A 
ATOM     29  C   UNL     1     -24.062 -62.981  55.449  1.00  0.00     0.239 A 
ATOM     30  O   UNL     1     -22.472 -60.745  54.981  1.00  0.00    -0.452 OA
ATOM     31  C   UNL     1     -24.490 -61.617  55.664  1.00  0.00     0.111 A 
ATOM     32  O   UNL     1     -24.852 -63.654  54.682  1.00  0.00    -0.285 OA
ATOM     33  C   UNL     1     -23.771 -60.676  54.952  1.00  0.00     0.146 A 
ATOM     34  C   UNL     1     -25.466 -60.984  56.458  1.00  0.00     0.134 A 
ATOM     35  C   UNL     1     -24.474 -59.564  54.447  1.00  0.00     0.094 A 
ATOM     36  C   UNL     1     -26.506 -60.343  55.682  1.00  0.00     0.093 A 
ATOM     37  C   UNL     1     -25.918 -59.512  54.689  1.00  0.00     0.123 A 
BRANCH  28  38
ATOM     38  C   UNL     1     -20.751 -61.864  56.447  1.00  0.00     0.025 A 
ATOM     39  C   UNL     1     -20.970 -61.430  57.760  1.00  0.00     0.062 A 
ATOM     40  C   UNL     1     -19.450 -62.256  56.039  1.00  0.00     0.016 A 
ATOM     41  C   UNL     1     -19.848 -61.231  58.608  1.00  0.00     0.158 A 
ATOM     42  C   UNL     1     -18.354 -61.939  56.827  1.00  0.00     0.051 A 
ATOM     43  C   UNL     1     -18.559 -61.303  58.057  1.00  0.00     0.157 A 
BRANCH  41  44
ATOM     44  O   UNL     1     -20.047 -60.874  59.931  1.00  0.00    -0.504 OA
ATOM     45  H   UNL     1     -19.250 -60.599  60.490  1.00  0.00     0.293 HD
ENDBRANCH  41  44
BRANCH  43  46
ATOM     46  O   UNL     1     -17.540 -60.492  58.615  1.00  0.00    -0.504 OA
ATOM     47  H   UNL     1     -16.756 -60.817  59.191  1.00  0.00     0.293 HD
ENDBRANCH  43  46
ENDBRANCH  28  38
BRANCH  34  48
ATOM     48  O   UNL     1     -24.834 -60.178  57.416  1.00  0.00    -0.507 OA
ATOM     49  H   UNL     1     -25.345 -59.887  58.254  1.00  0.00     0.293 HD
ENDBRANCH  34  48
BRANCH  37  50
ATOM     50  O   UNL     1     -26.717 -58.754  53.849  1.00  0.00    -0.508 OA
ATOM     51  H   UNL     1     -27.667 -59.081  53.639  1.00  0.00     0.293 HD
ENDBRANCH  37  50
ENDBRANCH  26  27
ENDBRANCH   5  26
BRANCH   4  52
ATOM     52  O   UNL     1     -21.669 -68.094  55.258  1.00  0.00    -0.384 OA
ATOM     53  H   UNL     1     -22.678 -68.043  55.170  1.00  0.00     0.211 HD
ENDBRANCH   4  52
TORSDOF 16
ENDMDL
MODEL 9
REMARK VINA RESULT:    -5.879      2.590      5.900
REMARK INTER + INTRA:         -12.653
REMARK INTER:                 -10.461
REMARK INTRA:                  -2.193
REMARK UNBOUND:                -2.994
REMARK SMILES C[C@H]1O[C@@H](OC[C@@H]2O[C@H](Oc3c(-c4ccc(O)c(O)c4)oc4cc(O)cc(O)c4c3=O)[C@H](O)[C@H](O)[C@H]2O)[C@@H](O)[C@@H](O)[C@H]1O
REMARK SMILES IDX 7 1 36 2 34 3 32 4 9 5 8 6 6 7 5 8 4 9 1 10 2 11 42 12 3 13
REMARK SMILES IDX 40 14 38 15 43 16 41 18 39 20 37 22 35 24 10 26 11 27 12 28
REMARK SMILES IDX 30 29 21 30 29 31 31 32 22 33 27 34 23 35 26 36 24 37 13 38
REMARK SMILES IDX 20 39 14 40 18 41 15 42 16 43 19 44 17 46 28 48 25 50 33 52
REMARK H PARENT 43 17 41 19 39 21 37 23 35 25 19 45 17 47 28 49 25 51 33 53
REMARK Flexibility Score: inf
ROOT
ATOM      1  C   UNL     1     -23.971 -65.330  56.556  1.00  0.00     0.180 C 
ATOM      2  C   UNL     1     -23.679 -66.533  57.603  1.00  0.00     0.177 C 
ATOM      3  C   UNL     1     -22.138 -66.916  57.977  1.00  0.00     0.180 C 
ATOM      4  C   UNL     1     -21.304 -66.688  56.653  1.00  0.00     0.214 C 
ATOM      5  C   UNL     1     -21.569 -65.120  56.160  1.00  0.00     0.339 C 
ATOM      6  O   UNL     1     -22.900 -65.148  55.596  1.00  0.00    -0.332 OA
ENDROOT
BRANCH   1   7
ATOM      7  C   UNL     1     -25.332 -65.200  55.734  1.00  0.00     0.198 C 
BRANCH   7   8
ATOM      8  O   UNL     1     -26.528 -65.015  56.454  1.00  0.00    -0.347 OA
BRANCH   8   9
ATOM      9  C   UNL     1     -27.628 -65.778  55.870  1.00  0.00     0.281 C 
ATOM     10  C   UNL     1     -31.159 -64.417  55.187  1.00  0.00     0.041 C 
ATOM     11  C   UNL     1     -29.951 -65.567  55.300  1.00  0.00     0.150 C 
ATOM     12  C   UNL     1     -30.348 -66.905  55.916  1.00  0.00     0.174 C 
ATOM     13  O   UNL     1     -28.869 -65.072  56.115  1.00  0.00    -0.344 OA
ATOM     14  C   UNL     1     -29.109 -67.971  55.859  1.00  0.00     0.179 C 
ATOM     15  C   UNL     1     -27.734 -67.288  56.223  1.00  0.00     0.202 C 
BRANCH  12  16
ATOM     16  O   UNL     1     -30.737 -66.570  57.261  1.00  0.00    -0.388 OA
ATOM     17  H   UNL     1     -31.373 -67.306  57.541  1.00  0.00     0.211 HD
ENDBRANCH  12  16
BRANCH  14  18
ATOM     18  O   UNL     1     -29.257 -69.125  56.719  1.00  0.00    -0.387 OA
ATOM     19  H   UNL     1     -30.235 -69.284  56.901  1.00  0.00     0.211 HD
ENDBRANCH  14  18
BRANCH  15  20
ATOM     20  O   UNL     1     -27.357 -67.501  57.558  1.00  0.00    -0.385 OA
ATOM     21  H   UNL     1     -27.787 -66.755  58.078  1.00  0.00     0.211 HD
ENDBRANCH  15  20
ENDBRANCH   8   9
ENDBRANCH   7   8
ENDBRANCH   1   7
BRANCH   2  22
ATOM     22  O   UNL     1     -24.497 -66.385  58.734  1.00  0.00    -0.387 OA
ATOM     23  H   UNL     1     -24.678 -65.438  58.910  1.00  0.00     0.211 HD
ENDBRANCH   2  22
BRANCH   3  24
ATOM     24  O   UNL     1     -21.953 -68.307  58.363  1.00  0.00    -0.387 OA
ATOM     25  H   UNL     1     -22.483 -68.519  59.184  1.00  0.00     0.211 HD
ENDBRANCH   3  24
BRANCH   5  26
ATOM     26  O   UNL     1     -20.629 -64.100  55.365  1.00  0.00    -0.454 OA
BRANCH  26  27
ATOM     27  C   UNL     1     -19.724 -62.975  55.921  1.00  0.00     0.214 A 
ATOM     28  C   UNL     1     -20.126 -62.264  57.122  1.00  0.00     0.180 A 
ATOM     29  C   UNL     1     -18.518 -62.411  55.338  1.00  0.00     0.239 A 
ATOM     30  O   UNL     1     -19.180 -61.671  57.938  1.00  0.00    -0.452 OA
ATOM     31  C   UNL     1     -17.998 -61.241  56.011  1.00  0.00     0.111 A 
ATOM     32  O   UNL     1     -17.599 -63.186  54.869  1.00  0.00    -0.285 OA
ATOM     33  C   UNL     1     -18.059 -61.302  57.390  1.00  0.00     0.146 A 
ATOM     34  C   UNL     1     -17.453 -60.008  55.603  1.00  0.00     0.134 A 
ATOM     35  C   UNL     1     -16.996 -60.731  58.115  1.00  0.00     0.094 A 
ATOM     36  C   UNL     1     -16.062 -59.850  55.967  1.00  0.00     0.093 A 
ATOM     37  C   UNL     1     -15.892 -60.146  57.348  1.00  0.00     0.123 A 
BRANCH  28  38
ATOM     38  C   UNL     1     -21.587 -61.844  57.200  1.00  0.00     0.025 A 
ATOM     39  C   UNL     1     -22.316 -62.056  58.376  1.00  0.00     0.062 A 
ATOM     40  C   UNL     1     -22.211 -61.240  56.079  1.00  0.00     0.016 A 
ATOM     41  C   UNL     1     -23.716 -61.814  58.362  1.00  0.00     0.158 A 
ATOM     42  C   UNL     1     -23.592 -61.128  56.034  1.00  0.00     0.051 A 
ATOM     43  C   UNL     1     -24.346 -61.545  57.138  1.00  0.00     0.157 A 
BRANCH  41  44
ATOM     44  O   UNL     1     -24.442 -61.946  59.534  1.00  0.00    -0.504 OA
ATOM     45  H   UNL     1     -25.435 -61.752  59.518  1.00  0.00     0.293 HD
ENDBRANCH  41  44
BRANCH  43  46
ATOM     46  O   UNL     1     -25.687 -61.966  56.962  1.00  0.00    -0.504 OA
ATOM     47  H   UNL     1     -26.228 -61.916  56.090  1.00  0.00     0.293 HD
ENDBRANCH  43  46
ENDBRANCH  28  38
BRANCH  34  48
ATOM     48  O   UNL     1     -18.309 -58.969  55.996  1.00  0.00    -0.507 OA
ATOM     49  H   UNL     1     -19.323 -59.097  55.945  1.00  0.00     0.293 HD
ENDBRANCH  34  48
BRANCH  37  50
ATOM     50  O   UNL     1     -14.648 -60.019  57.943  1.00  0.00    -0.508 OA
ATOM     51  H   UNL     1     -14.560 -60.182  58.952  1.00  0.00     0.293 HD
ENDBRANCH  37  50
ENDBRANCH  26  27
ENDBRANCH   5  26
BRANCH   4  52
ATOM     52  O   UNL     1     -21.782 -67.502  55.589  1.00  0.00    -0.384 OA
ATOM     53  H   UNL     1     -21.214 -68.327  55.427  1.00  0.00     0.211 HD
ENDBRANCH   4  52
TORSDOF 16
ENDMDL
