MODEL 1
REMARK VINA RESULT:    -5.881      0.000      0.000
REMARK INTER + INTRA:          -6.246
REMARK INTER:                  -7.256
REMARK INTRA:                   1.010
REMARK UNBOUND:                 1.010
REMARK SMILES C=C1[C@@H]2CC[C@H]3[C@@H]2C(C)(C)CCC[C@@]13C
REMARK SMILES IDX 14 1 6 2 7 3 3 4 2 5 1 6 4 7 5 8 15 9 8 10 9 11 10 12 11 13
REMARK SMILES IDX 13 15 12 16
REMARK H PARENT
REMARK Flexibility Score: 80.00
ROOT
ATOM      1  C   UNL     1      -3.181 -16.393   9.991  1.00  0.00    -0.008 C 
ATOM      2  C   UNL     1      -3.021 -14.904   9.494  1.00  0.00     0.003 C 
ATOM      3  C   UNL     1      -3.108 -14.995   7.954  1.00  0.00     0.006 C 
ATOM      4  C   UNL     1      -2.038 -16.073   7.849  1.00  0.00     0.019 C 
ATOM      5  C   UNL     1      -2.543 -17.104   8.819  1.00  0.00    -0.068 C 
ATOM      6  C   UNL     1      -2.351 -18.424   8.697  1.00  0.00     0.009 C 
ATOM      7  C   UNL     1      -0.846 -15.365   8.533  1.00  0.00     0.008 C 
ATOM      8  C   UNL     1      -1.530 -14.479   9.604  1.00  0.00     0.005 C 
ATOM      9  C   UNL     1      -2.398 -16.714  11.294  1.00  0.00     0.016 C 
ENDROOT
BRANCH   3  10
ATOM     10  C   UNL     1      -4.494 -15.229   7.240  1.00  0.00    -0.032 C 
ATOM     11  C   UNL     1      -4.239 -15.586   5.756  1.00  0.00     0.011 C 
ATOM     12  C   UNL     1      -5.279 -13.890   7.246  1.00  0.00     0.011 C 
BRANCH  10  13
ATOM     13  C   UNL     1      -5.377 -16.361   7.836  1.00  0.00     0.007 CG0
ATOM     14  G   UNL     1      -5.704 -16.195   9.321  1.00  0.00     0.000 G0
ENDBRANCH  10  13
ENDBRANCH   3  10
BRANCH   1  15
ATOM     15  C   UNL     1      -4.659 -16.820  10.230  1.00  0.00     0.011 C 
BRANCH  15  16
ATOM     16  C   UNL     1      -5.716 -16.207   9.314  1.00  0.00     0.001 CG0
ATOM     17  G   UNL     1      -5.378 -16.355   7.829  1.00  0.00     0.000 G0
ENDBRANCH  15  16
ENDBRANCH   1  15
TORSDOF 0
ENDMDL
MODEL 2
REMARK VINA RESULT:    -5.451      1.998      3.649
REMARK INTER + INTRA:          -5.716
REMARK INTER:                  -6.756
REMARK INTRA:                   1.040
REMARK UNBOUND:                 1.010
REMARK SMILES C=C1[C@@H]2CC[C@H]3[C@@H]2C(C)(C)CCC[C@@]13C
REMARK SMILES IDX 14 1 6 2 7 3 3 4 2 5 1 6 4 7 5 8 15 9 8 10 9 11 10 12 11 13
REMARK SMILES IDX 13 15 12 16
REMARK H PARENT
REMARK Flexibility Score: 80.00
ROOT
ATOM      1  C   UNL     1      -3.362 -17.572  10.447  1.00  0.00    -0.008 C 
ATOM      2  C   UNL     1      -2.394 -17.432   9.207  1.00  0.00     0.003 C 
ATOM      3  C   UNL     1      -2.665 -16.013   8.660  1.00  0.00     0.006 C 
ATOM      4  C   UNL     1      -4.172 -16.214   8.576  1.00  0.00     0.019 C 
ATOM      5  C   UNL     1      -4.496 -16.696   9.962  1.00  0.00    -0.068 C 
ATOM      6  C   UNL     1      -5.651 -16.464  10.599  1.00  0.00     0.009 C 
ATOM      7  C   UNL     1      -4.248 -17.447   7.648  1.00  0.00     0.008 C 
ATOM      8  C   UNL     1      -2.967 -18.241   8.010  1.00  0.00     0.005 C 
ATOM      9  C   UNL     1      -3.876 -19.017  10.688  1.00  0.00     0.016 C 
ENDROOT
BRANCH   3  10
ATOM     10  C   UNL     1      -2.109 -14.742   9.411  1.00  0.00    -0.032 C 
ATOM     11  C   UNL     1      -2.762 -13.477   8.804  1.00  0.00     0.011 C 
ATOM     12  C   UNL     1      -0.586 -14.636   9.129  1.00  0.00     0.011 C 
BRANCH  10  13
ATOM     13  C   UNL     1      -2.367 -14.699  10.943  1.00  0.00     0.007 CG0
ATOM     14  G   UNL     1      -1.796 -15.888  11.716  1.00  0.00     0.000 G0
ENDBRANCH  10  13
ENDBRANCH   3  10
BRANCH   1  15
ATOM     15  C   UNL     1      -2.742 -17.079  11.786  1.00  0.00     0.011 C 
BRANCH  15  16
ATOM     16  C   UNL     1      -1.791 -15.885  11.714  1.00  0.00     0.001 CG0
ATOM     17  G   UNL     1      -2.373 -14.703  10.938  1.00  0.00     0.000 G0
ENDBRANCH  15  16
ENDBRANCH   1  15
TORSDOF 0
ENDMDL
MODEL 3
REMARK VINA RESULT:    -5.206      1.985      4.255
REMARK INTER + INTRA:          -5.413
REMARK INTER:                  -6.441
REMARK INTRA:                   1.028
REMARK UNBOUND:                 1.010
REMARK SMILES C=C1[C@@H]2CC[C@H]3[C@@H]2C(C)(C)CCC[C@@]13C
REMARK SMILES IDX 14 1 6 2 7 3 3 4 2 5 1 6 4 7 5 8 15 9 8 10 9 11 10 12 11 13
REMARK SMILES IDX 13 15 12 16
REMARK H PARENT
REMARK Flexibility Score: 80.00
ROOT
ATOM      1  C   UNL     1      -3.141 -15.060   8.614  1.00  0.00    -0.008 C 
ATOM      2  C   UNL     1      -4.216 -15.708   9.570  1.00  0.00     0.003 C 
ATOM      3  C   UNL     1      -3.391 -16.541  10.577  1.00  0.00     0.006 C 
ATOM      4  C   UNL     1      -2.619 -17.285   9.496  1.00  0.00     0.019 C 
ATOM      5  C   UNL     1      -2.096 -16.153   8.656  1.00  0.00    -0.068 C 
ATOM      6  C   UNL     1      -0.941 -16.176   7.980  1.00  0.00     0.009 C 
ATOM      7  C   UNL     1      -3.780 -17.927   8.701  1.00  0.00     0.008 C 
ATOM      8  C   UNL     1      -4.919 -16.884   8.837  1.00  0.00     0.005 C 
ATOM      9  C   UNL     1      -3.633 -14.855   7.155  1.00  0.00     0.016 C 
ENDROOT
BRANCH   3  10
ATOM     10  C   UNL     1      -2.585 -15.835  11.735  1.00  0.00    -0.032 C 
ATOM     11  C   UNL     1      -1.640 -16.871  12.390  1.00  0.00     0.011 C 
ATOM     12  C   UNL     1      -3.592 -15.396  12.832  1.00  0.00     0.011 C 
BRANCH  10  13
ATOM     13  C   UNL     1      -1.710 -14.625  11.306  1.00  0.00     0.007 CG0
ATOM     14  G   UNL     1      -2.482 -13.493  10.627  1.00  0.00     0.000 G0
ENDBRANCH  10  13
ENDBRANCH   3  10
BRANCH   1  15
ATOM     15  C   UNL     1      -2.604 -13.686   9.112  1.00  0.00     0.011 C 
BRANCH  15  16
ATOM     16  C   UNL     1      -2.479 -13.495  10.622  1.00  0.00     0.001 CG0
ATOM     17  G   UNL     1      -1.696 -14.618  11.304  1.00  0.00     0.000 G0
ENDBRANCH  15  16
ENDBRANCH   1  15
TORSDOF 0
ENDMDL
MODEL 4
REMARK VINA RESULT:    -5.065      1.517      3.260
REMARK INTER + INTRA:          -5.239
REMARK INTER:                  -6.261
REMARK INTRA:                   1.023
REMARK UNBOUND:                 1.010
REMARK SMILES C=C1[C@@H]2CC[C@H]3[C@@H]2C(C)(C)CCC[C@@]13C
REMARK SMILES IDX 14 1 6 2 7 3 3 4 2 5 1 6 4 7 5 8 15 9 8 10 9 11 10 12 11 13
REMARK SMILES IDX 13 15 12 16
REMARK H PARENT
REMARK Flexibility Score: 80.00
ROOT
ATOM      1  C   UNL     1      -4.419 -16.200   9.190  1.00  0.00    -0.008 C 
ATOM      2  C   UNL     1      -3.901 -15.340  10.408  1.00  0.00     0.003 C 
ATOM      3  C   UNL     1      -2.361 -15.385  10.292  1.00  0.00     0.006 C 
ATOM      4  C   UNL     1      -2.304 -16.905  10.206  1.00  0.00     0.019 C 
ATOM      5  C   UNL     1      -3.276 -17.187   9.095  1.00  0.00    -0.068 C 
ATOM      6  C   UNL     1      -3.182 -18.215   8.242  1.00  0.00     0.009 C 
ATOM      7  C   UNL     1      -3.010 -17.296  11.524  1.00  0.00     0.008 C 
ATOM      8  C   UNL     1      -4.046 -16.161  11.720  1.00  0.00     0.005 C 
ATOM      9  C   UNL     1      -5.748 -16.954   9.467  1.00  0.00     0.016 C 
ENDROOT
BRANCH   3  10
ATOM     10  C   UNL     1      -1.612 -14.534   9.196  1.00  0.00    -0.032 C 
ATOM     11  C   UNL     1      -0.138 -15.000   9.121  1.00  0.00     0.011 C 
ATOM     12  C   UNL     1      -1.587 -13.053   9.661  1.00  0.00     0.011 C 
BRANCH  10  13
ATOM     13  C   UNL     1      -2.193 -14.627   7.757  1.00  0.00     0.007 CG0
ATOM     14  G   UNL     1      -3.663 -14.219   7.640  1.00  0.00     0.000 G0
ENDBRANCH  10  13
ENDBRANCH   3  10
BRANCH   1  15
ATOM     15  C   UNL     1      -4.623 -15.379   7.884  1.00  0.00     0.011 C 
BRANCH  15  16
ATOM     16  C   UNL     1      -3.663 -14.218   7.636  1.00  0.00     0.001 CG0
ATOM     17  G   UNL     1      -2.192 -14.623   7.749  1.00  0.00     0.000 G0
ENDBRANCH  15  16
ENDBRANCH   1  15
TORSDOF 0
ENDMDL
MODEL 5
REMARK VINA RESULT:    -5.047      1.689      3.374
REMARK INTER + INTRA:          -5.217
REMARK INTER:                  -6.257
REMARK INTRA:                   1.040
REMARK UNBOUND:                 1.010
REMARK SMILES C=C1[C@@H]2CC[C@H]3[C@@H]2C(C)(C)CCC[C@@]13C
REMARK SMILES IDX 14 1 6 2 7 3 3 4 2 5 1 6 4 7 5 8 15 9 8 10 9 11 10 12 11 13
REMARK SMILES IDX 13 15 12 16
REMARK H PARENT
REMARK Flexibility Score: 80.00
ROOT
ATOM      1  C   UNL     1      -2.654 -14.395   9.437  1.00  0.00    -0.008 C 
ATOM      2  C   UNL     1      -4.123 -14.802   9.029  1.00  0.00     0.003 C 
ATOM      3  C   UNL     1      -4.018 -16.290   8.628  1.00  0.00     0.006 C 
ATOM      4  C   UNL     1      -2.871 -16.059   7.653  1.00  0.00     0.019 C 
ATOM      5  C   UNL     1      -1.888 -15.309   8.507  1.00  0.00    -0.068 C 
ATOM      6  C   UNL     1      -0.557 -15.375   8.375  1.00  0.00     0.009 C 
ATOM      7  C   UNL     1      -3.508 -15.025   6.697  1.00  0.00     0.008 C 
ATOM      8  C   UNL     1      -4.451 -14.220   7.627  1.00  0.00     0.005 C 
ATOM      9  C   UNL     1      -2.300 -12.914   9.132  1.00  0.00     0.016 C 
ENDROOT
BRANCH   3  10
ATOM     10  C   UNL     1      -3.865 -17.411   9.727  1.00  0.00    -0.032 C 
ATOM     11  C   UNL     1      -3.500 -18.746   9.034  1.00  0.00     0.011 C 
ATOM     12  C   UNL     1      -5.247 -17.624  10.402  1.00  0.00     0.011 C 
BRANCH  10  13
ATOM     13  C   UNL     1      -2.783 -17.148  10.811  1.00  0.00     0.007 CG0
ATOM     14  G   UNL     1      -2.981 -15.856  11.605  1.00  0.00     0.000 G0
ENDBRANCH  10  13
ENDBRANCH   3  10
BRANCH   1  15
ATOM     15  C   UNL     1      -2.328 -14.642  10.939  1.00  0.00     0.011 C 
BRANCH  15  16
ATOM     16  C   UNL     1      -2.982 -15.852  11.602  1.00  0.00     0.001 CG0
ATOM     17  G   UNL     1      -2.784 -17.147  10.812  1.00  0.00     0.000 G0
ENDBRANCH  15  16
ENDBRANCH   1  15
TORSDOF 0
ENDMDL
MODEL 6
REMARK VINA RESULT:    -4.865      1.395      3.621
REMARK INTER + INTRA:          -4.992
REMARK INTER:                  -5.996
REMARK INTRA:                   1.004
REMARK UNBOUND:                 1.010
REMARK SMILES C=C1[C@@H]2CC[C@H]3[C@@H]2C(C)(C)CCC[C@@]13C
REMARK SMILES IDX 14 1 6 2 7 3 3 4 2 5 1 6 4 7 5 8 15 9 8 10 9 11 10 12 11 13
REMARK SMILES IDX 13 15 12 16
REMARK H PARENT
REMARK Flexibility Score: 80.00
ROOT
ATOM      1  C   UNL     1      -3.739 -16.345   8.395  1.00  0.00    -0.008 C 
ATOM      2  C   UNL     1      -2.375 -16.835   9.019  1.00  0.00     0.003 C 
ATOM      3  C   UNL     1      -2.008 -15.750  10.056  1.00  0.00     0.006 C 
ATOM      4  C   UNL     1      -2.156 -14.601   9.068  1.00  0.00     0.019 C 
ATOM      5  C   UNL     1      -3.527 -14.851   8.508  1.00  0.00    -0.068 C 
ATOM      6  C   UNL     1      -4.364 -13.895   8.084  1.00  0.00     0.009 C 
ATOM      7  C   UNL     1      -1.146 -15.026   7.977  1.00  0.00     0.008 C 
ATOM      8  C   UNL     1      -1.221 -16.574   8.012  1.00  0.00     0.005 C 
ATOM      9  C   UNL     1      -3.932 -16.740   6.906  1.00  0.00     0.016 C 
ENDROOT
BRANCH   3  10
ATOM     10  C   UNL     1      -2.768 -15.667  11.436  1.00  0.00    -0.032 C 
ATOM     11  C   UNL     1      -2.419 -14.323  12.119  1.00  0.00     0.011 C 
ATOM     12  C   UNL     1      -2.225 -16.790  12.360  1.00  0.00     0.011 C 
BRANCH  10  13
ATOM     13  C   UNL     1      -4.318 -15.750  11.358  1.00  0.00     0.007 CG0
ATOM     14  G   UNL     1      -4.852 -17.010  10.674  1.00  0.00     0.000 G0
ENDBRANCH  10  13
ENDBRANCH   3  10
BRANCH   1  15
ATOM     15  C   UNL     1      -4.997 -16.841   9.166  1.00  0.00     0.011 C 
BRANCH  15  16
ATOM     16  C   UNL     1      -4.868 -16.995  10.680  1.00  0.00     0.001 CG0
ATOM     17  G   UNL     1      -4.324 -15.740  11.364  1.00  0.00     0.000 G0
ENDBRANCH  15  16
ENDBRANCH   1  15
TORSDOF 0
ENDMDL
MODEL 7
REMARK VINA RESULT:    -4.716      1.498      2.191
REMARK INTER + INTRA:          -4.808
REMARK INTER:                  -5.829
REMARK INTRA:                   1.021
REMARK UNBOUND:                 1.010
REMARK SMILES C=C1[C@@H]2CC[C@H]3[C@@H]2C(C)(C)CCC[C@@]13C
REMARK SMILES IDX 14 1 6 2 7 3 3 4 2 5 1 6 4 7 5 8 15 9 8 10 9 11 10 12 11 13
REMARK SMILES IDX 13 15 12 16
REMARK H PARENT
REMARK Flexibility Score: 80.00
ROOT
ATOM      1  C   UNL     1      -2.992 -15.141  11.107  1.00  0.00    -0.008 C 
ATOM      2  C   UNL     1      -3.184 -14.647   9.620  1.00  0.00     0.003 C 
ATOM      3  C   UNL     1      -2.962 -15.910   8.758  1.00  0.00     0.006 C 
ATOM      4  C   UNL     1      -1.624 -16.248   9.403  1.00  0.00     0.019 C 
ATOM      5  C   UNL     1      -1.975 -16.234  10.864  1.00  0.00    -0.068 C 
ATOM      6  C   UNL     1      -1.390 -16.998  11.796  1.00  0.00     0.009 C 
ATOM      7  C   UNL     1      -0.833 -14.950   9.124  1.00  0.00     0.008 C 
ATOM      8  C   UNL     1      -1.926 -13.852   9.173  1.00  0.00     0.005 C 
ATOM      9  C   UNL     1      -2.398 -14.067  12.059  1.00  0.00     0.016 C 
ENDROOT
BRANCH   3  10
ATOM     10  C   UNL     1      -4.068 -17.030   8.674  1.00  0.00    -0.032 C 
ATOM     11  C   UNL     1      -3.462 -18.282   7.995  1.00  0.00     0.011 C 
ATOM     12  C   UNL     1      -5.203 -16.526   7.743  1.00  0.00     0.011 C 
BRANCH  10  13
ATOM     13  C   UNL     1      -4.665 -17.492  10.032  1.00  0.00     0.007 CG0
ATOM     14  G   UNL     1      -5.284 -16.370  10.867  1.00  0.00     0.000 G0
ENDBRANCH  10  13
ENDBRANCH   3  10
BRANCH   1  15
ATOM     15  C   UNL     1      -4.300 -15.664  11.769  1.00  0.00     0.011 C 
BRANCH  15  16
ATOM     16  C   UNL     1      -5.294 -16.389  10.864  1.00  0.00     0.001 CG0
ATOM     17  G   UNL     1      -4.647 -17.494  10.028  1.00  0.00     0.000 G0
ENDBRANCH  15  16
ENDBRANCH   1  15
TORSDOF 0
ENDMDL
MODEL 8
REMARK VINA RESULT:    -4.626      2.107      3.840
REMARK INTER + INTRA:          -4.698
REMARK INTER:                  -5.668
REMARK INTRA:                   0.971
REMARK UNBOUND:                 1.010
REMARK SMILES C=C1[C@@H]2CC[C@H]3[C@@H]2C(C)(C)CCC[C@@]13C
REMARK SMILES IDX 14 1 6 2 7 3 3 4 2 5 1 6 4 7 5 8 15 9 8 10 9 11 10 12 11 13
REMARK SMILES IDX 13 15 12 16
REMARK H PARENT
REMARK Flexibility Score: 80.00
ROOT
ATOM      1  C   UNL     1      -3.238 -17.336   9.297  1.00  0.00    -0.008 C 
ATOM      2  C   UNL     1      -4.230 -16.128   9.077  1.00  0.00     0.003 C 
ATOM      3  C   UNL     1      -3.781 -15.064  10.104  1.00  0.00     0.006 C 
ATOM      4  C   UNL     1      -3.822 -16.026  11.283  1.00  0.00     0.019 C 
ATOM      5  C   UNL     1      -2.983 -17.167  10.778  1.00  0.00    -0.068 C 
ATOM      6  C   UNL     1      -2.227 -17.957  11.551  1.00  0.00     0.009 C 
ATOM      7  C   UNL     1      -5.293 -16.497  11.222  1.00  0.00     0.008 C 
ATOM      8  C   UNL     1      -5.609 -16.470   9.705  1.00  0.00     0.005 C 
ATOM      9  C   UNL     1      -3.868 -18.729   9.024  1.00  0.00     0.016 C 
ENDROOT
BRANCH   3  10
ATOM     10  C   UNL     1      -2.475 -14.214   9.862  1.00  0.00    -0.032 C 
ATOM     11  C   UNL     1      -2.095 -13.495  11.179  1.00  0.00     0.011 C 
ATOM     12  C   UNL     1      -2.799 -13.104   8.827  1.00  0.00     0.011 C 
BRANCH  10  13
ATOM     13  C   UNL     1      -1.225 -15.016   9.404  1.00  0.00     0.007 CG0
ATOM     14  G   UNL     1      -1.430 -15.838   8.131  1.00  0.00     0.000 G0
ENDBRANCH  10  13
ENDBRANCH   3  10
BRANCH   1  15
ATOM     15  C   UNL     1      -1.940 -17.247   8.442  1.00  0.00     0.011 C 
BRANCH  15  16
ATOM     16  C   UNL     1      -1.405 -15.850   8.135  1.00  0.00     0.001 CG0
ATOM     17  G   UNL     1      -1.214 -14.994   9.389  1.00  0.00     0.000 G0
ENDBRANCH  15  16
ENDBRANCH   1  15
TORSDOF 0
ENDMDL
MODEL 9
REMARK VINA RESULT:    -4.074      1.583      3.015
REMARK INTER + INTRA:          -4.016
REMARK INTER:                  -5.049
REMARK INTRA:                   1.034
REMARK UNBOUND:                 1.010
REMARK SMILES C=C1[C@@H]2CC[C@H]3[C@@H]2C(C)(C)CCC[C@@]13C
REMARK SMILES IDX 14 1 6 2 7 3 3 4 2 5 1 6 4 7 5 8 15 9 8 10 9 11 10 12 11 13
REMARK SMILES IDX 13 15 12 16
REMARK H PARENT
REMARK Flexibility Score: 80.00
ROOT
ATOM      1  C   UNL     1      -2.694 -16.346  10.530  1.00  0.00    -0.008 C 
ATOM      2  C   UNL     1      -2.371 -16.979   9.120  1.00  0.00     0.003 C 
ATOM      3  C   UNL     1      -3.626 -16.688   8.266  1.00  0.00     0.006 C 
ATOM      4  C   UNL     1      -4.591 -17.273   9.289  1.00  0.00     0.019 C 
ATOM      5  C   UNL     1      -4.193 -16.542  10.541  1.00  0.00    -0.068 C 
ATOM      6  C   UNL     1      -5.030 -16.225  11.537  1.00  0.00     0.009 C 
ATOM      7  C   UNL     1      -4.038 -18.711   9.419  1.00  0.00     0.008 C 
ATOM      8  C   UNL     1      -2.515 -18.524   9.202  1.00  0.00     0.005 C 
ATOM      9  C   UNL     1      -2.053 -17.102  11.725  1.00  0.00     0.016 C 
ENDROOT
BRANCH   3  10
ATOM     10  C   UNL     1      -3.900 -15.240   7.706  1.00  0.00    -0.032 C 
ATOM     11  C   UNL     1      -5.342 -15.183   7.147  1.00  0.00     0.011 C 
ATOM     12  C   UNL     1      -2.947 -14.993   6.506  1.00  0.00     0.011 C 
BRANCH  10  13
ATOM     13  C   UNL     1      -3.763 -14.083   8.735  1.00  0.00     0.007 CG0
ATOM     14  G   UNL     1      -2.393 -13.989   9.407  1.00  0.00     0.000 G0
ENDBRANCH  10  13
ENDBRANCH   3  10
BRANCH   1  15
ATOM     15  C   UNL     1      -2.275 -14.852  10.658  1.00  0.00     0.011 C 
BRANCH  15  16
ATOM     16  C   UNL     1      -2.399 -13.986   9.406  1.00  0.00     0.001 CG0
ATOM     17  G   UNL     1      -3.768 -14.101   8.733  1.00  0.00     0.000 G0
ENDBRANCH  15  16
ENDBRANCH   1  15
TORSDOF 0
ENDMDL
