MODEL 1
REMARK VINA RESULT:    -4.424      0.000      0.000
REMARK INTER + INTRA:          -9.272
REMARK INTER:                  -7.527
REMARK INTRA:                  -1.745
REMARK UNBOUND:                -1.745
REMARK SMILES CCCCCCCCCCCCCC(=O)[O-]
REMARK SMILES IDX 8 1 9 2 10 3 11 4 12 5 13 6 14 7 15 8 16 9 7 10 6 11 5 12
REMARK SMILES IDX 4 13 3 14 2 15 1 16
REMARK H PARENT
REMARK Flexibility Score: inf
ROOT
ATOM      1  C   UNL     1      19.282  -2.558  -6.277  1.00  0.00     0.000 C 
ENDROOT
BRANCH   1   2
ATOM      2  C   UNL     1      19.726  -2.377  -4.816  1.00  0.00     0.000 C 
BRANCH   2   3
ATOM      3  C   UNL     1      18.722  -2.976  -3.816  1.00  0.00     0.000 C 
BRANCH   3   4
ATOM      4  C   UNL     1      18.260  -1.954  -2.762  1.00  0.00     0.000 C 
BRANCH   4   5
ATOM      5  C   UNL     1      16.838  -1.436  -3.026  1.00  0.00     0.006 C 
BRANCH   5   6
ATOM      6  C   UNL     1      16.825  -0.099  -3.780  1.00  0.00     0.053 C 
BRANCH   6   7
ATOM      7  C   UNL     1      15.597   0.011  -4.628  1.00  0.00     0.041 C 
ATOM      8  O   UNL     1      15.560   0.829  -5.584  1.00  0.00    -0.550 OA
ATOM      9  O   UNL     1      14.476  -0.755  -4.332  1.00  0.00    -0.550 OA
ENDBRANCH   6   7
ENDBRANCH   5   6
ENDBRANCH   4   5
ENDBRANCH   3   4
ENDBRANCH   2   3
ENDBRANCH   1   2
BRANCH   1  10
ATOM     10  C   UNL     1      18.144  -1.603  -6.680  1.00  0.00     0.000 C 
BRANCH  10  11
ATOM     11  C   UNL     1      18.574  -0.148  -6.944  1.00  0.00    -0.000 C 
BRANCH  11  12
ATOM     12  C   UNL     1      19.997  -0.037  -7.512  1.00  0.00    -0.000 C 
BRANCH  12  13
ATOM     13  C   UNL     1      20.776   1.092  -6.822  1.00  0.00    -0.000 C 
BRANCH  13  14
ATOM     14  C   UNL     1      21.840   0.573  -5.838  1.00  0.00    -0.000 C 
BRANCH  14  15
ATOM     15  C   UNL     1      21.720   1.124  -4.406  1.00  0.00    -0.003 C 
ATOM     16  C   UNL     1      20.283   1.125  -3.884  1.00  0.00     0.004 C 
ENDBRANCH  14  15
ENDBRANCH  13  14
ENDBRANCH  12  13
ENDBRANCH  11  12
ENDBRANCH  10  11
ENDBRANCH   1  10
TORSDOF 12
ENDMDL
MODEL 2
REMARK VINA RESULT:    -4.117      9.596     11.131
REMARK INTER + INTRA:          -8.751
REMARK INTER:                  -7.183
REMARK INTRA:                  -1.567
REMARK UNBOUND:                -1.745
REMARK SMILES CCCCCCCCCCCCCC(=O)[O-]
REMARK SMILES IDX 8 1 9 2 10 3 11 4 12 5 13 6 14 7 15 8 16 9 7 10 6 11 5 12
REMARK SMILES IDX 4 13 3 14 2 15 1 16
REMARK H PARENT
REMARK Flexibility Score: inf
ROOT
ATOM      1  C   UNL     1      29.467  -5.268  -3.445  1.00  0.00     0.000 C 
ENDROOT
BRANCH   1   2
ATOM      2  C   UNL     1      29.538  -6.797  -3.599  1.00  0.00     0.000 C 
BRANCH   2   3
ATOM      3  C   UNL     1      28.147  -7.446  -3.683  1.00  0.00     0.000 C 
BRANCH   3   4
ATOM      4  C   UNL     1      27.025  -6.412  -3.883  1.00  0.00     0.000 C 
BRANCH   4   5
ATOM      5  C   UNL     1      26.472  -6.411  -5.317  1.00  0.00     0.006 C 
BRANCH   5   6
ATOM      6  C   UNL     1      26.854  -7.675  -6.100  1.00  0.00     0.053 C 
BRANCH   6   7
ATOM      7  C   UNL     1      27.560  -7.310  -7.367  1.00  0.00     0.041 C 
ATOM      8  O   UNL     1      28.467  -8.056  -7.824  1.00  0.00    -0.550 OA
ATOM      9  O   UNL     1      27.253  -6.122  -8.019  1.00  0.00    -0.550 OA
ENDBRANCH   6   7
ENDBRANCH   5   6
ENDBRANCH   4   5
ENDBRANCH   3   4
ENDBRANCH   2   3
ENDBRANCH   1   2
BRANCH   1  10
ATOM     10  C   UNL     1      30.116  -4.517  -4.622  1.00  0.00     0.000 C 
BRANCH  10  11
ATOM     11  C   UNL     1      29.513  -3.132  -4.925  1.00  0.00    -0.000 C 
BRANCH  11  12
ATOM     12  C   UNL     1      28.140  -3.212  -5.609  1.00  0.00    -0.000 C 
BRANCH  12  13
ATOM     13  C   UNL     1      27.030  -2.719  -4.669  1.00  0.00    -0.000 C 
BRANCH  13  14
ATOM     14  C   UNL     1      27.575  -2.136  -3.352  1.00  0.00    -0.000 C 
BRANCH  14  15
ATOM     15  C   UNL     1      27.221  -2.946  -2.092  1.00  0.00    -0.003 C 
ATOM     16  C   UNL     1      27.169  -2.090  -0.827  1.00  0.00     0.004 C 
ENDBRANCH  14  15
ENDBRANCH  13  14
ENDBRANCH  12  13
ENDBRANCH  11  12
ENDBRANCH  10  11
ENDBRANCH   1  10
TORSDOF 12
ENDMDL
MODEL 3
REMARK VINA RESULT:    -4.103      9.501     11.132
REMARK INTER + INTRA:          -8.726
REMARK INTER:                  -6.990
REMARK INTRA:                  -1.736
REMARK UNBOUND:                -1.745
REMARK SMILES CCCCCCCCCCCCCC(=O)[O-]
REMARK SMILES IDX 8 1 9 2 10 3 11 4 12 5 13 6 14 7 15 8 16 9 7 10 6 11 5 12
REMARK SMILES IDX 4 13 3 14 2 15 1 16
REMARK H PARENT
REMARK Flexibility Score: inf
ROOT
ATOM      1  C   UNL     1      26.572  -4.220  -4.778  1.00  0.00     0.000 C 
ENDROOT
BRANCH   1   2
ATOM      2  C   UNL     1      27.268  -5.178  -3.797  1.00  0.00     0.000 C 
BRANCH   2   3
ATOM      3  C   UNL     1      28.785  -4.942  -3.718  1.00  0.00     0.000 C 
BRANCH   3   4
ATOM      4  C   UNL     1      29.596  -6.194  -4.100  1.00  0.00     0.000 C 
BRANCH   4   5
ATOM      5  C   UNL     1      28.717  -7.447  -4.240  1.00  0.00     0.006 C 
BRANCH   5   6
ATOM      6  C   UNL     1      29.027  -8.250  -5.510  1.00  0.00     0.053 C 
BRANCH   6   7
ATOM      7  C   UNL     1      28.061  -7.902  -6.597  1.00  0.00     0.041 C 
ATOM      8  O   UNL     1      26.899  -7.511  -6.310  1.00  0.00    -0.550 OA
ATOM      9  O   UNL     1      28.427  -8.055  -7.929  1.00  0.00    -0.550 OA
ENDBRANCH   6   7
ENDBRANCH   5   6
ENDBRANCH   4   5
ENDBRANCH   3   4
ENDBRANCH   2   3
ENDBRANCH   1   2
BRANCH   1  10
ATOM     10  C   UNL     1      27.564  -3.333  -5.553  1.00  0.00     0.000 C 
BRANCH  10  11
ATOM     11  C   UNL     1      27.494  -1.830  -5.221  1.00  0.00    -0.000 C 
BRANCH  11  12
ATOM     12  C   UNL     1      28.871  -1.219  -4.917  1.00  0.00    -0.000 C 
BRANCH  12  13
ATOM     13  C   UNL     1      29.107  -1.127  -3.403  1.00  0.00    -0.000 C 
BRANCH  13  14
ATOM     14  C   UNL     1      27.817  -1.311  -2.583  1.00  0.00    -0.000 C 
BRANCH  14  15
ATOM     15  C   UNL     1      27.966  -2.199  -1.335  1.00  0.00    -0.003 C 
ATOM     16  C   UNL     1      26.707  -3.007  -1.022  1.00  0.00     0.004 C 
ENDBRANCH  14  15
ENDBRANCH  13  14
ENDBRANCH  12  13
ENDBRANCH  11  12
ENDBRANCH  10  11
ENDBRANCH   1  10
TORSDOF 12
ENDMDL
MODEL 4
REMARK VINA RESULT:    -4.092      9.705     11.279
REMARK INTER + INTRA:          -8.707
REMARK INTER:                  -7.026
REMARK INTRA:                  -1.681
REMARK UNBOUND:                -1.745
REMARK SMILES CCCCCCCCCCCCCC(=O)[O-]
REMARK SMILES IDX 8 1 9 2 10 3 11 4 12 5 13 6 14 7 15 8 16 9 7 10 6 11 5 12
REMARK SMILES IDX 4 13 3 14 2 15 1 16
REMARK H PARENT
REMARK Flexibility Score: inf
ROOT
ATOM      1  C   UNL     1      26.361  -4.519  -4.968  1.00  0.00     0.000 C 
ENDROOT
BRANCH   1   2
ATOM      2  C   UNL     1      26.735  -5.216  -3.649  1.00  0.00     0.000 C 
BRANCH   2   3
ATOM      3  C   UNL     1      27.039  -6.712  -3.839  1.00  0.00     0.000 C 
BRANCH   3   4
ATOM      4  C   UNL     1      28.550  -7.007  -3.855  1.00  0.00     0.000 C 
BRANCH   4   5
ATOM      5  C   UNL     1      29.048  -7.458  -5.237  1.00  0.00     0.006 C 
BRANCH   5   6
ATOM      6  C   UNL     1      27.955  -8.149  -6.065  1.00  0.00     0.053 C 
BRANCH   6   7
ATOM      7  C   UNL     1      27.897  -7.567  -7.441  1.00  0.00     0.041 C 
ATOM      8  O   UNL     1      28.550  -8.094  -8.380  1.00  0.00    -0.550 OA
ATOM      9  O   UNL     1      27.159  -6.414  -7.679  1.00  0.00    -0.550 OA
ENDBRANCH   6   7
ENDBRANCH   5   6
ENDBRANCH   4   5
ENDBRANCH   3   4
ENDBRANCH   2   3
ENDBRANCH   1   2
BRANCH   1  10
ATOM     10  C   UNL     1      27.331  -3.382  -5.340  1.00  0.00     0.000 C 
BRANCH  10  11
ATOM     11  C   UNL     1      28.825  -3.748  -5.269  1.00  0.00    -0.000 C 
BRANCH  11  12
ATOM     12  C   UNL     1      29.633  -2.796  -4.374  1.00  0.00    -0.000 C 
BRANCH  12  13
ATOM     13  C   UNL     1      29.765  -3.360  -2.952  1.00  0.00    -0.000 C 
BRANCH  13  14
ATOM     14  C   UNL     1      29.557  -2.292  -1.862  1.00  0.00    -0.000 C 
BRANCH  14  15
ATOM     15  C   UNL     1      28.128  -1.728  -1.773  1.00  0.00    -0.003 C 
ATOM     16  C   UNL     1      27.110  -2.755  -1.278  1.00  0.00     0.004 C 
ENDBRANCH  14  15
ENDBRANCH  13  14
ENDBRANCH  12  13
ENDBRANCH  11  12
ENDBRANCH  10  11
ENDBRANCH   1  10
TORSDOF 12
ENDMDL
MODEL 5
REMARK VINA RESULT:    -4.054      1.848      3.792
REMARK INTER + INTRA:          -8.643
REMARK INTER:                  -7.369
REMARK INTRA:                  -1.274
REMARK UNBOUND:                -1.745
REMARK SMILES CCCCCCCCCCCCCC(=O)[O-]
REMARK SMILES IDX 8 1 9 2 10 3 11 4 12 5 13 6 14 7 15 8 16 9 7 10 6 11 5 12
REMARK SMILES IDX 4 13 3 14 2 15 1 16
REMARK H PARENT
REMARK Flexibility Score: inf
ROOT
ATOM      1  C   UNL     1      18.080   0.337  -7.248  1.00  0.00     0.000 C 
ENDROOT
BRANCH   1   2
ATOM      2  C   UNL     1      16.758   1.122  -7.216  1.00  0.00     0.000 C 
BRANCH   2   3
ATOM      3  C   UNL     1      16.069   1.059  -5.843  1.00  0.00     0.000 C 
BRANCH   3   4
ATOM      4  C   UNL     1      15.564  -0.355  -5.501  1.00  0.00     0.000 C 
BRANCH   4   5
ATOM      5  C   UNL     1      15.536  -0.621  -3.987  1.00  0.00     0.006 C 
BRANCH   5   6
ATOM      6  C   UNL     1      16.748  -1.428  -3.505  1.00  0.00     0.053 C 
BRANCH   6   7
ATOM      7  C   UNL     1      17.041  -1.123  -2.070  1.00  0.00     0.041 C 
ATOM      8  O   UNL     1      16.105  -0.823  -1.283  1.00  0.00    -0.550 OA
ATOM      9  O   UNL     1      18.353  -1.120  -1.612  1.00  0.00    -0.550 OA
ENDBRANCH   6   7
ENDBRANCH   5   6
ENDBRANCH   4   5
ENDBRANCH   3   4
ENDBRANCH   2   3
ENDBRANCH   1   2
BRANCH   1  10
ATOM     10  C   UNL     1      19.255   1.116  -6.628  1.00  0.00     0.000 C 
BRANCH  10  11
ATOM     11  C   UNL     1      20.642   0.478  -6.831  1.00  0.00    -0.000 C 
BRANCH  11  12
ATOM     12  C   UNL     1      21.296   0.033  -5.514  1.00  0.00    -0.000 C 
BRANCH  12  13
ATOM     13  C   UNL     1      20.253  -0.570  -4.561  1.00  0.00    -0.000 C 
BRANCH  13  14
ATOM     14  C   UNL     1      20.151  -2.102  -4.677  1.00  0.00    -0.000 C 
BRANCH  14  15
ATOM     15  C   UNL     1      18.929  -2.611  -5.462  1.00  0.00    -0.003 C 
ATOM     16  C   UNL     1      19.267  -3.014  -6.898  1.00  0.00     0.004 C 
ENDBRANCH  14  15
ENDBRANCH  13  14
ENDBRANCH  12  13
ENDBRANCH  11  12
ENDBRANCH  10  11
ENDBRANCH   1  10
TORSDOF 12
ENDMDL
MODEL 6
REMARK VINA RESULT:    -3.997      9.422     11.294
REMARK INTER + INTRA:          -8.546
REMARK INTER:                  -6.850
REMARK INTRA:                  -1.697
REMARK UNBOUND:                -1.745
REMARK SMILES CCCCCCCCCCCCCC(=O)[O-]
REMARK SMILES IDX 8 1 9 2 10 3 11 4 12 5 13 6 14 7 15 8 16 9 7 10 6 11 5 12
REMARK SMILES IDX 4 13 3 14 2 15 1 16
REMARK H PARENT
REMARK Flexibility Score: inf
ROOT
ATOM      1  C   UNL     1      28.949  -3.931  -5.334  1.00  0.00     0.000 C 
ENDROOT
BRANCH   1   2
ATOM      2  C   UNL     1      27.420  -4.014  -5.478  1.00  0.00     0.000 C 
BRANCH   2   3
ATOM      3  C   UNL     1      26.690  -2.955  -4.637  1.00  0.00     0.000 C 
BRANCH   3   4
ATOM      4  C   UNL     1      27.553  -1.705  -4.386  1.00  0.00     0.000 C 
BRANCH   4   5
ATOM      5  C   UNL     1      27.581  -1.294  -2.906  1.00  0.00     0.006 C 
BRANCH   5   6
ATOM      6  C   UNL     1      28.286  -2.329  -2.017  1.00  0.00     0.053 C 
BRANCH   6   7
ATOM      7  C   UNL     1      27.395  -2.740  -0.888  1.00  0.00     0.041 C 
ATOM      8  O   UNL     1      26.277  -3.270  -1.124  1.00  0.00    -0.550 OA
ATOM      9  O   UNL     1      27.777  -2.495   0.425  1.00  0.00    -0.550 OA
ENDBRANCH   6   7
ENDBRANCH   5   6
ENDBRANCH   4   5
ENDBRANCH   3   4
ENDBRANCH   2   3
ENDBRANCH   1   2
BRANCH   1  10
ATOM     10  C   UNL     1      29.518  -4.982  -4.364  1.00  0.00     0.000 C 
BRANCH  10  11
ATOM     11  C   UNL     1      28.463  -5.805  -3.601  1.00  0.00    -0.000 C 
BRANCH  11  12
ATOM     12  C   UNL     1      28.724  -7.318  -3.662  1.00  0.00    -0.000 C 
BRANCH  12  13
ATOM     13  C   UNL     1      29.582  -7.677  -4.884  1.00  0.00    -0.000 C 
BRANCH  13  14
ATOM     14  C   UNL     1      28.796  -8.439  -5.966  1.00  0.00    -0.000 C 
BRANCH  14  15
ATOM     15  C   UNL     1      28.044  -7.546  -6.969  1.00  0.00    -0.003 C 
ATOM     16  C   UNL     1      26.573  -7.345  -6.606  1.00  0.00     0.004 C 
ENDBRANCH  14  15
ENDBRANCH  13  14
ENDBRANCH  12  13
ENDBRANCH  11  12
ENDBRANCH  10  11
ENDBRANCH   1  10
TORSDOF 12
ENDMDL
MODEL 7
REMARK VINA RESULT:    -3.862      1.632      2.943
REMARK INTER + INTRA:          -8.317
REMARK INTER:                  -7.141
REMARK INTRA:                  -1.176
REMARK UNBOUND:                -1.745
REMARK SMILES CCCCCCCCCCCCCC(=O)[O-]
REMARK SMILES IDX 8 1 9 2 10 3 11 4 12 5 13 6 14 7 15 8 16 9 7 10 6 11 5 12
REMARK SMILES IDX 4 13 3 14 2 15 1 16
REMARK H PARENT
REMARK Flexibility Score: inf
ROOT
ATOM      1  C   UNL     1      18.833  -2.938  -3.970  1.00  0.00     0.000 C 
ENDROOT
BRANCH   1   2
ATOM      2  C   UNL     1      17.784  -2.244  -3.085  1.00  0.00     0.000 C 
BRANCH   2   3
ATOM      3  C   UNL     1      17.398  -0.851  -3.610  1.00  0.00     0.000 C 
BRANCH   3   4
ATOM      4  C   UNL     1      15.938  -0.789  -4.096  1.00  0.00     0.000 C 
BRANCH   4   5
ATOM      5  C   UNL     1      15.687   0.381  -5.061  1.00  0.00     0.006 C 
BRANCH   5   6
ATOM      6  C   UNL     1      16.986   1.046  -5.536  1.00  0.00     0.053 C 
BRANCH   6   7
ATOM      7  C   UNL     1      17.189   0.808  -6.999  1.00  0.00     0.041 C 
ATOM      8  O   UNL     1      18.331   0.509  -7.439  1.00  0.00    -0.550 OA
ATOM      9  O   UNL     1      16.129   0.963  -7.884  1.00  0.00    -0.550 OA
ENDBRANCH   6   7
ENDBRANCH   5   6
ENDBRANCH   4   5
ENDBRANCH   3   4
ENDBRANCH   2   3
ENDBRANCH   1   2
BRANCH   1  10
ATOM     10  C   UNL     1      19.293  -2.063  -5.151  1.00  0.00     0.000 C 
BRANCH  10  11
ATOM     11  C   UNL     1      20.647  -1.357  -4.953  1.00  0.00    -0.000 C 
BRANCH  11  12
ATOM     12  C   UNL     1      20.518   0.171  -4.853  1.00  0.00    -0.000 C 
BRANCH  12  13
ATOM     13  C   UNL     1      21.901   0.838  -4.846  1.00  0.00    -0.000 C 
BRANCH  13  14
ATOM     14  C   UNL     1      22.551   0.886  -6.241  1.00  0.00    -0.000 C 
BRANCH  14  15
ATOM     15  C   UNL     1      21.570   1.124  -7.403  1.00  0.00    -0.003 C 
ATOM     16  C   UNL     1      21.595   0.007  -8.446  1.00  0.00     0.004 C 
ENDBRANCH  14  15
ENDBRANCH  13  14
ENDBRANCH  12  13
ENDBRANCH  11  12
ENDBRANCH  10  11
ENDBRANCH   1  10
TORSDOF 12
ENDMDL
MODEL 8
REMARK VINA RESULT:    -3.858      9.469     11.121
REMARK INTER + INTRA:          -8.309
REMARK INTER:                  -7.313
REMARK INTRA:                  -0.996
REMARK UNBOUND:                -1.745
REMARK SMILES CCCCCCCCCCCCCC(=O)[O-]
REMARK SMILES IDX 8 1 9 2 10 3 11 4 12 5 13 6 14 7 15 8 16 9 7 10 6 11 5 12
REMARK SMILES IDX 4 13 3 14 2 15 1 16
REMARK H PARENT
REMARK Flexibility Score: inf
ROOT
ATOM      1  C   UNL     1      26.374  -4.669  -4.582  1.00  0.00     0.000 C 
ENDROOT
BRANCH   1   2
ATOM      2  C   UNL     1      27.260  -5.394  -3.555  1.00  0.00     0.000 C 
BRANCH   2   3
ATOM      3  C   UNL     1      28.760  -5.157  -3.799  1.00  0.00     0.000 C 
BRANCH   3   4
ATOM      4  C   UNL     1      29.554  -6.472  -3.901  1.00  0.00     0.000 C 
BRANCH   4   5
ATOM      5  C   UNL     1      28.670  -7.666  -4.293  1.00  0.00     0.006 C 
BRANCH   5   6
ATOM      6  C   UNL     1      29.085  -8.298  -5.629  1.00  0.00     0.053 C 
BRANCH   6   7
ATOM      7  C   UNL     1      28.101  -7.948  -6.699  1.00  0.00     0.041 C 
ATOM      8  O   UNL     1      28.430  -8.027  -7.912  1.00  0.00    -0.550 OA
ATOM      9  O   UNL     1      26.836  -7.486  -6.358  1.00  0.00    -0.550 OA
ENDBRANCH   6   7
ENDBRANCH   5   6
ENDBRANCH   4   5
ENDBRANCH   3   4
ENDBRANCH   2   3
ENDBRANCH   1   2
BRANCH   1  10
ATOM     10  C   UNL     1      27.118  -3.546  -5.328  1.00  0.00     0.000 C 
BRANCH  10  11
ATOM     11  C   UNL     1      27.001  -2.149  -4.692  1.00  0.00    -0.000 C 
BRANCH  11  12
ATOM     12  C   UNL     1      28.110  -1.188  -5.148  1.00  0.00    -0.000 C 
BRANCH  12  13
ATOM     13  C   UNL     1      27.542  -0.087  -6.056  1.00  0.00    -0.000 C 
BRANCH  13  14
ATOM     14  C   UNL     1      27.983  -0.234  -7.524  1.00  0.00    -0.000 C 
BRANCH  14  15
ATOM     15  C   UNL     1      29.502  -0.357  -7.732  1.00  0.00    -0.003 C 
ATOM     16  C   UNL     1      29.927  -1.735  -8.238  1.00  0.00     0.004 C 
ENDBRANCH  14  15
ENDBRANCH  13  14
ENDBRANCH  12  13
ENDBRANCH  11  12
ENDBRANCH  10  11
ENDBRANCH   1  10
TORSDOF 12
ENDMDL
