MODEL 1
REMARK VINA RESULT:    -3.961      0.000      0.000
REMARK INTER + INTRA:          -6.059
REMARK INTER:                  -5.814
REMARK INTRA:                  -0.245
REMARK UNBOUND:                -0.245
REMARK SMILES O=C([O-])CCCCCCCC(=O)[O-]
REMARK SMILES IDX 7 1 6 2 5 3 4 4 2 5 1 6 3 7 8 8 9 9 10 10 11 11 12 12 13 13
REMARK H PARENT
REMARK Flexibility Score: inf
ROOT
ATOM      1  C   UNL     1      10.870 -11.128  15.162  1.00  0.00     0.000 C 
ENDROOT
BRANCH   1   2
ATOM      2  C   UNL     1      11.905 -11.656  16.169  1.00  0.00     0.000 C 
BRANCH   2   3
ATOM      3  C   UNL     1      11.659 -11.140  17.595  1.00  0.00     0.006 C 
BRANCH   3   4
ATOM      4  C   UNL     1      12.353  -9.793  17.817  1.00  0.00     0.053 C 
BRANCH   4   5
ATOM      5  C   UNL     1      13.650  -9.984  18.536  1.00  0.00     0.041 C 
ATOM      6  O   UNL     1      14.734 -10.000  17.896  1.00  0.00    -0.550 OA
ATOM      7  O   UNL     1      13.667 -10.094  19.921  1.00  0.00    -0.550 OA
ENDBRANCH   4   5
ENDBRANCH   3   4
ENDBRANCH   2   3
ENDBRANCH   1   2
BRANCH   1   8
ATOM      8  C   UNL     1      11.509 -10.274  14.052  1.00  0.00     0.000 C 
BRANCH   8   9
ATOM      9  C   UNL     1      10.786 -10.422  12.705  1.00  0.00     0.006 C 
BRANCH   9  10
ATOM     10  C   UNL     1      10.460  -9.069  12.059  1.00  0.00     0.053 C 
BRANCH  10  11
ATOM     11  C   UNL     1       9.340  -9.215  11.077  1.00  0.00     0.041 C 
ATOM     12  O   UNL     1       8.332  -9.910  11.365  1.00  0.00    -0.550 OA
ATOM     13  O   UNL     1       9.389  -8.543   9.862  1.00  0.00    -0.550 OA
ENDBRANCH  10  11
ENDBRANCH   9  10
ENDBRANCH   8   9
ENDBRANCH   1   8
TORSDOF 8
ENDMDL
MODEL 2
REMARK VINA RESULT:    -3.939      2.154      7.354
REMARK INTER + INTRA:          -6.026
REMARK INTER:                  -5.844
REMARK INTRA:                  -0.182
REMARK UNBOUND:                -0.245
REMARK SMILES O=C([O-])CCCCCCCC(=O)[O-]
REMARK SMILES IDX 7 1 6 2 5 3 4 4 2 5 1 6 3 7 8 8 9 9 10 10 11 11 12 12 13 13
REMARK H PARENT
REMARK Flexibility Score: inf
ROOT
ATOM      1  C   UNL     1      11.226 -11.008  15.226  1.00  0.00     0.000 C 
ENDROOT
BRANCH   1   2
ATOM      2  C   UNL     1      11.566 -10.299  13.905  1.00  0.00     0.000 C 
BRANCH   2   3
ATOM      3  C   UNL     1      10.423 -10.375  12.882  1.00  0.00     0.006 C 
BRANCH   3   4
ATOM      4  C   UNL     1      10.446  -9.164  11.945  1.00  0.00     0.053 C 
BRANCH   4   5
ATOM      5  C   UNL     1       9.295  -9.218  10.991  1.00  0.00     0.041 C 
ATOM      6  O   UNL     1       8.274  -9.901  11.267  1.00  0.00    -0.550 OA
ATOM      7  O   UNL     1       9.329  -8.475   9.819  1.00  0.00    -0.550 OA
ENDBRANCH   4   5
ENDBRANCH   3   4
ENDBRANCH   2   3
ENDBRANCH   1   2
BRANCH   1   8
ATOM      8  C   UNL     1      12.216 -10.662  16.354  1.00  0.00     0.000 C 
BRANCH   8   9
ATOM      9  C   UNL     1      12.567 -11.880  17.223  1.00  0.00     0.006 C 
BRANCH   9  10
ATOM     10  C   UNL     1      14.073 -12.176  17.241  1.00  0.00     0.053 C 
BRANCH  10  11
ATOM     11  C   UNL     1      14.344 -13.538  16.684  1.00  0.00     0.041 C 
ATOM     12  O   UNL     1      14.986 -13.667  15.609  1.00  0.00    -0.550 OA
ATOM     13  O   UNL     1      13.929 -14.668  17.378  1.00  0.00    -0.550 OA
ENDBRANCH  10  11
ENDBRANCH   9  10
ENDBRANCH   8   9
ENDBRANCH   1   8
TORSDOF 8
ENDMDL
MODEL 3
REMARK VINA RESULT:    -3.764      2.541      6.610
REMARK INTER + INTRA:          -5.770
REMARK INTER:                  -5.395
REMARK INTRA:                  -0.375
REMARK UNBOUND:                -0.245
REMARK SMILES O=C([O-])CCCCCCCC(=O)[O-]
REMARK SMILES IDX 7 1 6 2 5 3 4 4 2 5 1 6 3 7 8 8 9 9 10 10 11 11 12 12 13 13
REMARK H PARENT
REMARK Flexibility Score: inf
ROOT
ATOM      1  C   UNL     1      10.574 -10.369  11.933  1.00  0.00     0.000 C 
ENDROOT
BRANCH   1   2
ATOM      2  C   UNL     1       9.294  -9.557  11.676  1.00  0.00     0.000 C 
BRANCH   2   3
ATOM      3  C   UNL     1       8.064 -10.448  11.448  1.00  0.00     0.006 C 
BRANCH   3   4
ATOM      4  C   UNL     1       7.019 -10.230  12.546  1.00  0.00     0.053 C 
BRANCH   4   5
ATOM      5  C   UNL     1       6.962 -11.414  13.458  1.00  0.00     0.041 C 
ATOM      6  O   UNL     1       7.739 -11.491  14.446  1.00  0.00    -0.550 OA
ATOM      7  O   UNL     1       6.017 -12.409  13.246  1.00  0.00    -0.550 OA
ENDBRANCH   4   5
ENDBRANCH   3   4
ENDBRANCH   2   3
ENDBRANCH   1   2
BRANCH   1   8
ATOM      8  C   UNL     1      11.328  -9.901  13.191  1.00  0.00     0.000 C 
BRANCH   8   9
ATOM      9  C   UNL     1      10.991 -10.747  14.429  1.00  0.00     0.006 C 
BRANCH   9  10
ATOM     10  C   UNL     1      12.150 -10.812  15.432  1.00  0.00     0.053 C 
BRANCH  10  11
ATOM     11  C   UNL     1      11.646 -10.608  16.826  1.00  0.00     0.041 C 
ATOM     12  O   UNL     1      10.837 -11.428  17.333  1.00  0.00    -0.550 OA
ATOM     13  O   UNL     1      12.108  -9.540  17.583  1.00  0.00    -0.550 OA
ENDBRANCH  10  11
ENDBRANCH   9  10
ENDBRANCH   8   9
ENDBRANCH   1   8
TORSDOF 8
ENDMDL
MODEL 4
REMARK VINA RESULT:    -3.720      1.761      6.995
REMARK INTER + INTRA:          -5.705
REMARK INTER:                  -5.381
REMARK INTRA:                  -0.324
REMARK UNBOUND:                -0.245
REMARK SMILES O=C([O-])CCCCCCCC(=O)[O-]
REMARK SMILES IDX 7 1 6 2 5 3 4 4 2 5 1 6 3 7 8 8 9 9 10 10 11 11 12 12 13 13
REMARK H PARENT
REMARK Flexibility Score: inf
ROOT
ATOM      1  C   UNL     1      11.566 -10.288  15.486  1.00  0.00     0.000 C 
ENDROOT
BRANCH   1   2
ATOM      2  C   UNL     1      11.727 -10.622  13.994  1.00  0.00     0.000 C 
BRANCH   2   3
ATOM      3  C   UNL     1      10.428 -10.419  13.199  1.00  0.00     0.006 C 
BRANCH   3   4
ATOM      4  C   UNL     1      10.593  -9.309  12.156  1.00  0.00     0.053 C 
BRANCH   4   5
ATOM      5  C   UNL     1       9.446  -9.318  11.196  1.00  0.00     0.041 C 
ATOM      6  O   UNL     1       9.520  -8.679  10.114  1.00  0.00    -0.550 OA
ATOM      7  O   UNL     1       8.314 -10.073  11.474  1.00  0.00    -0.550 OA
ENDBRANCH   4   5
ENDBRANCH   3   4
ENDBRANCH   2   3
ENDBRANCH   1   2
BRANCH   1   8
ATOM      8  C   UNL     1      12.446 -11.172  16.388  1.00  0.00     0.000 C 
BRANCH   8   9
ATOM      9  C   UNL     1      11.759 -12.492  16.769  1.00  0.00     0.006 C 
BRANCH   9  10
ATOM     10  C   UNL     1      11.609 -12.661  18.287  1.00  0.00     0.053 C 
BRANCH  10  11
ATOM     11  C   UNL     1      10.670 -11.633  18.837  1.00  0.00     0.041 C 
ATOM     12  O   UNL     1       9.465 -11.618  18.474  1.00  0.00    -0.550 OA
ATOM     13  O   UNL     1      11.115 -10.723  19.787  1.00  0.00    -0.550 OA
ENDBRANCH  10  11
ENDBRANCH   9  10
ENDBRANCH   8   9
ENDBRANCH   1   8
TORSDOF 8
ENDMDL
MODEL 5
REMARK VINA RESULT:    -3.717      1.790      2.105
REMARK INTER + INTRA:          -5.701
REMARK INTER:                  -5.412
REMARK INTRA:                  -0.289
REMARK UNBOUND:                -0.245
REMARK SMILES O=C([O-])CCCCCCCC(=O)[O-]
REMARK SMILES IDX 7 1 6 2 5 3 4 4 2 5 1 6 3 7 8 8 9 9 10 10 11 11 12 12 13 13
REMARK H PARENT
REMARK Flexibility Score: inf
ROOT
ATOM      1  C   UNL     1      11.188 -11.708  15.800  1.00  0.00     0.000 C 
ENDROOT
BRANCH   1   2
ATOM      2  C   UNL     1      10.689 -11.446  17.230  1.00  0.00     0.000 C 
BRANCH   2   3
ATOM      3  C   UNL     1      11.572 -12.111  18.296  1.00  0.00     0.006 C 
BRANCH   3   4
ATOM      4  C   UNL     1      12.332 -13.305  17.710  1.00  0.00     0.053 C 
BRANCH   4   5
ATOM      5  C   UNL     1      13.807 -13.120  17.877  1.00  0.00     0.041 C 
ATOM      6  O   UNL     1      14.537 -14.096  18.192  1.00  0.00    -0.550 OA
ATOM      7  O   UNL     1      14.383 -11.880  17.634  1.00  0.00    -0.550 OA
ENDBRANCH   4   5
ENDBRANCH   3   4
ENDBRANCH   2   3
ENDBRANCH   1   2
BRANCH   1   8
ATOM      8  C   UNL     1      11.305 -10.417  14.969  1.00  0.00     0.000 C 
BRANCH   8   9
ATOM      9  C   UNL     1      11.052 -10.656  13.472  1.00  0.00     0.006 C 
BRANCH   9  10
ATOM     10  C   UNL     1      10.849  -9.349  12.693  1.00  0.00     0.053 C 
BRANCH  10  11
ATOM     11  C   UNL     1       9.729  -9.495  11.711  1.00  0.00     0.041 C 
ATOM     12  O   UNL     1       8.791 -10.305  11.936  1.00  0.00    -0.550 OA
ATOM     13  O   UNL     1       9.696  -8.702  10.572  1.00  0.00    -0.550 OA
ENDBRANCH  10  11
ENDBRANCH   9  10
ENDBRANCH   8   9
ENDBRANCH   1   8
TORSDOF 8
ENDMDL
MODEL 6
REMARK VINA RESULT:    -3.623      1.048      7.446
REMARK INTER + INTRA:          -5.563
REMARK INTER:                  -5.340
REMARK INTRA:                  -0.223
REMARK UNBOUND:                -0.245
REMARK SMILES O=C([O-])CCCCCCCC(=O)[O-]
REMARK SMILES IDX 7 1 6 2 5 3 4 4 2 5 1 6 3 7 8 8 9 9 10 10 11 11 12 12 13 13
REMARK H PARENT
REMARK Flexibility Score: inf
ROOT
ATOM      1  C   UNL     1      11.982 -10.965  15.554  1.00  0.00     0.000 C 
ENDROOT
BRANCH   1   2
ATOM      2  C   UNL     1      10.870 -10.944  14.493  1.00  0.00     0.000 C 
BRANCH   2   3
ATOM      3  C   UNL     1      11.028  -9.789  13.494  1.00  0.00     0.006 C 
BRANCH   3   4
ATOM      4  C   UNL     1      10.749 -10.260  12.064  1.00  0.00     0.053 C 
BRANCH   4   5
ATOM      5  C   UNL     1       9.529  -9.586  11.519  1.00  0.00     0.041 C 
ATOM      6  O   UNL     1       9.640  -8.670  10.663  1.00  0.00    -0.550 OA
ATOM      7  O   UNL     1       8.267 -10.005  11.919  1.00  0.00    -0.550 OA
ENDBRANCH   4   5
ENDBRANCH   3   4
ENDBRANCH   2   3
ENDBRANCH   1   2
BRANCH   1   8
ATOM      8  C   UNL     1      11.452 -10.686  16.972  1.00  0.00     0.000 C 
BRANCH   8   9
ATOM      9  C   UNL     1      12.317  -9.671  17.736  1.00  0.00     0.006 C 
BRANCH   9  10
ATOM     10  C   UNL     1      13.721 -10.207  18.044  1.00  0.00     0.053 C 
BRANCH  10  11
ATOM     11  C   UNL     1      13.957 -10.232  19.522  1.00  0.00     0.041 C 
ATOM     12  O   UNL     1      14.298 -11.302  20.091  1.00  0.00    -0.550 OA
ATOM     13  O   UNL     1      13.847  -9.063  20.263  1.00  0.00    -0.550 OA
ENDBRANCH  10  11
ENDBRANCH   9  10
ENDBRANCH   8   9
ENDBRANCH   1   8
TORSDOF 8
ENDMDL
MODEL 7
REMARK VINA RESULT:    -3.425      1.950      2.397
REMARK INTER + INTRA:          -5.272
REMARK INTER:                  -4.998
REMARK INTRA:                  -0.274
REMARK UNBOUND:                -0.245
REMARK SMILES O=C([O-])CCCCCCCC(=O)[O-]
REMARK SMILES IDX 7 1 6 2 5 3 4 4 2 5 1 6 3 7 8 8 9 9 10 10 11 11 12 12 13 13
REMARK H PARENT
REMARK Flexibility Score: inf
ROOT
ATOM      1  C   UNL     1      12.152 -10.940  15.408  1.00  0.00     0.000 C 
ENDROOT
BRANCH   1   2
ATOM      2  C   UNL     1      11.838 -10.672  16.889  1.00  0.00     0.000 C 
BRANCH   2   3
ATOM      3  C   UNL     1      10.843 -11.685  17.476  1.00  0.00     0.006 C 
BRANCH   3   4
ATOM      4  C   UNL     1      11.575 -12.791  18.241  1.00  0.00     0.053 C 
BRANCH   4   5
ATOM      5  C   UNL     1      11.298 -12.686  19.707  1.00  0.00     0.041 C 
ATOM      6  O   UNL     1      10.755 -11.653  20.177  1.00  0.00    -0.550 OA
ATOM      7  O   UNL     1      11.593 -13.752  20.547  1.00  0.00    -0.550 OA
ENDBRANCH   4   5
ENDBRANCH   3   4
ENDBRANCH   2   3
ENDBRANCH   1   2
BRANCH   1   8
ATOM      8  C   UNL     1      10.893 -10.914  14.524  1.00  0.00     0.000 C 
BRANCH   8   9
ATOM      9  C   UNL     1      10.909  -9.761  13.508  1.00  0.00     0.006 C 
BRANCH   9  10
ATOM     10  C   UNL     1      10.703 -10.242  12.066  1.00  0.00     0.053 C 
BRANCH  10  11
ATOM     11  C   UNL     1       9.458  -9.644  11.489  1.00  0.00     0.041 C 
ATOM     12  O   UNL     1       8.330  -9.966  11.946  1.00  0.00    -0.550 OA
ATOM     13  O   UNL     1       9.547  -8.694  10.480  1.00  0.00    -0.550 OA
ENDBRANCH  10  11
ENDBRANCH   9  10
ENDBRANCH   8   9
ENDBRANCH   1   8
TORSDOF 8
ENDMDL
MODEL 8
REMARK VINA RESULT:    -3.289     10.822     13.539
REMARK INTER + INTRA:          -5.072
REMARK INTER:                  -4.287
REMARK INTRA:                  -0.785
REMARK UNBOUND:                -0.245
REMARK SMILES O=C([O-])CCCCCCCC(=O)[O-]
REMARK SMILES IDX 7 1 6 2 5 3 4 4 2 5 1 6 3 7 8 8 9 9 10 10 11 11 12 12 13 13
REMARK H PARENT
REMARK Flexibility Score: inf
ROOT
ATOM      1  C   UNL     1       2.308  -1.573  10.966  1.00  0.00     0.000 C 
ENDROOT
BRANCH   1   2
ATOM      2  C   UNL     1       0.844  -1.557  10.497  1.00  0.00     0.000 C 
BRANCH   2   3
ATOM      3  C   UNL     1       0.678  -2.073   9.059  1.00  0.00     0.006 C 
BRANCH   3   4
ATOM      4  C   UNL     1       0.544  -3.599   9.038  1.00  0.00     0.053 C 
BRANCH   4   5
ATOM      5  C   UNL     1       1.582  -4.203   8.147  1.00  0.00     0.041 C 
ATOM      6  O   UNL     1       2.773  -4.307   8.540  1.00  0.00    -0.550 OA
ATOM      7  O   UNL     1       1.224  -4.698   6.900  1.00  0.00    -0.550 OA
ENDBRANCH   4   5
ENDBRANCH   3   4
ENDBRANCH   2   3
ENDBRANCH   1   2
BRANCH   1   8
ATOM      8  C   UNL     1       2.493  -2.323  12.298  1.00  0.00     0.000 C 
BRANCH   8   9
ATOM      9  C   UNL     1       2.944  -3.778  12.097  1.00  0.00     0.006 C 
BRANCH   9  10
ATOM     10  C   UNL     1       1.850  -4.789  12.461  1.00  0.00     0.053 C 
BRANCH  10  11
ATOM     11  C   UNL     1       2.211  -6.153  11.960  1.00  0.00     0.041 C 
ATOM     12  O   UNL     1       2.903  -6.926  12.672  1.00  0.00    -0.550 OA
ATOM     13  O   UNL     1       1.743  -6.587  10.727  1.00  0.00    -0.550 OA
ENDBRANCH  10  11
ENDBRANCH   9  10
ENDBRANCH   8   9
ENDBRANCH   1   8
TORSDOF 8
ENDMDL
MODEL 9
REMARK VINA RESULT:    -3.286      3.564      7.216
REMARK INTER + INTRA:          -5.068
REMARK INTER:                  -4.391
REMARK INTRA:                  -0.677
REMARK UNBOUND:                -0.245
REMARK SMILES O=C([O-])CCCCCCCC(=O)[O-]
REMARK SMILES IDX 7 1 6 2 5 3 4 4 2 5 1 6 3 7 8 8 9 9 10 10 11 11 12 12 13 13
REMARK H PARENT
REMARK Flexibility Score: inf
ROOT
ATOM      1  C   UNL     1      13.718 -11.688  19.514  1.00  0.00     0.000 C 
ENDROOT
BRANCH   1   2
ATOM      2  C   UNL     1      13.776 -10.316  18.822  1.00  0.00     0.000 C 
BRANCH   2   3
ATOM      3  C   UNL     1      13.538 -10.408  17.307  1.00  0.00     0.006 C 
BRANCH   3   4
ATOM      4  C   UNL     1      12.099 -10.023  16.954  1.00  0.00     0.053 C 
BRANCH   4   5
ATOM      5  C   UNL     1      11.551 -10.943  15.909  1.00  0.00     0.041 C 
ATOM      6  O   UNL     1      11.257 -12.131  16.202  1.00  0.00    -0.550 OA
ATOM      7  O   UNL     1      11.319 -10.473  14.623  1.00  0.00    -0.550 OA
ENDBRANCH   4   5
ENDBRANCH   3   4
ENDBRANCH   2   3
ENDBRANCH   1   2
BRANCH   1   8
ATOM      8  C   UNL     1      13.879 -12.856  18.525  1.00  0.00     0.000 C 
BRANCH   8   9
ATOM      9  C   UNL     1      12.894 -14.003  18.802  1.00  0.00     0.006 C 
BRANCH   9  10
ATOM     10  C   UNL     1      11.600 -13.519  19.470  1.00  0.00     0.053 C 
BRANCH  10  11
ATOM     11  C   UNL     1      11.023 -14.597  20.333  1.00  0.00     0.041 C 
ATOM     12  O   UNL     1      11.484 -15.767  20.278  1.00  0.00    -0.550 OA
ATOM     13  O   UNL     1      10.008 -14.299  21.233  1.00  0.00    -0.550 OA
ENDBRANCH  10  11
ENDBRANCH   9  10
ENDBRANCH   8   9
ENDBRANCH   1   8
TORSDOF 8
ENDMDL
