MODEL 1
REMARK VINA RESULT:    30.499      0.000      0.000
REMARK INTER + INTRA:          33.173
REMARK INTER:                  33.173
REMARK INTRA:                   0.000
REMARK UNBOUND:                 0.000
REMARK SMILES Cc1cc(O)c2c(c1)C(=O)c1cc(O)cc(O)c1C2=O
REMARK SMILES IDX 1 1 2 2 8 3 7 4 6 5 4 6 3 7 19 8 20 9 18 10 11 11 9 12 10 13
REMARK SMILES IDX 12 14 13 15 15 16 16 17 5 18 17 20 14 22
REMARK H PARENT 5 19 17 21 14 23
REMARK Flexibility Score: inf
ROOT
ATOM      1  C   UNL     1      26.008  11.502  47.108  1.00  0.00     0.044 C 
ATOM      2  C   UNL     1      24.639  10.901  47.245  1.00  0.00    -0.047 A 
ATOM      3  C   UNL     1      23.587  11.352  46.440  1.00  0.00     0.016 A 
ATOM      4  C   UNL     1      22.293  10.826  46.592  1.00  0.00     0.038 A 
ATOM      5  C   UNL     1      22.042   9.851  47.584  1.00  0.00     0.076 A 
ATOM      6  C   UNL     1      23.122   9.365  48.366  1.00  0.00     0.127 A 
ATOM      7  C   UNL     1      24.397   9.918  48.209  1.00  0.00     0.050 A 
ATOM      8  C   UNL     1      20.635   9.429  47.812  1.00  0.00     0.201 C 
ATOM      9  O   UNL     1      20.270   9.058  48.959  1.00  0.00    -0.288 OA
ATOM     10  C   UNL     1      19.624   9.625  46.741  1.00  0.00     0.076 A 
ATOM     11  C   UNL     1      19.880  10.601  45.751  1.00  0.00     0.041 A 
ATOM     12  C   UNL     1      21.192  11.287  45.714  1.00  0.00     0.194 C 
ATOM     13  O   UNL     1      21.380  12.246  44.916  1.00  0.00    -0.289 OA
ATOM     14  C   UNL     1      18.889  10.912  44.805  1.00  0.00     0.059 A 
ATOM     15  C   UNL     1      17.659  10.255  44.823  1.00  0.00     0.120 A 
ATOM     16  C   UNL     1      17.416   9.261  45.774  1.00  0.00     0.093 A 
ATOM     17  C   UNL     1      18.393   8.918  46.715  1.00  0.00     0.131 A 
ENDROOT
BRANCH   6  18
ATOM     18  O   UNL     1      22.981   8.318  49.279  1.00  0.00    -0.507 OA
ATOM     19  H   UNL     1      23.617   7.533  49.332  1.00  0.00     0.293 HD
ENDBRANCH   6  18
BRANCH  17  20
ATOM     20  O   UNL     1      18.114   7.854  47.575  1.00  0.00    -0.507 OA
ATOM     21  H   UNL     1      17.496   7.927  48.372  1.00  0.00     0.293 HD
ENDBRANCH  17  20
BRANCH  15  22
ATOM     22  O   UNL     1      16.688  10.590  43.881  1.00  0.00    -0.508 OA
ATOM     23  H   UNL     1      16.806  10.373  42.898  1.00  0.00     0.293 HD
ENDBRANCH  15  22
TORSDOF 3
ENDMDL
