MODEL 1
REMARK VINA RESULT:    -5.528      0.000      0.000
REMARK INTER + INTRA:          -6.013
REMARK INTER:                  -6.013
REMARK INTRA:                   0.000
REMARK UNBOUND:                 0.000
REMARK SMILES Cc1cc(O)c2c(c1)C(=O)c1cc(O)cc(O)c1C2=O
REMARK SMILES IDX 1 1 2 2 8 3 7 4 6 5 4 6 3 7 19 8 20 9 18 10 11 11 9 12 10 13
REMARK SMILES IDX 12 14 13 15 15 16 16 17 5 18 17 20 14 22
REMARK H PARENT 5 19 17 21 14 23
REMARK Flexibility Score: inf
ROOT
ATOM      1  C   UNL     1      27.058  -0.324 101.091  1.00  0.00     0.044 C 
ATOM      2  C   UNL     1      27.777   0.460 102.149  1.00  0.00    -0.047 A 
ATOM      3  C   UNL     1      28.934   1.180 101.830  1.00  0.00     0.016 A 
ATOM      4  C   UNL     1      29.637   1.881 102.824  1.00  0.00     0.038 A 
ATOM      5  C   UNL     1      29.193   1.839 104.164  1.00  0.00     0.076 A 
ATOM      6  C   UNL     1      27.994   1.146 104.474  1.00  0.00     0.127 A 
ATOM      7  C   UNL     1      27.322   0.440 103.472  1.00  0.00     0.050 A 
ATOM      8  C   UNL     1      30.045   2.469 105.206  1.00  0.00     0.201 C 
ATOM      9  O   UNL     1      30.045   2.009 106.379  1.00  0.00    -0.288 OA
ATOM     10  C   UNL     1      31.032   3.511 104.822  1.00  0.00     0.076 A 
ATOM     11  C   UNL     1      31.473   3.549 103.480  1.00  0.00     0.041 A 
ATOM     12  C   UNL     1      30.844   2.666 102.471  1.00  0.00     0.194 C 
ATOM     13  O   UNL     1      31.320   2.603 101.303  1.00  0.00    -0.289 OA
ATOM     14  C   UNL     1      32.506   4.428 103.109  1.00  0.00     0.059 A 
ATOM     15  C   UNL     1      33.088   5.277 104.053  1.00  0.00     0.120 A 
ATOM     16  C   UNL     1      32.626   5.271 105.369  1.00  0.00     0.093 A 
ATOM     17  C   UNL     1      31.588   4.421 105.760  1.00  0.00     0.131 A 
ENDROOT
BRANCH   6  18
ATOM     18  O   UNL     1      27.422   1.160 105.748  1.00  0.00    -0.507 OA
ATOM     19  H   UNL     1      27.581   0.441 106.440  1.00  0.00     0.293 HD
ENDBRANCH   6  18
BRANCH  17  20
ATOM     20  O   UNL     1      31.118   4.535 107.070  1.00  0.00    -0.507 OA
ATOM     21  H   UNL     1      30.862   5.415 107.497  1.00  0.00     0.293 HD
ENDBRANCH  17  20
BRANCH  15  22
ATOM     22  O   UNL     1      34.121   6.141 103.692  1.00  0.00    -0.508 OA
ATOM     23  H   UNL     1      35.071   5.811 103.576  1.00  0.00     0.293 HD
ENDBRANCH  15  22
TORSDOF 3
ENDMDL
MODEL 2
REMARK VINA RESULT:    -5.504      1.432      1.684
REMARK INTER + INTRA:          -5.987
REMARK INTER:                  -5.987
REMARK INTRA:                   0.000
REMARK UNBOUND:                 0.000
REMARK SMILES Cc1cc(O)c2c(c1)C(=O)c1cc(O)cc(O)c1C2=O
REMARK SMILES IDX 1 1 2 2 8 3 7 4 6 5 4 6 3 7 19 8 20 9 18 10 11 11 9 12 10 13
REMARK SMILES IDX 12 14 13 15 15 16 16 17 5 18 17 20 14 22
REMARK H PARENT 5 19 17 21 14 23
REMARK Flexibility Score: inf
ROOT
ATOM      1  C   UNL     1      26.771  -2.570 102.889  1.00  0.00     0.044 C 
ATOM      2  C   UNL     1      27.450  -1.384 103.510  1.00  0.00    -0.047 A 
ATOM      3  C   UNL     1      28.423  -0.675 102.796  1.00  0.00     0.016 A 
ATOM      4  C   UNL     1      29.094   0.409 103.386  1.00  0.00     0.038 A 
ATOM      5  C   UNL     1      28.809   0.773 104.720  1.00  0.00     0.076 A 
ATOM      6  C   UNL     1      27.790   0.079 105.424  1.00  0.00     0.127 A 
ATOM      7  C   UNL     1      27.149  -1.008 104.824  1.00  0.00     0.050 A 
ATOM      8  C   UNL     1      29.643   1.826 105.355  1.00  0.00     0.201 C 
ATOM      9  O   UNL     1      29.848   1.801 106.598  1.00  0.00    -0.288 OA
ATOM     10  C   UNL     1      30.386   2.792 104.503  1.00  0.00     0.076 A 
ATOM     11  C   UNL     1      30.669   2.423 103.169  1.00  0.00     0.041 A 
ATOM     12  C   UNL     1      30.101   1.174 102.612  1.00  0.00     0.194 C 
ATOM     13  O   UNL     1      30.453   0.776 101.467  1.00  0.00    -0.289 OA
ATOM     14  C   UNL     1      31.486   3.247 102.376  1.00  0.00     0.059 A 
ATOM     15  C   UNL     1      32.008   4.436 102.891  1.00  0.00     0.120 A 
ATOM     16  C   UNL     1      31.697   4.823 104.194  1.00  0.00     0.093 A 
ATOM     17  C   UNL     1      30.871   4.032 104.997  1.00  0.00     0.131 A 
ENDROOT
BRANCH   6  18
ATOM     18  O   UNL     1      27.363   0.456 106.699  1.00  0.00    -0.507 OA
ATOM     19  H   UNL     1      26.868  -0.161 107.328  1.00  0.00     0.293 HD
ENDBRANCH   6  18
BRANCH  17  20
ATOM     20  O   UNL     1      30.530   4.527 106.258  1.00  0.00    -0.507 OA
ATOM     21  H   UNL     1      30.745   4.051 107.122  1.00  0.00     0.293 HD
ENDBRANCH  17  20
BRANCH  15  22
ATOM     22  O   UNL     1      32.829   5.249 102.111  1.00  0.00    -0.508 OA
ATOM     23  H   UNL     1      32.672   5.363 101.117  1.00  0.00     0.293 HD
ENDBRANCH  15  22
TORSDOF 3
ENDMDL
MODEL 3
REMARK VINA RESULT:    -5.488      5.797     10.572
REMARK INTER + INTRA:          -5.969
REMARK INTER:                  -5.969
REMARK INTRA:                   0.000
REMARK UNBOUND:                 0.000
REMARK SMILES Cc1cc(O)c2c(c1)C(=O)c1cc(O)cc(O)c1C2=O
REMARK SMILES IDX 1 1 2 2 8 3 7 4 6 5 4 6 3 7 19 8 20 9 18 10 11 11 9 12 10 13
REMARK SMILES IDX 12 14 13 15 15 16 16 17 5 18 17 20 14 22
REMARK H PARENT 5 19 17 21 14 23
REMARK Flexibility Score: inf
ROOT
ATOM      1  C   UNL     1      28.299   0.142 103.090  1.00  0.00     0.044 C 
ATOM      2  C   UNL     1      27.244  -0.610 102.331  1.00  0.00    -0.047 A 
ATOM      3  C   UNL     1      26.541  -1.652 102.947  1.00  0.00     0.016 A 
ATOM      4  C   UNL     1      25.584  -2.390 102.231  1.00  0.00     0.038 A 
ATOM      5  C   UNL     1      25.345  -2.100 100.869  1.00  0.00     0.076 A 
ATOM      6  C   UNL     1      26.027  -1.013 100.263  1.00  0.00     0.127 A 
ATOM      7  C   UNL     1      26.990  -0.306 100.990  1.00  0.00     0.050 A 
ATOM      8  C   UNL     1      24.436  -2.996 100.110  1.00  0.00     0.201 C 
ATOM      9  O   UNL     1      24.611  -3.167  98.873  1.00  0.00    -0.288 OA
ATOM     10  C   UNL     1      23.446  -3.832 100.837  1.00  0.00     0.076 A 
ATOM     11  C   UNL     1      23.689  -4.120 102.199  1.00  0.00     0.041 A 
ATOM     12  C   UNL     1      24.821  -3.471 102.900  1.00  0.00     0.194 C 
ATOM     13  O   UNL     1      25.121  -3.821 104.076  1.00  0.00    -0.289 OA
ATOM     14  C   UNL     1      22.852  -5.017 102.884  1.00  0.00     0.059 A 
ATOM     15  C   UNL     1      21.770  -5.616 102.233  1.00  0.00     0.120 A 
ATOM     16  C   UNL     1      21.503  -5.303 100.901  1.00  0.00     0.093 A 
ATOM     17  C   UNL     1      22.308  -4.398 100.202  1.00  0.00     0.131 A 
ENDROOT
BRANCH   6  18
ATOM     18  O   UNL     1      25.759  -0.584  98.962  1.00  0.00    -0.507 OA
ATOM     19  H   UNL     1      26.245   0.178  98.512  1.00  0.00     0.293 HD
ENDBRANCH   6  18
BRANCH  17  20
ATOM     20  O   UNL     1      21.926  -4.065  98.901  1.00  0.00    -0.507 OA
ATOM     21  H   UNL     1      22.345  -3.313  98.371  1.00  0.00     0.293 HD
ENDBRANCH  17  20
BRANCH  15  22
ATOM     22  O   UNL     1      20.945  -6.516 102.905  1.00  0.00    -0.508 OA
ATOM     23  H   UNL     1      21.169  -7.503 102.957  1.00  0.00     0.293 HD
ENDBRANCH  15  22
TORSDOF 3
ENDMDL
MODEL 4
REMARK VINA RESULT:    -5.421      7.522     11.206
REMARK INTER + INTRA:          -5.896
REMARK INTER:                  -5.896
REMARK INTRA:                   0.000
REMARK UNBOUND:                 0.000
REMARK SMILES Cc1cc(O)c2c(c1)C(=O)c1cc(O)cc(O)c1C2=O
REMARK SMILES IDX 1 1 2 2 8 3 7 4 6 5 4 6 3 7 19 8 20 9 18 10 11 11 9 12 10 13
REMARK SMILES IDX 12 14 13 15 15 16 16 17 5 18 17 20 14 22
REMARK H PARENT 5 19 17 21 14 23
REMARK Flexibility Score: inf
ROOT
ATOM      1  C   UNL     1      26.285  -0.753  99.986  1.00  0.00     0.044 C 
ATOM      2  C   UNL     1      25.365  -1.845 100.450  1.00  0.00    -0.047 A 
ATOM      3  C   UNL     1      25.496  -2.377 101.738  1.00  0.00     0.016 A 
ATOM      4  C   UNL     1      24.668  -3.429 102.165  1.00  0.00     0.038 A 
ATOM      5  C   UNL     1      23.712  -3.976 101.281  1.00  0.00     0.076 A 
ATOM      6  C   UNL     1      23.553  -3.403  99.992  1.00  0.00     0.127 A 
ATOM      7  C   UNL     1      24.401  -2.370  99.583  1.00  0.00     0.050 A 
ATOM      8  C   UNL     1      22.961  -5.181 101.718  1.00  0.00     0.201 C 
ATOM      9  O   UNL     1      22.566  -6.019 100.864  1.00  0.00    -0.288 OA
ATOM     10  C   UNL     1      22.842  -5.491 103.166  1.00  0.00     0.076 A 
ATOM     11  C   UNL     1      23.800  -4.941 104.047  1.00  0.00     0.041 A 
ATOM     12  C   UNL     1      24.793  -3.965 103.542  1.00  0.00     0.194 C 
ATOM     13  O   UNL     1      25.729  -3.570 104.291  1.00  0.00    -0.289 OA
ATOM     14  C   UNL     1      23.804  -5.321 105.400  1.00  0.00     0.059 A 
ATOM     15  C   UNL     1      22.857  -6.226 105.886  1.00  0.00     0.120 A 
ATOM     16  C   UNL     1      21.885  -6.739 105.029  1.00  0.00     0.093 A 
ATOM     17  C   UNL     1      21.846  -6.363 103.683  1.00  0.00     0.131 A 
ENDROOT
BRANCH   6  18
ATOM     18  O   UNL     1      22.551  -3.804  99.107  1.00  0.00    -0.507 OA
ATOM     19  H   UNL     1      21.614  -3.424  99.113  1.00  0.00     0.293 HD
ENDBRANCH   6  18
BRANCH  17  20
ATOM     20  O   UNL     1      20.790  -6.847 102.907  1.00  0.00    -0.507 OA
ATOM     21  H   UNL     1      20.075  -6.255 102.507  1.00  0.00     0.293 HD
ENDBRANCH  17  20
BRANCH  15  22
ATOM     22  O   UNL     1      22.866  -6.615 107.225  1.00  0.00    -0.508 OA
ATOM     23  H   UNL     1      22.205  -7.292 107.584  1.00  0.00     0.293 HD
ENDBRANCH  15  22
TORSDOF 3
ENDMDL
MODEL 5
REMARK VINA RESULT:    -5.341      8.842     11.205
REMARK INTER + INTRA:          -5.809
REMARK INTER:                  -5.809
REMARK INTRA:                   0.000
REMARK UNBOUND:                 0.000
REMARK SMILES Cc1cc(O)c2c(c1)C(=O)c1cc(O)cc(O)c1C2=O
REMARK SMILES IDX 1 1 2 2 8 3 7 4 6 5 4 6 3 7 19 8 20 9 18 10 11 11 9 12 10 13
REMARK SMILES IDX 12 14 13 15 15 16 16 17 5 18 17 20 14 22
REMARK H PARENT 5 19 17 21 14 23
REMARK Flexibility Score: inf
ROOT
ATOM      1  C   UNL     1      22.954  -6.000 107.132  1.00  0.00     0.044 C 
ATOM      2  C   UNL     1      22.892  -5.916 105.634  1.00  0.00    -0.047 A 
ATOM      3  C   UNL     1      23.868  -5.203 104.927  1.00  0.00     0.016 A 
ATOM      4  C   UNL     1      23.793  -5.083 103.529  1.00  0.00     0.038 A 
ATOM      5  C   UNL     1      22.711  -5.661 102.830  1.00  0.00     0.076 A 
ATOM      6  C   UNL     1      21.750  -6.421 103.546  1.00  0.00     0.127 A 
ATOM      7  C   UNL     1      21.834  -6.510 104.939  1.00  0.00     0.050 A 
ATOM      8  C   UNL     1      22.589  -5.386 101.374  1.00  0.00     0.201 C 
ATOM      9  O   UNL     1      21.451  -5.354 100.835  1.00  0.00    -0.288 OA
ATOM     10  C   UNL     1      23.785  -4.964 100.600  1.00  0.00     0.076 A 
ATOM     11  C   UNL     1      24.866  -4.386 101.305  1.00  0.00     0.041 A 
ATOM     12  C   UNL     1      24.848  -4.353 102.786  1.00  0.00     0.194 C 
ATOM     13  O   UNL     1      25.745  -3.726 103.415  1.00  0.00    -0.289 OA
ATOM     14  C   UNL     1      25.954  -3.849 100.597  1.00  0.00     0.059 A 
ATOM     15  C   UNL     1      25.984  -3.896  99.201  1.00  0.00     0.120 A 
ATOM     16  C   UNL     1      24.940  -4.502  98.504  1.00  0.00     0.093 A 
ATOM     17  C   UNL     1      23.854  -5.061  99.185  1.00  0.00     0.131 A 
ENDROOT
BRANCH   6  18
ATOM     18  O   UNL     1      20.722  -7.125 102.916  1.00  0.00    -0.507 OA
ATOM     19  H   UNL     1      19.771  -6.789 102.852  1.00  0.00     0.293 HD
ENDBRANCH   6  18
BRANCH  17  20
ATOM     20  O   UNL     1      22.891  -5.730  98.427  1.00  0.00    -0.507 OA
ATOM     21  H   UNL     1      22.711  -6.721  98.502  1.00  0.00     0.293 HD
ENDBRANCH  17  20
BRANCH  15  22
ATOM     22  O   UNL     1      27.057  -3.352  98.494  1.00  0.00    -0.508 OA
ATOM     23  H   UNL     1      26.914  -2.690  97.741  1.00  0.00     0.293 HD
ENDBRANCH  15  22
TORSDOF 3
ENDMDL
MODEL 6
REMARK VINA RESULT:    -5.326      5.951     10.459
REMARK INTER + INTRA:          -5.793
REMARK INTER:                  -5.793
REMARK INTRA:                   0.000
REMARK UNBOUND:                 0.000
REMARK SMILES Cc1cc(O)c2c(c1)C(=O)c1cc(O)cc(O)c1C2=O
REMARK SMILES IDX 1 1 2 2 8 3 7 4 6 5 4 6 3 7 19 8 20 9 18 10 11 11 9 12 10 13
REMARK SMILES IDX 12 14 13 15 15 16 16 17 5 18 17 20 14 22
REMARK H PARENT 5 19 17 21 14 23
REMARK Flexibility Score: inf
ROOT
ATOM      1  C   UNL     1      28.659  -1.744 105.397  1.00  0.00     0.044 C 
ATOM      2  C   UNL     1      27.410  -1.872 104.575  1.00  0.00    -0.047 A 
ATOM      3  C   UNL     1      26.771  -3.111 104.450  1.00  0.00     0.016 A 
ATOM      4  C   UNL     1      25.626  -3.248 103.647  1.00  0.00     0.038 A 
ATOM      5  C   UNL     1      25.128  -2.135 102.935  1.00  0.00     0.076 A 
ATOM      6  C   UNL     1      25.752  -0.871 103.101  1.00  0.00     0.127 A 
ATOM      7  C   UNL     1      26.901  -0.763 103.890  1.00  0.00     0.050 A 
ATOM      8  C   UNL     1      24.008  -2.354 101.983  1.00  0.00     0.201 C 
ATOM      9  O   UNL     1      23.903  -1.627 100.959  1.00  0.00    -0.288 OA
ATOM     10  C   UNL     1      23.131  -3.544 102.137  1.00  0.00     0.076 A 
ATOM     11  C   UNL     1      23.633  -4.655 102.851  1.00  0.00     0.041 A 
ATOM     12  C   UNL     1      24.938  -4.557 103.545  1.00  0.00     0.194 C 
ATOM     13  O   UNL     1      25.451  -5.583 104.074  1.00  0.00    -0.289 OA
ATOM     14  C   UNL     1      22.891  -5.847 102.900  1.00  0.00     0.059 A 
ATOM     15  C   UNL     1      21.651  -5.937 102.264  1.00  0.00     0.120 A 
ATOM     16  C   UNL     1      21.133  -4.829 101.594  1.00  0.00     0.093 A 
ATOM     17  C   UNL     1      21.842  -3.626 101.545  1.00  0.00     0.131 A 
ENDROOT
BRANCH   6  18
ATOM     18  O   UNL     1      25.249   0.300 102.531  1.00  0.00    -0.507 OA
ATOM     19  H   UNL     1      24.749   1.006 103.053  1.00  0.00     0.293 HD
ENDBRANCH   6  18
BRANCH  17  20
ATOM     20  O   UNL     1      21.221  -2.534 100.935  1.00  0.00    -0.507 OA
ATOM     21  H   UNL     1      20.436  -2.041 101.337  1.00  0.00     0.293 HD
ENDBRANCH  17  20
BRANCH  15  22
ATOM     22  O   UNL     1      20.917  -7.122 102.300  1.00  0.00    -0.508 OA
ATOM     23  H   UNL     1      21.305  -7.974 102.687  1.00  0.00     0.293 HD
ENDBRANCH  15  22
TORSDOF 3
ENDMDL
MODEL 7
REMARK VINA RESULT:    -5.308      2.014      3.659
REMARK INTER + INTRA:          -5.773
REMARK INTER:                  -5.773
REMARK INTRA:                   0.000
REMARK UNBOUND:                 0.000
REMARK SMILES Cc1cc(O)c2c(c1)C(=O)c1cc(O)cc(O)c1C2=O
REMARK SMILES IDX 1 1 2 2 8 3 7 4 6 5 4 6 3 7 19 8 20 9 18 10 11 11 9 12 10 13
REMARK SMILES IDX 12 14 13 15 15 16 16 17 5 18 17 20 14 22
REMARK H PARENT 5 19 17 21 14 23
REMARK Flexibility Score: inf
ROOT
ATOM      1  C   UNL     1      27.738   0.012 106.094  1.00  0.00     0.044 C 
ATOM      2  C   UNL     1      28.748   0.965 105.526  1.00  0.00    -0.047 A 
ATOM      3  C   UNL     1      29.098   0.897 104.173  1.00  0.00     0.016 A 
ATOM      4  C   UNL     1      30.075   1.756 103.642  1.00  0.00     0.038 A 
ATOM      5  C   UNL     1      30.733   2.680 104.484  1.00  0.00     0.076 A 
ATOM      6  C   UNL     1      30.342   2.776 105.845  1.00  0.00     0.127 A 
ATOM      7  C   UNL     1      29.381   1.897 106.355  1.00  0.00     0.050 A 
ATOM      8  C   UNL     1      31.860   3.465 103.919  1.00  0.00     0.201 C 
ATOM      9  O   UNL     1      32.806   3.833 104.666  1.00  0.00    -0.288 OA
ATOM     10  C   UNL     1      31.967   3.651 102.448  1.00  0.00     0.076 A 
ATOM     11  C   UNL     1      31.307   2.724 101.610  1.00  0.00     0.041 A 
ATOM     12  C   UNL     1      30.417   1.698 102.200  1.00  0.00     0.194 C 
ATOM     13  O   UNL     1      29.928   0.790 101.471  1.00  0.00    -0.289 OA
ATOM     14  C   UNL     1      31.496   2.783 100.218  1.00  0.00     0.059 A 
ATOM     15  C   UNL     1      32.318   3.762  99.655  1.00  0.00     0.120 A 
ATOM     16  C   UNL     1      32.938   4.703 100.476  1.00  0.00     0.093 A 
ATOM     17  C   UNL     1      32.752   4.679 101.861  1.00  0.00     0.131 A 
ENDROOT
BRANCH   6  18
ATOM     18  O   UNL     1      30.854   3.744 106.711  1.00  0.00    -0.507 OA
ATOM     19  H   UNL     1      30.534   4.702 106.731  1.00  0.00     0.293 HD
ENDBRANCH   6  18
BRANCH  17  20
ATOM     20  O   UNL     1      33.330   5.706 102.609  1.00  0.00    -0.507 OA
ATOM     21  H   UNL     1      34.041   6.328 102.249  1.00  0.00     0.293 HD
ENDBRANCH  17  20
BRANCH  15  22
ATOM     22  O   UNL     1      32.518   3.816  98.277  1.00  0.00    -0.508 OA
ATOM     23  H   UNL     1      33.419   3.606  97.863  1.00  0.00     0.293 HD
ENDBRANCH  15  22
TORSDOF 3
ENDMDL
MODEL 8
REMARK VINA RESULT:    -5.235      6.501     10.824
REMARK INTER + INTRA:          -5.694
REMARK INTER:                  -5.694
REMARK INTRA:                   0.000
REMARK UNBOUND:                 0.000
REMARK SMILES Cc1cc(O)c2c(c1)C(=O)c1cc(O)cc(O)c1C2=O
REMARK SMILES IDX 1 1 2 2 8 3 7 4 6 5 4 6 3 7 19 8 20 9 18 10 11 11 9 12 10 13
REMARK SMILES IDX 12 14 13 15 15 16 16 17 5 18 17 20 14 22
REMARK H PARENT 5 19 17 21 14 23
REMARK Flexibility Score: inf
ROOT
ATOM      1  C   UNL     1      26.970   0.107 104.291  1.00  0.00     0.044 C 
ATOM      2  C   UNL     1      26.227  -1.146 103.926  1.00  0.00    -0.047 A 
ATOM      3  C   UNL     1      25.096  -1.081 103.104  1.00  0.00     0.016 A 
ATOM      4  C   UNL     1      24.370  -2.243 102.794  1.00  0.00     0.038 A 
ATOM      5  C   UNL     1      24.765  -3.486 103.337  1.00  0.00     0.076 A 
ATOM      6  C   UNL     1      25.938  -3.553 104.132  1.00  0.00     0.127 A 
ATOM      7  C   UNL     1      26.633  -2.381 104.443  1.00  0.00     0.050 A 
ATOM      8  C   UNL     1      23.887  -4.663 103.106  1.00  0.00     0.201 C 
ATOM      9  O   UNL     1      23.836  -5.585 103.963  1.00  0.00    -0.288 OA
ATOM     10  C   UNL     1      22.935  -4.661 101.965  1.00  0.00     0.076 A 
ATOM     11  C   UNL     1      22.543  -3.415 101.425  1.00  0.00     0.041 A 
ATOM     12  C   UNL     1      23.192  -2.170 101.897  1.00  0.00     0.194 C 
ATOM     13  O   UNL     1      22.758  -1.047 101.514  1.00  0.00    -0.289 OA
ATOM     14  C   UNL     1      21.542  -3.364 100.441  1.00  0.00     0.059 A 
ATOM     15  C   UNL     1      20.942  -4.538  99.978  1.00  0.00     0.120 A 
ATOM     16  C   UNL     1      21.354  -5.772 100.479  1.00  0.00     0.093 A 
ATOM     17  C   UNL     1      22.362  -5.852 101.445  1.00  0.00     0.131 A 
ENDROOT
BRANCH   6  18
ATOM     18  O   UNL     1      26.463  -4.758 104.602  1.00  0.00    -0.507 OA
ATOM     19  H   UNL     1      26.702  -5.536 104.004  1.00  0.00     0.293 HD
ENDBRANCH   6  18
BRANCH  17  20
ATOM     20  O   UNL     1      22.786  -7.125 101.832  1.00  0.00    -0.507 OA
ATOM     21  H   UNL     1      23.384  -7.711 101.266  1.00  0.00     0.293 HD
ENDBRANCH  17  20
BRANCH  15  22
ATOM     22  O   UNL     1      19.939  -4.490  99.010  1.00  0.00    -0.508 OA
ATOM     23  H   UNL     1      19.169  -5.148  99.012  1.00  0.00     0.293 HD
ENDBRANCH  15  22
TORSDOF 3
ENDMDL
MODEL 9
REMARK VINA RESULT:    -5.199      2.236      4.933
REMARK INTER + INTRA:          -5.655
REMARK INTER:                  -5.655
REMARK INTRA:                   0.000
REMARK UNBOUND:                 0.000
REMARK SMILES Cc1cc(O)c2c(c1)C(=O)c1cc(O)cc(O)c1C2=O
REMARK SMILES IDX 1 1 2 2 8 3 7 4 6 5 4 6 3 7 19 8 20 9 18 10 11 11 9 12 10 13
REMARK SMILES IDX 12 14 13 15 15 16 16 17 5 18 17 20 14 22
REMARK H PARENT 5 19 17 21 14 23
REMARK Flexibility Score: inf
ROOT
ATOM      1  C   UNL     1      32.252   3.768  98.335  1.00  0.00     0.044 C 
ATOM      2  C   UNL     1      32.211   3.698  99.834  1.00  0.00    -0.047 A 
ATOM      3  C   UNL     1      31.517   2.664 100.473  1.00  0.00     0.016 A 
ATOM      4  C   UNL     1      31.437   2.616 101.875  1.00  0.00     0.038 A 
ATOM      5  C   UNL     1      32.035   3.633 102.650  1.00  0.00     0.076 A 
ATOM      6  C   UNL     1      32.776   4.654 101.999  1.00  0.00     0.127 A 
ATOM      7  C   UNL     1      32.826   4.692 100.603  1.00  0.00     0.050 A 
ATOM      8  C   UNL     1      31.802   3.626 104.117  1.00  0.00     0.201 C 
ATOM      9  O   UNL     1      31.788   4.713 104.756  1.00  0.00    -0.288 OA
ATOM     10  C   UNL     1      31.400   2.367 104.795  1.00  0.00     0.076 A 
ATOM     11  C   UNL     1      30.801   1.352 104.015  1.00  0.00     0.041 A 
ATOM     12  C   UNL     1      30.726   1.499 102.543  1.00  0.00     0.194 C 
ATOM     13  O   UNL     1      30.080   0.660 101.856  1.00  0.00    -0.289 OA
ATOM     14  C   UNL     1      30.282   0.205 104.641  1.00  0.00     0.059 A 
ATOM     15  C   UNL     1      30.369   0.052 106.026  1.00  0.00     0.120 A 
ATOM     16  C   UNL     1      30.996   1.032 106.794  1.00  0.00     0.093 A 
ATOM     17  C   UNL     1      31.537   2.174 106.196  1.00  0.00     0.131 A 
ENDROOT
BRANCH   6  18
ATOM     18  O   UNL     1      33.499   5.623 102.697  1.00  0.00    -0.507 OA
ATOM     19  H   UNL     1      33.183   6.574 102.824  1.00  0.00     0.293 HD
ENDBRANCH   6  18
BRANCH  17  20
ATOM     20  O   UNL     1      32.229   3.067 107.016  1.00  0.00    -0.507 OA
ATOM     21  H   UNL     1      31.992   4.046 107.102  1.00  0.00     0.293 HD
ENDBRANCH  17  20
BRANCH  15  22
ATOM     22  O   UNL     1      29.845  -1.078 106.651  1.00  0.00    -0.508 OA
ATOM     23  H   UNL     1      30.430  -1.867 106.899  1.00  0.00     0.293 HD
ENDBRANCH  15  22
TORSDOF 3
ENDMDL
