MODEL 1
REMARK VINA RESULT:    -3.532      0.000      0.000
REMARK INTER + INTRA:          -6.680
REMARK INTER:                  -6.010
REMARK INTRA:                  -0.670
REMARK UNBOUND:                -0.670
REMARK SMILES CCCCCCCCCCCCCC(=O)[O-]
REMARK SMILES IDX 8 1 9 2 10 3 11 4 12 5 13 6 14 7 15 8 16 9 7 10 6 11 5 12
REMARK SMILES IDX 4 13 3 14 2 15 1 16
REMARK H PARENT
REMARK Flexibility Score: inf
ROOT
ATOM      1  C   UNL     1      11.353  -7.644   6.023  1.00  0.00     0.000 C 
ENDROOT
BRANCH   1   2
ATOM      2  C   UNL     1      12.634  -8.208   5.398  1.00  0.00     0.000 C 
BRANCH   2   3
ATOM      3  C   UNL     1      13.784  -8.219   6.413  1.00  0.00     0.000 C 
BRANCH   3   4
ATOM      4  C   UNL     1      15.025  -7.512   5.846  1.00  0.00     0.000 C 
BRANCH   4   5
ATOM      5  C   UNL     1      16.094  -7.243   6.917  1.00  0.00     0.006 C 
BRANCH   5   6
ATOM      6  C   UNL     1      17.519  -7.292   6.353  1.00  0.00     0.053 C 
BRANCH   6   7
ATOM      7  C   UNL     1      18.512  -7.469   7.460  1.00  0.00     0.041 C 
ATOM      8  O   UNL     1      18.570  -6.630   8.398  1.00  0.00    -0.550 OA
ATOM      9  O   UNL     1      19.337  -8.585   7.482  1.00  0.00    -0.550 OA
ENDBRANCH   6   7
ENDBRANCH   5   6
ENDBRANCH   4   5
ENDBRANCH   3   4
ENDBRANCH   2   3
ENDBRANCH   1   2
BRANCH   1  10
ATOM     10  C   UNL     1      10.153  -7.836   5.088  1.00  0.00     0.000 C 
BRANCH  10  11
ATOM     11  C   UNL     1       9.348  -9.083   5.474  1.00  0.00    -0.000 C 
BRANCH  11  12
ATOM     12  C   UNL     1       8.903  -9.017   6.943  1.00  0.00    -0.000 C 
BRANCH  12  13
ATOM     13  C   UNL     1       7.382  -8.855   7.095  1.00  0.00    -0.000 C 
BRANCH  13  14
ATOM     14  C   UNL     1       6.623  -9.136   5.789  1.00  0.00    -0.000 C 
BRANCH  14  15
ATOM     15  C   UNL     1       5.585  -8.042   5.513  1.00  0.00    -0.003 C 
ATOM     16  C   UNL     1       6.048  -6.693   6.056  1.00  0.00     0.004 C 
ENDBRANCH  14  15
ENDBRANCH  13  14
ENDBRANCH  12  13
ENDBRANCH  11  12
ENDBRANCH  10  11
ENDBRANCH   1  10
TORSDOF 12
ENDMDL
MODEL 2
REMARK VINA RESULT:    -3.451      1.300      2.590
REMARK INTER + INTRA:          -6.541
REMARK INTER:                  -5.825
REMARK INTRA:                  -0.717
REMARK UNBOUND:                -0.670
REMARK SMILES CCCCCCCCCCCCCC(=O)[O-]
REMARK SMILES IDX 8 1 9 2 10 3 11 4 12 5 13 6 14 7 15 8 16 9 7 10 6 11 5 12
REMARK SMILES IDX 4 13 3 14 2 15 1 16
REMARK H PARENT
REMARK Flexibility Score: inf
ROOT
ATOM      1  C   UNL     1      13.699  -8.298   7.101  1.00  0.00     0.000 C 
ENDROOT
BRANCH   1   2
ATOM      2  C   UNL     1      15.178  -7.911   6.990  1.00  0.00     0.000 C 
BRANCH   2   3
ATOM      3  C   UNL     1      15.470  -7.227   5.649  1.00  0.00     0.000 C 
BRANCH   3   4
ATOM      4  C   UNL     1      16.710  -7.837   4.978  1.00  0.00     0.000 C 
BRANCH   4   5
ATOM      5  C   UNL     1      17.972  -6.983   5.175  1.00  0.00     0.006 C 
BRANCH   5   6
ATOM      6  C   UNL     1      19.154  -7.792   5.722  1.00  0.00     0.053 C 
BRANCH   6   7
ATOM      7  C   UNL     1      19.046  -7.932   7.209  1.00  0.00     0.041 C 
ATOM      8  O   UNL     1      19.499  -8.959   7.782  1.00  0.00    -0.550 OA
ATOM      9  O   UNL     1      18.490  -6.909   7.966  1.00  0.00    -0.550 OA
ENDBRANCH   6   7
ENDBRANCH   5   6
ENDBRANCH   4   5
ENDBRANCH   3   4
ENDBRANCH   2   3
ENDBRANCH   1   2
BRANCH   1  10
ATOM     10  C   UNL     1      12.992  -8.170   5.746  1.00  0.00     0.000 C 
BRANCH  10  11
ATOM     11  C   UNL     1      11.522  -7.774   5.926  1.00  0.00    -0.000 C 
BRANCH  11  12
ATOM     12  C   UNL     1      10.636  -8.460   4.875  1.00  0.00    -0.000 C 
BRANCH  12  13
ATOM     13  C   UNL     1       9.188  -8.652   5.354  1.00  0.00    -0.000 C 
BRANCH  13  14
ATOM     14  C   UNL     1       9.098  -8.972   6.854  1.00  0.00    -0.000 C 
BRANCH  14  15
ATOM     15  C   UNL     1       7.657  -8.829   7.358  1.00  0.00    -0.003 C 
ATOM     16  C   UNL     1       7.310  -9.931   8.355  1.00  0.00     0.004 C 
ENDBRANCH  14  15
ENDBRANCH  13  14
ENDBRANCH  12  13
ENDBRANCH  11  12
ENDBRANCH  10  11
ENDBRANCH   1  10
TORSDOF 12
ENDMDL
MODEL 3
REMARK VINA RESULT:    -3.442      4.272      9.482
REMARK INTER + INTRA:          -6.527
REMARK INTER:                  -5.791
REMARK INTRA:                  -0.736
REMARK UNBOUND:                -0.670
REMARK SMILES CCCCCCCCCCCCCC(=O)[O-]
REMARK SMILES IDX 8 1 9 2 10 3 11 4 12 5 13 6 14 7 15 8 16 9 7 10 6 11 5 12
REMARK SMILES IDX 4 13 3 14 2 15 1 16
REMARK H PARENT
REMARK Flexibility Score: inf
ROOT
ATOM      1  C   UNL     1      16.067  -7.100   6.588  1.00  0.00     0.000 C 
ENDROOT
BRANCH   1   2
ATOM      2  C   UNL     1      14.833  -7.960   6.879  1.00  0.00     0.000 C 
BRANCH   2   3
ATOM      3  C   UNL     1      14.490  -8.855   5.683  1.00  0.00     0.000 C 
BRANCH   3   4
ATOM      4  C   UNL     1      13.132  -8.469   5.076  1.00  0.00     0.000 C 
BRANCH   4   5
ATOM      5  C   UNL     1      12.117  -8.016   6.137  1.00  0.00     0.006 C 
BRANCH   5   6
ATOM      6  C   UNL     1      10.787  -7.561   5.525  1.00  0.00     0.053 C 
BRANCH   6   7
ATOM      7  C   UNL     1       9.786  -8.674   5.567  1.00  0.00     0.041 C 
ATOM      8  O   UNL     1       8.841  -8.644   6.399  1.00  0.00    -0.550 OA
ATOM      9  O   UNL     1       9.868  -9.718   4.656  1.00  0.00    -0.550 OA
ENDBRANCH   6   7
ENDBRANCH   5   6
ENDBRANCH   4   5
ENDBRANCH   3   4
ENDBRANCH   2   3
ENDBRANCH   1   2
BRANCH   1  10
ATOM     10  C   UNL     1      16.084  -6.634   5.127  1.00  0.00     0.000 C 
BRANCH  10  11
ATOM     11  C   UNL     1      17.497  -6.716   4.538  1.00  0.00    -0.000 C 
BRANCH  11  12
ATOM     12  C   UNL     1      18.508  -7.180   5.598  1.00  0.00    -0.000 C 
BRANCH  12  13
ATOM     13  C   UNL     1      19.935  -6.684   5.314  1.00  0.00    -0.000 C 
BRANCH  13  14
ATOM     14  C   UNL     1      19.997  -5.708   4.128  1.00  0.00    -0.000 C 
BRANCH  14  15
ATOM     15  C   UNL     1      21.202  -4.768   4.256  1.00  0.00    -0.003 C 
ATOM     16  C   UNL     1      20.824  -3.335   3.894  1.00  0.00     0.004 C 
ENDBRANCH  14  15
ENDBRANCH  13  14
ENDBRANCH  12  13
ENDBRANCH  11  12
ENDBRANCH  10  11
ENDBRANCH   1  10
TORSDOF 12
ENDMDL
MODEL 4
REMARK VINA RESULT:    -3.342      4.290      9.157
REMARK INTER + INTRA:          -6.357
REMARK INTER:                  -5.609
REMARK INTRA:                  -0.747
REMARK UNBOUND:                -0.670
REMARK SMILES CCCCCCCCCCCCCC(=O)[O-]
REMARK SMILES IDX 8 1 9 2 10 3 11 4 12 5 13 6 14 7 15 8 16 9 7 10 6 11 5 12
REMARK SMILES IDX 4 13 3 14 2 15 1 16
REMARK H PARENT
REMARK Flexibility Score: inf
ROOT
ATOM      1  C   UNL     1      14.158  -8.316   6.472  1.00  0.00     0.000 C 
ENDROOT
BRANCH   1   2
ATOM      2  C   UNL     1      12.628  -8.253   6.541  1.00  0.00     0.000 C 
BRANCH   2   3
ATOM      3  C   UNL     1      12.046  -7.600   5.282  1.00  0.00     0.000 C 
BRANCH   3   4
ATOM      4  C   UNL     1      10.546  -7.907   5.146  1.00  0.00     0.000 C 
BRANCH   4   5
ATOM      5  C   UNL     1       9.969  -8.603   6.388  1.00  0.00     0.006 C 
BRANCH   5   6
ATOM      6  C   UNL     1       8.614  -9.268   6.116  1.00  0.00     0.053 C 
BRANCH   6   7
ATOM      7  C   UNL     1       7.564  -8.701   7.020  1.00  0.00     0.041 C 
ATOM      8  O   UNL     1       6.698  -7.908   6.564  1.00  0.00    -0.550 OA
ATOM      9  O   UNL     1       7.513  -9.085   8.354  1.00  0.00    -0.550 OA
ENDBRANCH   6   7
ENDBRANCH   5   6
ENDBRANCH   4   5
ENDBRANCH   3   4
ENDBRANCH   2   3
ENDBRANCH   1   2
BRANCH   1  10
ATOM     10  C   UNL     1      14.688  -7.535   5.264  1.00  0.00     0.000 C 
BRANCH  10  11
ATOM     11  C   UNL     1      15.940  -6.729   5.634  1.00  0.00    -0.000 C 
BRANCH  11  12
ATOM     12  C   UNL     1      17.066  -6.965   4.616  1.00  0.00    -0.000 C 
BRANCH  12  13
ATOM     13  C   UNL     1      18.452  -7.047   5.274  1.00  0.00    -0.000 C 
BRANCH  13  14
ATOM     14  C   UNL     1      18.771  -8.452   5.808  1.00  0.00    -0.000 C 
BRANCH  14  15
ATOM     15  C   UNL     1      19.107  -8.404   7.304  1.00  0.00    -0.003 C 
ATOM     16  C   UNL     1      18.788  -7.035   7.897  1.00  0.00     0.004 C 
ENDBRANCH  14  15
ENDBRANCH  13  14
ENDBRANCH  12  13
ENDBRANCH  11  12
ENDBRANCH  10  11
ENDBRANCH   1  10
TORSDOF 12
ENDMDL
MODEL 5
REMARK VINA RESULT:    -3.256      4.061      9.234
REMARK INTER + INTRA:          -6.210
REMARK INTER:                  -5.192
REMARK INTRA:                  -1.018
REMARK UNBOUND:                -0.670
REMARK SMILES CCCCCCCCCCCCCC(=O)[O-]
REMARK SMILES IDX 8 1 9 2 10 3 11 4 12 5 13 6 14 7 15 8 16 9 7 10 6 11 5 12
REMARK SMILES IDX 4 13 3 14 2 15 1 16
REMARK H PARENT
REMARK Flexibility Score: inf
ROOT
ATOM      1  C   UNL     1      15.990  -6.802   6.144  1.00  0.00     0.000 C 
ENDROOT
BRANCH   1   2
ATOM      2  C   UNL     1      14.921  -7.851   6.470  1.00  0.00     0.000 C 
BRANCH   2   3
ATOM      3  C   UNL     1      13.847  -7.902   5.378  1.00  0.00     0.000 C 
BRANCH   3   4
ATOM      4  C   UNL     1      12.441  -7.999   5.992  1.00  0.00     0.000 C 
BRANCH   4   5
ATOM      5  C   UNL     1      11.396  -8.525   4.997  1.00  0.00     0.006 C 
BRANCH   5   6
ATOM      6  C   UNL     1       9.964  -8.427   5.538  1.00  0.00     0.053 C 
BRANCH   6   7
ATOM      7  C   UNL     1       9.142  -7.519   4.678  1.00  0.00     0.041 C 
ATOM      8  O   UNL     1       7.974  -7.852   4.341  1.00  0.00    -0.550 OA
ATOM      9  O   UNL     1       9.646  -6.286   4.288  1.00  0.00    -0.550 OA
ENDBRANCH   6   7
ENDBRANCH   5   6
ENDBRANCH   4   5
ENDBRANCH   3   4
ENDBRANCH   2   3
ENDBRANCH   1   2
BRANCH   1  10
ATOM     10  C   UNL     1      16.333  -6.810   4.649  1.00  0.00     0.000 C 
BRANCH  10  11
ATOM     11  C   UNL     1      17.669  -7.517   4.394  1.00  0.00    -0.000 C 
BRANCH  11  12
ATOM     12  C   UNL     1      18.842  -6.530   4.499  1.00  0.00    -0.000 C 
BRANCH  12  13
ATOM     13  C   UNL     1      19.717  -6.778   5.738  1.00  0.00    -0.000 C 
BRANCH  13  14
ATOM     14  C   UNL     1      19.563  -8.201   6.295  1.00  0.00    -0.000 C 
BRANCH  14  15
ATOM     15  C   UNL     1      19.020  -8.171   7.729  1.00  0.00    -0.003 C 
ATOM     16  C   UNL     1      18.910  -6.740   8.247  1.00  0.00     0.004 C 
ENDBRANCH  14  15
ENDBRANCH  13  14
ENDBRANCH  12  13
ENDBRANCH  11  12
ENDBRANCH  10  11
ENDBRANCH   1  10
TORSDOF 12
ENDMDL
MODEL 6
REMARK VINA RESULT:    -3.175      4.015      8.854
REMARK INTER + INTRA:          -6.072
REMARK INTER:                  -5.521
REMARK INTRA:                  -0.552
REMARK UNBOUND:                -0.670
REMARK SMILES CCCCCCCCCCCCCC(=O)[O-]
REMARK SMILES IDX 8 1 9 2 10 3 11 4 12 5 13 6 14 7 15 8 16 9 7 10 6 11 5 12
REMARK SMILES IDX 4 13 3 14 2 15 1 16
REMARK H PARENT
REMARK Flexibility Score: inf
ROOT
ATOM      1  C   UNL     1      11.598  -7.568   5.481  1.00  0.00     0.000 C 
ENDROOT
BRANCH   1   2
ATOM      2  C   UNL     1      10.491  -6.879   4.677  1.00  0.00     0.000 C 
BRANCH   2   3
ATOM      3  C   UNL     1       9.427  -7.887   4.226  1.00  0.00     0.000 C 
BRANCH   3   4
ATOM      4  C   UNL     1       8.017  -7.403   4.598  1.00  0.00     0.000 C 
BRANCH   4   5
ATOM      5  C   UNL     1       7.187  -8.486   5.305  1.00  0.00     0.006 C 
BRANCH   5   6
ATOM      6  C   UNL     1       6.995  -8.201   6.799  1.00  0.00     0.053 C 
BRANCH   6   7
ATOM      7  C   UNL     1       7.744  -9.202   7.622  1.00  0.00     0.041 C 
ATOM      8  O   UNL     1       8.918  -9.532   7.305  1.00  0.00    -0.550 OA
ATOM      9  O   UNL     1       7.165  -9.735   8.767  1.00  0.00    -0.550 OA
ENDBRANCH   6   7
ENDBRANCH   5   6
ENDBRANCH   4   5
ENDBRANCH   3   4
ENDBRANCH   2   3
ENDBRANCH   1   2
BRANCH   1  10
ATOM     10  C   UNL     1      12.914  -7.599   4.695  1.00  0.00     0.000 C 
BRANCH  10  11
ATOM     11  C   UNL     1      14.088  -7.995   5.599  1.00  0.00    -0.000 C 
BRANCH  11  12
ATOM     12  C   UNL     1      15.317  -7.117   5.319  1.00  0.00    -0.000 C 
BRANCH  12  13
ATOM     13  C   UNL     1      16.544  -7.534   6.148  1.00  0.00    -0.000 C 
BRANCH  13  14
ATOM     14  C   UNL     1      16.603  -6.829   7.512  1.00  0.00    -0.000 C 
BRANCH  14  15
ATOM     15  C   UNL     1      18.017  -6.898   8.101  1.00  0.00    -0.003 C 
ATOM     16  C   UNL     1      18.934  -7.757   7.236  1.00  0.00     0.004 C 
ENDBRANCH  14  15
ENDBRANCH  13  14
ENDBRANCH  12  13
ENDBRANCH  11  12
ENDBRANCH  10  11
ENDBRANCH   1  10
TORSDOF 12
ENDMDL
MODEL 7
REMARK VINA RESULT:    -3.077      2.348      4.155
REMARK INTER + INTRA:          -5.905
REMARK INTER:                  -5.363
REMARK INTRA:                  -0.542
REMARK UNBOUND:                -0.670
REMARK SMILES CCCCCCCCCCCCCC(=O)[O-]
REMARK SMILES IDX 8 1 9 2 10 3 11 4 12 5 13 6 14 7 15 8 16 9 7 10 6 11 5 12
REMARK SMILES IDX 4 13 3 14 2 15 1 16
REMARK H PARENT
REMARK Flexibility Score: inf
ROOT
ATOM      1  C   UNL     1      15.396  -7.505   6.922  1.00  0.00     0.000 C 
ENDROOT
BRANCH   1   2
ATOM      2  C   UNL     1      16.565  -8.027   6.079  1.00  0.00     0.000 C 
BRANCH   2   3
ATOM      3  C   UNL     1      17.880  -7.348   6.480  1.00  0.00     0.000 C 
BRANCH   3   4
ATOM      4  C   UNL     1      19.065  -8.317   6.338  1.00  0.00     0.000 C 
BRANCH   4   5
ATOM      5  C   UNL     1      20.179  -7.762   5.438  1.00  0.00     0.006 C 
BRANCH   5   6
ATOM      6  C   UNL     1      19.811  -6.413   4.807  1.00  0.00     0.053 C 
BRANCH   6   7
ATOM      7  C   UNL     1      21.017  -5.529   4.728  1.00  0.00     0.041 C 
ATOM      8  O   UNL     1      20.881  -4.279   4.643  1.00  0.00    -0.550 OA
ATOM      9  O   UNL     1      22.289  -6.080   4.798  1.00  0.00    -0.550 OA
ENDBRANCH   6   7
ENDBRANCH   5   6
ENDBRANCH   4   5
ENDBRANCH   3   4
ENDBRANCH   2   3
ENDBRANCH   1   2
BRANCH   1  10
ATOM     10  C   UNL     1      14.095  -8.240   6.577  1.00  0.00     0.000 C 
BRANCH  10  11
ATOM     11  C   UNL     1      13.812  -8.181   5.070  1.00  0.00    -0.000 C 
BRANCH  11  12
ATOM     12  C   UNL     1      12.383  -7.686   4.800  1.00  0.00    -0.000 C 
BRANCH  12  13
ATOM     13  C   UNL     1      11.459  -7.848   6.017  1.00  0.00    -0.000 C 
BRANCH  13  14
ATOM     14  C   UNL     1       9.975  -7.934   5.627  1.00  0.00    -0.000 C 
BRANCH  14  15
ATOM     15  C   UNL     1       9.348  -9.235   6.144  1.00  0.00    -0.003 C 
ATOM     16  C   UNL     1       8.267  -8.950   7.182  1.00  0.00     0.004 C 
ENDBRANCH  14  15
ENDBRANCH  13  14
ENDBRANCH  12  13
ENDBRANCH  11  12
ENDBRANCH  10  11
ENDBRANCH   1  10
TORSDOF 12
ENDMDL
MODEL 8
REMARK VINA RESULT:    -3.050      4.167      9.084
REMARK INTER + INTRA:          -5.860
REMARK INTER:                  -5.022
REMARK INTRA:                  -0.838
REMARK UNBOUND:                -0.670
REMARK SMILES CCCCCCCCCCCCCC(=O)[O-]
REMARK SMILES IDX 8 1 9 2 10 3 11 4 12 5 13 6 14 7 15 8 16 9 7 10 6 11 5 12
REMARK SMILES IDX 4 13 3 14 2 15 1 16
REMARK H PARENT
REMARK Flexibility Score: inf
ROOT
ATOM      1  C   UNL     1      15.438  -8.128   6.216  1.00  0.00     0.000 C 
ENDROOT
BRANCH   1   2
ATOM      2  C   UNL     1      13.972  -8.251   6.643  1.00  0.00     0.000 C 
BRANCH   2   3
ATOM      3  C   UNL     1      13.073  -8.581   5.445  1.00  0.00     0.000 C 
BRANCH   3   4
ATOM      4  C   UNL     1      11.879  -7.617   5.371  1.00  0.00     0.000 C 
BRANCH   4   5
ATOM      5  C   UNL     1      10.740  -8.012   6.324  1.00  0.00     0.006 C 
BRANCH   5   6
ATOM      6  C   UNL     1       9.526  -8.589   5.587  1.00  0.00     0.053 C 
BRANCH   6   7
ATOM      7  C   UNL     1       8.435  -8.919   6.558  1.00  0.00     0.041 C 
ATOM      8  O   UNL     1       7.319  -8.341   6.477  1.00  0.00    -0.550 OA
ATOM      9  O   UNL     1       8.634  -9.900   7.520  1.00  0.00    -0.550 OA
ENDBRANCH   6   7
ENDBRANCH   5   6
ENDBRANCH   4   5
ENDBRANCH   3   4
ENDBRANCH   2   3
ENDBRANCH   1   2
BRANCH   1  10
ATOM     10  C   UNL     1      15.758  -9.083   5.060  1.00  0.00     0.000 C 
BRANCH  10  11
ATOM     11  C   UNL     1      16.853 -10.081   5.456  1.00  0.00    -0.000 C 
BRANCH  11  12
ATOM     12  C   UNL     1      18.235  -9.410   5.454  1.00  0.00    -0.000 C 
BRANCH  12  13
ATOM     13  C   UNL     1      19.178  -9.993   6.518  1.00  0.00    -0.000 C 
BRANCH  13  14
ATOM     14  C   UNL     1      19.587  -8.958   7.578  1.00  0.00    -0.000 C 
BRANCH  14  15
ATOM     15  C   UNL     1      19.078  -7.561   7.203  1.00  0.00    -0.003 C 
ATOM     16  C   UNL     1      18.543  -6.822   8.426  1.00  0.00     0.004 C 
ENDBRANCH  14  15
ENDBRANCH  13  14
ENDBRANCH  12  13
ENDBRANCH  11  12
ENDBRANCH  10  11
ENDBRANCH   1  10
TORSDOF 12
ENDMDL
MODEL 9
REMARK VINA RESULT:    -0.656      4.569      8.730
REMARK INTER + INTRA:          -1.786
REMARK INTER:                  -0.769
REMARK INTRA:                  -1.017
REMARK UNBOUND:                -0.670
REMARK SMILES CCCCCCCCCCCCCC(=O)[O-]
REMARK SMILES IDX 8 1 9 2 10 3 11 4 12 5 13 6 14 7 15 8 16 9 7 10 6 11 5 12
REMARK SMILES IDX 4 13 3 14 2 15 1 16
REMARK H PARENT
REMARK Flexibility Score: inf
ROOT
ATOM      1  C   UNL     1      11.008  -7.813   6.191  1.00  0.00     0.000 C 
ENDROOT
BRANCH   1   2
ATOM      2  C   UNL     1       9.739  -8.633   6.449  1.00  0.00     0.000 C 
BRANCH   2   3
ATOM      3  C   UNL     1       9.319  -9.409   5.195  1.00  0.00     0.000 C 
BRANCH   3   4
ATOM      4  C   UNL     1       7.977 -10.125   5.414  1.00  0.00     0.000 C 
BRANCH   4   5
ATOM      5  C   UNL     1       7.055  -9.371   6.384  1.00  0.00     0.006 C 
BRANCH   5   6
ATOM      6  C   UNL     1       5.958  -8.580   5.662  1.00  0.00     0.053 C 
BRANCH   6   7
ATOM      7  C   UNL     1       6.339  -7.135   5.560  1.00  0.00     0.041 C 
ATOM      8  O   UNL     1       7.042  -6.733   4.596  1.00  0.00    -0.550 OA
ATOM      9  O   UNL     1       5.876  -6.226   6.502  1.00  0.00    -0.550 OA
ENDBRANCH   6   7
ENDBRANCH   5   6
ENDBRANCH   4   5
ENDBRANCH   3   4
ENDBRANCH   2   3
ENDBRANCH   1   2
BRANCH   1  10
ATOM     10  C   UNL     1      11.570  -8.093   4.792  1.00  0.00     0.000 C 
BRANCH  10  11
ATOM     11  C   UNL     1      13.101  -8.183   4.821  1.00  0.00    -0.000 C 
BRANCH  11  12
ATOM     12  C   UNL     1      13.617  -8.297   6.264  1.00  0.00    -0.000 C 
BRANCH  12  13
ATOM     13  C   UNL     1      15.068  -8.800   6.336  1.00  0.00    -0.000 C 
BRANCH  13  14
ATOM     14  C   UNL     1      15.781  -8.749   4.976  1.00  0.00    -0.000 C 
BRANCH  14  15
ATOM     15  C   UNL     1      16.844  -7.645   4.957  1.00  0.00    -0.003 C 
ATOM     16  C   UNL     1      16.307  -6.372   4.309  1.00  0.00     0.004 C 
ENDBRANCH  14  15
ENDBRANCH  13  14
ENDBRANCH  12  13
ENDBRANCH  11  12
ENDBRANCH  10  11
ENDBRANCH   1  10
TORSDOF 12
ENDMDL
