MODEL 1
REMARK VINA RESULT:    -3.703      0.000      0.000
REMARK INTER + INTRA:          -4.838
REMARK INTER:                  -4.785
REMARK INTRA:                  -0.053
REMARK UNBOUND:                -0.053
REMARK SMILES CCCCCCC=O
REMARK SMILES IDX 4 1 3 2 2 3 1 4 5 5 6 6 7 7 8 8
REMARK H PARENT
REMARK Flexibility Score: inf
ROOT
ATOM      1  C   UNL     1      25.448  58.032  -9.022  1.00  0.00     0.000 C 
ENDROOT
BRANCH   1   2
ATOM      2  C   UNL     1      26.671  58.330  -9.898  1.00  0.00    -0.000 C 
BRANCH   2   3
ATOM      3  C   UNL     1      26.977  59.832  -9.923  1.00  0.00    -0.003 C 
ATOM      4  C   UNL     1      28.175  60.136 -10.818  1.00  0.00     0.004 C 
ENDBRANCH   2   3
ENDBRANCH   1   2
BRANCH   1   5
ATOM      5  C   UNL     1      25.482  56.587  -8.503  1.00  0.00     0.008 C 
BRANCH   5   6
ATOM      6  C   UNL     1      24.155  55.856  -8.744  1.00  0.00     0.072 C 
BRANCH   6   7
ATOM      7  C   UNL     1      23.560  55.332  -7.469  1.00  0.00     0.224 C 
ATOM      8  O   UNL     1      22.580  54.605  -7.496  1.00  0.00    -0.303 OA
ENDBRANCH   6   7
ENDBRANCH   5   6
ENDBRANCH   1   5
TORSDOF 5
ENDMDL
MODEL 2
REMARK VINA RESULT:    -3.619      3.309      5.723
REMARK INTER + INTRA:          -4.729
REMARK INTER:                  -4.677
REMARK INTRA:                  -0.052
REMARK UNBOUND:                -0.053
REMARK SMILES CCCCCCC=O
REMARK SMILES IDX 4 1 3 2 2 3 1 4 5 5 6 6 7 7 8 8
REMARK H PARENT
REMARK Flexibility Score: inf
ROOT
ATOM      1  C   UNL     1      25.902  57.049  -8.954  1.00  0.00     0.000 C 
ENDROOT
BRANCH   1   2
ATOM      2  C   UNL     1      24.442  56.660  -8.693  1.00  0.00    -0.000 C 
BRANCH   2   3
ATOM      3  C   UNL     1      24.354  55.413  -7.805  1.00  0.00    -0.003 C 
ATOM      4  C   UNL     1      22.905  55.076  -7.468  1.00  0.00     0.004 C 
ENDBRANCH   2   3
ENDBRANCH   1   2
BRANCH   1   5
ATOM      5  C   UNL     1      26.011  58.517  -9.391  1.00  0.00     0.008 C 
BRANCH   5   6
ATOM      6  C   UNL     1      27.137  58.735 -10.410  1.00  0.00     0.072 C 
BRANCH   6   7
ATOM      7  C   UNL     1      27.754  60.097 -10.286  1.00  0.00     0.224 C 
ATOM      8  O   UNL     1      28.370  60.585 -11.221  1.00  0.00    -0.303 OA
ENDBRANCH   6   7
ENDBRANCH   5   6
ENDBRANCH   1   5
TORSDOF 5
ENDMDL
MODEL 3
REMARK VINA RESULT:    -3.612     17.004     18.280
REMARK INTER + INTRA:          -4.720
REMARK INTER:                  -4.490
REMARK INTRA:                  -0.230
REMARK UNBOUND:                -0.053
REMARK SMILES CCCCCCC=O
REMARK SMILES IDX 4 1 3 2 2 3 1 4 5 5 6 6 7 7 8 8
REMARK H PARENT
REMARK Flexibility Score: inf
ROOT
ATOM      1  C   UNL     1      17.959  44.832   0.090  1.00  0.00     0.000 C 
ENDROOT
BRANCH   1   2
ATOM      2  C   UNL     1      17.325  44.087   1.270  1.00  0.00    -0.000 C 
BRANCH   2   3
ATOM      3  C   UNL     1      15.998  44.737   1.682  1.00  0.00    -0.003 C 
ATOM      4  C   UNL     1      15.317  45.402   0.489  1.00  0.00     0.004 C 
ENDBRANCH   2   3
ENDBRANCH   1   2
BRANCH   1   5
ATOM      5  C   UNL     1      19.491  44.831   0.199  1.00  0.00     0.008 C 
BRANCH   5   6
ATOM      6  C   UNL     1      19.978  44.193   1.507  1.00  0.00     0.072 C 
BRANCH   6   7
ATOM      7  C   UNL     1      20.923  43.053   1.261  1.00  0.00     0.224 C 
ATOM      8  O   UNL     1      20.916  42.462   0.193  1.00  0.00    -0.303 OA
ENDBRANCH   6   7
ENDBRANCH   5   6
ENDBRANCH   1   5
TORSDOF 5
ENDMDL
MODEL 4
REMARK VINA RESULT:    -3.468     15.356     17.172
REMARK INTER + INTRA:          -4.534
REMARK INTER:                  -4.385
REMARK INTRA:                  -0.150
REMARK UNBOUND:                -0.053
REMARK SMILES CCCCCCC=O
REMARK SMILES IDX 4 1 3 2 2 3 1 4 5 5 6 6 7 7 8 8
REMARK H PARENT
REMARK Flexibility Score: inf
ROOT
ATOM      1  C   UNL     1      31.383  44.390   1.062  1.00  0.00     0.000 C 
ENDROOT
BRANCH   1   2
ATOM      2  C   UNL     1      30.232  45.397   0.957  1.00  0.00    -0.000 C 
BRANCH   2   3
ATOM      3  C   UNL     1      29.239  44.986  -0.136  1.00  0.00    -0.003 C 
ATOM      4  C   UNL     1      28.270  46.120  -0.457  1.00  0.00     0.004 C 
ENDBRANCH   2   3
ENDBRANCH   1   2
BRANCH   1   5
ATOM      5  C   UNL     1      32.398  44.824   2.130  1.00  0.00     0.008 C 
BRANCH   5   6
ATOM      6  C   UNL     1      32.646  46.338   2.110  1.00  0.00     0.072 C 
BRANCH   6   7
ATOM      7  C   UNL     1      32.637  46.929   3.490  1.00  0.00     0.224 C 
ATOM      8  O   UNL     1      31.740  47.681   3.836  1.00  0.00    -0.303 OA
ENDBRANCH   6   7
ENDBRANCH   5   6
ENDBRANCH   1   5
TORSDOF 5
ENDMDL
MODEL 5
REMARK VINA RESULT:    -3.430     16.941     17.971
REMARK INTER + INTRA:          -4.486
REMARK INTER:                  -4.255
REMARK INTRA:                  -0.231
REMARK UNBOUND:                -0.053
REMARK SMILES CCCCCCC=O
REMARK SMILES IDX 4 1 3 2 2 3 1 4 5 5 6 6 7 7 8 8
REMARK H PARENT
REMARK Flexibility Score: inf
ROOT
ATOM      1  C   UNL     1      19.562  44.928   0.078  1.00  0.00     0.000 C 
ENDROOT
BRANCH   1   2
ATOM      2  C   UNL     1      19.588  44.444   1.533  1.00  0.00    -0.000 C 
BRANCH   2   3
ATOM      3  C   UNL     1      20.107  43.004   1.625  1.00  0.00    -0.003 C 
ATOM      4  C   UNL     1      20.956  42.645   0.409  1.00  0.00     0.004 C 
ENDBRANCH   2   3
ENDBRANCH   1   2
BRANCH   1   5
ATOM      5  C   UNL     1      18.157  45.403  -0.319  1.00  0.00     0.008 C 
BRANCH   5   6
ATOM      6  C   UNL     1      17.062  44.452   0.183  1.00  0.00     0.072 C 
BRANCH   6   7
ATOM      7  C   UNL     1      15.948  45.187   0.870  1.00  0.00     0.224 C 
ATOM      8  O   UNL     1      15.398  44.704   1.847  1.00  0.00    -0.303 OA
ENDBRANCH   6   7
ENDBRANCH   5   6
ENDBRANCH   1   5
TORSDOF 5
ENDMDL
MODEL 6
REMARK VINA RESULT:    -3.384     15.497     16.853
REMARK INTER + INTRA:          -4.425
REMARK INTER:                  -4.234
REMARK INTRA:                  -0.192
REMARK UNBOUND:                -0.053
REMARK SMILES CCCCCCC=O
REMARK SMILES IDX 4 1 3 2 2 3 1 4 5 5 6 6 7 7 8 8
REMARK H PARENT
REMARK Flexibility Score: inf
ROOT
ATOM      1  C   UNL     1      32.208  44.639   1.831  1.00  0.00     0.000 C 
ENDROOT
BRANCH   1   2
ATOM      2  C   UNL     1      32.510  46.137   1.961  1.00  0.00    -0.000 C 
BRANCH   2   3
ATOM      3  C   UNL     1      32.788  46.517   3.420  1.00  0.00    -0.003 C 
ATOM      4  C   UNL     1      32.034  47.783   3.814  1.00  0.00     0.004 C 
ENDBRANCH   2   3
ENDBRANCH   1   2
BRANCH   1   5
ATOM      5  C   UNL     1      31.050  44.395   0.853  1.00  0.00     0.008 C 
BRANCH   5   6
ATOM      6  C   UNL     1      29.991  45.504   0.922  1.00  0.00     0.072 C 
BRANCH   6   7
ATOM      7  C   UNL     1      28.908  45.314  -0.099  1.00  0.00     0.224 C 
ATOM      8  O   UNL     1      28.469  46.268  -0.722  1.00  0.00    -0.303 OA
ENDBRANCH   6   7
ENDBRANCH   5   6
ENDBRANCH   1   5
TORSDOF 5
ENDMDL
MODEL 7
REMARK VINA RESULT:    -3.364     16.414     17.863
REMARK INTER + INTRA:          -4.400
REMARK INTER:                  -4.163
REMARK INTRA:                  -0.237
REMARK UNBOUND:                -0.053
REMARK SMILES CCCCCCC=O
REMARK SMILES IDX 4 1 3 2 2 3 1 4 5 5 6 6 7 7 8 8
REMARK H PARENT
REMARK Flexibility Score: inf
ROOT
ATOM      1  C   UNL     1      17.373  44.054   0.872  1.00  0.00     0.000 C 
ENDROOT
BRANCH   1   2
ATOM      2  C   UNL     1      18.536  43.973   1.868  1.00  0.00    -0.000 C 
BRANCH   2   3
ATOM      3  C   UNL     1      19.840  44.468   1.233  1.00  0.00    -0.003 C 
ATOM      4  C   UNL     1      19.571  45.213  -0.071  1.00  0.00     0.004 C 
ENDBRANCH   2   3
ENDBRANCH   1   2
BRANCH   1   5
ATOM      5  C   UNL     1      16.136  44.691   1.522  1.00  0.00     0.008 C 
BRANCH   5   6
ATOM      6  C   UNL     1      15.253  45.416   0.497  1.00  0.00     0.072 C 
BRANCH   6   7
ATOM      7  C   UNL     1      15.979  45.670  -0.792  1.00  0.00     0.224 C 
ATOM      8  O   UNL     1      15.358  45.817  -1.834  1.00  0.00    -0.303 OA
ENDBRANCH   6   7
ENDBRANCH   5   6
ENDBRANCH   1   5
TORSDOF 5
ENDMDL
MODEL 8
REMARK VINA RESULT:    -3.295      5.066      6.902
REMARK INTER + INTRA:          -4.311
REMARK INTER:                  -4.108
REMARK INTRA:                  -0.203
REMARK UNBOUND:                -0.053
REMARK SMILES CCCCCCC=O
REMARK SMILES IDX 4 1 3 2 2 3 1 4 5 5 6 6 7 7 8 8
REMARK H PARENT
REMARK Flexibility Score: inf
ROOT
ATOM      1  C   UNL     1      29.990  57.613 -13.124  1.00  0.00     0.000 C 
ENDROOT
BRANCH   1   2
ATOM      2  C   UNL     1      31.256  56.827 -13.481  1.00  0.00    -0.000 C 
BRANCH   2   3
ATOM      3  C   UNL     1      32.394  57.771 -13.889  1.00  0.00    -0.003 C 
ATOM      4  C   UNL     1      33.753  57.198 -13.498  1.00  0.00     0.004 C 
ENDBRANCH   2   3
ENDBRANCH   1   2
BRANCH   1   5
ATOM      5  C   UNL     1      30.338  59.036 -12.661  1.00  0.00     0.008 C 
BRANCH   5   6
ATOM      6  C   UNL     1      29.989  59.264 -11.184  1.00  0.00     0.072 C 
BRANCH   6   7
ATOM      7  C   UNL     1      28.572  59.725 -11.004  1.00  0.00     0.224 C 
ATOM      8  O   UNL     1      27.672  58.914 -10.848  1.00  0.00    -0.303 OA
ENDBRANCH   6   7
ENDBRANCH   5   6
ENDBRANCH   1   5
TORSDOF 5
ENDMDL
MODEL 9
REMARK VINA RESULT:    -3.234      5.585      7.538
REMARK INTER + INTRA:          -4.233
REMARK INTER:                  -4.054
REMARK INTRA:                  -0.179
REMARK UNBOUND:                -0.053
REMARK SMILES CCCCCCC=O
REMARK SMILES IDX 4 1 3 2 2 3 1 4 5 5 6 6 7 7 8 8
REMARK H PARENT
REMARK Flexibility Score: inf
ROOT
ATOM      1  C   UNL     1      30.324  59.154 -12.394  1.00  0.00     0.000 C 
ENDROOT
BRANCH   1   2
ATOM      2  C   UNL     1      29.813  59.242 -10.952  1.00  0.00    -0.000 C 
BRANCH   2   3
ATOM      3  C   UNL     1      28.406  59.849 -10.903  1.00  0.00    -0.003 C 
ATOM      4  C   UNL     1      27.382  58.831 -10.408  1.00  0.00     0.004 C 
ENDBRANCH   2   3
ENDBRANCH   1   2
BRANCH   1   5
ATOM      5  C   UNL     1      29.953  57.806 -13.029  1.00  0.00     0.008 C 
BRANCH   5   6
ATOM      6  C   UNL     1      31.188  56.940 -13.310  1.00  0.00     0.072 C 
BRANCH   6   7
ATOM      7  C   UNL     1      32.439  57.761 -13.423  1.00  0.00     0.224 C 
ATOM      8  O   UNL     1      32.863  58.097 -14.517  1.00  0.00    -0.303 OA
ENDBRANCH   6   7
ENDBRANCH   5   6
ENDBRANCH   1   5
TORSDOF 5
ENDMDL
