MODEL 1
REMARK VINA RESULT:    -4.104      0.000      0.000
REMARK INTER + INTRA:          -6.519
REMARK INTER:                  -6.023
REMARK INTRA:                  -0.497
REMARK UNBOUND:                -0.497
REMARK SMILES O=C([O-])CCCCCCCC(=O)[O-]
REMARK SMILES IDX 7 1 6 2 5 3 4 4 2 5 1 6 3 7 8 8 9 9 10 10 11 11 12 12 13 13
REMARK H PARENT
REMARK Flexibility Score: inf
ROOT
ATOM      1  C   UNL     1      -5.220   3.132  -8.846  1.00  0.00     0.000 C 
ENDROOT
BRANCH   1   2
ATOM      2  C   UNL     1      -5.563   4.468  -9.526  1.00  0.00     0.000 C 
BRANCH   2   3
ATOM      3  C   UNL     1      -5.286   5.680  -8.623  1.00  0.00     0.006 C 
BRANCH   3   4
ATOM      4  C   UNL     1      -5.029   6.937  -9.459  1.00  0.00     0.053 C 
BRANCH   4   5
ATOM      5  C   UNL     1      -4.969   8.146  -8.582  1.00  0.00     0.041 C 
ATOM      6  O   UNL     1      -5.989   8.515  -7.941  1.00  0.00    -0.550 OA
ATOM      7  O   UNL     1      -3.774   8.839  -8.432  1.00  0.00    -0.550 OA
ENDBRANCH   4   5
ENDBRANCH   3   4
ENDBRANCH   2   3
ENDBRANCH   1   2
BRANCH   1   8
ATOM      8  C   UNL     1      -6.324   2.078  -9.022  1.00  0.00     0.000 C 
BRANCH   8   9
ATOM      9  C   UNL     1      -7.710   2.736  -9.053  1.00  0.00     0.006 C 
BRANCH   9  10
ATOM     10  C   UNL     1      -8.472   2.473  -7.751  1.00  0.00     0.053 C 
BRANCH  10  11
ATOM     11  C   UNL     1      -8.749   3.757  -7.038  1.00  0.00     0.041 C 
ATOM     12  O   UNL     1      -9.074   3.750  -5.821  1.00  0.00    -0.550 OA
ATOM     13  O   UNL     1      -8.699   4.962  -7.729  1.00  0.00    -0.550 OA
ENDBRANCH  10  11
ENDBRANCH   9  10
ENDBRANCH   8   9
ENDBRANCH   1   8
TORSDOF 8
ENDMDL
MODEL 2
REMARK VINA RESULT:    -4.081     22.000     23.076
REMARK INTER + INTRA:          -6.486
REMARK INTER:                  -6.137
REMARK INTRA:                  -0.349
REMARK UNBOUND:                -0.497
REMARK SMILES O=C([O-])CCCCCCCC(=O)[O-]
REMARK SMILES IDX 7 1 6 2 5 3 4 4 2 5 1 6 3 7 8 8 9 9 10 10 11 11 12 12 13 13
REMARK H PARENT
REMARK Flexibility Score: inf
ROOT
ATOM      1  C   UNL     1       6.398  -8.511   5.556  1.00  0.00     0.000 C 
ENDROOT
BRANCH   1   2
ATOM      2  C   UNL     1       7.677  -8.668   6.395  1.00  0.00     0.000 C 
BRANCH   2   3
ATOM      3  C   UNL     1       7.566  -8.003   7.775  1.00  0.00     0.006 C 
BRANCH   3   4
ATOM      4  C   UNL     1       6.922  -6.617   7.664  1.00  0.00     0.053 C 
BRANCH   4   5
ATOM      5  C   UNL     1       7.883  -5.557   8.098  1.00  0.00     0.041 C 
ATOM      6  O   UNL     1       7.512  -4.356   8.167  1.00  0.00    -0.550 OA
ATOM      7  O   UNL     1       9.175  -5.901   8.475  1.00  0.00    -0.550 OA
ENDBRANCH   4   5
ENDBRANCH   3   4
ENDBRANCH   2   3
ENDBRANCH   1   2
BRANCH   1   8
ATOM      8  C   UNL     1       5.275  -9.459   6.005  1.00  0.00     0.000 C 
BRANCH   8   9
ATOM      9  C   UNL     1       4.600 -10.120   4.796  1.00  0.00     0.006 C 
BRANCH   9  10
ATOM     10  C   UNL     1       4.867  -9.325   3.515  1.00  0.00     0.053 C 
BRANCH  10  11
ATOM     11  C   UNL     1       3.673  -9.364   2.615  1.00  0.00     0.041 C 
ATOM     12  O   UNL     1       3.003 -10.424   2.497  1.00  0.00    -0.550 OA
ATOM     13  O   UNL     1       3.328  -8.245   1.867  1.00  0.00    -0.550 OA
ENDBRANCH  10  11
ENDBRANCH   9  10
ENDBRANCH   8   9
ENDBRANCH   1   8
TORSDOF 8
ENDMDL
MODEL 3
REMARK VINA RESULT:    -4.047      0.747      5.305
REMARK INTER + INTRA:          -6.436
REMARK INTER:                  -5.986
REMARK INTRA:                  -0.450
REMARK UNBOUND:                -0.497
REMARK SMILES O=C([O-])CCCCCCCC(=O)[O-]
REMARK SMILES IDX 7 1 6 2 5 3 4 4 2 5 1 6 3 7 8 8 9 9 10 10 11 11 12 12 13 13
REMARK H PARENT
REMARK Flexibility Score: inf
ROOT
ATOM      1  C   UNL     1      -4.890   3.819  -8.897  1.00  0.00     0.000 C 
ENDROOT
BRANCH   1   2
ATOM      2  C   UNL     1      -5.880   2.937  -9.674  1.00  0.00     0.000 C 
BRANCH   2   3
ATOM      3  C   UNL     1      -6.713   2.031  -8.755  1.00  0.00     0.006 C 
BRANCH   3   4
ATOM      4  C   UNL     1      -8.193   2.425  -8.793  1.00  0.00     0.053 C 
BRANCH   4   5
ATOM      5  C   UNL     1      -8.589   3.098  -7.518  1.00  0.00     0.041 C 
ATOM      6  O   UNL     1      -8.921   2.411  -6.515  1.00  0.00    -0.550 OA
ATOM      7  O   UNL     1      -8.544   4.483  -7.419  1.00  0.00    -0.550 OA
ENDBRANCH   4   5
ENDBRANCH   3   4
ENDBRANCH   2   3
ENDBRANCH   1   2
BRANCH   1   8
ATOM      8  C   UNL     1      -5.377   5.268  -8.749  1.00  0.00     0.000 C 
BRANCH   8   9
ATOM      9  C   UNL     1      -4.716   6.178  -9.792  1.00  0.00     0.006 C 
BRANCH   9  10
ATOM     10  C   UNL     1      -5.422   7.535  -9.865  1.00  0.00     0.053 C 
BRANCH  10  11
ATOM     11  C   UNL     1      -5.097   8.360  -8.661  1.00  0.00     0.041 C 
ATOM     12  O   UNL     1      -6.002   8.671  -7.842  1.00  0.00    -0.550 OA
ATOM     13  O   UNL     1      -3.803   8.828  -8.466  1.00  0.00    -0.550 OA
ENDBRANCH  10  11
ENDBRANCH   9  10
ENDBRANCH   8   9
ENDBRANCH   1   8
TORSDOF 8
ENDMDL
MODEL 4
REMARK VINA RESULT:    -3.943     11.039     13.869
REMARK INTER + INTRA:          -6.283
REMARK INTER:                  -5.831
REMARK INTRA:                  -0.452
REMARK UNBOUND:                -0.497
REMARK SMILES O=C([O-])CCCCCCCC(=O)[O-]
REMARK SMILES IDX 7 1 6 2 5 3 4 4 2 5 1 6 3 7 8 8 9 9 10 10 11 11 12 12 13 13
REMARK H PARENT
REMARK Flexibility Score: inf
ROOT
ATOM      1  C   UNL     1      -4.182  -8.584  -6.919  1.00  0.00     0.000 C 
ENDROOT
BRANCH   1   2
ATOM      2  C   UNL     1      -5.242  -9.697  -6.953  1.00  0.00     0.000 C 
BRANCH   2   3
ATOM      3  C   UNL     1      -5.548 -10.267  -5.560  1.00  0.00     0.006 C 
BRANCH   3   4
ATOM      4  C   UNL     1      -6.972  -9.909  -5.123  1.00  0.00     0.053 C 
BRANCH   4   5
ATOM      5  C   UNL     1      -6.972  -9.370  -3.729  1.00  0.00     0.041 C 
ATOM      6  O   UNL     1      -5.963  -9.521  -2.990  1.00  0.00    -0.550 OA
ATOM      7  O   UNL     1      -8.068  -8.657  -3.259  1.00  0.00    -0.550 OA
ENDBRANCH   4   5
ENDBRANCH   3   4
ENDBRANCH   2   3
ENDBRANCH   1   2
BRANCH   1   8
ATOM      8  C   UNL     1      -4.797  -7.187  -6.736  1.00  0.00     0.000 C 
BRANCH   8   9
ATOM      9  C   UNL     1      -6.142  -7.080  -7.466  1.00  0.00     0.006 C 
BRANCH   9  10
ATOM     10  C   UNL     1      -6.437  -5.632  -7.866  1.00  0.00     0.053 C 
BRANCH  10  11
ATOM     11  C   UNL     1      -7.911  -5.407  -7.971  1.00  0.00     0.041 C 
ATOM     12  O   UNL     1      -8.511  -4.720  -7.103  1.00  0.00    -0.550 OA
ATOM     13  O   UNL     1      -8.634  -5.999  -9.000  1.00  0.00    -0.550 OA
ENDBRANCH  10  11
ENDBRANCH   9  10
ENDBRANCH   8   9
ENDBRANCH   1   8
TORSDOF 8
ENDMDL
MODEL 5
REMARK VINA RESULT:    -3.918     21.907     23.404
REMARK INTER + INTRA:          -6.247
REMARK INTER:                  -5.928
REMARK INTRA:                  -0.318
REMARK UNBOUND:                -0.497
REMARK SMILES O=C([O-])CCCCCCCC(=O)[O-]
REMARK SMILES IDX 7 1 6 2 5 3 4 4 2 5 1 6 3 7 8 8 9 9 10 10 11 11 12 12 13 13
REMARK H PARENT
REMARK Flexibility Score: inf
ROOT
ATOM      1  C   UNL     1       6.415  -8.891   5.528  1.00  0.00     0.000 C 
ENDROOT
BRANCH   1   2
ATOM      2  C   UNL     1       5.235  -9.717   6.063  1.00  0.00     0.000 C 
BRANCH   2   3
ATOM      3  C   UNL     1       4.238 -10.109   4.961  1.00  0.00     0.006 C 
BRANCH   3   4
ATOM      4  C   UNL     1       4.705  -9.599   3.595  1.00  0.00     0.053 C 
BRANCH   4   5
ATOM      5  C   UNL     1       3.589  -9.666   2.602  1.00  0.00     0.041 C 
ATOM      6  O   UNL     1       3.456  -8.760   1.736  1.00  0.00    -0.550 OA
ATOM      7  O   UNL     1       2.725 -10.754   2.599  1.00  0.00    -0.550 OA
ENDBRANCH   4   5
ENDBRANCH   3   4
ENDBRANCH   2   3
ENDBRANCH   1   2
BRANCH   1   8
ATOM      8  C   UNL     1       6.641  -7.597   6.324  1.00  0.00     0.000 C 
BRANCH   8   9
ATOM      9  C   UNL     1       7.192  -7.903   7.723  1.00  0.00     0.006 C 
BRANCH   9  10
ATOM     10  C   UNL     1       8.071  -6.756   8.231  1.00  0.00     0.053 C 
BRANCH  10  11
ATOM     11  C   UNL     1       7.233  -5.566   8.574  1.00  0.00     0.041 C 
ATOM     12  O   UNL     1       6.184  -5.705   9.258  1.00  0.00    -0.550 OA
ATOM     13  O   UNL     1       7.582  -4.309   8.097  1.00  0.00    -0.550 OA
ENDBRANCH  10  11
ENDBRANCH   9  10
ENDBRANCH   8   9
ENDBRANCH   1   8
TORSDOF 8
ENDMDL
MODEL 6
REMARK VINA RESULT:    -3.902     21.188     22.838
REMARK INTER + INTRA:          -6.224
REMARK INTER:                  -5.612
REMARK INTRA:                  -0.612
REMARK UNBOUND:                -0.497
REMARK SMILES O=C([O-])CCCCCCCC(=O)[O-]
REMARK SMILES IDX 7 1 6 2 5 3 4 4 2 5 1 6 3 7 8 8 9 9 10 10 11 11 12 12 13 13
REMARK H PARENT
REMARK Flexibility Score: inf
ROOT
ATOM      1  C   UNL     1       6.002  -9.856   5.973  1.00  0.00     0.000 C 
ENDROOT
BRANCH   1   2
ATOM      2  C   UNL     1       5.180  -9.856   7.272  1.00  0.00     0.000 C 
BRANCH   2   3
ATOM      3  C   UNL     1       3.815  -9.170   7.110  1.00  0.00     0.006 C 
BRANCH   3   4
ATOM      4  C   UNL     1       2.759 -10.163   6.616  1.00  0.00     0.053 C 
BRANCH   4   5
ATOM      5  C   UNL     1       1.398  -9.754   7.081  1.00  0.00     0.041 C 
ATOM      6  O   UNL     1       0.403  -9.881   6.318  1.00  0.00    -0.550 OA
ATOM      7  O   UNL     1       1.218  -9.279   8.374  1.00  0.00    -0.550 OA
ENDBRANCH   4   5
ENDBRANCH   3   4
ENDBRANCH   2   3
ENDBRANCH   1   2
BRANCH   1   8
ATOM      8  C   UNL     1       6.001  -8.488   5.273  1.00  0.00     0.000 C 
BRANCH   8   9
ATOM      9  C   UNL     1       5.664  -8.635   3.783  1.00  0.00     0.006 C 
BRANCH   9  10
ATOM     10  C   UNL     1       4.871  -9.919   3.523  1.00  0.00     0.053 C 
BRANCH  10  11
ATOM     11  C   UNL     1       3.674  -9.633   2.675  1.00  0.00     0.041 C 
ATOM     12  O   UNL     1       3.540  -8.507   2.125  1.00  0.00    -0.550 OA
ATOM     13  O   UNL     1       2.678 -10.591   2.530  1.00  0.00    -0.550 OA
ENDBRANCH  10  11
ENDBRANCH   9  10
ENDBRANCH   8   9
ENDBRANCH   1   8
TORSDOF 8
ENDMDL
MODEL 7
REMARK VINA RESULT:    -3.893     10.886     13.291
REMARK INTER + INTRA:          -6.211
REMARK INTER:                  -5.759
REMARK INTRA:                  -0.452
REMARK UNBOUND:                -0.497
REMARK SMILES O=C([O-])CCCCCCCC(=O)[O-]
REMARK SMILES IDX 7 1 6 2 5 3 4 4 2 5 1 6 3 7 8 8 9 9 10 10 11 11 12 12 13 13
REMARK H PARENT
REMARK Flexibility Score: inf
ROOT
ATOM      1  C   UNL     1      -5.674  -8.148  -7.188  1.00  0.00     0.000 C 
ENDROOT
BRANCH   1   2
ATOM      2  C   UNL     1      -5.322  -6.676  -6.920  1.00  0.00     0.000 C 
BRANCH   2   3
ATOM      3  C   UNL     1      -6.150  -5.704  -7.774  1.00  0.00     0.006 C 
BRANCH   3   4
ATOM      4  C   UNL     1      -7.337  -6.422  -8.424  1.00  0.00     0.053 C 
BRANCH   4   5
ATOM      5  C   UNL     1      -8.628  -5.899  -7.880  1.00  0.00     0.041 C 
ATOM      6  O   UNL     1      -9.692  -6.554  -8.035  1.00  0.00    -0.550 OA
ATOM      7  O   UNL     1      -8.649  -4.711  -7.159  1.00  0.00    -0.550 OA
ENDBRANCH   4   5
ENDBRANCH   3   4
ENDBRANCH   2   3
ENDBRANCH   1   2
BRANCH   1   8
ATOM      8  C   UNL     1      -4.678  -9.122  -6.540  1.00  0.00     0.000 C 
BRANCH   8   9
ATOM      9  C   UNL     1      -5.393 -10.075  -5.574  1.00  0.00     0.006 C 
BRANCH   9  10
ATOM     10  C   UNL     1      -6.812  -9.587  -5.269  1.00  0.00     0.053 C 
BRANCH  10  11
ATOM     11  C   UNL     1      -6.958  -9.277  -3.814  1.00  0.00     0.041 C 
ATOM     12  O   UNL     1      -7.979  -8.669  -3.394  1.00  0.00    -0.550 OA
ATOM     13  O   UNL     1      -5.945  -9.615  -2.925  1.00  0.00    -0.550 OA
ENDBRANCH  10  11
ENDBRANCH   9  10
ENDBRANCH   8   9
ENDBRANCH   1   8
TORSDOF 8
ENDMDL
MODEL 8
REMARK VINA RESULT:    -3.846     21.077     22.456
REMARK INTER + INTRA:          -6.142
REMARK INTER:                  -5.728
REMARK INTRA:                  -0.413
REMARK UNBOUND:                -0.497
REMARK SMILES O=C([O-])CCCCCCCC(=O)[O-]
REMARK SMILES IDX 7 1 6 2 5 3 4 4 2 5 1 6 3 7 8 8 9 9 10 10 11 11 12 12 13 13
REMARK H PARENT
REMARK Flexibility Score: inf
ROOT
ATOM      1  C   UNL     1       3.923  -9.681   6.864  1.00  0.00     0.000 C 
ENDROOT
BRANCH   1   2
ATOM      2  C   UNL     1       5.095  -9.564   5.876  1.00  0.00     0.000 C 
BRANCH   2   3
ATOM      3  C   UNL     1       4.833 -10.306   4.557  1.00  0.00     0.006 C 
BRANCH   3   4
ATOM      4  C   UNL     1       4.923  -9.349   3.364  1.00  0.00     0.053 C 
BRANCH   4   5
ATOM      5  C   UNL     1       3.659  -9.386   2.566  1.00  0.00     0.041 C 
ATOM      6  O   UNL     1       3.323  -8.396   1.864  1.00  0.00    -0.550 OA
ATOM      7  O   UNL     1       2.875 -10.534   2.558  1.00  0.00    -0.550 OA
ENDBRANCH   4   5
ENDBRANCH   3   4
ENDBRANCH   2   3
ENDBRANCH   1   2
BRANCH   1   8
ATOM      8  C   UNL     1       2.762 -10.519   6.308  1.00  0.00     0.000 C 
BRANCH   8   9
ATOM      9  C   UNL     1       1.844 -11.003   7.438  1.00  0.00     0.006 C 
BRANCH   9  10
ATOM     10  C   UNL     1       0.795  -9.942   7.787  1.00  0.00     0.053 C 
BRANCH  10  11
ATOM     11  C   UNL     1      -0.549 -10.345   7.270  1.00  0.00     0.041 C 
ATOM     12  O   UNL     1      -0.877 -10.081   6.083  1.00  0.00    -0.550 OA
ATOM     13  O   UNL     1      -1.461 -10.967   8.114  1.00  0.00    -0.550 OA
ENDBRANCH  10  11
ENDBRANCH   9  10
ENDBRANCH   8   9
ENDBRANCH   1   8
TORSDOF 8
ENDMDL
MODEL 9
REMARK VINA RESULT:    -3.842     21.559     22.955
REMARK INTER + INTRA:          -6.135
REMARK INTER:                  -5.751
REMARK INTRA:                  -0.384
REMARK UNBOUND:                -0.497
REMARK SMILES O=C([O-])CCCCCCCC(=O)[O-]
REMARK SMILES IDX 7 1 6 2 5 3 4 4 2 5 1 6 3 7 8 8 9 9 10 10 11 11 12 12 13 13
REMARK H PARENT
REMARK Flexibility Score: inf
ROOT
ATOM      1  C   UNL     1       5.155  -8.462   6.950  1.00  0.00     0.000 C 
ENDROOT
BRANCH   1   2
ATOM      2  C   UNL     1       4.952  -8.704   8.454  1.00  0.00     0.000 C 
BRANCH   2   3
ATOM      3  C   UNL     1       3.477  -8.926   8.824  1.00  0.00     0.006 C 
BRANCH   3   4
ATOM      4  C   UNL     1       2.608  -7.767   8.327  1.00  0.00     0.053 C 
BRANCH   4   5
ATOM      5  C   UNL     1       2.185  -6.901   9.471  1.00  0.00     0.041 C 
ATOM      6  O   UNL     1       1.140  -7.174  10.120  1.00  0.00    -0.550 OA
ATOM      7  O   UNL     1       2.970  -5.821   9.853  1.00  0.00    -0.550 OA
ENDBRANCH   4   5
ENDBRANCH   3   4
ENDBRANCH   2   3
ENDBRANCH   1   2
BRANCH   1   8
ATOM      8  C   UNL     1       5.503  -9.749   6.185  1.00  0.00     0.000 C 
BRANCH   8   9
ATOM      9  C   UNL     1       4.465 -10.034   5.092  1.00  0.00     0.006 C 
BRANCH   9  10
ATOM     10  C   UNL     1       4.841  -9.336   3.781  1.00  0.00     0.053 C 
BRANCH  10  11
ATOM     11  C   UNL     1       3.739  -9.472   2.780  1.00  0.00     0.041 C 
ATOM     12  O   UNL     1       3.089 -10.547   2.695  1.00  0.00    -0.550 OA
ATOM     13  O   UNL     1       3.460  -8.428   1.906  1.00  0.00    -0.550 OA
ENDBRANCH  10  11
ENDBRANCH   9  10
ENDBRANCH   8   9
ENDBRANCH   1   8
TORSDOF 8
ENDMDL
