MODEL 1
REMARK VINA RESULT:     0.106      0.000      0.000
REMARK INTER + INTRA:          -1.309
REMARK INTER:                   0.242
REMARK INTRA:                  -1.551
REMARK UNBOUND:                -1.551
REMARK SMILES CCCCCCCCCCCCCCCCCCCCCCCC(=O)[O-]
REMARK SMILES IDX 13 1 14 2 15 3 16 4 17 5 18 6 19 7 20 8 21 9 22 10 23 11
REMARK SMILES IDX 24 12 25 13 26 14 12 15 11 16 10 17 9 18 8 19 7 20 6 21 5 22
REMARK SMILES IDX 4 23 3 24 2 25 1 26
REMARK H PARENT
REMARK Flexibility Score: inf
ROOT
ATOM      1  C   UNL     1       9.909 -34.926  13.869  1.00  0.00     0.000 C 
ENDROOT
BRANCH   1   2
ATOM      2  C   UNL     1       9.050 -36.053  13.269  1.00  0.00     0.000 C 
BRANCH   2   3
ATOM      3  C   UNL     1       7.638 -35.589  12.875  1.00  0.00     0.000 C 
BRANCH   3   4
ATOM      4  C   UNL     1       6.528 -36.369  13.603  1.00  0.00     0.000 C 
BRANCH   4   5
ATOM      5  C   UNL     1       6.875 -36.838  15.027  1.00  0.00     0.000 C 
BRANCH   5   6
ATOM      6  C   UNL     1       6.674 -35.740  16.087  1.00  0.00     0.000 C 
BRANCH   6   7
ATOM      7  C   UNL     1       6.028 -34.472  15.504  1.00  0.00     0.000 C 
BRANCH   7   8
ATOM      8  C   UNL     1       6.949 -33.242  15.588  1.00  0.00     0.000 C 
BRANCH   8   9
ATOM      9  C   UNL     1       8.224 -33.503  16.410  1.00  0.00     0.000 C 
BRANCH   9  10
ATOM     10  C   UNL     1       9.146 -32.281  16.583  1.00  0.00     0.006 C 
BRANCH  10  11
ATOM     11  C   UNL     1       8.582 -31.240  17.560  1.00  0.00     0.053 C 
BRANCH  11  12
ATOM     12  C   UNL     1       8.762 -31.687  18.978  1.00  0.00     0.041 C 
ATOM     13  O   UNL     1       9.530 -31.054  19.750  1.00  0.00    -0.550 OA
ATOM     14  O   UNL     1       8.100 -32.819  19.440  1.00  0.00    -0.550 OA
ENDBRANCH  11  12
ENDBRANCH  10  11
ENDBRANCH   9  10
ENDBRANCH   8   9
ENDBRANCH   7   8
ENDBRANCH   6   7
ENDBRANCH   5   6
ENDBRANCH   4   5
ENDBRANCH   3   4
ENDBRANCH   2   3
ENDBRANCH   1   2
BRANCH   1  15
ATOM     15  C   UNL     1      10.346 -33.825  12.879  1.00  0.00     0.000 C 
BRANCH  15  16
ATOM     16  C   UNL     1       9.488 -32.548  12.902  1.00  0.00     0.000 C 
BRANCH  16  17
ATOM     17  C   UNL     1      10.323 -31.270  13.093  1.00  0.00     0.000 C 
BRANCH  17  18
ATOM     18  C   UNL     1      11.361 -31.401  14.219  1.00  0.00    -0.000 C 
BRANCH  18  19
ATOM     19  C   UNL     1      12.639 -32.129  13.766  1.00  0.00    -0.000 C 
BRANCH  19  20
ATOM     20  C   UNL     1      13.923 -31.474  14.307  1.00  0.00    -0.000 C 
BRANCH  20  21
ATOM     21  C   UNL     1      14.552 -30.418  13.380  1.00  0.00    -0.000 C 
BRANCH  21  22
ATOM     22  C   UNL     1      14.381 -28.981  13.907  1.00  0.00    -0.000 C 
BRANCH  22  23
ATOM     23  C   UNL     1      15.628 -28.490  14.663  1.00  0.00    -0.000 C 
BRANCH  23  24
ATOM     24  C   UNL     1      15.376 -27.212  15.493  1.00  0.00    -0.000 C 
BRANCH  24  25
ATOM     25  C   UNL     1      16.236 -27.127  16.766  1.00  0.00    -0.003 C 
ATOM     26  C   UNL     1      17.592 -26.465  16.526  1.00  0.00     0.004 C 
ENDBRANCH  24  25
ENDBRANCH  23  24
ENDBRANCH  22  23
ENDBRANCH  21  22
ENDBRANCH  20  21
ENDBRANCH  19  20
ENDBRANCH  18  19
ENDBRANCH  17  18
ENDBRANCH  16  17
ENDBRANCH  15  16
ENDBRANCH   1  15
TORSDOF 22
ENDMDL
MODEL 2
REMARK VINA RESULT:     0.545      3.588      7.102
REMARK INTER + INTRA:          -0.305
REMARK INTER:                   0.889
REMARK INTRA:                  -1.194
REMARK UNBOUND:                -1.551
REMARK SMILES CCCCCCCCCCCCCCCCCCCCCCCC(=O)[O-]
REMARK SMILES IDX 13 1 14 2 15 3 16 4 17 5 18 6 19 7 20 8 21 9 22 10 23 11
REMARK SMILES IDX 24 12 25 13 26 14 12 15 11 16 10 17 9 18 8 19 7 20 6 21 5 22
REMARK SMILES IDX 4 23 3 24 2 25 1 26
REMARK H PARENT
REMARK Flexibility Score: inf
ROOT
ATOM      1  C   UNL     1      14.424 -29.482  14.858  1.00  0.00     0.000 C 
ENDROOT
BRANCH   1   2
ATOM      2  C   UNL     1      14.453 -30.444  13.657  1.00  0.00     0.000 C 
BRANCH   2   3
ATOM      3  C   UNL     1      13.432 -31.587  13.775  1.00  0.00     0.000 C 
BRANCH   3   4
ATOM      4  C   UNL     1      12.175 -31.186  14.569  1.00  0.00     0.000 C 
BRANCH   4   5
ATOM      5  C   UNL     1      10.834 -31.580  13.926  1.00  0.00     0.000 C 
BRANCH   5   6
ATOM      6  C   UNL     1      10.869 -32.971  13.267  1.00  0.00     0.000 C 
BRANCH   6   7
ATOM      7  C   UNL     1       9.469 -33.593  13.130  1.00  0.00     0.000 C 
BRANCH   7   8
ATOM      8  C   UNL     1       8.340 -32.580  13.388  1.00  0.00     0.000 C 
BRANCH   8   9
ATOM      9  C   UNL     1       7.247 -33.126  14.326  1.00  0.00     0.000 C 
BRANCH   9  10
ATOM     10  C   UNL     1       7.237 -32.509  15.737  1.00  0.00     0.006 C 
BRANCH  10  11
ATOM     11  C   UNL     1       8.497 -32.843  16.546  1.00  0.00     0.053 C 
BRANCH  11  12
ATOM     12  C   UNL     1       8.824 -31.741  17.506  1.00  0.00     0.041 C 
ATOM     13  O   UNL     1       9.739 -30.917  17.240  1.00  0.00    -0.550 OA
ATOM     14  O   UNL     1       8.133 -31.639  18.708  1.00  0.00    -0.550 OA
ENDBRANCH  11  12
ENDBRANCH  10  11
ENDBRANCH   9  10
ENDBRANCH   8   9
ENDBRANCH   7   8
ENDBRANCH   6   7
ENDBRANCH   5   6
ENDBRANCH   4   5
ENDBRANCH   3   4
ENDBRANCH   2   3
ENDBRANCH   1   2
BRANCH   1  15
ATOM     15  C   UNL     1      15.349 -28.251  14.747  1.00  0.00     0.000 C 
BRANCH  15  16
ATOM     16  C   UNL     1      16.022 -27.818  16.060  1.00  0.00     0.000 C 
BRANCH  16  17
ATOM     17  C   UNL     1      16.369 -26.319  16.090  1.00  0.00     0.000 C 
BRANCH  17  18
ATOM     18  C   UNL     1      17.550 -26.001  17.021  1.00  0.00    -0.000 C 
BRANCH  18  19
ATOM     19  C   UNL     1      18.738 -25.367  16.275  1.00  0.00    -0.000 C 
BRANCH  19  20
ATOM     20  C   UNL     1      18.598 -23.842  16.118  1.00  0.00    -0.000 C 
BRANCH  20  21
ATOM     21  C   UNL     1      19.923 -23.088  15.899  1.00  0.00    -0.000 C 
BRANCH  21  22
ATOM     22  C   UNL     1      19.770 -21.869  14.971  1.00  0.00    -0.000 C 
BRANCH  22  23
ATOM     23  C   UNL     1      20.074 -20.547  15.699  1.00  0.00    -0.000 C 
BRANCH  23  24
ATOM     24  C   UNL     1      18.991 -19.467  15.483  1.00  0.00    -0.000 C 
BRANCH  24  25
ATOM     25  C   UNL     1      19.554 -18.038  15.405  1.00  0.00    -0.003 C 
ATOM     26  C   UNL     1      19.488 -17.299  16.741  1.00  0.00     0.004 C 
ENDBRANCH  24  25
ENDBRANCH  23  24
ENDBRANCH  22  23
ENDBRANCH  21  22
ENDBRANCH  20  21
ENDBRANCH  19  20
ENDBRANCH  18  19
ENDBRANCH  17  18
ENDBRANCH  16  17
ENDBRANCH  15  16
ENDBRANCH   1  15
TORSDOF 22
ENDMDL
MODEL 3
REMARK VINA RESULT:     0.594      2.765      7.971
REMARK INTER + INTRA:          -0.194
REMARK INTER:                   1.280
REMARK INTRA:                  -1.474
REMARK UNBOUND:                -1.551
REMARK SMILES CCCCCCCCCCCCCCCCCCCCCCCC(=O)[O-]
REMARK SMILES IDX 13 1 14 2 15 3 16 4 17 5 18 6 19 7 20 8 21 9 22 10 23 11
REMARK SMILES IDX 24 12 25 13 26 14 12 15 11 16 10 17 9 18 8 19 7 20 6 21 5 22
REMARK SMILES IDX 4 23 3 24 2 25 1 26
REMARK H PARENT
REMARK Flexibility Score: inf
ROOT
ATOM      1  C   UNL     1      10.046 -34.512  12.878  1.00  0.00     0.000 C 
ENDROOT
BRANCH   1   2
ATOM      2  C   UNL     1      10.879 -33.334  13.415  1.00  0.00     0.000 C 
BRANCH   2   3
ATOM      3  C   UNL     1      10.360 -31.966  12.944  1.00  0.00     0.000 C 
BRANCH   3   4
ATOM      4  C   UNL     1      10.902 -30.798  13.788  1.00  0.00     0.000 C 
BRANCH   4   5
ATOM      5  C   UNL     1      11.858 -31.195  14.928  1.00  0.00     0.000 C 
BRANCH   5   6
ATOM      6  C   UNL     1      13.207 -31.734  14.420  1.00  0.00     0.000 C 
BRANCH   6   7
ATOM      7  C   UNL     1      14.354 -30.728  14.617  1.00  0.00     0.000 C 
BRANCH   7   8
ATOM      8  C   UNL     1      14.321 -29.580  13.593  1.00  0.00     0.000 C 
BRANCH   8   9
ATOM      9  C   UNL     1      15.247 -28.410  13.974  1.00  0.00     0.000 C 
BRANCH   9  10
ATOM     10  C   UNL     1      15.476 -28.231  15.487  1.00  0.00     0.006 C 
BRANCH  10  11
ATOM     11  C   UNL     1      15.647 -26.762  15.896  1.00  0.00     0.053 C 
BRANCH  11  12
ATOM     12  C   UNL     1      16.680 -26.625  16.972  1.00  0.00     0.041 C 
ATOM     13  O   UNL     1      16.348 -26.706  18.185  1.00  0.00    -0.550 OA
ATOM     14  O   UNL     1      18.007 -26.381  16.636  1.00  0.00    -0.550 OA
ENDBRANCH  11  12
ENDBRANCH  10  11
ENDBRANCH   9  10
ENDBRANCH   8   9
ENDBRANCH   7   8
ENDBRANCH   6   7
ENDBRANCH   5   6
ENDBRANCH   4   5
ENDBRANCH   3   4
ENDBRANCH   2   3
ENDBRANCH   1   2
BRANCH   1  15
ATOM     15  C   UNL     1      10.731 -35.894  12.943  1.00  0.00     0.000 C 
BRANCH  15  16
ATOM     16  C   UNL     1       9.777 -37.089  13.107  1.00  0.00     0.000 C 
BRANCH  16  17
ATOM     17  C   UNL     1       8.528 -36.748  13.938  1.00  0.00     0.000 C 
BRANCH  17  18
ATOM     18  C   UNL     1       7.223 -36.891  13.137  1.00  0.00    -0.000 C 
BRANCH  18  19
ATOM     19  C   UNL     1       5.975 -36.552  13.970  1.00  0.00    -0.000 C 
BRANCH  19  20
ATOM     20  C   UNL     1       6.210 -35.385  14.947  1.00  0.00    -0.000 C 
BRANCH  20  21
ATOM     21  C   UNL     1       5.881 -33.991  14.382  1.00  0.00    -0.000 C 
BRANCH  21  22
ATOM     22  C   UNL     1       7.088 -33.325  13.695  1.00  0.00    -0.000 C 
BRANCH  22  23
ATOM     23  C   UNL     1       7.580 -32.086  14.463  1.00  0.00    -0.000 C 
BRANCH  23  24
ATOM     24  C   UNL     1       7.402 -32.204  15.993  1.00  0.00    -0.000 C 
BRANCH  24  25
ATOM     25  C   UNL     1       8.732 -32.299  16.761  1.00  0.00    -0.003 C 
ATOM     26  C   UNL     1       8.546 -32.287  18.278  1.00  0.00     0.004 C 
ENDBRANCH  24  25
ENDBRANCH  23  24
ENDBRANCH  22  23
ENDBRANCH  21  22
ENDBRANCH  20  21
ENDBRANCH  19  20
ENDBRANCH  18  19
ENDBRANCH  17  18
ENDBRANCH  16  17
ENDBRANCH  15  16
ENDBRANCH   1  15
TORSDOF 22
ENDMDL
MODEL 4
REMARK VINA RESULT:     0.606      3.279      6.591
REMARK INTER + INTRA:          -0.167
REMARK INTER:                   0.975
REMARK INTRA:                  -1.142
REMARK UNBOUND:                -1.551
REMARK SMILES CCCCCCCCCCCCCCCCCCCCCCCC(=O)[O-]
REMARK SMILES IDX 13 1 14 2 15 3 16 4 17 5 18 6 19 7 20 8 21 9 22 10 23 11
REMARK SMILES IDX 24 12 25 13 26 14 12 15 11 16 10 17 9 18 8 19 7 20 6 21 5 22
REMARK SMILES IDX 4 23 3 24 2 25 1 26
REMARK H PARENT
REMARK Flexibility Score: inf
ROOT
ATOM      1  C   UNL     1      14.765 -29.960  13.905  1.00  0.00     0.000 C 
ENDROOT
BRANCH   1   2
ATOM      2  C   UNL     1      13.749 -30.768  14.731  1.00  0.00     0.000 C 
BRANCH   2   3
ATOM      3  C   UNL     1      12.774 -31.579  13.862  1.00  0.00     0.000 C 
BRANCH   3   4
ATOM      4  C   UNL     1      11.319 -31.491  14.355  1.00  0.00     0.000 C 
BRANCH   4   5
ATOM      5  C   UNL     1      10.260 -32.060  13.393  1.00  0.00     0.000 C 
BRANCH   5   6
ATOM      6  C   UNL     1       9.992 -33.559  13.612  1.00  0.00     0.000 C 
BRANCH   6   7
ATOM      7  C   UNL     1       8.605 -33.989  13.106  1.00  0.00     0.000 C 
BRANCH   7   8
ATOM      8  C   UNL     1       7.513 -32.948  13.405  1.00  0.00     0.000 C 
BRANCH   8   9
ATOM      9  C   UNL     1       6.816 -33.181  14.758  1.00  0.00     0.000 C 
BRANCH   9  10
ATOM     10  C   UNL     1       7.293 -32.263  15.900  1.00  0.00     0.006 C 
BRANCH  10  11
ATOM     11  C   UNL     1       8.508 -32.824  16.651  1.00  0.00     0.053 C 
BRANCH  11  12
ATOM     12  C   UNL     1       8.903 -31.920  17.777  1.00  0.00     0.041 C 
ATOM     13  O   UNL     1       8.295 -31.974  18.879  1.00  0.00    -0.550 OA
ATOM     14  O   UNL     1       9.929 -30.997  17.601  1.00  0.00    -0.550 OA
ENDBRANCH  11  12
ENDBRANCH  10  11
ENDBRANCH   9  10
ENDBRANCH   8   9
ENDBRANCH   7   8
ENDBRANCH   6   7
ENDBRANCH   5   6
ENDBRANCH   4   5
ENDBRANCH   3   4
ENDBRANCH   2   3
ENDBRANCH   1   2
BRANCH   1  15
ATOM     15  C   UNL     1      14.878 -28.464  14.268  1.00  0.00     0.000 C 
BRANCH  15  16
ATOM     16  C   UNL     1      15.688 -28.160  15.540  1.00  0.00     0.000 C 
BRANCH  16  17
ATOM     17  C   UNL     1      16.041 -26.669  15.682  1.00  0.00     0.000 C 
BRANCH  17  18
ATOM     18  C   UNL     1      16.866 -26.371  16.945  1.00  0.00    -0.000 C 
BRANCH  18  19
ATOM     19  C   UNL     1      18.287 -25.875  16.622  1.00  0.00    -0.000 C 
BRANCH  19  20
ATOM     20  C   UNL     1      18.302 -24.452  16.037  1.00  0.00    -0.000 C 
BRANCH  20  21
ATOM     21  C   UNL     1      19.704 -23.836  15.869  1.00  0.00    -0.000 C 
BRANCH  21  22
ATOM     22  C   UNL     1      19.749 -22.342  16.242  1.00  0.00    -0.000 C 
BRANCH  22  23
ATOM     23  C   UNL     1      19.235 -21.445  15.102  1.00  0.00    -0.000 C 
BRANCH  23  24
ATOM     24  C   UNL     1      19.826 -20.018  15.134  1.00  0.00    -0.000 C 
BRANCH  24  25
ATOM     25  C   UNL     1      18.962 -19.013  15.916  1.00  0.00    -0.003 C 
ATOM     26  C   UNL     1      19.646 -17.660  16.105  1.00  0.00     0.004 C 
ENDBRANCH  24  25
ENDBRANCH  23  24
ENDBRANCH  22  23
ENDBRANCH  21  22
ENDBRANCH  20  21
ENDBRANCH  19  20
ENDBRANCH  18  19
ENDBRANCH  17  18
ENDBRANCH  16  17
ENDBRANCH  15  16
ENDBRANCH   1  15
TORSDOF 22
ENDMDL
MODEL 5
REMARK VINA RESULT:     0.768      1.942      3.848
REMARK INTER + INTRA:           0.204
REMARK INTER:                   1.152
REMARK INTRA:                  -0.948
REMARK UNBOUND:                -1.551
REMARK SMILES CCCCCCCCCCCCCCCCCCCCCCCC(=O)[O-]
REMARK SMILES IDX 13 1 14 2 15 3 16 4 17 5 18 6 19 7 20 8 21 9 22 10 23 11
REMARK SMILES IDX 24 12 25 13 26 14 12 15 11 16 10 17 9 18 8 19 7 20 6 21 5 22
REMARK SMILES IDX 4 23 3 24 2 25 1 26
REMARK H PARENT
REMARK Flexibility Score: inf
ROOT
ATOM      1  C   UNL     1       8.856 -33.102  17.946  1.00  0.00     0.000 C 
ENDROOT
BRANCH   1   2
ATOM      2  C   UNL     1       8.040 -34.405  17.886  1.00  0.00     0.000 C 
BRANCH   2   3
ATOM      3  C   UNL     1       7.911 -34.970  16.462  1.00  0.00     0.000 C 
BRANCH   3   4
ATOM      4  C   UNL     1       6.550 -35.643  16.206  1.00  0.00     0.000 C 
BRANCH   4   5
ATOM      5  C   UNL     1       6.469 -36.507  14.935  1.00  0.00     0.000 C 
BRANCH   5   6
ATOM      6  C   UNL     1       7.826 -37.113  14.533  1.00  0.00     0.000 C 
BRANCH   6   7
ATOM      7  C   UNL     1       8.208 -36.785  13.080  1.00  0.00     0.000 C 
BRANCH   7   8
ATOM      8  C   UNL     1       8.571 -35.303  12.879  1.00  0.00     0.000 C 
BRANCH   8   9
ATOM      9  C   UNL     1       9.842 -34.889  13.642  1.00  0.00     0.000 C 
BRANCH   9  10
ATOM     10  C   UNL     1       9.759 -33.519  14.343  1.00  0.00     0.006 C 
BRANCH  10  11
ATOM     11  C   UNL     1       9.061 -32.452  13.490  1.00  0.00     0.053 C 
BRANCH  11  12
ATOM     12  C   UNL     1       7.624 -32.308  13.886  1.00  0.00     0.041 C 
ATOM     13  O   UNL     1       6.710 -32.505  13.042  1.00  0.00    -0.550 OA
ATOM     14  O   UNL     1       7.295 -31.928  15.182  1.00  0.00    -0.550 OA
ENDBRANCH  11  12
ENDBRANCH  10  11
ENDBRANCH   9  10
ENDBRANCH   8   9
ENDBRANCH   7   8
ENDBRANCH   6   7
ENDBRANCH   5   6
ENDBRANCH   4   5
ENDBRANCH   3   4
ENDBRANCH   2   3
ENDBRANCH   1   2
BRANCH   1  15
ATOM     15  C   UNL     1       8.544 -32.177  19.142  1.00  0.00     0.000 C 
BRANCH  15  16
ATOM     16  C   UNL     1       9.246 -30.808  19.110  1.00  0.00     0.000 C 
BRANCH  16  17
ATOM     17  C   UNL     1       9.435 -30.266  17.682  1.00  0.00     0.000 C 
BRANCH  17  18
ATOM     18  C   UNL     1      10.352 -31.156  16.826  1.00  0.00    -0.000 C 
BRANCH  18  19
ATOM     19  C   UNL     1      11.632 -30.428  16.376  1.00  0.00    -0.000 C 
BRANCH  19  20
ATOM     20  C   UNL     1      12.212 -30.997  15.069  1.00  0.00    -0.000 C 
BRANCH  20  21
ATOM     21  C   UNL     1      13.704 -30.694  14.837  1.00  0.00    -0.000 C 
BRANCH  21  22
ATOM     22  C   UNL     1      13.956 -29.880  13.554  1.00  0.00    -0.000 C 
BRANCH  22  23
ATOM     23  C   UNL     1      14.853 -28.657  13.811  1.00  0.00    -0.000 C 
BRANCH  23  24
ATOM     24  C   UNL     1      15.585 -28.711  15.171  1.00  0.00    -0.000 C 
BRANCH  24  25
ATOM     25  C   UNL     1      15.390 -27.446  16.024  1.00  0.00    -0.003 C 
ATOM     26  C   UNL     1      16.585 -26.496  15.963  1.00  0.00     0.004 C 
ENDBRANCH  24  25
ENDBRANCH  23  24
ENDBRANCH  22  23
ENDBRANCH  21  22
ENDBRANCH  20  21
ENDBRANCH  19  20
ENDBRANCH  18  19
ENDBRANCH  17  18
ENDBRANCH  16  17
ENDBRANCH  15  16
ENDBRANCH   1  15
TORSDOF 22
ENDMDL
MODEL 6
REMARK VINA RESULT:     0.820      2.610      5.140
REMARK INTER + INTRA:           0.324
REMARK INTER:                   1.627
REMARK INTRA:                  -1.304
REMARK UNBOUND:                -1.551
REMARK SMILES CCCCCCCCCCCCCCCCCCCCCCCC(=O)[O-]
REMARK SMILES IDX 13 1 14 2 15 3 16 4 17 5 18 6 19 7 20 8 21 9 22 10 23 11
REMARK SMILES IDX 24 12 25 13 26 14 12 15 11 16 10 17 9 18 8 19 7 20 6 21 5 22
REMARK SMILES IDX 4 23 3 24 2 25 1 26
REMARK H PARENT
REMARK Flexibility Score: inf
ROOT
ATOM      1  C   UNL     1       9.644 -31.055  18.180  1.00  0.00     0.000 C 
ENDROOT
BRANCH   1   2
ATOM      2  C   UNL     1       8.435 -31.914  17.769  1.00  0.00     0.000 C 
BRANCH   2   3
ATOM      3  C   UNL     1       8.146 -33.057  18.755  1.00  0.00     0.000 C 
BRANCH   3   4
ATOM      4  C   UNL     1       8.628 -34.426  18.242  1.00  0.00     0.000 C 
BRANCH   4   5
ATOM      5  C   UNL     1       7.885 -34.968  17.008  1.00  0.00     0.000 C 
BRANCH   5   6
ATOM      6  C   UNL     1       6.783 -35.980  17.367  1.00  0.00     0.000 C 
BRANCH   6   7
ATOM      7  C   UNL     1       6.630 -37.084  16.308  1.00  0.00     0.000 C 
BRANCH   7   8
ATOM      8  C   UNL     1       7.544 -36.870  15.088  1.00  0.00     0.000 C 
BRANCH   8   9
ATOM      9  C   UNL     1       6.816 -37.085  13.749  1.00  0.00     0.000 C 
BRANCH   9  10
ATOM     10  C   UNL     1       5.898 -35.926  13.316  1.00  0.00     0.006 C 
BRANCH  10  11
ATOM     11  C   UNL     1       6.676 -34.676  12.885  1.00  0.00     0.053 C 
BRANCH  11  12
ATOM     12  C   UNL     1       6.195 -33.466  13.625  1.00  0.00     0.041 C 
ATOM     13  O   UNL     1       6.056 -32.367  13.024  1.00  0.00    -0.550 OA
ATOM     14  O   UNL     1       5.923 -33.546  14.986  1.00  0.00    -0.550 OA
ENDBRANCH  11  12
ENDBRANCH  10  11
ENDBRANCH   9  10
ENDBRANCH   8   9
ENDBRANCH   7   8
ENDBRANCH   6   7
ENDBRANCH   5   6
ENDBRANCH   4   5
ENDBRANCH   3   4
ENDBRANCH   2   3
ENDBRANCH   1   2
BRANCH   1  15
ATOM     15  C   UNL     1      10.180 -30.099  17.092  1.00  0.00     0.000 C 
BRANCH  15  16
ATOM     16  C   UNL     1      11.461 -30.569  16.382  1.00  0.00     0.000 C 
BRANCH  16  17
ATOM     17  C   UNL     1      11.177 -31.297  15.056  1.00  0.00     0.000 C 
BRANCH  17  18
ATOM     18  C   UNL     1       9.706 -31.190  14.624  1.00  0.00    -0.000 C 
BRANCH  18  19
ATOM     19  C   UNL     1       9.173 -32.497  14.010  1.00  0.00    -0.000 C 
BRANCH  19  20
ATOM     20  C   UNL     1      10.137 -33.682  14.201  1.00  0.00    -0.000 C 
BRANCH  20  21
ATOM     21  C   UNL     1      10.796 -34.196  12.908  1.00  0.00    -0.000 C 
BRANCH  21  22
ATOM     22  C   UNL     1      12.194 -34.795  13.147  1.00  0.00    -0.000 C 
BRANCH  22  23
ATOM     23  C   UNL     1      13.314 -33.775  12.875  1.00  0.00    -0.000 C 
BRANCH  23  24
ATOM     24  C   UNL     1      13.247 -32.534  13.792  1.00  0.00    -0.000 C 
BRANCH  24  25
ATOM     25  C   UNL     1      14.402 -31.542  13.570  1.00  0.00    -0.003 C 
ATOM     26  C   UNL     1      14.023 -30.100  13.904  1.00  0.00     0.004 C 
ENDBRANCH  24  25
ENDBRANCH  23  24
ENDBRANCH  22  23
ENDBRANCH  21  22
ENDBRANCH  20  21
ENDBRANCH  19  20
ENDBRANCH  18  19
ENDBRANCH  17  18
ENDBRANCH  16  17
ENDBRANCH  15  16
ENDBRANCH   1  15
TORSDOF 22
ENDMDL
MODEL 7
REMARK VINA RESULT:     0.930      5.634     11.989
REMARK INTER + INTRA:           0.574
REMARK INTER:                   1.692
REMARK INTRA:                  -1.118
REMARK UNBOUND:                -1.551
REMARK SMILES CCCCCCCCCCCCCCCCCCCCCCCC(=O)[O-]
REMARK SMILES IDX 13 1 14 2 15 3 16 4 17 5 18 6 19 7 20 8 21 9 22 10 23 11
REMARK SMILES IDX 24 12 25 13 26 14 12 15 11 16 10 17 9 18 8 19 7 20 6 21 5 22
REMARK SMILES IDX 4 23 3 24 2 25 1 26
REMARK H PARENT
REMARK Flexibility Score: inf
ROOT
ATOM      1  C   UNL     1      14.825 -29.617  14.006  1.00  0.00     0.000 C 
ENDROOT
BRANCH   1   2
ATOM      2  C   UNL     1      15.010 -28.908  15.359  1.00  0.00     0.000 C 
BRANCH   2   3
ATOM      3  C   UNL     1      15.853 -27.626  15.256  1.00  0.00     0.000 C 
BRANCH   3   4
ATOM      4  C   UNL     1      16.128 -26.980  16.626  1.00  0.00     0.000 C 
BRANCH   4   5
ATOM      5  C   UNL     1      17.499 -26.296  16.770  1.00  0.00     0.000 C 
BRANCH   5   6
ATOM      6  C   UNL     1      17.686 -25.115  15.800  1.00  0.00     0.000 C 
BRANCH   6   7
ATOM      7  C   UNL     1      18.922 -24.265  16.140  1.00  0.00     0.000 C 
BRANCH   7   8
ATOM      8  C   UNL     1      18.911 -22.893  15.443  1.00  0.00     0.000 C 
BRANCH   8   9
ATOM      9  C   UNL     1      20.162 -22.052  15.756  1.00  0.00     0.000 C 
BRANCH   9  10
ATOM     10  C   UNL     1      20.201 -20.670  15.075  1.00  0.00     0.006 C 
BRANCH  10  11
ATOM     11  C   UNL     1      19.002 -19.787  15.445  1.00  0.00     0.053 C 
BRANCH  11  12
ATOM     12  C   UNL     1      19.382 -18.339  15.436  1.00  0.00     0.041 C 
ATOM     13  O   UNL     1      19.591 -17.744  14.345  1.00  0.00    -0.550 OA
ATOM     14  O   UNL     1      19.534 -17.651  16.635  1.00  0.00    -0.550 OA
ENDBRANCH  11  12
ENDBRANCH  10  11
ENDBRANCH   9  10
ENDBRANCH   8   9
ENDBRANCH   7   8
ENDBRANCH   6   7
ENDBRANCH   5   6
ENDBRANCH   4   5
ENDBRANCH   3   4
ENDBRANCH   2   3
ENDBRANCH   1   2
BRANCH   1  15
ATOM     15  C   UNL     1      13.906 -30.858  14.026  1.00  0.00     0.000 C 
BRANCH  15  16
ATOM     16  C   UNL     1      12.403 -30.559  13.889  1.00  0.00     0.000 C 
BRANCH  16  17
ATOM     17  C   UNL     1      11.520 -31.586  14.621  1.00  0.00     0.000 C 
BRANCH  17  18
ATOM     18  C   UNL     1      10.481 -32.242  13.697  1.00  0.00    -0.000 C 
BRANCH  18  19
ATOM     19  C   UNL     1      10.643 -33.770  13.614  1.00  0.00    -0.000 C 
BRANCH  19  20
ATOM     20  C   UNL     1       9.328 -34.524  13.885  1.00  0.00    -0.000 C 
BRANCH  20  21
ATOM     21  C   UNL     1       8.063 -33.645  13.876  1.00  0.00    -0.000 C 
BRANCH  21  22
ATOM     22  C   UNL     1       7.427 -33.500  15.271  1.00  0.00    -0.000 C 
BRANCH  22  23
ATOM     23  C   UNL     1       7.963 -32.270  16.026  1.00  0.00    -0.000 C 
BRANCH  23  24
ATOM     24  C   UNL     1       8.590 -32.619  17.394  1.00  0.00    -0.000 C 
BRANCH  24  25
ATOM     25  C   UNL     1       9.401 -31.466  18.010  1.00  0.00    -0.003 C 
ATOM     26  C   UNL     1       8.985 -31.144  19.444  1.00  0.00     0.004 C 
ENDBRANCH  24  25
ENDBRANCH  23  24
ENDBRANCH  22  23
ENDBRANCH  21  22
ENDBRANCH  20  21
ENDBRANCH  19  20
ENDBRANCH  18  19
ENDBRANCH  17  18
ENDBRANCH  16  17
ENDBRANCH  15  16
ENDBRANCH   1  15
TORSDOF 22
ENDMDL
MODEL 8
REMARK VINA RESULT:     1.170      4.424      8.529
REMARK INTER + INTRA:           1.124
REMARK INTER:                   2.018
REMARK INTRA:                  -0.894
REMARK UNBOUND:                -1.551
REMARK SMILES CCCCCCCCCCCCCCCCCCCCCCCC(=O)[O-]
REMARK SMILES IDX 13 1 14 2 15 3 16 4 17 5 18 6 19 7 20 8 21 9 22 10 23 11
REMARK SMILES IDX 24 12 25 13 26 14 12 15 11 16 10 17 9 18 8 19 7 20 6 21 5 22
REMARK SMILES IDX 4 23 3 24 2 25 1 26
REMARK H PARENT
REMARK Flexibility Score: inf
ROOT
ATOM      1  C   UNL     1      15.628 -27.972  16.080  1.00  0.00     0.000 C 
ENDROOT
BRANCH   1   2
ATOM      2  C   UNL     1      15.233 -28.737  14.804  1.00  0.00     0.000 C 
BRANCH   2   3
ATOM      3  C   UNL     1      14.630 -30.121  15.094  1.00  0.00     0.000 C 
BRANCH   3   4
ATOM      4  C   UNL     1      13.623 -30.572  14.022  1.00  0.00     0.000 C 
BRANCH   4   5
ATOM      5  C   UNL     1      13.362 -32.087  13.955  1.00  0.00     0.000 C 
BRANCH   5   6
ATOM      6  C   UNL     1      12.013 -32.437  13.303  1.00  0.00     0.000 C 
BRANCH   6   7
ATOM      7  C   UNL     1      10.827 -31.750  14.001  1.00  0.00     0.000 C 
BRANCH   7   8
ATOM      8  C   UNL     1       9.507 -32.524  13.833  1.00  0.00     0.000 C 
BRANCH   8   9
ATOM      9  C   UNL     1       9.045 -33.209  15.133  1.00  0.00     0.000 C 
BRANCH   9  10
ATOM     10  C   UNL     1       8.193 -32.325  16.064  1.00  0.00     0.006 C 
BRANCH  10  11
ATOM     11  C   UNL     1       8.529 -32.522  17.548  1.00  0.00     0.053 C 
BRANCH  11  12
ATOM     12  C   UNL     1       9.291 -31.349  18.083  1.00  0.00     0.041 C 
ATOM     13  O   UNL     1      10.258 -30.870  17.434  1.00  0.00    -0.550 OA
ATOM     14  O   UNL     1       8.948 -30.801  19.314  1.00  0.00    -0.550 OA
ENDBRANCH  11  12
ENDBRANCH  10  11
ENDBRANCH   9  10
ENDBRANCH   8   9
ENDBRANCH   7   8
ENDBRANCH   6   7
ENDBRANCH   5   6
ENDBRANCH   4   5
ENDBRANCH   3   4
ENDBRANCH   2   3
ENDBRANCH   1   2
BRANCH   1  15
ATOM     15  C   UNL     1      16.327 -26.614  15.851  1.00  0.00     0.000 C 
BRANCH  15  16
ATOM     16  C   UNL     1      17.341 -26.210  16.935  1.00  0.00     0.000 C 
BRANCH  16  17
ATOM     17  C   UNL     1      18.599 -25.538  16.357  1.00  0.00     0.000 C 
BRANCH  17  18
ATOM     18  C   UNL     1      18.358 -24.073  15.956  1.00  0.00    -0.000 C 
BRANCH  18  19
ATOM     19  C   UNL     1      19.607 -23.194  16.149  1.00  0.00    -0.000 C 
BRANCH  19  20
ATOM     20  C   UNL     1      19.696 -22.052  15.121  1.00  0.00    -0.000 C 
BRANCH  20  21
ATOM     21  C   UNL     1      18.928 -20.773  15.505  1.00  0.00    -0.000 C 
BRANCH  21  22
ATOM     22  C   UNL     1      19.851 -19.553  15.683  1.00  0.00    -0.000 C 
BRANCH  22  23
ATOM     23  C   UNL     1      19.265 -18.285  15.037  1.00  0.00    -0.000 C 
BRANCH  23  24
ATOM     24  C   UNL     1      19.617 -16.991  15.802  1.00  0.00    -0.000 C 
BRANCH  24  25
ATOM     25  C   UNL     1      19.423 -17.105  17.324  1.00  0.00    -0.003 C 
ATOM     26  C   UNL     1      17.960 -16.982  17.749  1.00  0.00     0.004 C 
ENDBRANCH  24  25
ENDBRANCH  23  24
ENDBRANCH  22  23
ENDBRANCH  21  22
ENDBRANCH  20  21
ENDBRANCH  19  20
ENDBRANCH  18  19
ENDBRANCH  17  18
ENDBRANCH  16  17
ENDBRANCH  15  16
ENDBRANCH   1  15
TORSDOF 22
ENDMDL
MODEL 9
REMARK VINA RESULT:     1.964      3.861      7.347
REMARK INTER + INTRA:           2.940
REMARK INTER:                   3.880
REMARK INTRA:                  -0.941
REMARK UNBOUND:                -1.551
REMARK SMILES CCCCCCCCCCCCCCCCCCCCCCCC(=O)[O-]
REMARK SMILES IDX 13 1 14 2 15 3 16 4 17 5 18 6 19 7 20 8 21 9 22 10 23 11
REMARK SMILES IDX 24 12 25 13 26 14 12 15 11 16 10 17 9 18 8 19 7 20 6 21 5 22
REMARK SMILES IDX 4 23 3 24 2 25 1 26
REMARK H PARENT
REMARK Flexibility Score: inf
ROOT
ATOM      1  C   UNL     1      14.491 -29.879  14.995  1.00  0.00     0.000 C 
ENDROOT
BRANCH   1   2
ATOM      2  C   UNL     1      14.033 -30.659  13.751  1.00  0.00     0.000 C 
BRANCH   2   3
ATOM      3  C   UNL     1      12.866 -31.618  14.037  1.00  0.00     0.000 C 
BRANCH   3   4
ATOM      4  C   UNL     1      11.491 -30.987  13.755  1.00  0.00     0.000 C 
BRANCH   4   5
ATOM      5  C   UNL     1      10.395 -31.967  13.298  1.00  0.00     0.000 C 
BRANCH   5   6
ATOM      6  C   UNL     1      10.039 -33.013  14.369  1.00  0.00     0.000 C 
BRANCH   6   7
ATOM      7  C   UNL     1       9.264 -32.405  15.550  1.00  0.00     0.000 C 
BRANCH   7   8
ATOM      8  C   UNL     1       7.752 -32.307  15.283  1.00  0.00     0.000 C 
BRANCH   8   9
ATOM      9  C   UNL     1       7.012 -33.633  15.534  1.00  0.00     0.000 C 
BRANCH   9  10
ATOM     10  C   UNL     1       5.931 -33.980  14.492  1.00  0.00     0.006 C 
BRANCH  10  11
ATOM     11  C   UNL     1       6.468 -34.831  13.334  1.00  0.00     0.053 C 
BRANCH  11  12
ATOM     12  C   UNL     1       6.930 -36.169  13.824  1.00  0.00     0.041 C 
ATOM     13  O   UNL     1       7.925 -36.731  13.294  1.00  0.00    -0.550 OA
ATOM     14  O   UNL     1       6.245 -36.808  14.851  1.00  0.00    -0.550 OA
ENDBRANCH  11  12
ENDBRANCH  10  11
ENDBRANCH   9  10
ENDBRANCH   8   9
ENDBRANCH   7   8
ENDBRANCH   6   7
ENDBRANCH   5   6
ENDBRANCH   4   5
ENDBRANCH   3   4
ENDBRANCH   2   3
ENDBRANCH   1   2
BRANCH   1  15
ATOM     15  C   UNL     1      15.223 -28.548  14.714  1.00  0.00     0.000 C 
BRANCH  15  16
ATOM     16  C   UNL     1      15.618 -27.743  15.963  1.00  0.00     0.000 C 
BRANCH  16  17
ATOM     17  C   UNL     1      16.628 -26.623  15.657  1.00  0.00     0.000 C 
BRANCH  17  18
ATOM     18  C   UNL     1      17.304 -26.071  16.924  1.00  0.00    -0.000 C 
BRANCH  18  19
ATOM     19  C   UNL     1      18.636 -25.361  16.623  1.00  0.00    -0.000 C 
BRANCH  19  20
ATOM     20  C   UNL     1      18.454 -24.084  15.782  1.00  0.00    -0.000 C 
BRANCH  20  21
ATOM     21  C   UNL     1      19.329 -22.893  16.215  1.00  0.00    -0.000 C 
BRANCH  21  22
ATOM     22  C   UNL     1      20.310 -22.443  15.117  1.00  0.00    -0.000 C 
BRANCH  22  23
ATOM     23  C   UNL     1      20.478 -20.913  15.083  1.00  0.00    -0.000 C 
BRANCH  23  24
ATOM     24  C   UNL     1      19.193 -20.149  15.467  1.00  0.00    -0.000 C 
BRANCH  24  25
ATOM     25  C   UNL     1      19.310 -18.624  15.295  1.00  0.00    -0.003 C 
ATOM     26  C   UNL     1      19.357 -17.876  16.626  1.00  0.00     0.004 C 
ENDBRANCH  24  25
ENDBRANCH  23  24
ENDBRANCH  22  23
ENDBRANCH  21  22
ENDBRANCH  20  21
ENDBRANCH  19  20
ENDBRANCH  18  19
ENDBRANCH  17  18
ENDBRANCH  16  17
ENDBRANCH  15  16
ENDBRANCH   1  15
TORSDOF 22
ENDMDL
