MODEL 1
REMARK VINA RESULT:    -5.449      0.000      0.000
REMARK INTER + INTRA:          -6.154
REMARK INTER:                  -6.086
REMARK INTRA:                  -0.068
REMARK UNBOUND:                -0.068
REMARK SMILES COc1cc2ccc(=O)oc2c(O)c1O
REMARK SMILES IDX 3 1 14 2 12 3 11 4 5 5 4 6 6 7 7 8 8 9 9 10 10 11 2 12 1 13
REMARK SMILES IDX 15 14 13 16
REMARK H PARENT 15 15 13 17
REMARK Flexibility Score: inf
ROOT
ATOM      1  C   UNL     1     172.740 171.591 176.163  1.00  0.00     0.165 A 
ATOM      2  C   UNL     1     171.429 171.988 176.489  1.00  0.00     0.204 A 
ATOM      3  C   UNL     1     171.160 172.595 177.730  1.00  0.00     0.205 A 
ATOM      4  C   UNL     1     172.198 172.807 178.645  1.00  0.00     0.184 A 
ATOM      5  C   UNL     1     173.513 172.412 178.322  1.00  0.00     0.025 A 
ATOM      6  C   UNL     1     173.781 171.808 177.087  1.00  0.00     0.062 A 
ATOM      7  C   UNL     1     174.527 172.639 179.258  1.00  0.00     0.020 A 
ATOM      8  C   UNL     1     174.215 173.243 180.475  1.00  0.00     0.094 A 
ATOM      9  C   UNL     1     172.888 173.609 180.727  1.00  0.00     0.336 A 
ATOM     10  O   UNL     1     172.584 174.157 181.819  1.00  0.00    -0.246 OA
ATOM     11  O   UNL     1     171.943 173.382 179.819  1.00  0.00    -0.419 OA
ENDROOT
BRANCH   1  12
ATOM     12  O   UNL     1     172.973 170.988 174.915  1.00  0.00    -0.493 OA
ATOM     13  C   UNL     1     173.034 169.583 174.694  1.00  0.00     0.278 C 
ENDBRANCH   1  12
BRANCH   2  14
ATOM     14  O   UNL     1     170.381 171.784 175.589  1.00  0.00    -0.502 OA
ATOM     15  H   UNL     1     170.400 171.048 174.894  1.00  0.00     0.293 HD
ENDBRANCH   2  14
BRANCH   3  16
ATOM     16  O   UNL     1     169.865 172.993 178.067  1.00  0.00    -0.502 OA
ATOM     17  H   UNL     1     169.455 172.790 178.971  1.00  0.00     0.293 HD
ENDBRANCH   3  16
TORSDOF 3
ENDMDL
MODEL 2
REMARK VINA RESULT:    -5.422      3.071      4.026
REMARK INTER + INTRA:          -6.124
REMARK INTER:                  -6.056
REMARK INTRA:                  -0.068
REMARK UNBOUND:                -0.068
REMARK SMILES COc1cc2ccc(=O)oc2c(O)c1O
REMARK SMILES IDX 3 1 14 2 12 3 11 4 5 5 4 6 6 7 7 8 8 9 9 10 10 11 2 12 1 13
REMARK SMILES IDX 15 14 13 16
REMARK H PARENT 15 15 13 17
REMARK Flexibility Score: inf
ROOT
ATOM      1  C   UNL     1     173.636 174.772 176.204  1.00  0.00     0.165 A 
ATOM      2  C   UNL     1     174.947 174.372 176.531  1.00  0.00     0.204 A 
ATOM      3  C   UNL     1     175.214 173.767 177.774  1.00  0.00     0.205 A 
ATOM      4  C   UNL     1     174.175 173.560 178.690  1.00  0.00     0.184 A 
ATOM      5  C   UNL     1     172.861 173.960 178.366  1.00  0.00     0.025 A 
ATOM      6  C   UNL     1     172.595 174.561 177.130  1.00  0.00     0.062 A 
ATOM      7  C   UNL     1     171.847 173.739 179.303  1.00  0.00     0.020 A 
ATOM      8  C   UNL     1     172.158 173.136 180.522  1.00  0.00     0.094 A 
ATOM      9  C   UNL     1     173.483 172.766 180.774  1.00  0.00     0.336 A 
ATOM     10  O   UNL     1     173.785 172.221 181.867  1.00  0.00    -0.246 OA
ATOM     11  O   UNL     1     174.429 172.988 179.865  1.00  0.00    -0.419 OA
ENDROOT
BRANCH   1  12
ATOM     12  O   UNL     1     173.405 175.373 174.955  1.00  0.00    -0.493 OA
ATOM     13  C   UNL     1     173.338 176.778 174.732  1.00  0.00     0.278 C 
ENDBRANCH   1  12
BRANCH   2  14
ATOM     14  O   UNL     1     175.994 174.570 175.631  1.00  0.00    -0.502 OA
ATOM     15  H   UNL     1     176.553 175.414 175.627  1.00  0.00     0.293 HD
ENDBRANCH   2  14
BRANCH   3  16
ATOM     16  O   UNL     1     176.507 173.365 178.111  1.00  0.00    -0.502 OA
ATOM     17  H   UNL     1     177.273 174.023 178.196  1.00  0.00     0.293 HD
ENDBRANCH   3  16
TORSDOF 3
ENDMDL
MODEL 3
REMARK VINA RESULT:    -5.227      2.033      2.256
REMARK INTER + INTRA:          -5.905
REMARK INTER:                  -5.859
REMARK INTRA:                  -0.047
REMARK UNBOUND:                -0.068
REMARK SMILES COc1cc2ccc(=O)oc2c(O)c1O
REMARK SMILES IDX 3 1 14 2 12 3 11 4 5 5 4 6 6 7 7 8 8 9 9 10 10 11 2 12 1 13
REMARK SMILES IDX 15 14 13 16
REMARK H PARENT 15 15 13 17
REMARK Flexibility Score: inf
ROOT
ATOM      1  C   UNL     1     174.822 173.438 176.237  1.00  0.00     0.165 A 
ATOM      2  C   UNL     1     173.467 173.708 175.962  1.00  0.00     0.204 A 
ATOM      3  C   UNL     1     172.524 173.738 177.007  1.00  0.00     0.205 A 
ATOM      4  C   UNL     1     172.932 173.500 178.325  1.00  0.00     0.184 A 
ATOM      5  C   UNL     1     174.288 173.230 178.604  1.00  0.00     0.025 A 
ATOM      6  C   UNL     1     175.226 173.200 177.565  1.00  0.00     0.062 A 
ATOM      7  C   UNL     1     174.662 172.997 179.931  1.00  0.00     0.020 A 
ATOM      8  C   UNL     1     173.694 173.036 180.934  1.00  0.00     0.094 A 
ATOM      9  C   UNL     1     172.368 173.311 180.583  1.00  0.00     0.336 A 
ATOM     10  O   UNL     1     171.478 173.352 181.472  1.00  0.00    -0.246 OA
ATOM     11  O   UNL     1     172.039 173.529 179.312  1.00  0.00    -0.419 OA
ENDROOT
BRANCH   1  12
ATOM     12  O   UNL     1     175.736 173.416 175.170  1.00  0.00    -0.493 OA
ATOM     13  C   UNL     1     176.039 172.266 174.387  1.00  0.00     0.278 C 
ENDBRANCH   1  12
BRANCH   2  14
ATOM     14  O   UNL     1     173.042 173.947 174.654  1.00  0.00    -0.502 OA
ATOM     15  H   UNL     1     172.600 174.816 174.378  1.00  0.00     0.293 HD
ENDBRANCH   2  14
BRANCH   3  16
ATOM     16  O   UNL     1     171.178 174.004 176.749  1.00  0.00    -0.502 OA
ATOM     17  H   UNL     1     170.675 173.562 175.989  1.00  0.00     0.293 HD
ENDBRANCH   3  16
TORSDOF 3
ENDMDL
MODEL 4
REMARK VINA RESULT:    -5.217      2.385      3.420
REMARK INTER + INTRA:          -5.894
REMARK INTER:                  -5.825
REMARK INTRA:                  -0.069
REMARK UNBOUND:                -0.068
REMARK SMILES COc1cc2ccc(=O)oc2c(O)c1O
REMARK SMILES IDX 3 1 14 2 12 3 11 4 5 5 4 6 6 7 7 8 8 9 9 10 10 11 2 12 1 13
REMARK SMILES IDX 15 14 13 16
REMARK H PARENT 15 15 13 17
REMARK Flexibility Score: inf
ROOT
ATOM      1  C   UNL     1     172.118 173.931 176.373  1.00  0.00     0.165 A 
ATOM      2  C   UNL     1     173.511 173.908 176.171  1.00  0.00     0.204 A 
ATOM      3  C   UNL     1     174.382 173.698 177.257  1.00  0.00     0.205 A 
ATOM      4  C   UNL     1     173.863 173.510 178.543  1.00  0.00     0.184 A 
ATOM      5  C   UNL     1     172.468 173.533 178.750  1.00  0.00     0.025 A 
ATOM      6  C   UNL     1     171.602 173.742 177.670  1.00  0.00     0.062 A 
ATOM      7  C   UNL     1     171.983 173.342 180.048  1.00  0.00     0.020 A 
ATOM      8  C   UNL     1     172.883 173.137 181.094  1.00  0.00     0.094 A 
ATOM      9  C   UNL     1     174.253 173.127 180.814  1.00  0.00     0.336 A 
ATOM     10  O   UNL     1     175.082 172.943 181.743  1.00  0.00    -0.246 OA
ATOM     11  O   UNL     1     174.688 173.311 179.570  1.00  0.00    -0.419 OA
ENDROOT
BRANCH   1  12
ATOM     12  O   UNL     1     171.277 174.144 175.267  1.00  0.00    -0.493 OA
ATOM     13  C   UNL     1     170.684 175.393 174.929  1.00  0.00     0.278 C 
ENDBRANCH   1  12
BRANCH   2  14
ATOM     14  O   UNL     1     174.046 174.093 174.895  1.00  0.00    -0.502 OA
ATOM     15  H   UNL     1     173.780 174.871 174.304  1.00  0.00     0.293 HD
ENDBRANCH   2  14
BRANCH   3  16
ATOM     16  O   UNL     1     175.765 173.672 177.071  1.00  0.00    -0.502 OA
ATOM     17  H   UNL     1     176.237 172.893 176.627  1.00  0.00     0.293 HD
ENDBRANCH   3  16
TORSDOF 3
ENDMDL
MODEL 5
REMARK VINA RESULT:    -5.117      1.272      1.739
REMARK INTER + INTRA:          -5.783
REMARK INTER:                  -5.718
REMARK INTRA:                  -0.064
REMARK UNBOUND:                -0.068
REMARK SMILES COc1cc2ccc(=O)oc2c(O)c1O
REMARK SMILES IDX 3 1 14 2 12 3 11 4 5 5 4 6 6 7 7 8 8 9 9 10 10 11 2 12 1 13
REMARK SMILES IDX 15 14 13 16
REMARK H PARENT 15 15 13 17
REMARK Flexibility Score: inf
ROOT
ATOM      1  C   UNL     1     173.305 170.430 175.267  1.00  0.00     0.165 A 
ATOM      2  C   UNL     1     171.910 170.623 175.249  1.00  0.00     0.204 A 
ATOM      3  C   UNL     1     171.281 171.345 176.280  1.00  0.00     0.205 A 
ATOM      4  C   UNL     1     172.042 171.875 177.329  1.00  0.00     0.184 A 
ATOM      5  C   UNL     1     173.440 171.684 177.351  1.00  0.00     0.025 A 
ATOM      6  C   UNL     1     174.066 170.965 176.324  1.00  0.00     0.062 A 
ATOM      7  C   UNL     1     174.171 172.226 178.412  1.00  0.00     0.020 A 
ATOM      8  C   UNL     1     173.506 172.935 179.412  1.00  0.00     0.094 A 
ATOM      9  C   UNL     1     172.118 173.085 179.325  1.00  0.00     0.336 A 
ATOM     10  O   UNL     1     171.498 173.721 180.216  1.00  0.00    -0.246 OA
ATOM     11  O   UNL     1     171.446 172.558 178.304  1.00  0.00    -0.419 OA
ENDROOT
BRANCH   1  12
ATOM     12  O   UNL     1     173.900 169.704 174.222  1.00  0.00    -0.493 OA
ATOM     13  C   UNL     1     174.585 168.465 174.383  1.00  0.00     0.278 C 
ENDBRANCH   1  12
BRANCH   2  14
ATOM     14  O   UNL     1     171.135 170.102 174.211  1.00  0.00    -0.502 OA
ATOM     15  H   UNL     1     171.045 169.106 174.049  1.00  0.00     0.293 HD
ENDBRANCH   2  14
BRANCH   3  16
ATOM     16  O   UNL     1     169.899 171.545 176.275  1.00  0.00    -0.502 OA
ATOM     17  H   UNL     1     169.477 172.395 175.920  1.00  0.00     0.293 HD
ENDBRANCH   3  16
TORSDOF 3
ENDMDL
MODEL 6
REMARK VINA RESULT:    -5.064      4.009      4.826
REMARK INTER + INTRA:          -5.724
REMARK INTER:                  -5.675
REMARK INTRA:                  -0.049
REMARK UNBOUND:                -0.068
REMARK SMILES COc1cc2ccc(=O)oc2c(O)c1O
REMARK SMILES IDX 3 1 14 2 12 3 11 4 5 5 4 6 6 7 7 8 8 9 9 10 10 11 2 12 1 13
REMARK SMILES IDX 15 14 13 16
REMARK H PARENT 15 15 13 17
REMARK Flexibility Score: inf
ROOT
ATOM      1  C   UNL     1     173.153 176.329 175.509  1.00  0.00     0.165 A 
ATOM      2  C   UNL     1     174.498 175.948 175.337  1.00  0.00     0.204 A 
ATOM      3  C   UNL     1     175.108 175.073 176.256  1.00  0.00     0.205 A 
ATOM      4  C   UNL     1     174.379 174.579 177.344  1.00  0.00     0.184 A 
ATOM      5  C   UNL     1     173.032 174.960 177.519  1.00  0.00     0.025 A 
ATOM      6  C   UNL     1     172.424 175.830 176.605  1.00  0.00     0.062 A 
ATOM      7  C   UNL     1     172.331 174.448 178.616  1.00  0.00     0.020 A 
ATOM      8  C   UNL     1     172.977 173.585 179.501  1.00  0.00     0.094 A 
ATOM      9  C   UNL     1     174.315 173.252 179.264  1.00  0.00     0.336 A 
ATOM     10  O   UNL     1     174.916 172.474 180.049  1.00  0.00    -0.246 OA
ATOM     11  O   UNL     1     174.958 173.753 178.212  1.00  0.00    -0.419 OA
ENDROOT
BRANCH   1  12
ATOM     12  O   UNL     1     172.574 177.204 174.573  1.00  0.00    -0.493 OA
ATOM     13  C   UNL     1     171.185 177.506 174.498  1.00  0.00     0.278 C 
ENDBRANCH   1  12
BRANCH   2  14
ATOM     14  O   UNL     1     175.240 176.430 174.258  1.00  0.00    -0.502 OA
ATOM     15  H   UNL     1     176.251 176.381 174.231  1.00  0.00     0.293 HD
ENDBRANCH   2  14
BRANCH   3  16
ATOM     16  O   UNL     1     176.440 174.686 176.099  1.00  0.00    -0.502 OA
ATOM     17  H   UNL     1     177.191 175.101 176.636  1.00  0.00     0.293 HD
ENDBRANCH   3  16
TORSDOF 3
ENDMDL
MODEL 7
REMARK VINA RESULT:    -4.882      3.707      5.593
REMARK INTER + INTRA:          -5.520
REMARK INTER:                  -5.470
REMARK INTRA:                  -0.051
REMARK UNBOUND:                -0.068
REMARK SMILES COc1cc2ccc(=O)oc2c(O)c1O
REMARK SMILES IDX 3 1 14 2 12 3 11 4 5 5 4 6 6 7 7 8 8 9 9 10 10 11 2 12 1 13
REMARK SMILES IDX 15 14 13 16
REMARK H PARENT 15 15 13 17
REMARK Flexibility Score: inf
ROOT
ATOM      1  C   UNL     1     172.951 173.683 178.729  1.00  0.00     0.165 A 
ATOM      2  C   UNL     1     174.335 173.479 178.558  1.00  0.00     0.204 A 
ATOM      3  C   UNL     1     175.023 174.129 177.517  1.00  0.00     0.205 A 
ATOM      4  C   UNL     1     174.334 174.982 176.647  1.00  0.00     0.184 A 
ATOM      5  C   UNL     1     172.949 175.189 176.815  1.00  0.00     0.025 A 
ATOM      6  C   UNL     1     172.263 174.542 177.851  1.00  0.00     0.062 A 
ATOM      7  C   UNL     1     172.290 176.047 175.929  1.00  0.00     0.020 A 
ATOM      8  C   UNL     1     173.013 176.670 174.912  1.00  0.00     0.094 A 
ATOM      9  C   UNL     1     174.385 176.418 174.806  1.00  0.00     0.336 A 
ATOM     10  O   UNL     1     175.056 176.970 173.896  1.00  0.00    -0.246 OA
ATOM     11  O   UNL     1     174.987 175.597 175.663  1.00  0.00    -0.419 OA
ENDROOT
BRANCH   1  12
ATOM     12  O   UNL     1     172.295 173.018 179.779  1.00  0.00    -0.493 OA
ATOM     13  C   UNL     1     172.150 173.532 181.099  1.00  0.00     0.278 C 
ENDBRANCH   1  12
BRANCH   2  14
ATOM     14  O   UNL     1     175.038 172.632 179.416  1.00  0.00    -0.502 OA
ATOM     15  H   UNL     1     174.609 172.206 180.229  1.00  0.00     0.293 HD
ENDBRANCH   2  14
BRANCH   3  16
ATOM     16  O   UNL     1     176.394 173.937 177.336  1.00  0.00    -0.502 OA
ATOM     17  H   UNL     1     177.029 174.705 177.154  1.00  0.00     0.293 HD
ENDBRANCH   3  16
TORSDOF 3
ENDMDL
MODEL 8
REMARK VINA RESULT:    -4.813      1.204      4.826
REMARK INTER + INTRA:          -5.443
REMARK INTER:                  -5.374
REMARK INTRA:                  -0.069
REMARK UNBOUND:                -0.068
REMARK SMILES COc1cc2ccc(=O)oc2c(O)c1O
REMARK SMILES IDX 3 1 14 2 12 3 11 4 5 5 4 6 6 7 7 8 8 9 9 10 10 11 2 12 1 13
REMARK SMILES IDX 15 14 13 16
REMARK H PARENT 15 15 13 17
REMARK Flexibility Score: inf
ROOT
ATOM      1  C   UNL     1     173.277 172.761 178.648  1.00  0.00     0.165 A 
ATOM      2  C   UNL     1     171.883 172.893 178.495  1.00  0.00     0.204 A 
ATOM      3  C   UNL     1     171.216 172.204 177.464  1.00  0.00     0.205 A 
ATOM      4  C   UNL     1     171.937 171.384 176.588  1.00  0.00     0.184 A 
ATOM      5  C   UNL     1     173.333 171.250 176.739  1.00  0.00     0.025 A 
ATOM      6  C   UNL     1     173.998 171.934 177.764  1.00  0.00     0.062 A 
ATOM      7  C   UNL     1     174.024 170.423 175.848  1.00  0.00     0.020 A 
ATOM      8  C   UNL     1     173.321 169.760 174.841  1.00  0.00     0.094 A 
ATOM      9  C   UNL     1     171.937 169.941 174.753  1.00  0.00     0.336 A 
ATOM     10  O   UNL     1     171.283 169.352 173.853  1.00  0.00    -0.246 OA
ATOM     11  O   UNL     1     171.305 170.733 175.614  1.00  0.00    -0.419 OA
ENDROOT
BRANCH   1  12
ATOM     12  O   UNL     1     173.912 173.462 179.687  1.00  0.00    -0.493 OA
ATOM     13  C   UNL     1     174.328 172.883 180.920  1.00  0.00     0.278 C 
ENDBRANCH   1  12
BRANCH   2  14
ATOM     14  O   UNL     1     171.148 173.706 179.359  1.00  0.00    -0.502 OA
ATOM     15  H   UNL     1     170.226 173.449 179.691  1.00  0.00     0.293 HD
ENDBRANCH   2  14
BRANCH   3  16
ATOM     16  O   UNL     1     169.835 172.325 177.300  1.00  0.00    -0.502 OA
ATOM     17  H   UNL     1     169.263 172.886 177.921  1.00  0.00     0.293 HD
ENDBRANCH   3  16
TORSDOF 3
ENDMDL
MODEL 9
REMARK VINA RESULT:    -4.707      2.325      2.610
REMARK INTER + INTRA:          -5.325
REMARK INTER:                  -5.257
REMARK INTRA:                  -0.068
REMARK UNBOUND:                -0.068
REMARK SMILES COc1cc2ccc(=O)oc2c(O)c1O
REMARK SMILES IDX 3 1 14 2 12 3 11 4 5 5 4 6 6 7 7 8 8 9 9 10 10 11 2 12 1 13
REMARK SMILES IDX 15 14 13 16
REMARK H PARENT 15 15 13 17
REMARK Flexibility Score: inf
ROOT
ATOM      1  C   UNL     1     173.115 174.382 175.798  1.00  0.00     0.165 A 
ATOM      2  C   UNL     1     171.829 173.993 176.220  1.00  0.00     0.204 A 
ATOM      3  C   UNL     1     171.649 173.385 177.477  1.00  0.00     0.205 A 
ATOM      4  C   UNL     1     172.750 173.165 178.312  1.00  0.00     0.184 A 
ATOM      5  C   UNL     1     174.040 173.553 177.893  1.00  0.00     0.025 A 
ATOM      6  C   UNL     1     174.219 174.158 176.643  1.00  0.00     0.062 A 
ATOM      7  C   UNL     1     175.119 173.319 178.752  1.00  0.00     0.020 A 
ATOM      8  C   UNL     1     174.894 172.714 179.988  1.00  0.00     0.094 A 
ATOM      9  C   UNL     1     173.587 172.356 180.337  1.00  0.00     0.336 A 
ATOM     10  O   UNL     1     173.361 171.809 181.447  1.00  0.00    -0.246 OA
ATOM     11  O   UNL     1     172.579 172.590 179.501  1.00  0.00    -0.419 OA
ENDROOT
BRANCH   1  12
ATOM     12  O   UNL     1     173.259 174.986 174.537  1.00  0.00    -0.493 OA
ATOM     13  C   UNL     1     173.314 176.391 174.314  1.00  0.00     0.278 C 
ENDBRANCH   1  12
BRANCH   2  14
ATOM     14  O   UNL     1     170.719 174.205 175.400  1.00  0.00    -0.502 OA
ATOM     15  H   UNL     1     169.835 174.542 175.761  1.00  0.00     0.293 HD
ENDBRANCH   2  14
BRANCH   3  16
ATOM     16  O   UNL     1     170.380 172.995 177.908  1.00  0.00    -0.502 OA
ATOM     17  H   UNL     1     169.967 172.108 177.644  1.00  0.00     0.293 HD
ENDBRANCH   3  16
TORSDOF 3
ENDMDL
