MODEL 1
REMARK VINA RESULT:    -5.973      0.000      0.000
REMARK INTER + INTRA:         -12.830
REMARK INTER:                 -11.560
REMARK INTRA:                  -1.270
REMARK UNBOUND:                -1.270
REMARK SMILES CCCCCCCCCCCCCCCCCC(=O)[O-]
REMARK SMILES IDX 10 1 11 2 12 3 13 4 14 5 15 6 16 7 17 8 18 9 19 10 20 11
REMARK SMILES IDX 9 12 8 13 7 14 6 15 5 16 4 17 3 18 2 19 1 20
REMARK H PARENT
REMARK Flexibility Score: inf
ROOT
ATOM      1  C   UNL     1      89.101 324.973 197.633  1.00  0.00     0.000 C 
ENDROOT
BRANCH   1   2
ATOM      2  C   UNL     1      89.028 325.040 199.171  1.00  0.00     0.000 C 
BRANCH   2   3
ATOM      3  C   UNL     1      89.360 326.432 199.749  1.00  0.00     0.000 C 
BRANCH   3   4
ATOM      4  C   UNL     1      89.404 326.435 201.287  1.00  0.00     0.000 C 
BRANCH   4   5
ATOM      5  C   UNL     1      90.830 326.588 201.838  1.00  0.00     0.000 C 
BRANCH   5   6
ATOM      6  C   UNL     1      90.859 327.216 203.239  1.00  0.00     0.000 C 
BRANCH   6   7
ATOM      7  C   UNL     1      89.434 327.442 203.769  1.00  0.00     0.006 C 
BRANCH   7   8
ATOM      8  C   UNL     1      89.289 327.026 205.239  1.00  0.00     0.053 C 
BRANCH   8   9
ATOM      9  C   UNL     1      88.500 325.761 205.384  1.00  0.00     0.041 C 
ATOM     10  O   UNL     1      87.719 325.609 206.360  1.00  0.00    -0.550 OA
ATOM     11  O   UNL     1      88.605 324.761 204.424  1.00  0.00    -0.550 OA
ENDBRANCH   8   9
ENDBRANCH   7   8
ENDBRANCH   6   7
ENDBRANCH   5   6
ENDBRANCH   4   5
ENDBRANCH   3   4
ENDBRANCH   2   3
ENDBRANCH   1   2
BRANCH   1  12
ATOM     12  C   UNL     1      88.176 325.961 196.898  1.00  0.00     0.000 C 
BRANCH  12  13
ATOM     13  C   UNL     1      88.724 326.494 195.559  1.00  0.00    -0.000 C 
BRANCH  13  14
ATOM     14  C   UNL     1      87.656 326.834 194.505  1.00  0.00    -0.000 C 
BRANCH  14  15
ATOM     15  C   UNL     1      86.339 326.072 194.719  1.00  0.00    -0.000 C 
BRANCH  15  16
ATOM     16  C   UNL     1      86.192 324.933 193.699  1.00  0.00    -0.000 C 
BRANCH  16  17
ATOM     17  C   UNL     1      87.005 323.685 194.079  1.00  0.00    -0.000 C 
BRANCH  17  18
ATOM     18  C   UNL     1      88.075 323.333 193.032  1.00  0.00    -0.000 C 
BRANCH  18  19
ATOM     19  C   UNL     1      88.067 324.298 191.835  1.00  0.00    -0.003 C 
ATOM     20  C   UNL     1      88.258 323.582 190.498  1.00  0.00     0.004 C 
ENDBRANCH  18  19
ENDBRANCH  17  18
ENDBRANCH  16  17
ENDBRANCH  15  16
ENDBRANCH  14  15
ENDBRANCH  13  14
ENDBRANCH  12  13
ENDBRANCH   1  12
TORSDOF 16
ENDMDL
MODEL 2
REMARK VINA RESULT:    -5.929     19.720     20.787
REMARK INTER + INTRA:         -12.745
REMARK INTER:                 -11.963
REMARK INTRA:                  -0.782
REMARK UNBOUND:                -1.270
REMARK SMILES CCCCCCCCCCCCCCCCCC(=O)[O-]
REMARK SMILES IDX 10 1 11 2 12 3 13 4 14 5 15 6 16 7 17 8 18 9 19 10 20 11
REMARK SMILES IDX 9 12 8 13 7 14 6 15 5 16 4 17 3 18 2 19 1 20
REMARK H PARENT
REMARK Flexibility Score: inf
ROOT
ATOM      1  C   UNL     1     104.220 311.918 196.025  1.00  0.00     0.000 C 
ENDROOT
BRANCH   1   2
ATOM      2  C   UNL     1     104.204 313.145 196.958  1.00  0.00     0.000 C 
BRANCH   2   3
ATOM      3  C   UNL     1     103.284 312.980 198.186  1.00  0.00     0.000 C 
BRANCH   3   4
ATOM      4  C   UNL     1     103.530 311.657 198.933  1.00  0.00     0.000 C 
BRANCH   4   5
ATOM      5  C   UNL     1     104.273 311.858 200.263  1.00  0.00     0.000 C 
BRANCH   5   6
ATOM      6  C   UNL     1     103.420 311.473 201.480  1.00  0.00     0.000 C 
BRANCH   6   7
ATOM      7  C   UNL     1     104.127 311.854 202.790  1.00  0.00     0.006 C 
BRANCH   7   8
ATOM      8  C   UNL     1     104.270 310.659 203.741  1.00  0.00     0.053 C 
BRANCH   8   9
ATOM      9  C   UNL     1     104.061 311.057 205.170  1.00  0.00     0.041 C 
ATOM     10  O   UNL     1     104.953 311.699 205.786  1.00  0.00    -0.550 OA
ATOM     11  O   UNL     1     102.870 310.746 205.813  1.00  0.00    -0.550 OA
ENDBRANCH   8   9
ENDBRANCH   7   8
ENDBRANCH   6   7
ENDBRANCH   5   6
ENDBRANCH   4   5
ENDBRANCH   3   4
ENDBRANCH   2   3
ENDBRANCH   1   2
BRANCH   1  12
ATOM     12  C   UNL     1     105.606 311.547 195.469  1.00  0.00     0.000 C 
BRANCH  12  13
ATOM     13  C   UNL     1     105.643 311.243 193.957  1.00  0.00    -0.000 C 
BRANCH  13  14
ATOM     14  C   UNL     1     104.297 311.389 193.228  1.00  0.00    -0.000 C 
BRANCH  14  15
ATOM     15  C   UNL     1     104.073 312.799 192.661  1.00  0.00    -0.000 C 
BRANCH  15  16
ATOM     16  C   UNL     1     105.386 313.390 192.124  1.00  0.00    -0.000 C 
BRANCH  16  17
ATOM     17  C   UNL     1     105.197 314.160 190.807  1.00  0.00    -0.000 C 
BRANCH  17  18
ATOM     18  C   UNL     1     103.792 313.977 190.209  1.00  0.00    -0.000 C 
BRANCH  18  19
ATOM     19  C   UNL     1     103.543 314.893 189.000  1.00  0.00    -0.003 C 
ATOM     20  C   UNL     1     102.335 314.460 188.169  1.00  0.00     0.004 C 
ENDBRANCH  18  19
ENDBRANCH  17  18
ENDBRANCH  16  17
ENDBRANCH  15  16
ENDBRANCH  14  15
ENDBRANCH  13  14
ENDBRANCH  12  13
ENDBRANCH   1  12
TORSDOF 16
ENDMDL
MODEL 3
REMARK VINA RESULT:    -5.825      1.133      2.335
REMARK INTER + INTRA:         -12.544
REMARK INTER:                 -11.785
REMARK INTRA:                  -0.759
REMARK UNBOUND:                -1.270
REMARK SMILES CCCCCCCCCCCCCCCCCC(=O)[O-]
REMARK SMILES IDX 10 1 11 2 12 3 13 4 14 5 15 6 16 7 17 8 18 9 19 10 20 11
REMARK SMILES IDX 9 12 8 13 7 14 6 15 5 16 4 17 3 18 2 19 1 20
REMARK H PARENT
REMARK Flexibility Score: inf
ROOT
ATOM      1  C   UNL     1      88.873 326.504 195.524  1.00  0.00     0.000 C 
ENDROOT
BRANCH   1   2
ATOM      2  C   UNL     1      88.356 325.943 196.863  1.00  0.00     0.000 C 
BRANCH   2   3
ATOM      3  C   UNL     1      88.846 326.730 198.097  1.00  0.00     0.000 C 
BRANCH   3   4
ATOM      4  C   UNL     1      89.178 325.811 199.287  1.00  0.00     0.000 C 
BRANCH   4   5
ATOM      5  C   UNL     1      89.983 326.529 200.381  1.00  0.00     0.000 C 
BRANCH   5   6
ATOM      6  C   UNL     1      89.806 325.884 201.763  1.00  0.00     0.000 C 
BRANCH   6   7
ATOM      7  C   UNL     1      88.859 326.717 202.641  1.00  0.00     0.006 C 
BRANCH   7   8
ATOM      8  C   UNL     1      89.582 327.345 203.840  1.00  0.00     0.053 C 
BRANCH   8   9
ATOM      9  C   UNL     1      89.207 326.677 205.128  1.00  0.00     0.041 C 
ATOM     10  O   UNL     1      88.540 325.610 205.117  1.00  0.00    -0.550 OA
ATOM     11  O   UNL     1      89.622 327.218 206.338  1.00  0.00    -0.550 OA
ENDBRANCH   8   9
ENDBRANCH   7   8
ENDBRANCH   6   7
ENDBRANCH   5   6
ENDBRANCH   4   5
ENDBRANCH   3   4
ENDBRANCH   2   3
ENDBRANCH   1   2
BRANCH   1  12
ATOM     12  C   UNL     1      87.774 326.866 194.508  1.00  0.00     0.000 C 
BRANCH  12  13
ATOM     13  C   UNL     1      86.423 326.155 194.725  1.00  0.00    -0.000 C 
BRANCH  13  14
ATOM     14  C   UNL     1      86.017 325.170 193.614  1.00  0.00    -0.000 C 
BRANCH  14  15
ATOM     15  C   UNL     1      86.787 323.843 193.679  1.00  0.00    -0.000 C 
BRANCH  15  16
ATOM     16  C   UNL     1      88.099 323.930 192.884  1.00  0.00    -0.000 C 
BRANCH  16  17
ATOM     17  C   UNL     1      87.870 324.188 191.386  1.00  0.00    -0.000 C 
BRANCH  17  18
ATOM     18  C   UNL     1      88.425 323.060 190.499  1.00  0.00    -0.000 C 
BRANCH  18  19
ATOM     19  C   UNL     1      89.058 323.589 189.202  1.00  0.00    -0.003 C 
ATOM     20  C   UNL     1      90.310 322.811 188.795  1.00  0.00     0.004 C 
ENDBRANCH  18  19
ENDBRANCH  17  18
ENDBRANCH  16  17
ENDBRANCH  15  16
ENDBRANCH  14  15
ENDBRANCH  13  14
ENDBRANCH  12  13
ENDBRANCH   1  12
TORSDOF 16
ENDMDL
MODEL 4
REMARK VINA RESULT:    -5.765      0.967      1.647
REMARK INTER + INTRA:         -12.427
REMARK INTER:                 -11.230
REMARK INTRA:                  -1.197
REMARK UNBOUND:                -1.270
REMARK SMILES CCCCCCCCCCCCCCCCCC(=O)[O-]
REMARK SMILES IDX 10 1 11 2 12 3 13 4 14 5 15 6 16 7 17 8 18 9 19 10 20 11
REMARK SMILES IDX 9 12 8 13 7 14 6 15 5 16 4 17 3 18 2 19 1 20
REMARK H PARENT
REMARK Flexibility Score: inf
ROOT
ATOM      1  C   UNL     1      89.123 324.781 198.791  1.00  0.00     0.000 C 
ENDROOT
BRANCH   1   2
ATOM      2  C   UNL     1      89.167 326.223 199.334  1.00  0.00     0.000 C 
BRANCH   2   3
ATOM      3  C   UNL     1      90.004 326.376 200.621  1.00  0.00     0.000 C 
BRANCH   3   4
ATOM      4  C   UNL     1      89.127 326.524 201.878  1.00  0.00     0.000 C 
BRANCH   4   5
ATOM      5  C   UNL     1      89.948 326.843 203.137  1.00  0.00     0.000 C 
BRANCH   5   6
ATOM      6  C   UNL     1      89.088 327.424 204.270  1.00  0.00     0.000 C 
BRANCH   6   7
ATOM      7  C   UNL     1      89.749 327.188 205.637  1.00  0.00     0.006 C 
BRANCH   7   8
ATOM      8  C   UNL     1      88.804 326.494 206.627  1.00  0.00     0.053 C 
BRANCH   8   9
ATOM      9  C   UNL     1      88.314 325.180 206.099  1.00  0.00     0.041 C 
ATOM     10  O   UNL     1      87.079 324.945 206.034  1.00  0.00    -0.550 OA
ATOM     11  O   UNL     1      89.220 324.228 205.652  1.00  0.00    -0.550 OA
ENDBRANCH   8   9
ENDBRANCH   7   8
ENDBRANCH   6   7
ENDBRANCH   5   6
ENDBRANCH   4   5
ENDBRANCH   3   4
ENDBRANCH   2   3
ENDBRANCH   1   2
BRANCH   1  12
ATOM     12  C   UNL     1      88.908 324.669 197.270  1.00  0.00     0.000 C 
BRANCH  12  13
ATOM     13  C   UNL     1      88.013 325.764 196.655  1.00  0.00    -0.000 C 
BRANCH  13  14
ATOM     14  C   UNL     1      88.637 326.533 195.478  1.00  0.00    -0.000 C 
BRANCH  14  15
ATOM     15  C   UNL     1      87.639 326.805 194.342  1.00  0.00    -0.000 C 
BRANCH  15  16
ATOM     16  C   UNL     1      86.431 325.860 194.436  1.00  0.00    -0.000 C 
BRANCH  16  17
ATOM     17  C   UNL     1      86.328 324.904 193.236  1.00  0.00    -0.000 C 
BRANCH  17  18
ATOM     18  C   UNL     1      87.704 324.508 192.675  1.00  0.00    -0.000 C 
BRANCH  18  19
ATOM     19  C   UNL     1      88.383 323.407 193.503  1.00  0.00    -0.003 C 
ATOM     20  C   UNL     1      87.398 322.352 194.007  1.00  0.00     0.004 C 
ENDBRANCH  18  19
ENDBRANCH  17  18
ENDBRANCH  16  17
ENDBRANCH  15  16
ENDBRANCH  14  15
ENDBRANCH  13  14
ENDBRANCH  12  13
ENDBRANCH   1  12
TORSDOF 16
ENDMDL
MODEL 5
REMARK VINA RESULT:    -5.707     19.664     20.685
REMARK INTER + INTRA:         -12.316
REMARK INTER:                 -10.825
REMARK INTRA:                  -1.491
REMARK UNBOUND:                -1.270
REMARK SMILES CCCCCCCCCCCCCCCCCC(=O)[O-]
REMARK SMILES IDX 10 1 11 2 12 3 13 4 14 5 15 6 16 7 17 8 18 9 19 10 20 11
REMARK SMILES IDX 9 12 8 13 7 14 6 15 5 16 4 17 3 18 2 19 1 20
REMARK H PARENT
REMARK Flexibility Score: inf
ROOT
ATOM      1  C   UNL     1     103.888 312.561 197.246  1.00  0.00     0.000 C 
ENDROOT
BRANCH   1   2
ATOM      2  C   UNL     1     103.533 311.383 198.174  1.00  0.00     0.000 C 
BRANCH   2   3
ATOM      3  C   UNL     1     103.251 311.804 199.632  1.00  0.00     0.000 C 
BRANCH   3   4
ATOM      4  C   UNL     1     104.539 311.942 200.464  1.00  0.00     0.000 C 
BRANCH   4   5
ATOM      5  C   UNL     1     104.335 311.555 201.937  1.00  0.00     0.000 C 
BRANCH   5   6
ATOM      6  C   UNL     1     102.884 311.160 202.249  1.00  0.00     0.000 C 
BRANCH   6   7
ATOM      7  C   UNL     1     102.798 310.382 203.571  1.00  0.00     0.006 C 
BRANCH   7   8
ATOM      8  C   UNL     1     103.932 310.751 204.537  1.00  0.00     0.053 C 
BRANCH   8   9
ATOM      9  C   UNL     1     103.443 311.603 205.668  1.00  0.00     0.041 C 
ATOM     10  O   UNL     1     104.114 311.693 206.729  1.00  0.00    -0.550 OA
ATOM     11  O   UNL     1     102.261 312.322 205.538  1.00  0.00    -0.550 OA
ENDBRANCH   8   9
ENDBRANCH   7   8
ENDBRANCH   6   7
ENDBRANCH   5   6
ENDBRANCH   4   5
ENDBRANCH   3   4
ENDBRANCH   2   3
ENDBRANCH   1   2
BRANCH   1  12
ATOM     12  C   UNL     1     104.546 312.158 195.913  1.00  0.00     0.000 C 
BRANCH  12  13
ATOM     13  C   UNL     1     103.593 311.526 194.878  1.00  0.00    -0.000 C 
BRANCH  13  14
ATOM     14  C   UNL     1     104.230 311.197 193.517  1.00  0.00    -0.000 C 
BRANCH  14  15
ATOM     15  C   UNL     1     105.676 311.701 193.395  1.00  0.00    -0.000 C 
BRANCH  15  16
ATOM     16  C   UNL     1     105.749 312.942 192.492  1.00  0.00    -0.000 C 
BRANCH  16  17
ATOM     17  C   UNL     1     104.413 313.255 191.800  1.00  0.00    -0.000 C 
BRANCH  17  18
ATOM     18  C   UNL     1     103.879 314.655 192.148  1.00  0.00    -0.000 C 
BRANCH  18  19
ATOM     19  C   UNL     1     104.500 315.218 193.436  1.00  0.00    -0.003 C 
ATOM     20  C   UNL     1     103.491 315.333 194.579  1.00  0.00     0.004 C 
ENDBRANCH  18  19
ENDBRANCH  17  18
ENDBRANCH  16  17
ENDBRANCH  15  16
ENDBRANCH  14  15
ENDBRANCH  13  14
ENDBRANCH  12  13
ENDBRANCH   1  12
TORSDOF 16
ENDMDL
MODEL 6
REMARK VINA RESULT:    -5.697      1.642      4.055
REMARK INTER + INTRA:         -12.296
REMARK INTER:                 -10.797
REMARK INTRA:                  -1.499
REMARK UNBOUND:                -1.270
REMARK SMILES CCCCCCCCCCCCCCCCCC(=O)[O-]
REMARK SMILES IDX 10 1 11 2 12 3 13 4 14 5 15 6 16 7 17 8 18 9 19 10 20 11
REMARK SMILES IDX 9 12 8 13 7 14 6 15 5 16 4 17 3 18 2 19 1 20
REMARK H PARENT
REMARK Flexibility Score: inf
ROOT
ATOM      1  C   UNL     1      86.517 326.133 194.923  1.00  0.00     0.000 C 
ENDROOT
BRANCH   1   2
ATOM      2  C   UNL     1      87.895 326.796 194.730  1.00  0.00     0.000 C 
BRANCH   2   3
ATOM      3  C   UNL     1      88.891 326.502 195.871  1.00  0.00     0.000 C 
BRANCH   3   4
ATOM      4  C   UNL     1      88.688 325.104 196.484  1.00  0.00     0.000 C 
BRANCH   4   5
ATOM      5  C   UNL     1      88.596 325.139 198.017  1.00  0.00     0.000 C 
BRANCH   5   6
ATOM      6  C   UNL     1      88.916 326.524 198.597  1.00  0.00     0.000 C 
BRANCH   6   7
ATOM      7  C   UNL     1      89.648 326.401 199.942  1.00  0.00     0.006 C 
BRANCH   7   8
ATOM      8  C   UNL     1      88.701 326.013 201.086  1.00  0.00     0.053 C 
BRANCH   8   9
ATOM      9  C   UNL     1      89.388 326.056 202.416  1.00  0.00     0.041 C 
ATOM     10  O   UNL     1      89.321 327.091 203.131  1.00  0.00    -0.550 OA
ATOM     11  O   UNL     1      90.078 324.943 202.880  1.00  0.00    -0.550 OA
ENDBRANCH   8   9
ENDBRANCH   7   8
ENDBRANCH   6   7
ENDBRANCH   5   6
ENDBRANCH   4   5
ENDBRANCH   3   4
ENDBRANCH   2   3
ENDBRANCH   1   2
BRANCH   1  12
ATOM     12  C   UNL     1      86.079 325.205 193.775  1.00  0.00     0.000 C 
BRANCH  12  13
ATOM     13  C   UNL     1      86.698 323.793 193.804  1.00  0.00    -0.000 C 
BRANCH  13  14
ATOM     14  C   UNL     1      88.052 323.658 193.086  1.00  0.00    -0.000 C 
BRANCH  14  15
ATOM     15  C   UNL     1      88.116 324.454 191.774  1.00  0.00    -0.000 C 
BRANCH  15  16
ATOM     16  C   UNL     1      87.790 323.556 190.571  1.00  0.00    -0.000 C 
BRANCH  16  17
ATOM     17  C   UNL     1      88.876 323.600 189.483  1.00  0.00    -0.000 C 
BRANCH  17  18
ATOM     18  C   UNL     1      89.645 322.274 189.360  1.00  0.00    -0.000 C 
BRANCH  18  19
ATOM     19  C   UNL     1      89.028 321.154 190.212  1.00  0.00    -0.003 C 
ATOM     20  C   UNL     1      89.974 320.651 191.302  1.00  0.00     0.004 C 
ENDBRANCH  18  19
ENDBRANCH  17  18
ENDBRANCH  16  17
ENDBRANCH  15  16
ENDBRANCH  14  15
ENDBRANCH  13  14
ENDBRANCH  12  13
ENDBRANCH   1  12
TORSDOF 16
ENDMDL
MODEL 7
REMARK VINA RESULT:    -5.682      5.292     10.824
REMARK INTER + INTRA:         -12.266
REMARK INTER:                 -11.411
REMARK INTRA:                  -0.855
REMARK UNBOUND:                -1.270
REMARK SMILES CCCCCCCCCCCCCCCCCC(=O)[O-]
REMARK SMILES IDX 10 1 11 2 12 3 13 4 14 5 15 6 16 7 17 8 18 9 19 10 20 11
REMARK SMILES IDX 9 12 8 13 7 14 6 15 5 16 4 17 3 18 2 19 1 20
REMARK H PARENT
REMARK Flexibility Score: inf
ROOT
ATOM      1  C   UNL     1      88.821 326.497 195.631  1.00  0.00     0.000 C 
ENDROOT
BRANCH   1   2
ATOM      2  C   UNL     1      87.687 326.916 194.675  1.00  0.00     0.000 C 
BRANCH   2   3
ATOM      3  C   UNL     1      86.370 326.141 194.895  1.00  0.00     0.000 C 
BRANCH   3   4
ATOM      4  C   UNL     1      85.960 325.318 193.661  1.00  0.00     0.000 C 
BRANCH   4   5
ATOM      5  C   UNL     1      86.659 323.951 193.602  1.00  0.00     0.000 C 
BRANCH   5   6
ATOM      6  C   UNL     1      88.077 324.037 193.019  1.00  0.00     0.000 C 
BRANCH   6   7
ATOM      7  C   UNL     1      88.034 324.220 191.494  1.00  0.00     0.006 C 
BRANCH   7   8
ATOM      8  C   UNL     1      87.541 322.958 190.772  1.00  0.00     0.053 C 
BRANCH   8   9
ATOM      9  C   UNL     1      87.958 322.942 189.333  1.00  0.00     0.041 C 
ATOM     10  O   UNL     1      88.988 323.567 188.965  1.00  0.00    -0.550 OA
ATOM     11  O   UNL     1      87.228 322.212 188.405  1.00  0.00    -0.550 OA
ENDBRANCH   8   9
ENDBRANCH   7   8
ENDBRANCH   6   7
ENDBRANCH   5   6
ENDBRANCH   4   5
ENDBRANCH   3   4
ENDBRANCH   2   3
ENDBRANCH   1   2
BRANCH   1  12
ATOM     12  C   UNL     1      88.366 326.150 197.061  1.00  0.00     0.000 C 
BRANCH  12  13
ATOM     13  C   UNL     1      88.833 324.775 197.579  1.00  0.00    -0.000 C 
BRANCH  13  14
ATOM     14  C   UNL     1      89.314 324.755 199.040  1.00  0.00    -0.000 C 
BRANCH  14  15
ATOM     15  C   UNL     1      89.410 326.158 199.658  1.00  0.00    -0.000 C 
BRANCH  15  16
ATOM     16  C   UNL     1      88.775 326.185 201.057  1.00  0.00    -0.000 C 
BRANCH  16  17
ATOM     17  C   UNL     1      89.771 326.591 202.155  1.00  0.00    -0.000 C 
BRANCH  17  18
ATOM     18  C   UNL     1      89.243 326.302 203.571  1.00  0.00    -0.000 C 
BRANCH  18  19
ATOM     19  C   UNL     1      89.601 327.412 204.571  1.00  0.00    -0.003 C 
ATOM     20  C   UNL     1      89.360 327.001 206.023  1.00  0.00     0.004 C 
ENDBRANCH  18  19
ENDBRANCH  17  18
ENDBRANCH  16  17
ENDBRANCH  15  16
ENDBRANCH  14  15
ENDBRANCH  13  14
ENDBRANCH  12  13
ENDBRANCH   1  12
TORSDOF 16
ENDMDL
MODEL 8
REMARK VINA RESULT:    -5.676      6.861     10.074
REMARK INTER + INTRA:         -12.255
REMARK INTER:                  -9.617
REMARK INTRA:                  -2.638
REMARK UNBOUND:                -1.270
REMARK SMILES CCCCCCCCCCCCCCCCCC(=O)[O-]
REMARK SMILES IDX 10 1 11 2 12 3 13 4 14 5 15 6 16 7 17 8 18 9 19 10 20 11
REMARK SMILES IDX 9 12 8 13 7 14 6 15 5 16 4 17 3 18 2 19 1 20
REMARK H PARENT
REMARK Flexibility Score: inf
ROOT
ATOM      1  C   UNL     1      86.699 326.759 194.730  1.00  0.00     0.000 C 
ENDROOT
BRANCH   1   2
ATOM      2  C   UNL     1      88.075 326.517 194.081  1.00  0.00     0.000 C 
BRANCH   2   3
ATOM      3  C   UNL     1      88.142 325.234 193.226  1.00  0.00     0.000 C 
BRANCH   3   4
ATOM      4  C   UNL     1      86.750 324.635 192.955  1.00  0.00     0.000 C 
BRANCH   4   5
ATOM      5  C   UNL     1      86.738 323.692 191.741  1.00  0.00     0.000 C 
BRANCH   5   6
ATOM      6  C   UNL     1      88.001 323.825 190.879  1.00  0.00     0.000 C 
BRANCH   6   7
ATOM      7  C   UNL     1      88.155 322.618 189.939  1.00  0.00     0.006 C 
BRANCH   7   8
ATOM      8  C   UNL     1      89.615 322.379 189.536  1.00  0.00     0.053 C 
BRANCH   8   9
ATOM      9  C   UNL     1      89.720 321.573 188.277  1.00  0.00     0.041 C 
ATOM     10  O   UNL     1      90.812 321.511 187.653  1.00  0.00    -0.550 OA
ATOM     11  O   UNL     1      88.620 320.865 187.811  1.00  0.00    -0.550 OA
ENDBRANCH   8   9
ENDBRANCH   7   8
ENDBRANCH   6   7
ENDBRANCH   5   6
ENDBRANCH   4   5
ENDBRANCH   3   4
ENDBRANCH   2   3
ENDBRANCH   1   2
BRANCH   1  12
ATOM     12  C   UNL     1      86.642 326.493 196.245  1.00  0.00     0.000 C 
BRANCH  12  13
ATOM     13  C   UNL     1      88.011 326.460 196.954  1.00  0.00    -0.000 C 
BRANCH  13  14
ATOM     14  C   UNL     1      88.429 325.086 197.506  1.00  0.00    -0.000 C 
BRANCH  14  15
ATOM     15  C   UNL     1      89.591 324.455 196.725  1.00  0.00    -0.000 C 
BRANCH  15  16
ATOM     16  C   UNL     1      89.308 322.975 196.421  1.00  0.00    -0.000 C 
BRANCH  16  17
ATOM     17  C   UNL     1      87.857 322.724 195.982  1.00  0.00    -0.000 C 
BRANCH  17  18
ATOM     18  C   UNL     1      87.757 321.758 194.790  1.00  0.00    -0.000 C 
BRANCH  18  19
ATOM     19  C   UNL     1      89.092 321.601 194.045  1.00  0.00    -0.003 C 
ATOM     20  C   UNL     1      88.998 320.646 192.856  1.00  0.00     0.004 C 
ENDBRANCH  18  19
ENDBRANCH  17  18
ENDBRANCH  16  17
ENDBRANCH  15  16
ENDBRANCH  14  15
ENDBRANCH  13  14
ENDBRANCH  12  13
ENDBRANCH   1  12
TORSDOF 16
ENDMDL
MODEL 9
REMARK VINA RESULT:    -5.639      3.712     10.105
REMARK INTER + INTRA:         -12.183
REMARK INTER:                 -11.073
REMARK INTRA:                  -1.109
REMARK UNBOUND:                -1.270
REMARK SMILES CCCCCCCCCCCCCCCCCC(=O)[O-]
REMARK SMILES IDX 10 1 11 2 12 3 13 4 14 5 15 6 16 7 17 8 18 9 19 10 20 11
REMARK SMILES IDX 9 12 8 13 7 14 6 15 5 16 4 17 3 18 2 19 1 20
REMARK H PARENT
REMARK Flexibility Score: inf
ROOT
ATOM      1  C   UNL     1      89.238 324.781 198.874  1.00  0.00     0.000 C 
ENDROOT
BRANCH   1   2
ATOM      2  C   UNL     1      88.530 324.688 197.508  1.00  0.00     0.000 C 
BRANCH   2   3
ATOM      3  C   UNL     1      88.074 326.053 196.950  1.00  0.00     0.000 C 
BRANCH   3   4
ATOM      4  C   UNL     1      88.927 326.514 195.755  1.00  0.00     0.000 C 
BRANCH   4   5
ATOM      5  C   UNL     1      88.084 326.806 194.504  1.00  0.00     0.000 C 
BRANCH   5   6
ATOM      6  C   UNL     1      86.649 326.273 194.622  1.00  0.00     0.000 C 
BRANCH   6   7
ATOM      7  C   UNL     1      86.409 325.117 193.638  1.00  0.00     0.006 C 
BRANCH   7   8
ATOM      8  C   UNL     1      87.682 324.733 192.872  1.00  0.00     0.053 C 
BRANCH   8   9
ATOM      9  C   UNL     1      88.162 323.363 193.242  1.00  0.00     0.041 C 
ATOM     10  O   UNL     1      88.831 323.189 194.296  1.00  0.00    -0.550 OA
ATOM     11  O   UNL     1      87.846 322.274 192.440  1.00  0.00    -0.550 OA
ENDBRANCH   8   9
ENDBRANCH   7   8
ENDBRANCH   6   7
ENDBRANCH   5   6
ENDBRANCH   4   5
ENDBRANCH   3   4
ENDBRANCH   2   3
ENDBRANCH   1   2
BRANCH   1  12
ATOM     12  C   UNL     1      89.201 326.175 199.528  1.00  0.00     0.000 C 
BRANCH  12  13
ATOM     13  C   UNL     1      90.047 326.317 200.809  1.00  0.00    -0.000 C 
BRANCH  13  14
ATOM     14  C   UNL     1      89.242 326.454 202.113  1.00  0.00    -0.000 C 
BRANCH  14  15
ATOM     15  C   UNL     1      90.014 327.186 203.220  1.00  0.00    -0.000 C 
BRANCH  15  16
ATOM     16  C   UNL     1      89.971 326.393 204.535  1.00  0.00    -0.000 C 
BRANCH  16  17
ATOM     17  C   UNL     1      89.236 327.141 205.659  1.00  0.00    -0.000 C 
BRANCH  17  18
ATOM     18  C   UNL     1      88.650 326.192 206.718  1.00  0.00    -0.000 C 
BRANCH  18  19
ATOM     19  C   UNL     1      88.384 324.784 206.164  1.00  0.00    -0.003 C 
ATOM     20  C   UNL     1      86.914 324.553 205.815  1.00  0.00     0.004 C 
ENDBRANCH  18  19
ENDBRANCH  17  18
ENDBRANCH  16  17
ENDBRANCH  15  16
ENDBRANCH  14  15
ENDBRANCH  13  14
ENDBRANCH  12  13
ENDBRANCH   1  12
TORSDOF 16
ENDMDL
