MODEL 1
REMARK VINA RESULT:    -0.553      0.000      0.000
REMARK INTER + INTRA:          -0.862
REMARK INTER:                  -0.747
REMARK INTRA:                  -0.115
REMARK UNBOUND:                -0.115
REMARK SMILES CCCCCCCC(=O)[O-]
REMARK SMILES IDX 5 1 6 2 7 3 8 4 9 5 10 6 4 7 3 8 2 9 1 10
REMARK H PARENT
REMARK Flexibility Score: inf
ROOT
ATOM      1  C   UNL     1     -19.115  17.570  14.375  1.00  0.00     0.000 C 
ENDROOT
BRANCH   1   2
ATOM      2  C   UNL     1     -19.086  16.646  15.602  1.00  0.00     0.006 C 
BRANCH   2   3
ATOM      3  C   UNL     1     -19.112  17.432  16.919  1.00  0.00     0.053 C 
BRANCH   3   4
ATOM      4  C   UNL     1     -19.121  16.521  18.109  1.00  0.00     0.041 C 
ATOM      5  O   UNL     1     -19.097  15.271  17.951  1.00  0.00    -0.550 OA
ATOM      6  O   UNL     1     -19.125  17.052  19.392  1.00  0.00    -0.550 OA
ENDBRANCH   3   4
ENDBRANCH   2   3
ENDBRANCH   1   2
BRANCH   1   7
ATOM      7  C   UNL     1     -18.505  16.873  13.149  1.00  0.00     0.000 C 
BRANCH   7   8
ATOM      8  C   UNL     1     -18.975  17.485  11.816  1.00  0.00    -0.000 C 
BRANCH   8   9
ATOM      9  C   UNL     1     -17.974  17.352  10.655  1.00  0.00    -0.003 C 
ATOM     10  C   UNL     1     -17.423  15.934  10.499  1.00  0.00     0.004 C 
ENDBRANCH   8   9
ENDBRANCH   7   8
ENDBRANCH   1   7
TORSDOF 6
ENDMDL
MODEL 2
REMARK VINA RESULT:    -0.103      4.141      6.453
REMARK INTER + INTRA:          -0.254
REMARK INTER:                  -0.119
REMARK INTRA:                  -0.135
REMARK UNBOUND:                -0.115
REMARK SMILES CCCCCCCC(=O)[O-]
REMARK SMILES IDX 5 1 6 2 7 3 8 4 9 5 10 6 4 7 3 8 2 9 1 10
REMARK H PARENT
REMARK Flexibility Score: inf
ROOT
ATOM      1  C   UNL     1     -19.077  16.857  13.453  1.00  0.00     0.000 C 
ENDROOT
BRANCH   1   2
ATOM      2  C   UNL     1     -18.978  17.504  12.062  1.00  0.00     0.006 C 
BRANCH   2   3
ATOM      3  C   UNL     1     -17.573  17.372  11.460  1.00  0.00     0.053 C 
BRANCH   3   4
ATOM      4  C   UNL     1     -17.617  16.840  10.061  1.00  0.00     0.041 C 
ATOM      5  O   UNL     1     -17.861  17.612   9.096  1.00  0.00    -0.550 OA
ATOM      6  O   UNL     1     -17.356  15.498   9.819  1.00  0.00    -0.550 OA
ENDBRANCH   3   4
ENDBRANCH   2   3
ENDBRANCH   1   2
BRANCH   1   7
ATOM      7  C   UNL     1     -18.357  17.711  14.507  1.00  0.00     0.000 C 
BRANCH   7   8
ATOM      8  C   UNL     1     -19.125  17.790  15.840  1.00  0.00    -0.000 C 
BRANCH   8   9
ATOM      9  C   UNL     1     -19.094  16.502  16.681  1.00  0.00    -0.003 C 
ATOM     10  C   UNL     1     -19.120  16.769  18.186  1.00  0.00     0.004 C 
ENDBRANCH   8   9
ENDBRANCH   7   8
ENDBRANCH   1   7
TORSDOF 6
ENDMDL
MODEL 3
REMARK VINA RESULT:    -0.031      3.112      4.998
REMARK INTER + INTRA:          -0.157
REMARK INTER:                  -0.024
REMARK INTRA:                  -0.133
REMARK UNBOUND:                -0.115
REMARK SMILES CCCCCCCC(=O)[O-]
REMARK SMILES IDX 5 1 6 2 7 3 8 4 9 5 10 6 4 7 3 8 2 9 1 10
REMARK H PARENT
REMARK Flexibility Score: inf
ROOT
ATOM      1  C   UNL     1     -18.184  17.069  19.183  1.00  0.00     0.000 C 
ENDROOT
BRANCH   1   2
ATOM      2  C   UNL     1     -18.999  17.999  20.094  1.00  0.00     0.006 C 
BRANCH   2   3
ATOM      3  C   UNL     1     -18.115  18.739  21.106  1.00  0.00     0.053 C 
BRANCH   3   4
ATOM      4  C   UNL     1     -18.602  20.134  21.353  1.00  0.00     0.041 C 
ATOM      5  O   UNL     1     -18.748  20.556  22.531  1.00  0.00    -0.550 OA
ATOM      6  O   UNL     1     -18.864  20.978  20.282  1.00  0.00    -0.550 OA
ENDBRANCH   3   4
ENDBRANCH   2   3
ENDBRANCH   1   2
BRANCH   1   7
ATOM      7  C   UNL     1     -19.056  16.511  18.047  1.00  0.00     0.000 C 
BRANCH   7   8
ATOM      8  C   UNL     1     -19.125  17.450  16.828  1.00  0.00    -0.000 C 
BRANCH   8   9
ATOM      9  C   UNL     1     -19.103  16.740  15.463  1.00  0.00    -0.003 C 
ATOM     10  C   UNL     1     -18.940  17.705  14.289  1.00  0.00     0.004 C 
ENDBRANCH   8   9
ENDBRANCH   7   8
ENDBRANCH   1   7
TORSDOF 6
ENDMDL
