MODEL 1
REMARK VINA RESULT:    19.693      0.000      0.000
REMARK INTER + INTRA:          48.209
REMARK INTER:                  49.625
REMARK INTRA:                  -1.416
REMARK UNBOUND:                -1.416
REMARK SMILES CCCCCCCCCCCCCCCCCCCCCCCCCCCC(=O)[O-]
REMARK SMILES IDX 15 1 16 2 17 3 18 4 19 5 20 6 21 7 22 8 23 9 24 10 25 11
REMARK SMILES IDX 26 12 27 13 28 14 29 15 30 16 14 17 13 18 12 19 11 20 10 21
REMARK SMILES IDX 9 22 8 23 7 24 6 25 5 26 4 27 3 28 2 29 1 30
REMARK H PARENT
REMARK Flexibility Score: inf
ROOT
ATOM      1  C   UNL     1      10.998 -55.943  -2.960  1.00  0.00     0.000 C 
ENDROOT
BRANCH   1   2
ATOM      2  C   UNL     1      11.341 -54.931  -4.070  1.00  0.00     0.000 C 
BRANCH   2   3
ATOM      3  C   UNL     1      10.971 -53.470  -3.730  1.00  0.00     0.000 C 
BRANCH   3   4
ATOM      4  C   UNL     1       9.522 -53.108  -4.105  1.00  0.00     0.000 C 
BRANCH   4   5
ATOM      5  C   UNL     1       8.751 -52.402  -2.975  1.00  0.00     0.000 C 
BRANCH   5   6
ATOM      6  C   UNL     1       8.003 -51.121  -3.403  1.00  0.00     0.000 C 
BRANCH   6   7
ATOM      7  C   UNL     1       8.845 -49.828  -3.465  1.00  0.00     0.000 C 
BRANCH   7   8
ATOM      8  C   UNL     1      10.007 -49.731  -2.457  1.00  0.00     0.000 C 
BRANCH   8   9
ATOM      9  C   UNL     1      10.501 -48.293  -2.241  1.00  0.00     0.000 C 
BRANCH   9  10
ATOM     10  C   UNL     1       9.855 -47.339  -3.255  1.00  0.00     0.000 C 
BRANCH  10  11
ATOM     11  C   UNL     1       9.039 -46.247  -2.547  1.00  0.00     0.000 C 
BRANCH  11  12
ATOM     12  C   UNL     1       8.195 -45.400  -3.519  1.00  0.00     0.006 C 
BRANCH  12  13
ATOM     13  C   UNL     1       7.157 -44.498  -2.826  1.00  0.00     0.053 C 
BRANCH  13  14
ATOM     14  C   UNL     1       6.898 -44.895  -1.405  1.00  0.00     0.041 C 
ATOM     15  O   UNL     1       5.882 -45.577  -1.108  1.00  0.00    -0.550 OA
ATOM     16  O   UNL     1       7.802 -44.544  -0.410  1.00  0.00    -0.550 OA
ENDBRANCH  13  14
ENDBRANCH  12  13
ENDBRANCH  11  12
ENDBRANCH  10  11
ENDBRANCH   9  10
ENDBRANCH   8   9
ENDBRANCH   7   8
ENDBRANCH   6   7
ENDBRANCH   5   6
ENDBRANCH   4   5
ENDBRANCH   3   4
ENDBRANCH   2   3
ENDBRANCH   1   2
BRANCH   1  17
ATOM     17  C   UNL     1      11.660 -57.323  -3.102  1.00  0.00     0.000 C 
BRANCH  17  18
ATOM     18  C   UNL     1      13.197 -57.251  -3.136  1.00  0.00     0.000 C 
BRANCH  18  19
ATOM     19  C   UNL     1      13.760 -57.513  -4.543  1.00  0.00     0.000 C 
BRANCH  19  20
ATOM     20  C   UNL     1      14.738 -58.701  -4.566  1.00  0.00     0.000 C 
BRANCH  20  21
ATOM     21  C   UNL     1      15.823 -58.609  -3.479  1.00  0.00     0.000 C 
BRANCH  21  22
ATOM     22  C   UNL     1      16.114 -59.924  -2.735  1.00  0.00    -0.000 C 
BRANCH  22  23
ATOM     23  C   UNL     1      17.596 -60.085  -2.354  1.00  0.00    -0.000 C 
BRANCH  23  24
ATOM     24  C   UNL     1      18.516 -59.219  -3.229  1.00  0.00    -0.000 C 
BRANCH  24  25
ATOM     25  C   UNL     1      19.120 -58.036  -2.455  1.00  0.00    -0.000 C 
BRANCH  25  26
ATOM     26  C   UNL     1      18.117 -57.416  -1.464  1.00  0.00    -0.000 C 
BRANCH  26  27
ATOM     27  C   UNL     1      18.002 -55.884  -1.600  1.00  0.00    -0.000 C 
BRANCH  27  28
ATOM     28  C   UNL     1      17.001 -55.447  -2.694  1.00  0.00    -0.000 C 
BRANCH  28  29
ATOM     29  C   UNL     1      17.584 -54.417  -3.677  1.00  0.00    -0.003 C 
ATOM     30  C   UNL     1      17.547 -54.893  -5.128  1.00  0.00     0.004 C 
ENDBRANCH  28  29
ENDBRANCH  27  28
ENDBRANCH  26  27
ENDBRANCH  25  26
ENDBRANCH  24  25
ENDBRANCH  23  24
ENDBRANCH  22  23
ENDBRANCH  21  22
ENDBRANCH  20  21
ENDBRANCH  19  20
ENDBRANCH  18  19
ENDBRANCH  17  18
ENDBRANCH   1  17
TORSDOF 26
ENDMDL
MODEL 2
REMARK VINA RESULT:    19.727      4.005     12.537
REMARK INTER + INTRA:          48.295
REMARK INTER:                  49.630
REMARK INTRA:                  -1.335
REMARK UNBOUND:                -1.416
REMARK SMILES CCCCCCCCCCCCCCCCCCCCCCCCCCCC(=O)[O-]
REMARK SMILES IDX 15 1 16 2 17 3 18 4 19 5 20 6 21 7 22 8 23 9 24 10 25 11
REMARK SMILES IDX 26 12 27 13 28 14 29 15 30 16 14 17 13 18 12 19 11 20 10 21
REMARK SMILES IDX 9 22 8 23 7 24 6 25 5 26 4 27 3 28 2 29 1 30
REMARK H PARENT
REMARK Flexibility Score: inf
ROOT
ATOM      1  C   UNL     1       9.006 -53.392  -3.622  1.00  0.00     0.000 C 
ENDROOT
BRANCH   1   2
ATOM      2  C   UNL     1      10.531 -53.470  -3.832  1.00  0.00     0.000 C 
BRANCH   2   3
ATOM      3  C   UNL     1      11.052 -54.887  -4.163  1.00  0.00     0.000 C 
BRANCH   3   4
ATOM      4  C   UNL     1      12.002 -55.451  -3.090  1.00  0.00     0.000 C 
BRANCH   4   5
ATOM      5  C   UNL     1      12.088 -56.988  -3.090  1.00  0.00     0.000 C 
BRANCH   5   6
ATOM      6  C   UNL     1      13.005 -57.585  -4.179  1.00  0.00     0.000 C 
BRANCH   6   7
ATOM      7  C   UNL     1      14.502 -57.704  -3.819  1.00  0.00     0.000 C 
BRANCH   7   8
ATOM      8  C   UNL     1      14.995 -59.113  -3.440  1.00  0.00     0.000 C 
BRANCH   8   9
ATOM      9  C   UNL     1      16.523 -59.210  -3.330  1.00  0.00     0.000 C 
BRANCH   9  10
ATOM     10  C   UNL     1      17.014 -58.584  -2.019  1.00  0.00     0.000 C 
BRANCH  10  11
ATOM     11  C   UNL     1      18.246 -57.696  -2.254  1.00  0.00     0.000 C 
BRANCH  11  12
ATOM     12  C   UNL     1      18.062 -56.259  -1.731  1.00  0.00     0.006 C 
BRANCH  12  13
ATOM     13  C   UNL     1      16.987 -55.450  -2.481  1.00  0.00     0.053 C 
BRANCH  13  14
ATOM     14  C   UNL     1      17.545 -54.673  -3.634  1.00  0.00     0.041 C 
ATOM     15  O   UNL     1      18.091 -53.554  -3.443  1.00  0.00    -0.550 OA
ATOM     16  O   UNL     1      17.495 -55.202  -4.917  1.00  0.00    -0.550 OA
ENDBRANCH  13  14
ENDBRANCH  12  13
ENDBRANCH  11  12
ENDBRANCH  10  11
ENDBRANCH   9  10
ENDBRANCH   8   9
ENDBRANCH   7   8
ENDBRANCH   6   7
ENDBRANCH   5   6
ENDBRANCH   4   5
ENDBRANCH   3   4
ENDBRANCH   2   3
ENDBRANCH   1   2
BRANCH   1  17
ATOM     17  C   UNL     1       8.475 -52.020  -3.178  1.00  0.00     0.000 C 
BRANCH  17  18
ATOM     18  C   UNL     1       9.581 -50.957  -3.062  1.00  0.00     0.000 C 
BRANCH  18  19
ATOM     19  C   UNL     1       9.106 -49.706  -2.304  1.00  0.00     0.000 C 
BRANCH  19  20
ATOM     20  C   UNL     1      10.278 -48.796  -1.891  1.00  0.00     0.000 C 
BRANCH  20  21
ATOM     21  C   UNL     1      10.869 -48.003  -3.070  1.00  0.00     0.000 C 
BRANCH  21  22
ATOM     22  C   UNL     1       9.964 -46.889  -3.625  1.00  0.00    -0.000 C 
BRANCH  22  23
ATOM     23  C   UNL     1       9.006 -46.311  -2.569  1.00  0.00    -0.000 C 
BRANCH  23  24
ATOM     24  C   UNL     1       7.964 -45.366  -3.189  1.00  0.00    -0.000 C 
BRANCH  24  25
ATOM     25  C   UNL     1       7.553 -44.236  -2.230  1.00  0.00    -0.000 C 
BRANCH  25  26
ATOM     26  C   UNL     1       6.399 -44.653  -1.299  1.00  0.00    -0.000 C 
BRANCH  26  27
ATOM     27  C   UNL     1       6.149 -46.175  -1.290  1.00  0.00    -0.000 C 
BRANCH  27  28
ATOM     28  C   UNL     1       4.653 -46.542  -1.155  1.00  0.00    -0.000 C 
BRANCH  28  29
ATOM     29  C   UNL     1       4.280 -47.852  -1.870  1.00  0.00    -0.003 C 
ATOM     30  C   UNL     1       5.229 -49.002  -1.537  1.00  0.00     0.004 C 
ENDBRANCH  28  29
ENDBRANCH  27  28
ENDBRANCH  26  27
ENDBRANCH  25  26
ENDBRANCH  24  25
ENDBRANCH  23  24
ENDBRANCH  22  23
ENDBRANCH  21  22
ENDBRANCH  20  21
ENDBRANCH  19  20
ENDBRANCH  18  19
ENDBRANCH  17  18
ENDBRANCH   1  17
TORSDOF 26
ENDMDL
MODEL 3
REMARK VINA RESULT:    19.753      1.456      3.683
REMARK INTER + INTRA:          48.362
REMARK INTER:                  49.994
REMARK INTRA:                  -1.632
REMARK UNBOUND:                -1.416
REMARK SMILES CCCCCCCCCCCCCCCCCCCCCCCCCCCC(=O)[O-]
REMARK SMILES IDX 15 1 16 2 17 3 18 4 19 5 20 6 21 7 22 8 23 9 24 10 25 11
REMARK SMILES IDX 26 12 27 13 28 14 29 15 30 16 14 17 13 18 12 19 11 20 10 21
REMARK SMILES IDX 9 22 8 23 7 24 6 25 5 26 4 27 3 28 2 29 1 30
REMARK H PARENT
REMARK Flexibility Score: inf
ROOT
ATOM      1  C   UNL     1       8.709 -52.773  -3.847  1.00  0.00     0.000 C 
ENDROOT
BRANCH   1   2
ATOM      2  C   UNL     1       8.631 -51.783  -2.669  1.00  0.00     0.000 C 
BRANCH   2   3
ATOM      3  C   UNL     1       8.622 -50.297  -3.091  1.00  0.00     0.000 C 
BRANCH   3   4
ATOM      4  C   UNL     1       9.392 -49.384  -2.119  1.00  0.00     0.000 C 
BRANCH   4   5
ATOM      5  C   UNL     1      10.785 -48.975  -2.632  1.00  0.00     0.000 C 
BRANCH   5   6
ATOM      6  C   UNL     1      10.882 -47.527  -3.160  1.00  0.00     0.000 C 
BRANCH   6   7
ATOM      7  C   UNL     1       9.575 -46.912  -3.707  1.00  0.00     0.000 C 
BRANCH   7   8
ATOM      8  C   UNL     1       8.849 -45.928  -2.770  1.00  0.00     0.000 C 
BRANCH   8   9
ATOM      9  C   UNL     1       7.889 -44.986  -3.510  1.00  0.00     0.000 C 
BRANCH   9  10
ATOM     10  C   UNL     1       7.080 -44.144  -2.515  1.00  0.00     0.000 C 
BRANCH  10  11
ATOM     11  C   UNL     1       6.833 -44.913  -1.208  1.00  0.00     0.000 C 
BRANCH  11  12
ATOM     12  C   UNL     1       5.532 -45.736  -1.229  1.00  0.00     0.006 C 
BRANCH  12  13
ATOM     13  C   UNL     1       5.747 -47.254  -1.087  1.00  0.00     0.053 C 
BRANCH  13  14
ATOM     14  C   UNL     1       4.493 -47.985  -0.716  1.00  0.00     0.041 C 
ATOM     15  O   UNL     1       4.488 -49.242  -0.635  1.00  0.00    -0.550 OA
ATOM     16  O   UNL     1       3.336 -47.275  -0.421  1.00  0.00    -0.550 OA
ENDBRANCH  13  14
ENDBRANCH  12  13
ENDBRANCH  11  12
ENDBRANCH  10  11
ENDBRANCH   9  10
ENDBRANCH   8   9
ENDBRANCH   7   8
ENDBRANCH   6   7
ENDBRANCH   5   6
ENDBRANCH   4   5
ENDBRANCH   3   4
ENDBRANCH   2   3
ENDBRANCH   1   2
BRANCH   1  17
ATOM     17  C   UNL     1       9.652 -53.969  -3.639  1.00  0.00     0.000 C 
BRANCH  17  18
ATOM     18  C   UNL     1      11.089 -53.689  -4.113  1.00  0.00     0.000 C 
BRANCH  18  19
ATOM     19  C   UNL     1      12.010 -54.906  -3.923  1.00  0.00     0.000 C 
BRANCH  19  20
ATOM     20  C   UNL     1      11.225 -56.181  -3.571  1.00  0.00     0.000 C 
BRANCH  20  21
ATOM     21  C   UNL     1      12.121 -57.312  -3.033  1.00  0.00     0.000 C 
BRANCH  21  22
ATOM     22  C   UNL     1      13.519 -57.393  -3.668  1.00  0.00    -0.000 C 
BRANCH  22  23
ATOM     23  C   UNL     1      14.107 -58.815  -3.649  1.00  0.00    -0.000 C 
BRANCH  23  24
ATOM     24  C   UNL     1      15.623 -58.819  -3.896  1.00  0.00    -0.000 C 
BRANCH  24  25
ATOM     25  C   UNL     1      16.428 -59.009  -2.599  1.00  0.00    -0.000 C 
BRANCH  25  26
ATOM     26  C   UNL     1      17.947 -59.047  -2.856  1.00  0.00    -0.000 C 
BRANCH  26  27
ATOM     27  C   UNL     1      18.650 -57.716  -2.523  1.00  0.00    -0.000 C 
BRANCH  27  28
ATOM     28  C   UNL     1      17.813 -56.804  -1.597  1.00  0.00    -0.000 C 
BRANCH  28  29
ATOM     29  C   UNL     1      16.904 -55.828  -2.363  1.00  0.00    -0.003 C 
ATOM     30  C   UNL     1      17.599 -55.182  -3.559  1.00  0.00     0.004 C 
ENDBRANCH  28  29
ENDBRANCH  27  28
ENDBRANCH  26  27
ENDBRANCH  25  26
ENDBRANCH  24  25
ENDBRANCH  23  24
ENDBRANCH  22  23
ENDBRANCH  21  22
ENDBRANCH  20  21
ENDBRANCH  19  20
ENDBRANCH  18  19
ENDBRANCH  17  18
ENDBRANCH   1  17
TORSDOF 26
ENDMDL
MODEL 4
REMARK VINA RESULT:    19.988      3.979     10.830
REMARK INTER + INTRA:          48.953
REMARK INTER:                  50.655
REMARK INTRA:                  -1.702
REMARK UNBOUND:                -1.416
REMARK SMILES CCCCCCCCCCCCCCCCCCCCCCCCCCCC(=O)[O-]
REMARK SMILES IDX 15 1 16 2 17 3 18 4 19 5 20 6 21 7 22 8 23 9 24 10 25 11
REMARK SMILES IDX 26 12 27 13 28 14 29 15 30 16 14 17 13 18 12 19 11 20 10 21
REMARK SMILES IDX 9 22 8 23 7 24 6 25 5 26 4 27 3 28 2 29 1 30
REMARK H PARENT
REMARK Flexibility Score: inf
ROOT
ATOM      1  C   UNL     1      13.741 -57.111  -3.830  1.00  0.00     0.000 C 
ENDROOT
BRANCH   1   2
ATOM      2  C   UNL     1      14.494 -58.404  -4.196  1.00  0.00     0.000 C 
BRANCH   2   3
ATOM      3  C   UNL     1      15.692 -58.722  -3.273  1.00  0.00     0.000 C 
BRANCH   3   4
ATOM      4  C   UNL     1      16.376 -60.061  -3.604  1.00  0.00     0.000 C 
BRANCH   4   5
ATOM      5  C   UNL     1      17.711 -60.269  -2.867  1.00  0.00     0.000 C 
BRANCH   5   6
ATOM      6  C   UNL     1      18.775 -59.183  -3.135  1.00  0.00     0.000 C 
BRANCH   6   7
ATOM      7  C   UNL     1      19.052 -58.199  -1.978  1.00  0.00     0.000 C 
BRANCH   7   8
ATOM      8  C   UNL     1      17.888 -57.970  -0.995  1.00  0.00     0.000 C 
BRANCH   8   9
ATOM      9  C   UNL     1      18.259 -57.052   0.178  1.00  0.00     0.000 C 
BRANCH   9  10
ATOM     10  C   UNL     1      17.627 -55.665   0.002  1.00  0.00     0.000 C 
BRANCH  10  11
ATOM     11  C   UNL     1      17.969 -55.068  -1.372  1.00  0.00     0.000 C 
BRANCH  11  12
ATOM     12  C   UNL     1      16.765 -55.032  -2.330  1.00  0.00     0.006 C 
BRANCH  12  13
ATOM     13  C   UNL     1      17.050 -55.627  -3.721  1.00  0.00     0.053 C 
BRANCH  13  14
ATOM     14  C   UNL     1      17.579 -54.614  -4.689  1.00  0.00     0.041 C 
ATOM     15  O   UNL     1      17.851 -54.945  -5.874  1.00  0.00    -0.550 OA
ATOM     16  O   UNL     1      17.737 -53.292  -4.294  1.00  0.00    -0.550 OA
ENDBRANCH  13  14
ENDBRANCH  12  13
ENDBRANCH  11  12
ENDBRANCH  10  11
ENDBRANCH   9  10
ENDBRANCH   8   9
ENDBRANCH   7   8
ENDBRANCH   6   7
ENDBRANCH   5   6
ENDBRANCH   4   5
ENDBRANCH   3   4
ENDBRANCH   2   3
ENDBRANCH   1   2
BRANCH   1  17
ATOM     17  C   UNL     1      12.475 -57.308  -2.979  1.00  0.00     0.000 C 
BRANCH  17  18
ATOM     18  C   UNL     1      11.289 -56.456  -3.464  1.00  0.00     0.000 C 
BRANCH  18  19
ATOM     19  C   UNL     1      11.614 -54.953  -3.465  1.00  0.00     0.000 C 
BRANCH  19  20
ATOM     20  C   UNL     1      10.551 -54.127  -4.210  1.00  0.00     0.000 C 
BRANCH  20  21
ATOM     21  C   UNL     1       9.246 -53.962  -3.410  1.00  0.00     0.000 C 
BRANCH  21  22
ATOM     22  C   UNL     1       8.545 -52.604  -3.579  1.00  0.00    -0.000 C 
BRANCH  22  23
ATOM     23  C   UNL     1       9.213 -51.477  -2.772  1.00  0.00    -0.000 C 
BRANCH  23  24
ATOM     24  C   UNL     1       8.820 -50.084  -3.288  1.00  0.00    -0.000 C 
BRANCH  24  25
ATOM     25  C   UNL     1       9.332 -48.955  -2.377  1.00  0.00    -0.000 C 
BRANCH  25  26
ATOM     26  C   UNL     1       9.996 -47.818  -3.177  1.00  0.00    -0.000 C 
BRANCH  26  27
ATOM     27  C   UNL     1      11.523 -47.745  -2.971  1.00  0.00    -0.000 C 
BRANCH  27  28
ATOM     28  C   UNL     1      12.055 -48.831  -2.008  1.00  0.00    -0.000 C 
BRANCH  28  29
ATOM     29  C   UNL     1      12.700 -48.254  -0.736  1.00  0.00    -0.003 C 
ATOM     30  C   UNL     1      13.901 -49.066  -0.256  1.00  0.00     0.004 C 
ENDBRANCH  28  29
ENDBRANCH  27  28
ENDBRANCH  26  27
ENDBRANCH  25  26
ENDBRANCH  24  25
ENDBRANCH  23  24
ENDBRANCH  22  23
ENDBRANCH  21  22
ENDBRANCH  20  21
ENDBRANCH  19  20
ENDBRANCH  18  19
ENDBRANCH  17  18
ENDBRANCH   1  17
TORSDOF 26
ENDMDL
MODEL 5
REMARK VINA RESULT:    20.017      4.093     13.032
REMARK INTER + INTRA:          49.027
REMARK INTER:                  50.371
REMARK INTRA:                  -1.344
REMARK UNBOUND:                -1.416
REMARK SMILES CCCCCCCCCCCCCCCCCCCCCCCCCCCC(=O)[O-]
REMARK SMILES IDX 15 1 16 2 17 3 18 4 19 5 20 6 21 7 22 8 23 9 24 10 25 11
REMARK SMILES IDX 26 12 27 13 28 14 29 15 30 16 14 17 13 18 12 19 11 20 10 21
REMARK SMILES IDX 9 22 8 23 7 24 6 25 5 26 4 27 3 28 2 29 1 30
REMARK H PARENT
REMARK Flexibility Score: inf
ROOT
ATOM      1  C   UNL     1       8.759 -52.062  -2.868  1.00  0.00     0.000 C 
ENDROOT
BRANCH   1   2
ATOM      2  C   UNL     1       9.183 -53.207  -3.807  1.00  0.00     0.000 C 
BRANCH   2   3
ATOM      3  C   UNL     1      10.694 -53.233  -4.131  1.00  0.00     0.000 C 
BRANCH   3   4
ATOM      4  C   UNL     1      11.249 -54.655  -4.327  1.00  0.00     0.000 C 
BRANCH   4   5
ATOM      5  C   UNL     1      10.979 -55.591  -3.135  1.00  0.00     0.000 C 
BRANCH   5   6
ATOM      6  C   UNL     1      11.612 -56.994  -3.256  1.00  0.00     0.000 C 
BRANCH   6   7
ATOM      7  C   UNL     1      13.154 -57.052  -3.219  1.00  0.00     0.000 C 
BRANCH   7   8
ATOM      8  C   UNL     1      13.803 -58.235  -3.962  1.00  0.00     0.000 C 
BRANCH   8   9
ATOM      9  C   UNL     1      15.336 -58.162  -3.994  1.00  0.00     0.000 C 
BRANCH   9  10
ATOM     10  C   UNL     1      15.953 -59.411  -3.352  1.00  0.00     0.000 C 
BRANCH  10  11
ATOM     11  C   UNL     1      17.009 -59.033  -2.302  1.00  0.00     0.000 C 
BRANCH  11  12
ATOM     12  C   UNL     1      17.868 -57.825  -2.719  1.00  0.00     0.006 C 
BRANCH  12  13
ATOM     13  C   UNL     1      17.603 -56.552  -1.895  1.00  0.00     0.053 C 
BRANCH  13  14
ATOM     14  C   UNL     1      17.249 -55.372  -2.747  1.00  0.00     0.041 C 
ATOM     15  O   UNL     1      16.684 -54.366  -2.241  1.00  0.00    -0.550 OA
ATOM     16  O   UNL     1      17.577 -55.366  -4.097  1.00  0.00    -0.550 OA
ENDBRANCH  13  14
ENDBRANCH  12  13
ENDBRANCH  11  12
ENDBRANCH  10  11
ENDBRANCH   9  10
ENDBRANCH   8   9
ENDBRANCH   7   8
ENDBRANCH   6   7
ENDBRANCH   5   6
ENDBRANCH   4   5
ENDBRANCH   3   4
ENDBRANCH   2   3
ENDBRANCH   1   2
BRANCH   1  17
ATOM     17  C   UNL     1       9.328 -50.678  -3.222  1.00  0.00     0.000 C 
BRANCH  17  18
ATOM     18  C   UNL     1       9.262 -49.684  -2.049  1.00  0.00     0.000 C 
BRANCH  18  19
ATOM     19  C   UNL     1      10.538 -48.833  -1.937  1.00  0.00     0.000 C 
BRANCH  19  20
ATOM     20  C   UNL     1      10.940 -48.205  -3.283  1.00  0.00     0.000 C 
BRANCH  20  21
ATOM     21  C   UNL     1       9.996 -47.073  -3.726  1.00  0.00     0.000 C 
BRANCH  21  22
ATOM     22  C   UNL     1       9.169 -46.435  -2.596  1.00  0.00    -0.000 C 
BRANCH  22  23
ATOM     23  C   UNL     1       8.168 -45.383  -3.105  1.00  0.00    -0.000 C 
BRANCH  23  24
ATOM     24  C   UNL     1       7.494 -44.621  -1.954  1.00  0.00    -0.000 C 
BRANCH  24  25
ATOM     25  C   UNL     1       5.960 -44.621  -2.068  1.00  0.00    -0.000 C 
BRANCH  25  26
ATOM     26  C   UNL     1       5.300 -45.572  -1.051  1.00  0.00    -0.000 C 
BRANCH  26  27
ATOM     27  C   UNL     1       5.056 -46.986  -1.615  1.00  0.00    -0.000 C 
BRANCH  27  28
ATOM     28  C   UNL     1       3.748 -47.626  -1.097  1.00  0.00    -0.000 C 
BRANCH  28  29
ATOM     29  C   UNL     1       2.867 -46.650  -0.298  1.00  0.00    -0.003 C 
ATOM     30  C   UNL     1       1.373 -46.901  -0.493  1.00  0.00     0.004 C 
ENDBRANCH  28  29
ENDBRANCH  27  28
ENDBRANCH  26  27
ENDBRANCH  25  26
ENDBRANCH  24  25
ENDBRANCH  23  24
ENDBRANCH  22  23
ENDBRANCH  21  22
ENDBRANCH  20  21
ENDBRANCH  19  20
ENDBRANCH  18  19
ENDBRANCH  17  18
ENDBRANCH   1  17
TORSDOF 26
ENDMDL
MODEL 6
REMARK VINA RESULT:    20.297      2.741      3.292
REMARK INTER + INTRA:          49.732
REMARK INTER:                  51.560
REMARK INTRA:                  -1.829
REMARK UNBOUND:                -1.416
REMARK SMILES CCCCCCCCCCCCCCCCCCCCCCCCCCCC(=O)[O-]
REMARK SMILES IDX 15 1 16 2 17 3 18 4 19 5 20 6 21 7 22 8 23 9 24 10 25 11
REMARK SMILES IDX 26 12 27 13 28 14 29 15 30 16 14 17 13 18 12 19 11 20 10 21
REMARK SMILES IDX 9 22 8 23 7 24 6 25 5 26 4 27 3 28 2 29 1 30
REMARK H PARENT
REMARK Flexibility Score: inf
ROOT
ATOM      1  C   UNL     1      11.927 -56.355  -3.025  1.00  0.00     0.000 C 
ENDROOT
BRANCH   1   2
ATOM      2  C   UNL     1      11.044 -55.819  -4.168  1.00  0.00     0.000 C 
BRANCH   2   3
ATOM      3  C   UNL     1      11.268 -54.325  -4.492  1.00  0.00     0.000 C 
BRANCH   3   4
ATOM      4  C   UNL     1      10.370 -53.383  -3.669  1.00  0.00     0.000 C 
BRANCH   4   5
ATOM      5  C   UNL     1       8.892 -53.814  -3.636  1.00  0.00     0.000 C 
BRANCH   5   6
ATOM      6  C   UNL     1       7.877 -52.653  -3.703  1.00  0.00     0.000 C 
BRANCH   6   7
ATOM      7  C   UNL     1       8.471 -51.236  -3.857  1.00  0.00     0.000 C 
BRANCH   7   8
ATOM      8  C   UNL     1       8.152 -50.245  -2.721  1.00  0.00     0.000 C 
BRANCH   8   9
ATOM      9  C   UNL     1       9.405 -49.587  -2.124  1.00  0.00     0.000 C 
BRANCH   9  10
ATOM     10  C   UNL     1      10.214 -48.871  -3.213  1.00  0.00     0.000 C 
BRANCH  10  11
ATOM     11  C   UNL     1      11.580 -48.413  -2.680  1.00  0.00     0.000 C 
BRANCH  11  12
ATOM     12  C   UNL     1      11.490 -47.717  -1.310  1.00  0.00     0.006 C 
BRANCH  12  13
ATOM     13  C   UNL     1      12.183 -48.483  -0.169  1.00  0.00     0.053 C 
BRANCH  13  14
ATOM     14  C   UNL     1      13.675 -48.503  -0.306  1.00  0.00     0.041 C 
ATOM     15  O   UNL     1      14.320 -47.427  -0.420  1.00  0.00    -0.550 OA
ATOM     16  O   UNL     1      14.360 -49.711  -0.270  1.00  0.00    -0.550 OA
ENDBRANCH  13  14
ENDBRANCH  12  13
ENDBRANCH  11  12
ENDBRANCH  10  11
ENDBRANCH   9  10
ENDBRANCH   8   9
ENDBRANCH   7   8
ENDBRANCH   6   7
ENDBRANCH   5   6
ENDBRANCH   4   5
ENDBRANCH   3   4
ENDBRANCH   2   3
ENDBRANCH   1   2
BRANCH   1  17
ATOM     17  C   UNL     1      12.557 -57.735  -3.274  1.00  0.00     0.000 C 
BRANCH  17  18
ATOM     18  C   UNL     1      13.749 -57.684  -4.246  1.00  0.00     0.000 C 
BRANCH  18  19
ATOM     19  C   UNL     1      15.090 -57.922  -3.532  1.00  0.00     0.000 C 
BRANCH  19  20
ATOM     20  C   UNL     1      15.707 -59.286  -3.892  1.00  0.00     0.000 C 
BRANCH  20  21
ATOM     21  C   UNL     1      16.041 -60.141  -2.657  1.00  0.00     0.000 C 
BRANCH  21  22
ATOM     22  C   UNL     1      17.522 -60.133  -2.241  1.00  0.00    -0.000 C 
BRANCH  22  23
ATOM     23  C   UNL     1      18.469 -59.753  -3.393  1.00  0.00    -0.000 C 
BRANCH  23  24
ATOM     24  C   UNL     1      19.123 -58.380  -3.176  1.00  0.00    -0.000 C 
BRANCH  24  25
ATOM     25  C   UNL     1      19.125 -57.957  -1.698  1.00  0.00    -0.000 C 
BRANCH  25  26
ATOM     26  C   UNL     1      18.153 -56.793  -1.423  1.00  0.00    -0.000 C 
BRANCH  26  27
ATOM     27  C   UNL     1      17.366 -56.354  -2.675  1.00  0.00    -0.000 C 
BRANCH  27  28
ATOM     28  C   UNL     1      17.004 -54.852  -2.666  1.00  0.00    -0.000 C 
BRANCH  28  29
ATOM     29  C   UNL     1      17.637 -54.065  -3.827  1.00  0.00    -0.003 C 
ATOM     30  C   UNL     1      17.690 -54.865  -5.127  1.00  0.00     0.004 C 
ENDBRANCH  28  29
ENDBRANCH  27  28
ENDBRANCH  26  27
ENDBRANCH  25  26
ENDBRANCH  24  25
ENDBRANCH  23  24
ENDBRANCH  22  23
ENDBRANCH  21  22
ENDBRANCH  20  21
ENDBRANCH  19  20
ENDBRANCH  18  19
ENDBRANCH  17  18
ENDBRANCH   1  17
TORSDOF 26
ENDMDL
MODEL 7
REMARK VINA RESULT:    20.750      4.043     11.025
REMARK INTER + INTRA:          50.874
REMARK INTER:                  50.400
REMARK INTRA:                   0.475
REMARK UNBOUND:                -1.416
REMARK SMILES CCCCCCCCCCCCCCCCCCCCCCCCCCCC(=O)[O-]
REMARK SMILES IDX 15 1 16 2 17 3 18 4 19 5 20 6 21 7 22 8 23 9 24 10 25 11
REMARK SMILES IDX 26 12 27 13 28 14 29 15 30 16 14 17 13 18 12 19 11 20 10 21
REMARK SMILES IDX 9 22 8 23 7 24 6 25 5 26 4 27 3 28 2 29 1 30
REMARK H PARENT
REMARK Flexibility Score: inf
ROOT
ATOM      1  C   UNL     1      11.985 -54.440  -3.719  1.00  0.00     0.000 C 
ENDROOT
BRANCH   1   2
ATOM      2  C   UNL     1      12.167 -55.590  -2.709  1.00  0.00     0.000 C 
BRANCH   2   3
ATOM      3  C   UNL     1      11.551 -56.933  -3.162  1.00  0.00     0.000 C 
BRANCH   3   4
ATOM      4  C   UNL     1      12.600 -58.039  -3.381  1.00  0.00     0.000 C 
BRANCH   4   5
ATOM      5  C   UNL     1      13.781 -57.601  -4.266  1.00  0.00     0.000 C 
BRANCH   5   6
ATOM      6  C   UNL     1      15.175 -57.809  -3.636  1.00  0.00     0.000 C 
BRANCH   6   7
ATOM      7  C   UNL     1      15.713 -59.257  -3.633  1.00  0.00     0.000 C 
BRANCH   7   8
ATOM      8  C   UNL     1      16.753 -59.586  -2.545  1.00  0.00     0.000 C 
BRANCH   8   9
ATOM      9  C   UNL     1      18.188 -59.665  -3.086  1.00  0.00     0.000 C 
BRANCH   9  10
ATOM     10  C   UNL     1      19.025 -58.484  -2.578  1.00  0.00     0.000 C 
BRANCH  10  11
ATOM     11  C   UNL     1      18.179 -57.532  -1.719  1.00  0.00     0.000 C 
BRANCH  11  12
ATOM     12  C   UNL     1      18.398 -56.048  -2.071  1.00  0.00     0.006 C 
BRANCH  12  13
ATOM     13  C   UNL     1      17.209 -55.394  -2.799  1.00  0.00     0.053 C 
BRANCH  13  14
ATOM     14  C   UNL     1      17.598 -54.775  -4.107  1.00  0.00     0.041 C 
ATOM     15  O   UNL     1      17.917 -55.501  -5.086  1.00  0.00    -0.550 OA
ATOM     16  O   UNL     1      17.573 -53.395  -4.257  1.00  0.00    -0.550 OA
ENDBRANCH  13  14
ENDBRANCH  12  13
ENDBRANCH  11  12
ENDBRANCH  10  11
ENDBRANCH   9  10
ENDBRANCH   8   9
ENDBRANCH   7   8
ENDBRANCH   6   7
ENDBRANCH   5   6
ENDBRANCH   4   5
ENDBRANCH   3   4
ENDBRANCH   2   3
ENDBRANCH   1   2
BRANCH   1  17
ATOM     17  C   UNL     1      10.586 -54.336  -4.349  1.00  0.00     0.000 C 
BRANCH  17  18
ATOM     18  C   UNL     1       9.453 -54.489  -3.320  1.00  0.00     0.000 C 
BRANCH  18  19
ATOM     19  C   UNL     1       8.440 -53.333  -3.395  1.00  0.00     0.000 C 
BRANCH  19  20
ATOM     20  C   UNL     1       9.128 -51.956  -3.389  1.00  0.00     0.000 C 
BRANCH  20  21
ATOM     21  C   UNL     1       8.139 -50.788  -3.558  1.00  0.00     0.000 C 
BRANCH  21  22
ATOM     22  C   UNL     1       8.035 -49.842  -2.350  1.00  0.00    -0.000 C 
BRANCH  22  23
ATOM     23  C   UNL     1       9.398 -49.549  -1.696  1.00  0.00    -0.000 C 
BRANCH  23  24
ATOM     24  C   UNL     1       9.765 -48.058  -1.767  1.00  0.00    -0.000 C 
BRANCH  24  25
ATOM     25  C   UNL     1      10.107 -47.605  -3.196  1.00  0.00    -0.000 C 
BRANCH  25  26
ATOM     26  C   UNL     1      11.497 -48.095  -3.645  1.00  0.00    -0.000 C 
BRANCH  26  27
ATOM     27  C   UNL     1      12.234 -48.904  -2.559  1.00  0.00    -0.000 C 
BRANCH  27  28
ATOM     28  C   UNL     1      12.103 -48.283  -1.149  1.00  0.00    -0.000 C 
BRANCH  28  29
ATOM     29  C   UNL     1      13.456 -48.077  -0.447  1.00  0.00    -0.003 C 
ATOM     30  C   UNL     1      14.214 -49.384  -0.221  1.00  0.00     0.004 C 
ENDBRANCH  28  29
ENDBRANCH  27  28
ENDBRANCH  26  27
ENDBRANCH  25  26
ENDBRANCH  24  25
ENDBRANCH  23  24
ENDBRANCH  22  23
ENDBRANCH  21  22
ENDBRANCH  20  21
ENDBRANCH  19  20
ENDBRANCH  18  19
ENDBRANCH  17  18
ENDBRANCH   1  17
TORSDOF 26
ENDMDL
MODEL 8
REMARK VINA RESULT:    20.775      1.850      4.711
REMARK INTER + INTRA:          50.936
REMARK INTER:                  52.380
REMARK INTRA:                  -1.444
REMARK UNBOUND:                -1.416
REMARK SMILES CCCCCCCCCCCCCCCCCCCCCCCCCCCC(=O)[O-]
REMARK SMILES IDX 15 1 16 2 17 3 18 4 19 5 20 6 21 7 22 8 23 9 24 10 25 11
REMARK SMILES IDX 26 12 27 13 28 14 29 15 30 16 14 17 13 18 12 19 11 20 10 21
REMARK SMILES IDX 9 22 8 23 7 24 6 25 5 26 4 27 3 28 2 29 1 30
REMARK H PARENT
REMARK Flexibility Score: inf
ROOT
ATOM      1  C   UNL     1       8.881 -51.445  -2.554  1.00  0.00     0.000 C 
ENDROOT
BRANCH   1   2
ATOM      2  C   UNL     1       9.027 -49.953  -2.910  1.00  0.00     0.000 C 
BRANCH   2   3
ATOM      3  C   UNL     1      10.000 -49.177  -1.994  1.00  0.00     0.000 C 
BRANCH   3   4
ATOM      4  C   UNL     1      10.909 -48.200  -2.762  1.00  0.00     0.000 C 
BRANCH   4   5
ATOM      5  C   UNL     1      10.135 -47.105  -3.520  1.00  0.00     0.000 C 
BRANCH   5   6
ATOM      6  C   UNL     1       9.165 -46.277  -2.650  1.00  0.00     0.000 C 
BRANCH   6   7
ATOM      7  C   UNL     1       8.126 -45.424  -3.409  1.00  0.00     0.000 C 
BRANCH   7   8
ATOM      8  C   UNL     1       7.573 -44.203  -2.650  1.00  0.00     0.000 C 
BRANCH   8   9
ATOM      9  C   UNL     1       7.291 -44.489  -1.168  1.00  0.00     0.000 C 
BRANCH   9  10
ATOM     10  C   UNL     1       6.452 -45.764  -1.012  1.00  0.00     0.000 C 
BRANCH  10  11
ATOM     11  C   UNL     1       5.046 -45.581  -1.604  1.00  0.00     0.000 C 
BRANCH  11  12
ATOM     12  C   UNL     1       4.278 -46.907  -1.756  1.00  0.00     0.006 C 
BRANCH  12  13
ATOM     13  C   UNL     1       4.426 -47.859  -0.555  1.00  0.00     0.053 C 
BRANCH  13  14
ATOM     14  C   UNL     1       4.865 -49.234  -0.955  1.00  0.00     0.041 C 
ATOM     15  O   UNL     1       4.549 -50.233  -0.255  1.00  0.00    -0.550 OA
ATOM     16  O   UNL     1       5.593 -49.419  -2.123  1.00  0.00    -0.550 OA
ENDBRANCH  13  14
ENDBRANCH  12  13
ENDBRANCH  11  12
ENDBRANCH  10  11
ENDBRANCH   9  10
ENDBRANCH   8   9
ENDBRANCH   7   8
ENDBRANCH   6   7
ENDBRANCH   5   6
ENDBRANCH   4   5
ENDBRANCH   3   4
ENDBRANCH   2   3
ENDBRANCH   1   2
BRANCH   1  17
ATOM     17  C   UNL     1       8.698 -52.390  -3.753  1.00  0.00     0.000 C 
BRANCH  17  18
ATOM     18  C   UNL     1       9.376 -53.757  -3.548  1.00  0.00     0.000 C 
BRANCH  18  19
ATOM     19  C   UNL     1      10.756 -53.828  -4.222  1.00  0.00     0.000 C 
BRANCH  19  20
ATOM     20  C   UNL     1      11.290 -55.269  -4.306  1.00  0.00     0.000 C 
BRANCH  20  21
ATOM     21  C   UNL     1      11.411 -55.948  -2.930  1.00  0.00     0.000 C 
BRANCH  21  22
ATOM     22  C   UNL     1      12.012 -57.363  -2.952  1.00  0.00    -0.000 C 
BRANCH  22  23
ATOM     23  C   UNL     1      13.060 -57.554  -4.063  1.00  0.00    -0.000 C 
BRANCH  23  24
ATOM     24  C   UNL     1      14.493 -57.588  -3.508  1.00  0.00    -0.000 C 
BRANCH  24  25
ATOM     25  C   UNL     1      15.248 -58.865  -3.910  1.00  0.00    -0.000 C 
BRANCH  25  26
ATOM     26  C   UNL     1      16.109 -59.419  -2.759  1.00  0.00    -0.000 C 
BRANCH  26  27
ATOM     27  C   UNL     1      17.494 -58.746  -2.661  1.00  0.00    -0.000 C 
BRANCH  27  28
ATOM     28  C   UNL     1      17.520 -57.558  -1.673  1.00  0.00    -0.000 C 
BRANCH  28  29
ATOM     29  C   UNL     1      18.206 -56.305  -2.245  1.00  0.00    -0.003 C 
ATOM     30  C   UNL     1      17.214 -55.219  -2.655  1.00  0.00     0.004 C 
ENDBRANCH  28  29
ENDBRANCH  27  28
ENDBRANCH  26  27
ENDBRANCH  25  26
ENDBRANCH  24  25
ENDBRANCH  23  24
ENDBRANCH  22  23
ENDBRANCH  21  22
ENDBRANCH  20  21
ENDBRANCH  19  20
ENDBRANCH  18  19
ENDBRANCH  17  18
ENDBRANCH   1  17
TORSDOF 26
ENDMDL
