MODEL 1
REMARK VINA RESULT:    -4.994      0.000      0.000
REMARK INTER + INTRA:          -7.792
REMARK INTER:                  -7.621
REMARK INTRA:                  -0.171
REMARK UNBOUND:                -0.171
REMARK SMILES CC1=CCC[C@@H](C)C(=O)C[C@H](C(C)C)C(=O)C1
REMARK SMILES IDX 8 1 9 2 6 3 7 4 5 5 4 6 3 7 2 8 1 9 10 11 11 12 15 13 16 14
REMARK SMILES IDX 17 15 12 17 13 18 14 19
REMARK H PARENT
REMARK Flexibility Score: 70.00
ROOT
ATOM      1  C   UNL     1      47.431   4.574  19.338  1.00  0.00     0.136 C 
ATOM      2  O   UNL     1      46.788   5.569  19.035  1.00  0.00    -0.299 OA
ENDROOT
BRANCH   1   3
ATOM      3  C   UNL     1      46.921   3.240  18.795  1.00  0.00     0.053 C 
ATOM      4  C   UNL     1      45.393   3.171  18.920  1.00  0.00     0.016 C 
BRANCH   3   5
ATOM      5  C   UNL     1      47.586   1.952  19.351  1.00  0.00     0.015 C 
BRANCH   5   6
ATOM      6  C   UNL     1      48.623   1.222  18.454  1.00  0.00     0.028 C 
BRANCH   6   7
ATOM      7  C   UNL     1      48.776   1.744  17.047  1.00  0.00    -0.028 C 
ATOM      8  C   UNL     1      49.643   2.700  16.635  1.00  0.00    -0.070 CG0
ATOM      9  C   UNL     1      49.610   3.084  15.175  1.00  0.00     0.039 C 
ATOM     10  G   UNL     1      50.705   3.333  17.519  1.00  0.00     0.000 G0
ENDBRANCH   6   7
ENDBRANCH   5   6
ENDBRANCH   3   5
ENDBRANCH   1   3
BRANCH   1  11
ATOM     11  C   UNL     1      48.585   4.792  20.309  1.00  0.00     0.087 C 
BRANCH  11  12
ATOM     12  C   UNL     1      50.015   4.363  19.893  1.00  0.00     0.066 C 
BRANCH  12  13
ATOM     13  C   UNL     1      50.326   4.473  18.398  1.00  0.00     0.140 C 
ATOM     14  O   UNL     1      50.167   5.563  17.865  1.00  0.00    -0.299 OA
BRANCH  13  15
ATOM     15  C   UNL     1      50.724   3.318  17.503  1.00  0.00     0.106 CG0
ATOM     16  G   UNL     1      49.621   2.715  16.649  1.00  0.00     0.000 G0
ENDBRANCH  13  15
ENDBRANCH  12  13
BRANCH  12  17
ATOM     17  C   UNL     1      51.094   5.083  20.767  1.00  0.00    -0.006 C 
ATOM     18  C   UNL     1      52.515   4.528  20.579  1.00  0.00     0.008 C 
ATOM     19  C   UNL     1      50.724   5.076  22.260  1.00  0.00     0.008 C 
ENDBRANCH  12  17
ENDBRANCH  11  12
ENDBRANCH   1  11
TORSDOF 1
ENDMDL
MODEL 2
REMARK VINA RESULT:    -4.191      2.123      4.115
REMARK INTER + INTRA:          -6.567
REMARK INTER:                  -6.347
REMARK INTRA:                  -0.219
REMARK UNBOUND:                -0.171
REMARK SMILES CC1=CCC[C@@H](C)C(=O)C[C@H](C(C)C)C(=O)C1
REMARK SMILES IDX 8 1 9 2 6 3 7 4 5 5 4 6 3 7 2 8 1 9 10 11 11 12 15 13 16 14
REMARK SMILES IDX 17 15 12 17 13 18 14 19
REMARK H PARENT
REMARK Flexibility Score: 70.00
ROOT
ATOM      1  C   UNL     1      48.911   2.055  18.023  1.00  0.00     0.136 C 
ATOM      2  O   UNL     1      49.501   1.244  18.723  1.00  0.00    -0.299 OA
ENDROOT
BRANCH   1   3
ATOM      3  C   UNL     1      47.465   2.365  18.408  1.00  0.00     0.053 C 
ATOM      4  C   UNL     1      46.578   2.381  17.156  1.00  0.00     0.016 C 
BRANCH   3   5
ATOM      5  C   UNL     1      47.223   3.626  19.280  1.00  0.00     0.015 C 
BRANCH   5   6
ATOM      6  C   UNL     1      48.416   4.177  20.111  1.00  0.00     0.028 C 
BRANCH   6   7
ATOM      7  C   UNL     1      48.957   5.522  19.692  1.00  0.00    -0.028 C 
ATOM      8  C   UNL     1      50.240   5.802  19.356  1.00  0.00    -0.070 CG0
ATOM      9  C   UNL     1      50.564   7.229  18.986  1.00  0.00     0.039 C 
ATOM     10  G   UNL     1      51.340   4.761  19.232  1.00  0.00     0.000 G0
ENDBRANCH   6   7
ENDBRANCH   5   6
ENDBRANCH   3   5
ENDBRANCH   1   3
BRANCH   1  11
ATOM     11  C   UNL     1      49.664   2.554  16.796  1.00  0.00     0.087 C 
BRANCH  11  12
ATOM     12  C   UNL     1      50.389   3.923  16.860  1.00  0.00     0.066 C 
BRANCH  12  13
ATOM     13  C   UNL     1      51.487   4.036  17.920  1.00  0.00     0.140 C 
ATOM     14  O   UNL     1      52.531   3.430  17.722  1.00  0.00    -0.299 OA
BRANCH  13  15
ATOM     15  C   UNL     1      51.351   4.765  19.241  1.00  0.00     0.106 CG0
ATOM     16  G   UNL     1      50.244   5.801  19.328  1.00  0.00     0.000 G0
ENDBRANCH  13  15
ENDBRANCH  12  13
BRANCH  12  17
ATOM     17  C   UNL     1      50.898   4.354  15.445  1.00  0.00    -0.006 C 
ATOM     18  C   UNL     1      51.148   5.865  15.310  1.00  0.00     0.008 C 
ATOM     19  C   UNL     1      49.958   3.878  14.325  1.00  0.00     0.008 C 
ENDBRANCH  12  17
ENDBRANCH  11  12
ENDBRANCH   1  11
TORSDOF 1
ENDMDL
MODEL 3
REMARK VINA RESULT:    -4.038      1.875      3.836
REMARK INTER + INTRA:          -6.334
REMARK INTER:                  -6.262
REMARK INTRA:                  -0.072
REMARK UNBOUND:                -0.171
REMARK SMILES CC1=CCC[C@@H](C)C(=O)C[C@H](C(C)C)C(=O)C1
REMARK SMILES IDX 8 1 9 2 6 3 7 4 5 5 4 6 3 7 2 8 1 9 10 11 11 12 15 13 16 14
REMARK SMILES IDX 17 15 12 17 13 18 14 19
REMARK H PARENT
REMARK Flexibility Score: 70.00
ROOT
ATOM      1  C   UNL     1      50.946   4.754  15.992  1.00  0.00     0.136 C 
ATOM      2  O   UNL     1      50.573   5.853  15.604  1.00  0.00    -0.299 OA
ENDROOT
BRANCH   1   3
ATOM      3  C   UNL     1      50.766   3.589  15.021  1.00  0.00     0.053 C 
ATOM      4  C   UNL     1      51.518   3.872  13.714  1.00  0.00     0.016 C 
BRANCH   3   5
ATOM      5  C   UNL     1      49.312   3.124  14.740  1.00  0.00     0.015 C 
BRANCH   5   6
ATOM      6  C   UNL     1      48.739   1.963  15.600  1.00  0.00     0.028 C 
BRANCH   6   7
ATOM      7  C   UNL     1      47.796   2.357  16.710  1.00  0.00    -0.028 C 
ATOM      8  C   UNL     1      47.999   2.177  18.038  1.00  0.00    -0.070 CG0
ATOM      9  C   UNL     1      46.906   2.632  18.975  1.00  0.00     0.039 C 
ATOM     10  G   UNL     1      49.287   1.644  18.643  1.00  0.00     0.000 G0
ENDBRANCH   6   7
ENDBRANCH   5   6
ENDBRANCH   3   5
ENDBRANCH   1   3
BRANCH   1  11
ATOM     11  C   UNL     1      51.430   4.684  17.436  1.00  0.00     0.087 C 
BRANCH  11  12
ATOM     12  C   UNL     1      50.516   4.037  18.508  1.00  0.00     0.066 C 
BRANCH  12  13
ATOM     13  C   UNL     1      50.521   2.507  18.540  1.00  0.00     0.140 C 
ATOM     14  O   UNL     1      51.595   1.940  18.395  1.00  0.00    -0.299 OA
BRANCH  13  15
ATOM     15  C   UNL     1      49.288   1.633  18.644  1.00  0.00     0.106 CG0
ATOM     16  G   UNL     1      48.008   2.200  18.054  1.00  0.00     0.000 G0
ENDBRANCH  13  15
ENDBRANCH  12  13
BRANCH  12  17
ATOM     17  C   UNL     1      50.788   4.650  19.921  1.00  0.00    -0.006 C 
ATOM     18  C   UNL     1      49.518   5.119  20.648  1.00  0.00     0.008 C 
ATOM     19  C   UNL     1      51.810   5.798  19.863  1.00  0.00     0.008 C 
ENDBRANCH  12  17
ENDBRANCH  11  12
ENDBRANCH   1  11
TORSDOF 1
ENDMDL
MODEL 4
REMARK VINA RESULT:    -4.035      1.944      4.290
REMARK INTER + INTRA:          -6.330
REMARK INTER:                  -6.151
REMARK INTRA:                  -0.179
REMARK UNBOUND:                -0.171
REMARK SMILES CC1=CCC[C@@H](C)C(=O)C[C@H](C(C)C)C(=O)C1
REMARK SMILES IDX 8 1 9 2 6 3 7 4 5 5 4 6 3 7 2 8 1 9 10 11 11 12 15 13 16 14
REMARK SMILES IDX 17 15 12 17 13 18 14 19
REMARK H PARENT
REMARK Flexibility Score: 70.00
ROOT
ATOM      1  C   UNL     1      48.764   5.411  20.136  1.00  0.00     0.136 C 
ATOM      2  O   UNL     1      47.969   6.024  19.438  1.00  0.00    -0.299 OA
ENDROOT
BRANCH   1   3
ATOM      3  C   UNL     1      49.825   6.244  20.855  1.00  0.00     0.053 C 
ATOM      4  C   UNL     1      49.746   7.706  20.397  1.00  0.00     0.016 C 
BRANCH   3   5
ATOM      5  C   UNL     1      51.285   5.720  20.805  1.00  0.00     0.015 C 
BRANCH   5   6
ATOM      6  C   UNL     1      51.879   5.349  19.418  1.00  0.00     0.028 C 
BRANCH   6   7
ATOM      7  C   UNL     1      52.729   4.103  19.366  1.00  0.00    -0.028 C 
ATOM      8  C   UNL     1      52.427   2.950  18.722  1.00  0.00    -0.070 CG0
ATOM      9  C   UNL     1      53.422   1.819  18.821  1.00  0.00     0.039 C 
ATOM     10  G   UNL     1      51.210   2.760  17.832  1.00  0.00     0.000 G0
ENDBRANCH   6   7
ENDBRANCH   5   6
ENDBRANCH   3   5
ENDBRANCH   1   3
BRANCH   1  11
ATOM     11  C   UNL     1      48.656   3.892  20.098  1.00  0.00     0.087 C 
BRANCH  11  12
ATOM     12  C   UNL     1      48.695   3.166  18.729  1.00  0.00     0.066 C 
BRANCH  12  13
ATOM     13  C   UNL     1      49.922   2.282  18.488  1.00  0.00     0.140 C 
ATOM     14  O   UNL     1      49.895   1.142  18.930  1.00  0.00    -0.299 OA
BRANCH  13  15
ATOM     15  C   UNL     1      51.206   2.736  17.825  1.00  0.00     0.106 CG0
ATOM     16  G   UNL     1      52.402   2.936  18.741  1.00  0.00     0.000 G0
ENDBRANCH  13  15
ENDBRANCH  12  13
BRANCH  12  17
ATOM     17  C   UNL     1      47.360   2.394  18.465  1.00  0.00    -0.006 C 
ATOM     18  C   UNL     1      47.166   1.976  16.999  1.00  0.00     0.008 C 
ATOM     19  C   UNL     1      46.133   3.185  18.950  1.00  0.00     0.008 C 
ENDBRANCH  12  17
ENDBRANCH  11  12
ENDBRANCH   1  11
TORSDOF 1
ENDMDL
MODEL 5
REMARK VINA RESULT:    -3.941      1.962      4.068
REMARK INTER + INTRA:          -6.186
REMARK INTER:                  -5.971
REMARK INTRA:                  -0.215
REMARK UNBOUND:                -0.171
REMARK SMILES CC1=CCC[C@@H](C)C(=O)C[C@H](C(C)C)C(=O)C1
REMARK SMILES IDX 8 1 9 2 6 3 7 4 5 5 4 6 3 7 2 8 1 9 10 11 11 12 15 13 16 14
REMARK SMILES IDX 17 15 12 17 13 18 14 19
REMARK H PARENT
REMARK Flexibility Score: 70.00
ROOT
ATOM      1  C   UNL     1      49.377   5.017  20.647  1.00  0.00     0.136 C 
ATOM      2  O   UNL     1      50.219   5.000  21.534  1.00  0.00    -0.299 OA
ENDROOT
BRANCH   1   3
ATOM      3  C   UNL     1      48.966   6.392  20.122  1.00  0.00     0.053 C 
ATOM      4  C   UNL     1      47.581   6.313  19.467  1.00  0.00     0.016 C 
BRANCH   3   5
ATOM      5  C   UNL     1      49.978   7.126  19.202  1.00  0.00     0.015 C 
BRANCH   5   6
ATOM      6  C   UNL     1      50.382   6.440  17.868  1.00  0.00     0.028 C 
BRANCH   6   7
ATOM      7  C   UNL     1      51.706   5.716  17.863  1.00  0.00    -0.028 C 
ATOM      8  C   UNL     1      51.904   4.406  17.580  1.00  0.00    -0.070 CG0
ATOM      9  C   UNL     1      53.320   3.886  17.654  1.00  0.00     0.039 C 
ATOM     10  G   UNL     1      50.816   3.459  17.099  1.00  0.00     0.000 G0
ENDBRANCH   6   7
ENDBRANCH   5   6
ENDBRANCH   3   5
ENDBRANCH   1   3
BRANCH   1  11
ATOM     11  C   UNL     1      48.772   3.669  20.272  1.00  0.00     0.087 C 
BRANCH  11  12
ATOM     12  C   UNL     1      48.697   3.265  18.778  1.00  0.00     0.066 C 
BRANCH  12  13
ATOM     13  C   UNL     1      50.005   2.755  18.168  1.00  0.00     0.140 C 
ATOM     14  O   UNL     1      50.486   1.731  18.634  1.00  0.00    -0.299 OA
BRANCH  13  15
ATOM     15  C   UNL     1      50.804   3.467  17.096  1.00  0.00     0.106 CG0
ATOM     16  G   UNL     1      51.904   4.396  17.581  1.00  0.00     0.000 G0
ENDBRANCH  13  15
ENDBRANCH  12  13
BRANCH  12  17
ATOM     17  C   UNL     1      47.512   2.276  18.523  1.00  0.00    -0.006 C 
ATOM     18  C   UNL     1      47.532   1.630  17.129  1.00  0.00     0.008 C 
ATOM     19  C   UNL     1      46.146   2.939  18.771  1.00  0.00     0.008 C 
ENDBRANCH  12  17
ENDBRANCH  11  12
ENDBRANCH   1  11
TORSDOF 1
ENDMDL
MODEL 6
REMARK VINA RESULT:    -3.917      1.805      4.215
REMARK INTER + INTRA:          -6.149
REMARK INTER:                  -5.922
REMARK INTRA:                  -0.227
REMARK UNBOUND:                -0.171
REMARK SMILES CC1=CCC[C@@H](C)C(=O)C[C@H](C(C)C)C(=O)C1
REMARK SMILES IDX 8 1 9 2 6 3 7 4 5 5 4 6 3 7 2 8 1 9 10 11 11 12 15 13 16 14
REMARK SMILES IDX 17 15 12 17 13 18 14 19
REMARK H PARENT
REMARK Flexibility Score: 70.00
ROOT
ATOM      1  C   UNL     1      47.609   5.152  19.496  1.00  0.00     0.136 C 
ATOM      2  O   UNL     1      46.460   5.138  19.078  1.00  0.00    -0.299 OA
ENDROOT
BRANCH   1   3
ATOM      3  C   UNL     1      48.179   6.517  19.881  1.00  0.00     0.053 C 
ATOM      4  C   UNL     1      47.254   7.634  19.380  1.00  0.00     0.016 C 
BRANCH   3   5
ATOM      5  C   UNL     1      49.656   6.799  19.496  1.00  0.00     0.015 C 
BRANCH   5   6
ATOM      6  C   UNL     1      50.768   6.312  20.466  1.00  0.00     0.028 C 
BRANCH   6   7
ATOM      7  C   UNL     1      52.070   5.889  19.832  1.00  0.00    -0.028 C 
ATOM      8  C   UNL     1      52.381   4.647  19.387  1.00  0.00    -0.070 CG0
ATOM      9  C   UNL     1      53.758   4.444  18.802  1.00  0.00     0.039 C 
ATOM     10  G   UNL     1      51.405   3.483  19.347  1.00  0.00     0.000 G0
ENDBRANCH   6   7
ENDBRANCH   5   6
ENDBRANCH   3   5
ENDBRANCH   1   3
BRANCH   1  11
ATOM     11  C   UNL     1      48.350   3.821  19.464  1.00  0.00     0.087 C 
BRANCH  11  12
ATOM     12  C   UNL     1      48.996   3.348  18.137  1.00  0.00     0.066 C 
BRANCH  12  13
ATOM     13  C   UNL     1      50.526   3.356  18.110  1.00  0.00     0.140 C 
ATOM     14  O   UNL     1      51.075   3.186  17.030  1.00  0.00    -0.299 OA
BRANCH  13  15
ATOM     15  C   UNL     1      51.419   3.463  19.328  1.00  0.00     0.106 CG0
ATOM     16  G   UNL     1      52.364   4.652  19.368  1.00  0.00     0.000 G0
ENDBRANCH  13  15
ENDBRANCH  12  13
BRANCH  12  17
ATOM     17  C   UNL     1      48.412   1.966  17.691  1.00  0.00    -0.006 C 
ATOM     18  C   UNL     1      46.905   1.998  17.392  1.00  0.00     0.008 C 
ATOM     19  C   UNL     1      48.720   0.856  18.709  1.00  0.00     0.008 C 
ENDBRANCH  12  17
ENDBRANCH  11  12
ENDBRANCH   1  11
TORSDOF 1
ENDMDL
MODEL 7
REMARK VINA RESULT:    -3.865      2.014      4.339
REMARK INTER + INTRA:          -6.069
REMARK INTER:                  -5.831
REMARK INTRA:                  -0.238
REMARK UNBOUND:                -0.171
REMARK SMILES CC1=CCC[C@@H](C)C(=O)C[C@H](C(C)C)C(=O)C1
REMARK SMILES IDX 8 1 9 2 6 3 7 4 5 5 4 6 3 7 2 8 1 9 10 11 11 12 15 13 16 14
REMARK SMILES IDX 17 15 12 17 13 18 14 19
REMARK H PARENT
REMARK Flexibility Score: 70.00
ROOT
ATOM      1  C   UNL     1      48.596   2.654  16.182  1.00  0.00     0.136 C 
ATOM      2  O   UNL     1      48.013   2.969  15.153  1.00  0.00    -0.299 OA
ENDROOT
BRANCH   1   3
ATOM      3  C   UNL     1      47.730   2.108  17.317  1.00  0.00     0.053 C 
ATOM      4  C   UNL     1      46.294   2.629  17.181  1.00  0.00     0.016 C 
BRANCH   3   5
ATOM      5  C   UNL     1      48.260   2.302  18.763  1.00  0.00     0.015 C 
BRANCH   5   6
ATOM      6  C   UNL     1      48.461   3.754  19.277  1.00  0.00     0.028 C 
BRANCH   6   7
ATOM      7  C   UNL     1      49.663   3.992  20.157  1.00  0.00    -0.028 C 
ATOM      8  C   UNL     1      50.751   4.738  19.846  1.00  0.00    -0.070 CG0
ATOM      9  C   UNL     1      51.851   4.823  20.876  1.00  0.00     0.039 C 
ATOM     10  G   UNL     1      50.888   5.566  18.580  1.00  0.00     0.000 G0
ENDBRANCH   6   7
ENDBRANCH   5   6
ENDBRANCH   3   5
ENDBRANCH   1   3
BRANCH   1  11
ATOM     11  C   UNL     1      50.088   2.960  16.227  1.00  0.00     0.087 C 
BRANCH  11  12
ATOM     12  C   UNL     1      50.558   4.436  16.171  1.00  0.00     0.066 C 
BRANCH  12  13
ATOM     13  C   UNL     1      51.416   4.898  17.351  1.00  0.00     0.140 C 
ATOM     14  O   UNL     1      52.607   4.619  17.330  1.00  0.00    -0.299 OA
BRANCH  13  15
ATOM     15  C   UNL     1      50.892   5.594  18.591  1.00  0.00     0.106 CG0
ATOM     16  G   UNL     1      50.773   4.740  19.843  1.00  0.00     0.000 G0
ENDBRANCH  13  15
ENDBRANCH  12  13
BRANCH  12  17
ATOM     17  C   UNL     1      51.234   4.758  14.798  1.00  0.00    -0.006 C 
ATOM     18  C   UNL     1      50.334   5.547  13.834  1.00  0.00     0.008 C 
ATOM     19  C   UNL     1      51.758   3.490  14.103  1.00  0.00     0.008 C 
ENDBRANCH  12  17
ENDBRANCH  11  12
ENDBRANCH   1  11
TORSDOF 1
ENDMDL
MODEL 8
REMARK VINA RESULT:    -3.840      1.767      2.645
REMARK INTER + INTRA:          -6.031
REMARK INTER:                  -5.509
REMARK INTRA:                  -0.522
REMARK UNBOUND:                -0.171
REMARK SMILES CC1=CCC[C@@H](C)C(=O)C[C@H](C(C)C)C(=O)C1
REMARK SMILES IDX 8 1 9 2 6 3 7 4 5 5 4 6 3 7 2 8 1 9 10 11 11 12 15 13 16 14
REMARK SMILES IDX 17 15 12 17 13 18 14 19
REMARK H PARENT
REMARK Flexibility Score: 70.00
ROOT
ATOM      1  C   UNL     1      48.349   3.244  18.303  1.00  0.00     0.136 C 
ATOM      2  O   UNL     1      47.351   3.946  18.398  1.00  0.00    -0.299 OA
ENDROOT
BRANCH   1   3
ATOM      3  C   UNL     1      48.135   1.817  17.800  1.00  0.00     0.053 C 
ATOM      4  C   UNL     1      48.710   0.812  18.807  1.00  0.00     0.016 C 
BRANCH   3   5
ATOM      5  C   UNL     1      48.614   1.500  16.358  1.00  0.00     0.015 C 
BRANCH   5   6
ATOM      6  C   UNL     1      48.576   2.645  15.308  1.00  0.00     0.028 C 
BRANCH   6   7
ATOM      7  C   UNL     1      49.840   2.868  14.516  1.00  0.00    -0.028 C 
ATOM      8  C   UNL     1      50.694   3.913  14.643  1.00  0.00    -0.070 CG0
ATOM      9  C   UNL     1      51.894   3.943  13.727  1.00  0.00     0.039 C 
ATOM     10  G   UNL     1      50.576   4.992  15.706  1.00  0.00     0.000 G0
ENDBRANCH   6   7
ENDBRANCH   5   6
ENDBRANCH   3   5
ENDBRANCH   1   3
BRANCH   1  11
ATOM     11  C   UNL     1      49.649   3.857  18.812  1.00  0.00     0.087 C 
BRANCH  11  12
ATOM     12  C   UNL     1      50.957   3.620  18.015  1.00  0.00     0.066 C 
BRANCH  12  13
ATOM     13  C   UNL     1      51.324   4.716  17.012  1.00  0.00     0.140 C 
ATOM     14  O   UNL     1      52.223   5.487  17.318  1.00  0.00    -0.299 OA
BRANCH  13  15
ATOM     15  C   UNL     1      50.601   4.983  15.708  1.00  0.00     0.106 CG0
ATOM     16  G   UNL     1      50.717   3.908  14.641  1.00  0.00     0.000 G0
ENDBRANCH  13  15
ENDBRANCH  12  13
BRANCH  12  17
ATOM     17  C   UNL     1      52.146   3.288  18.976  1.00  0.00    -0.006 C 
ATOM     18  C   UNL     1      52.492   1.792  19.040  1.00  0.00     0.008 C 
ATOM     19  C   UNL     1      51.908   3.829  20.396  1.00  0.00     0.008 C 
ENDBRANCH  12  17
ENDBRANCH  11  12
ENDBRANCH   1  11
TORSDOF 1
ENDMDL
MODEL 9
REMARK VINA RESULT:    -3.656      2.118      3.484
REMARK INTER + INTRA:          -5.750
REMARK INTER:                  -6.210
REMARK INTRA:                   0.459
REMARK UNBOUND:                -0.171
REMARK SMILES CC1=CCC[C@@H](C)C(=O)C[C@H](C(C)C)C(=O)C1
REMARK SMILES IDX 8 1 9 2 6 3 7 4 5 5 4 6 3 7 2 8 1 9 10 11 11 12 15 13 16 14
REMARK SMILES IDX 17 15 12 17 13 18 14 19
REMARK H PARENT
REMARK Flexibility Score: 70.00
ROOT
ATOM      1  C   UNL     1      49.017   2.427  17.424  1.00  0.00     0.136 C 
ATOM      2  O   UNL     1      49.115   2.662  16.227  1.00  0.00    -0.299 OA
ENDROOT
BRANCH   1   3
ATOM      3  C   UNL     1      47.602   2.239  17.969  1.00  0.00     0.053 C 
ATOM      4  C   UNL     1      46.574   2.749  16.952  1.00  0.00     0.016 C 
BRANCH   3   5
ATOM      5  C   UNL     1      47.313   2.801  19.387  1.00  0.00     0.015 C 
BRANCH   5   6
ATOM      6  C   UNL     1      48.372   3.738  20.030  1.00  0.00     0.028 C 
BRANCH   6   7
ATOM      7  C   UNL     1      48.138   5.220  19.873  1.00  0.00    -0.028 C 
ATOM      8  C   UNL     1      49.072   6.154  19.572  1.00  0.00    -0.070 CG0
ATOM      9  C   UNL     1      48.615   7.590  19.484  1.00  0.00     0.039 C 
ATOM     10  G   UNL     1      50.517   5.838  19.221  1.00  0.00     0.000 G0
ENDBRANCH   6   7
ENDBRANCH   5   6
ENDBRANCH   3   5
ENDBRANCH   1   3
BRANCH   1  11
ATOM     11  C   UNL     1      50.314   2.471  18.223  1.00  0.00     0.087 C 
BRANCH  11  12
ATOM     12  C   UNL     1      51.336   3.603  17.943  1.00  0.00     0.066 C 
BRANCH  12  13
ATOM     13  C   UNL     1      50.766   5.023  17.958  1.00  0.00     0.140 C 
ATOM     14  O   UNL     1      50.546   5.557  16.880  1.00  0.00    -0.299 OA
BRANCH  13  15
ATOM     15  C   UNL     1      50.539   5.858  19.202  1.00  0.00     0.106 CG0
ATOM     16  G   UNL     1      49.092   6.143  19.567  1.00  0.00     0.000 G0
ENDBRANCH  13  15
ENDBRANCH  12  13
BRANCH  12  17
ATOM     17  C   UNL     1      52.590   3.468  18.869  1.00  0.00    -0.006 C 
ATOM     18  C   UNL     1      53.791   4.310  18.411  1.00  0.00     0.008 C 
ATOM     19  C   UNL     1      53.018   2.002  19.049  1.00  0.00     0.008 C 
ENDBRANCH  12  17
ENDBRANCH  11  12
ENDBRANCH   1  11
TORSDOF 1
ENDMDL
