MODEL 1
REMARK VINA RESULT:    -5.203      0.000      0.000
REMARK INTER + INTRA:          -7.762
REMARK INTER:                  -6.572
REMARK INTRA:                  -1.191
REMARK UNBOUND:                -1.191
REMARK SMILES O=C(C=Cc1ccc(O)cc1)c1ccc(O)cc1O
REMARK SMILES IDX 4 1 3 2 5 3 6 4 7 5 8 6 11 7 10 8 9 9 2 11 1 12 12 13 18 14
REMARK SMILES IDX 13 15 17 16 14 17 15 18 19 19 16 21
REMARK H PARENT 9 10 19 20 16 22
REMARK Flexibility Score: inf
ROOT
ATOM      1  C   UNL     1      31.984 111.380  67.524  1.00  0.00     0.012 C 
ATOM      2  C   UNL     1      30.937 111.002  68.273  1.00  0.00     0.053 C 
ENDROOT
BRANCH   1   3
ATOM      3  C   UNL     1      31.946 111.627  66.066  1.00  0.00    -0.025 A 
ATOM      4  C   UNL     1      31.652 112.916  65.597  1.00  0.00     0.012 A 
ATOM      5  C   UNL     1      31.652 113.185  64.225  1.00  0.00     0.047 A 
ATOM      6  C   UNL     1      31.969 112.172  63.309  1.00  0.00     0.115 A 
ATOM      7  C   UNL     1      32.292 110.622  65.145  1.00  0.00     0.012 A 
ATOM      8  C   UNL     1      32.292 110.894  63.773  1.00  0.00     0.047 A 
BRANCH   6   9
ATOM      9  O   UNL     1      31.971 112.428  61.940  1.00  0.00    -0.508 OA
ATOM     10  H   UNL     1      32.460 113.226  61.551  1.00  0.00     0.293 HD
ENDBRANCH   6   9
ENDBRANCH   1   3
BRANCH   2  11
ATOM     11  C   UNL     1      29.531 110.953  67.811  1.00  0.00     0.189 C 
ATOM     12  O   UNL     1      29.084 109.898  67.284  1.00  0.00    -0.289 OA
BRANCH  11  13
ATOM     13  C   UNL     1      28.666 112.156  67.867  1.00  0.00     0.064 A 
ATOM     14  C   UNL     1      28.019 112.664  66.717  1.00  0.00     0.130 A 
ATOM     15  C   UNL     1      28.502 112.826  69.093  1.00  0.00     0.020 A 
ATOM     16  C   UNL     1      27.200 113.798  66.820  1.00  0.00     0.093 A 
ATOM     17  C   UNL     1      27.689 113.958  69.182  1.00  0.00     0.047 A 
ATOM     18  C   UNL     1      27.033 114.445  68.050  1.00  0.00     0.119 A 
BRANCH  14  19
ATOM     19  O   UNL     1      28.205 112.062  65.473  1.00  0.00    -0.507 OA
ATOM     20  H   UNL     1      29.126 111.965  65.061  1.00  0.00     0.293 HD
ENDBRANCH  14  19
BRANCH  18  21
ATOM     21  O   UNL     1      26.222 115.572  68.156  1.00  0.00    -0.508 OA
ATOM     22  H   UNL     1      25.225 115.494  68.321  1.00  0.00     0.293 HD
ENDBRANCH  18  21
ENDBRANCH  11  13
ENDBRANCH   2  11
TORSDOF 6
ENDMDL
MODEL 2
REMARK VINA RESULT:    -5.197      1.813      5.726
REMARK INTER + INTRA:          -7.754
REMARK INTER:                  -6.935
REMARK INTRA:                  -0.819
REMARK UNBOUND:                -1.191
REMARK SMILES O=C(C=Cc1ccc(O)cc1)c1ccc(O)cc1O
REMARK SMILES IDX 4 1 3 2 5 3 6 4 7 5 8 6 11 7 10 8 9 9 2 11 1 12 12 13 18 14
REMARK SMILES IDX 13 15 17 16 14 17 15 18 19 19 16 21
REMARK H PARENT 9 10 19 20 16 22
REMARK Flexibility Score: inf
ROOT
ATOM      1  C   UNL     1      31.722 111.629  66.961  1.00  0.00     0.012 C 
ATOM      2  C   UNL     1      32.000 110.974  65.824  1.00  0.00     0.053 C 
ENDROOT
BRANCH   1   3
ATOM      3  C   UNL     1      30.508 112.439  67.205  1.00  0.00    -0.025 A 
ATOM      4  C   UNL     1      29.645 112.082  68.251  1.00  0.00     0.012 A 
ATOM      5  C   UNL     1      28.514 112.857  68.529  1.00  0.00     0.047 A 
ATOM      6  C   UNL     1      28.248 114.009  67.777  1.00  0.00     0.115 A 
ATOM      7  C   UNL     1      30.253 113.612  66.472  1.00  0.00     0.012 A 
ATOM      8  C   UNL     1      29.122 114.385  66.752  1.00  0.00     0.047 A 
BRANCH   6   9
ATOM      9  O   UNL     1      27.124 114.787  68.043  1.00  0.00    -0.508 OA
ATOM     10  H   UNL     1      26.398 114.923  67.349  1.00  0.00     0.293 HD
ENDBRANCH   6   9
ENDBRANCH   1   3
BRANCH   2  11
ATOM     11  C   UNL     1      31.062 110.791  64.694  1.00  0.00     0.189 C 
ATOM     12  O   UNL     1      30.184 109.888  64.751  1.00  0.00    -0.289 OA
BRANCH  11  13
ATOM     13  C   UNL     1      31.200 111.588  63.450  1.00  0.00     0.064 A 
ATOM     14  C   UNL     1      30.705 111.126  62.209  1.00  0.00     0.130 A 
ATOM     15  C   UNL     1      31.862 112.828  63.500  1.00  0.00     0.020 A 
ATOM     16  C   UNL     1      30.847 111.919  61.061  1.00  0.00     0.093 A 
ATOM     17  C   UNL     1      32.004 113.607  62.350  1.00  0.00     0.047 A 
ATOM     18  C   UNL     1      31.495 113.159  61.130  1.00  0.00     0.119 A 
BRANCH  14  19
ATOM     19  O   UNL     1      30.096 109.875  62.108  1.00  0.00    -0.507 OA
ATOM     20  H   UNL     1      29.937 109.431  61.211  1.00  0.00     0.293 HD
ENDBRANCH  14  19
BRANCH  18  21
ATOM     21  O   UNL     1      31.639 113.949  59.992  1.00  0.00    -0.508 OA
ATOM     22  H   UNL     1      31.344 113.623  59.079  1.00  0.00     0.293 HD
ENDBRANCH  18  21
ENDBRANCH  11  13
ENDBRANCH   2  11
TORSDOF 6
ENDMDL
MODEL 3
REMARK VINA RESULT:    -5.104      2.550      4.638
REMARK INTER + INTRA:          -7.637
REMARK INTER:                  -6.668
REMARK INTRA:                  -0.969
REMARK UNBOUND:                -1.191
REMARK SMILES O=C(C=Cc1ccc(O)cc1)c1ccc(O)cc1O
REMARK SMILES IDX 4 1 3 2 5 3 6 4 7 5 8 6 11 7 10 8 9 9 2 11 1 12 12 13 18 14
REMARK SMILES IDX 13 15 17 16 14 17 15 18 19 19 16 21
REMARK H PARENT 9 10 19 20 16 22
REMARK Flexibility Score: inf
ROOT
ATOM      1  C   UNL     1      32.405 113.101  62.613  1.00  0.00     0.012 C 
ATOM      2  C   UNL     1      31.462 113.346  61.691  1.00  0.00     0.053 C 
ENDROOT
BRANCH   1   3
ATOM      3  C   UNL     1      32.182 112.401  63.897  1.00  0.00    -0.025 A 
ATOM      4  C   UNL     1      32.381 111.014  63.966  1.00  0.00     0.012 A 
ATOM      5  C   UNL     1      32.218 110.336  65.178  1.00  0.00     0.047 A 
ATOM      6  C   UNL     1      31.875 111.043  66.340  1.00  0.00     0.115 A 
ATOM      7  C   UNL     1      31.867 113.110  65.071  1.00  0.00     0.012 A 
ATOM      8  C   UNL     1      31.705 112.430  66.282  1.00  0.00     0.047 A 
BRANCH   6   9
ATOM      9  O   UNL     1      31.708 110.379  67.552  1.00  0.00    -0.508 OA
ATOM     10  H   UNL     1      30.841 109.907  67.782  1.00  0.00     0.293 HD
ENDBRANCH   6   9
ENDBRANCH   1   3
BRANCH   2  11
ATOM     11  C   UNL     1      30.087 112.798  61.710  1.00  0.00     0.189 C 
ATOM     12  O   UNL     1      29.743 111.946  60.846  1.00  0.00    -0.289 OA
BRANCH  11  13
ATOM     13  C   UNL     1      29.075 113.307  62.667  1.00  0.00     0.064 A 
ATOM     14  C   UNL     1      28.604 114.639  62.618  1.00  0.00     0.130 A 
ATOM     15  C   UNL     1      28.585 112.448  63.668  1.00  0.00     0.020 A 
ATOM     16  C   UNL     1      27.637 115.073  63.537  1.00  0.00     0.093 A 
ATOM     17  C   UNL     1      27.627 112.892  64.581  1.00  0.00     0.047 A 
ATOM     18  C   UNL     1      27.148 114.201  64.517  1.00  0.00     0.119 A 
BRANCH  14  19
ATOM     19  O   UNL     1      29.110 115.537  61.678  1.00  0.00    -0.507 OA
ATOM     20  H   UNL     1      29.115 116.536  61.846  1.00  0.00     0.293 HD
ENDBRANCH  14  19
BRANCH  18  21
ATOM     21  O   UNL     1      26.188 114.628  65.432  1.00  0.00    -0.508 OA
ATOM     22  H   UNL     1      26.434 114.865  66.386  1.00  0.00     0.293 HD
ENDBRANCH  18  21
ENDBRANCH  11  13
ENDBRANCH   2  11
TORSDOF 6
ENDMDL
MODEL 4
REMARK VINA RESULT:    -5.021      2.024      5.391
REMARK INTER + INTRA:          -7.532
REMARK INTER:                  -6.402
REMARK INTRA:                  -1.130
REMARK UNBOUND:                -1.191
REMARK SMILES O=C(C=Cc1ccc(O)cc1)c1ccc(O)cc1O
REMARK SMILES IDX 4 1 3 2 5 3 6 4 7 5 8 6 11 7 10 8 9 9 2 11 1 12 12 13 18 14
REMARK SMILES IDX 13 15 17 16 14 17 15 18 19 19 16 21
REMARK H PARENT 9 10 19 20 16 22
REMARK Flexibility Score: inf
ROOT
ATOM      1  C   UNL     1      31.352 111.752  68.263  1.00  0.00     0.012 C 
ATOM      2  C   UNL     1      32.047 111.719  67.116  1.00  0.00     0.053 C 
ENDROOT
BRANCH   1   3
ATOM      3  C   UNL     1      29.895 111.527  68.385  1.00  0.00    -0.025 A 
ATOM      4  C   UNL     1      29.413 110.217  68.524  1.00  0.00     0.012 A 
ATOM      5  C   UNL     1      28.044 109.982  68.684  1.00  0.00     0.047 A 
ATOM      6  C   UNL     1      27.145 111.057  68.729  1.00  0.00     0.115 A 
ATOM      7  C   UNL     1      28.993 112.604  68.460  1.00  0.00     0.012 A 
ATOM      8  C   UNL     1      27.625 112.366  68.621  1.00  0.00     0.047 A 
BRANCH   6   9
ATOM      9  O   UNL     1      25.779 110.835  68.886  1.00  0.00    -0.508 OA
ATOM     10  H   UNL     1      25.215 111.420  69.491  1.00  0.00     0.293 HD
ENDBRANCH   6   9
ENDBRANCH   1   3
BRANCH   2  11
ATOM     11  C   UNL     1      31.517 111.269  65.809  1.00  0.00     0.189 C 
ATOM     12  O   UNL     1      31.494 110.038  65.535  1.00  0.00    -0.289 OA
BRANCH  11  13
ATOM     13  C   UNL     1      31.102 112.248  64.775  1.00  0.00     0.064 A 
ATOM     14  C   UNL     1      31.815 112.401  63.564  1.00  0.00     0.130 A 
ATOM     15  C   UNL     1      29.981 113.064  65.013  1.00  0.00     0.020 A 
ATOM     16  C   UNL     1      31.379 113.332  62.609  1.00  0.00     0.093 A 
ATOM     17  C   UNL     1      29.559 113.991  64.058  1.00  0.00     0.047 A 
ATOM     18  C   UNL     1      30.252 114.126  62.854  1.00  0.00     0.119 A 
BRANCH  14  19
ATOM     19  O   UNL     1      32.966 111.653  63.317  1.00  0.00    -0.507 OA
ATOM     20  H   UNL     1      33.014 110.664  63.533  1.00  0.00     0.293 HD
ENDBRANCH  14  19
BRANCH  18  21
ATOM     21  O   UNL     1      29.816 115.052  61.909  1.00  0.00    -0.508 OA
ATOM     22  H   UNL     1      30.378 115.287  61.100  1.00  0.00     0.293 HD
ENDBRANCH  18  21
ENDBRANCH  11  13
ENDBRANCH   2  11
TORSDOF 6
ENDMDL
MODEL 5
REMARK VINA RESULT:    -4.990      2.429      4.301
REMARK INTER + INTRA:          -7.493
REMARK INTER:                  -6.139
REMARK INTRA:                  -1.354
REMARK UNBOUND:                -1.191
REMARK SMILES O=C(C=Cc1ccc(O)cc1)c1ccc(O)cc1O
REMARK SMILES IDX 4 1 3 2 5 3 6 4 7 5 8 6 11 7 10 8 9 9 2 11 1 12 12 13 18 14
REMARK SMILES IDX 13 15 17 16 14 17 15 18 19 19 16 21
REMARK H PARENT 9 10 19 20 16 22
REMARK Flexibility Score: inf
ROOT
ATOM      1  C   UNL     1      32.007 113.227  62.331  1.00  0.00     0.012 C 
ATOM      2  C   UNL     1      30.909 113.360  61.572  1.00  0.00     0.053 C 
ENDROOT
BRANCH   1   3
ATOM      3  C   UNL     1      32.060 112.548  63.644  1.00  0.00    -0.025 A 
ATOM      4  C   UNL     1      31.731 113.269  64.801  1.00  0.00     0.012 A 
ATOM      5  C   UNL     1      31.732 112.639  66.050  1.00  0.00     0.047 A 
ATOM      6  C   UNL     1      32.041 111.275  66.150  1.00  0.00     0.115 A 
ATOM      7  C   UNL     1      32.340 111.173  63.746  1.00  0.00     0.012 A 
ATOM      8  C   UNL     1      32.340 110.545  64.996  1.00  0.00     0.047 A 
BRANCH   6   9
ATOM      9  O   UNL     1      32.047 110.637  67.388  1.00  0.00    -0.508 OA
ATOM     10  H   UNL     1      31.201 110.243  67.785  1.00  0.00     0.293 HD
ENDBRANCH   6   9
ENDBRANCH   1   3
BRANCH   2  11
ATOM     11  C   UNL     1      29.612 112.693  61.824  1.00  0.00     0.189 C 
ATOM     12  O   UNL     1      29.251 111.732  61.090  1.00  0.00    -0.289 OA
BRANCH  11  13
ATOM     13  C   UNL     1      28.681 113.197  62.862  1.00  0.00     0.064 A 
ATOM     14  C   UNL     1      28.313 112.412  63.980  1.00  0.00     0.130 A 
ATOM     15  C   UNL     1      28.129 114.484  62.722  1.00  0.00     0.020 A 
ATOM     16  C   UNL     1      27.439 112.936  64.944  1.00  0.00     0.093 A 
ATOM     17  C   UNL     1      27.255 114.993  63.685  1.00  0.00     0.047 A 
ATOM     18  C   UNL     1      26.911 114.225  64.798  1.00  0.00     0.119 A 
BRANCH  14  19
ATOM     19  O   UNL     1      28.792 111.110  64.122  1.00  0.00    -0.507 OA
ATOM     20  H   UNL     1      29.739 110.923  64.430  1.00  0.00     0.293 HD
ENDBRANCH  14  19
BRANCH  18  21
ATOM     21  O   UNL     1      26.041 114.747  65.753  1.00  0.00    -0.508 OA
ATOM     22  H   UNL     1      25.080 114.436  65.821  1.00  0.00     0.293 HD
ENDBRANCH  18  21
ENDBRANCH  11  13
ENDBRANCH   2  11
TORSDOF 6
ENDMDL
MODEL 6
REMARK VINA RESULT:    -4.912      1.719      2.365
REMARK INTER + INTRA:          -7.395
REMARK INTER:                  -6.360
REMARK INTRA:                  -1.035
REMARK UNBOUND:                -1.191
REMARK SMILES O=C(C=Cc1ccc(O)cc1)c1ccc(O)cc1O
REMARK SMILES IDX 4 1 3 2 5 3 6 4 7 5 8 6 11 7 10 8 9 9 2 11 1 12 12 13 18 14
REMARK SMILES IDX 13 15 17 16 14 17 15 18 19 19 16 21
REMARK H PARENT 9 10 19 20 16 22
REMARK Flexibility Score: inf
ROOT
ATOM      1  C   UNL     1      31.300 109.985  65.218  1.00  0.00     0.012 C 
ATOM      2  C   UNL     1      31.279 110.136  66.551  1.00  0.00     0.053 C 
ENDROOT
BRANCH   1   3
ATOM      3  C   UNL     1      31.232 111.086  64.233  1.00  0.00    -0.025 A 
ATOM      4  C   UNL     1      29.981 111.501  63.754  1.00  0.00     0.012 A 
ATOM      5  C   UNL     1      29.887 112.567  62.854  1.00  0.00     0.047 A 
ATOM      6  C   UNL     1      31.043 113.245  62.442  1.00  0.00     0.115 A 
ATOM      7  C   UNL     1      32.386 111.787  63.839  1.00  0.00     0.012 A 
ATOM      8  C   UNL     1      32.290 112.854  62.941  1.00  0.00     0.047 A 
BRANCH   6   9
ATOM      9  O   UNL     1      30.962 114.307  61.546  1.00  0.00    -0.508 OA
ATOM     10  H   UNL     1      30.897 114.153  60.547  1.00  0.00     0.293 HD
ENDBRANCH   6   9
ENDBRANCH   1   3
BRANCH   2  11
ATOM     11  C   UNL     1      31.376 111.429  67.264  1.00  0.00     0.189 C 
ATOM     12  O   UNL     1      32.453 111.744  67.841  1.00  0.00    -0.289 OA
BRANCH  11  13
ATOM     13  C   UNL     1      30.198 112.319  67.397  1.00  0.00     0.064 A 
ATOM     14  C   UNL     1      29.074 111.959  68.177  1.00  0.00     0.130 A 
ATOM     15  C   UNL     1      30.184 113.547  66.709  1.00  0.00     0.020 A 
ATOM     16  C   UNL     1      27.986 112.839  68.283  1.00  0.00     0.093 A 
ATOM     17  C   UNL     1      29.093 114.412  66.817  1.00  0.00     0.047 A 
ATOM     18  C   UNL     1      27.995 114.064  67.605  1.00  0.00     0.119 A 
BRANCH  14  19
ATOM     19  O   UNL     1      29.026 110.726  68.825  1.00  0.00    -0.507 OA
ATOM     20  H   UNL     1      28.770 109.877  68.334  1.00  0.00     0.293 HD
ENDBRANCH  14  19
BRANCH  18  21
ATOM     21  O   UNL     1      26.916 114.939  67.707  1.00  0.00    -0.508 OA
ATOM     22  H   UNL     1      26.388 115.032  68.566  1.00  0.00     0.293 HD
ENDBRANCH  18  21
ENDBRANCH  11  13
ENDBRANCH   2  11
TORSDOF 6
ENDMDL
MODEL 7
REMARK VINA RESULT:    -4.892      1.605      5.560
REMARK INTER + INTRA:          -7.370
REMARK INTER:                  -6.322
REMARK INTRA:                  -1.047
REMARK UNBOUND:                -1.191
REMARK SMILES O=C(C=Cc1ccc(O)cc1)c1ccc(O)cc1O
REMARK SMILES IDX 4 1 3 2 5 3 6 4 7 5 8 6 11 7 10 8 9 9 2 11 1 12 12 13 18 14
REMARK SMILES IDX 13 15 17 16 14 17 15 18 19 19 16 21
REMARK H PARENT 9 10 19 20 16 22
REMARK Flexibility Score: inf
ROOT
ATOM      1  C   UNL     1      29.378 110.298  67.069  1.00  0.00     0.012 C 
ATOM      2  C   UNL     1      30.678 110.141  66.773  1.00  0.00     0.053 C 
ENDROOT
BRANCH   1   3
ATOM      3  C   UNL     1      28.716 111.592  67.344  1.00  0.00    -0.025 A 
ATOM      4  C   UNL     1      27.807 112.109  66.409  1.00  0.00     0.012 A 
ATOM      5  C   UNL     1      27.136 113.309  66.665  1.00  0.00     0.047 A 
ATOM      6  C   UNL     1      27.351 113.992  67.870  1.00  0.00     0.115 A 
ATOM      7  C   UNL     1      28.906 112.266  68.564  1.00  0.00     0.012 A 
ATOM      8  C   UNL     1      28.233 113.465  68.818  1.00  0.00     0.047 A 
BRANCH   6   9
ATOM      9  O   UNL     1      26.689 115.189  68.136  1.00  0.00    -0.508 OA
ATOM     10  H   UNL     1      26.947 116.051  67.669  1.00  0.00     0.293 HD
ENDBRANCH   6   9
ENDBRANCH   1   3
BRANCH   2  11
ATOM     11  C   UNL     1      31.626 111.240  66.486  1.00  0.00     0.189 C 
ATOM     12  O   UNL     1      32.379 111.671  67.402  1.00  0.00    -0.289 OA
BRANCH  11  13
ATOM     13  C   UNL     1      31.640 111.912  65.164  1.00  0.00     0.064 A 
ATOM     14  C   UNL     1      32.309 111.355  64.050  1.00  0.00     0.130 A 
ATOM     15  C   UNL     1      30.989 113.151  65.018  1.00  0.00     0.020 A 
ATOM     16  C   UNL     1      32.284 112.021  62.815  1.00  0.00     0.093 A 
ATOM     17  C   UNL     1      30.976 113.808  63.785  1.00  0.00     0.047 A 
ATOM     18  C   UNL     1      31.618 113.245  62.682  1.00  0.00     0.119 A 
BRANCH  14  19
ATOM     19  O   UNL     1      33.015 110.159  64.171  1.00  0.00    -0.507 OA
ATOM     20  H   UNL     1      32.900 109.552  64.974  1.00  0.00     0.293 HD
ENDBRANCH  14  19
BRANCH  18  21
ATOM     21  O   UNL     1      31.593 113.910  61.458  1.00  0.00    -0.508 OA
ATOM     22  H   UNL     1      32.112 113.568  60.658  1.00  0.00     0.293 HD
ENDBRANCH  18  21
ENDBRANCH  11  13
ENDBRANCH   2  11
TORSDOF 6
ENDMDL
MODEL 8
REMARK VINA RESULT:    -4.887      2.876      5.681
REMARK INTER + INTRA:          -7.364
REMARK INTER:                  -5.999
REMARK INTRA:                  -1.365
REMARK UNBOUND:                -1.191
REMARK SMILES O=C(C=Cc1ccc(O)cc1)c1ccc(O)cc1O
REMARK SMILES IDX 4 1 3 2 5 3 6 4 7 5 8 6 11 7 10 8 9 9 2 11 1 12 12 13 18 14
REMARK SMILES IDX 13 15 17 16 14 17 15 18 19 19 16 21
REMARK H PARENT 9 10 19 20 16 22
REMARK Flexibility Score: inf
ROOT
ATOM      1  C   UNL     1      31.285 113.642  61.587  1.00  0.00     0.012 C 
ATOM      2  C   UNL     1      31.594 112.372  61.283  1.00  0.00     0.053 C 
ENDROOT
BRANCH   1   3
ATOM      3  C   UNL     1      30.096 114.071  62.356  1.00  0.00    -0.025 A 
ATOM      4  C   UNL     1      28.859 114.178  61.702  1.00  0.00     0.012 A 
ATOM      5  C   UNL     1      27.713 114.540  62.416  1.00  0.00     0.047 A 
ATOM      6  C   UNL     1      27.787 114.777  63.796  1.00  0.00     0.115 A 
ATOM      7  C   UNL     1      30.161 114.281  63.745  1.00  0.00     0.012 A 
ATOM      8  C   UNL     1      29.012 114.642  64.457  1.00  0.00     0.047 A 
BRANCH   6   9
ATOM      9  O   UNL     1      26.653 115.140  64.517  1.00  0.00    -0.508 OA
ATOM     10  H   UNL     1      25.732 114.803  64.260  1.00  0.00     0.293 HD
ENDBRANCH   6   9
ENDBRANCH   1   3
BRANCH   2  11
ATOM     11  C   UNL     1      30.909 111.175  61.822  1.00  0.00     0.189 C 
ATOM     12  O   UNL     1      30.188 110.473  61.061  1.00  0.00    -0.289 OA
BRANCH  11  13
ATOM     13  C   UNL     1      30.975 110.842  63.265  1.00  0.00     0.064 A 
ATOM     14  C   UNL     1      29.812 110.742  64.063  1.00  0.00     0.130 A 
ATOM     15  C   UNL     1      32.232 110.643  63.866  1.00  0.00     0.020 A 
ATOM     16  C   UNL     1      29.922 110.412  65.422  1.00  0.00     0.093 A 
ATOM     17  C   UNL     1      32.331 110.321  65.221  1.00  0.00     0.047 A 
ATOM     18  C   UNL     1      31.179 110.201  66.001  1.00  0.00     0.119 A 
BRANCH  14  19
ATOM     19  O   UNL     1      28.553 110.991  63.517  1.00  0.00    -0.507 OA
ATOM     20  H   UNL     1      28.313 111.894  63.124  1.00  0.00     0.293 HD
ENDBRANCH  14  19
BRANCH  18  21
ATOM     21  O   UNL     1      31.293 109.875  67.351  1.00  0.00    -0.508 OA
ATOM     22  H   UNL     1      30.958 110.498  68.077  1.00  0.00     0.293 HD
ENDBRANCH  18  21
ENDBRANCH  11  13
ENDBRANCH   2  11
TORSDOF 6
ENDMDL
MODEL 9
REMARK VINA RESULT:    -4.779      2.349      4.243
REMARK INTER + INTRA:          -7.227
REMARK INTER:                  -6.239
REMARK INTRA:                  -0.988
REMARK UNBOUND:                -1.191
REMARK SMILES O=C(C=Cc1ccc(O)cc1)c1ccc(O)cc1O
REMARK SMILES IDX 4 1 3 2 5 3 6 4 7 5 8 6 11 7 10 8 9 9 2 11 1 12 12 13 18 14
REMARK SMILES IDX 13 15 17 16 14 17 15 18 19 19 16 21
REMARK H PARENT 9 10 19 20 16 22
REMARK Flexibility Score: inf
ROOT
ATOM      1  C   UNL     1      27.322 111.617  68.312  1.00  0.00     0.012 C 
ATOM      2  C   UNL     1      26.315 112.439  68.646  1.00  0.00     0.053 C 
ENDROOT
BRANCH   1   3
ATOM      3  C   UNL     1      28.510 112.001  67.519  1.00  0.00    -0.025 A 
ATOM      4  C   UNL     1      29.734 112.205  68.173  1.00  0.00     0.012 A 
ATOM      5  C   UNL     1      30.881 112.527  67.441  1.00  0.00     0.047 A 
ATOM      6  C   UNL     1      30.820 112.626  66.044  1.00  0.00     0.115 A 
ATOM      7  C   UNL     1      28.460 112.073  66.114  1.00  0.00     0.012 A 
ATOM      8  C   UNL     1      29.609 112.394  65.385  1.00  0.00     0.047 A 
BRANCH   6   9
ATOM      9  O   UNL     1      31.955 112.947  65.304  1.00  0.00    -0.508 OA
ATOM     10  H   UNL     1      32.851 113.105  65.751  1.00  0.00     0.293 HD
ENDBRANCH   6   9
ENDBRANCH   1   3
BRANCH   2  11
ATOM     11  C   UNL     1      26.309 113.906  68.446  1.00  0.00     0.189 C 
ATOM     12  O   UNL     1      26.116 114.378  67.293  1.00  0.00    -0.289 OA
BRANCH  11  13
ATOM     13  C   UNL     1      26.625 114.830  69.562  1.00  0.00     0.064 A 
ATOM     14  C   UNL     1      26.101 116.142  69.615  1.00  0.00     0.130 A 
ATOM     15  C   UNL     1      27.489 114.400  70.586  1.00  0.00     0.020 A 
ATOM     16  C   UNL     1      26.418 116.978  70.697  1.00  0.00     0.093 A 
ATOM     17  C   UNL     1      27.803 115.242  71.655  1.00  0.00     0.047 A 
ATOM     18  C   UNL     1      27.267 116.529  71.716  1.00  0.00     0.119 A 
BRANCH  14  19
ATOM     19  O   UNL     1      25.289 116.625  68.589  1.00  0.00    -0.507 OA
ATOM     20  H   UNL     1      25.293 116.207  67.666  1.00  0.00     0.293 HD
ENDBRANCH  14  19
BRANCH  18  21
ATOM     21  O   UNL     1      27.585 117.357  72.791  1.00  0.00    -0.508 OA
ATOM     22  H   UNL     1      28.452 117.250  73.303  1.00  0.00     0.293 HD
ENDBRANCH  18  21
ENDBRANCH  11  13
ENDBRANCH   2  11
TORSDOF 6
ENDMDL
