MODEL 1
REMARK VINA RESULT:    -2.793      0.000      0.000
REMARK INTER + INTRA:          -3.581
REMARK INTER:                  -3.365
REMARK INTRA:                  -0.216
REMARK UNBOUND:                -0.216
REMARK SMILES OCC(O)CO
REMARK SMILES IDX 3 1 5 2 6 3 2 5 1 6 4 8
REMARK H PARENT 6 4 1 7 4 9
REMARK Flexibility Score: inf
ROOT
ATOM      1  C   UNL     1      17.794  11.952  37.158  1.00  0.00     0.165 C 
ENDROOT
BRANCH   1   2
ATOM      2  C   UNL     1      18.610  12.097  35.867  1.00  0.00     0.190 C 
BRANCH   2   3
ATOM      3  O   UNL     1      19.912  11.617  36.062  1.00  0.00    -0.394 OA
ATOM      4  H   UNL     1      20.232  12.027  36.907  1.00  0.00     0.210 HD
ENDBRANCH   2   3
ENDBRANCH   1   2
BRANCH   1   5
ATOM      5  C   UNL     1      18.674  12.101  38.413  1.00  0.00     0.190 C 
BRANCH   5   6
ATOM      6  O   UNL     1      19.106  10.852  38.882  1.00  0.00    -0.394 OA
ATOM      7  H   UNL     1      18.996  10.864  39.870  1.00  0.00     0.210 HD
ENDBRANCH   5   6
ENDBRANCH   1   5
BRANCH   1   8
ATOM      8  O   UNL     1      17.160  10.698  37.159  1.00  0.00    -0.388 OA
ATOM      9  H   UNL     1      17.456  10.228  37.983  1.00  0.00     0.211 HD
ENDBRANCH   1   8
TORSDOF 5
ENDMDL
MODEL 2
REMARK VINA RESULT:    -2.772      0.825      2.455
REMARK INTER + INTRA:          -3.555
REMARK INTER:                  -3.332
REMARK INTRA:                  -0.224
REMARK UNBOUND:                -0.216
REMARK SMILES OCC(O)CO
REMARK SMILES IDX 3 1 5 2 6 3 2 5 1 6 4 8
REMARK H PARENT 6 4 1 7 4 9
REMARK Flexibility Score: inf
ROOT
ATOM      1  C   UNL     1      18.900  12.082  38.220  1.00  0.00     0.165 C 
ENDROOT
BRANCH   1   2
ATOM      2  C   UNL     1      17.501  12.031  37.595  1.00  0.00     0.190 C 
BRANCH   2   3
ATOM      3  O   UNL     1      17.180  10.715  37.236  1.00  0.00    -0.394 OA
ATOM      4  H   UNL     1      17.526  10.138  37.965  1.00  0.00     0.210 HD
ENDBRANCH   2   3
ENDBRANCH   1   2
BRANCH   1   5
ATOM      5  C   UNL     1      19.999  12.247  37.153  1.00  0.00     0.190 C 
BRANCH   5   6
ATOM      6  O   UNL     1      19.642  11.615  35.953  1.00  0.00    -0.394 OA
ATOM      7  H   UNL     1      20.057  12.140  35.219  1.00  0.00     0.210 HD
ENDBRANCH   5   6
ENDBRANCH   1   5
BRANCH   1   8
ATOM      8  O   UNL     1      19.115  10.905  38.956  1.00  0.00    -0.388 OA
ATOM      9  H   UNL     1      20.077  10.894  39.205  1.00  0.00     0.211 HD
ENDBRANCH   1   8
TORSDOF 5
ENDMDL
MODEL 3
REMARK VINA RESULT:    -2.763     15.736     16.725
REMARK INTER + INTRA:          -3.544
REMARK INTER:                  -3.516
REMARK INTRA:                  -0.027
REMARK UNBOUND:                -0.216
REMARK SMILES OCC(O)CO
REMARK SMILES IDX 3 1 5 2 6 3 2 5 1 6 4 8
REMARK H PARENT 6 4 1 7 4 9
REMARK Flexibility Score: inf
ROOT
ATOM      1  C   UNL     1      12.548  18.174  23.083  1.00  0.00     0.165 C 
ENDROOT
BRANCH   1   2
ATOM      2  C   UNL     1      12.974  18.187  24.556  1.00  0.00     0.190 C 
BRANCH   2   3
ATOM      3  O   UNL     1      11.865  18.433  25.377  1.00  0.00    -0.394 OA
ATOM      4  H   UNL     1      11.247  18.997  24.844  1.00  0.00     0.210 HD
ENDBRANCH   2   3
ENDBRANCH   1   2
BRANCH   1   5
ATOM      5  C   UNL     1      13.335  19.201  22.249  1.00  0.00     0.190 C 
BRANCH   5   6
ATOM      6  O   UNL     1      14.304  19.853  23.027  1.00  0.00    -0.394 OA
ATOM      7  H   UNL     1      14.539  19.234  23.767  1.00  0.00     0.210 HD
ENDBRANCH   5   6
ENDBRANCH   1   5
BRANCH   1   8
ATOM      8  O   UNL     1      11.171  18.440  23.003  1.00  0.00    -0.388 OA
ATOM      9  H   UNL     1      11.071  19.279  22.482  1.00  0.00     0.211 HD
ENDBRANCH   1   8
TORSDOF 5
ENDMDL
MODEL 4
REMARK VINA RESULT:    -2.736      0.669      2.548
REMARK INTER + INTRA:          -3.512
REMARK INTER:                  -3.308
REMARK INTRA:                  -0.204
REMARK UNBOUND:                -0.216
REMARK SMILES OCC(O)CO
REMARK SMILES IDX 3 1 5 2 6 3 2 5 1 6 4 8
REMARK H PARENT 6 4 1 7 4 9
REMARK Flexibility Score: inf
ROOT
ATOM      1  C   UNL     1      18.900  12.354  37.191  1.00  0.00     0.165 C 
ENDROOT
BRANCH   1   2
ATOM      2  C   UNL     1      19.083  12.179  38.703  1.00  0.00     0.190 C 
BRANCH   2   3
ATOM      3  O   UNL     1      19.240  10.823  39.018  1.00  0.00    -0.394 OA
ATOM      4  H   UNL     1      18.577  10.626  39.729  1.00  0.00     0.210 HD
ENDBRANCH   2   3
ENDBRANCH   1   2
BRANCH   1   5
ATOM      5  C   UNL     1      17.490  11.936  36.732  1.00  0.00     0.190 C 
BRANCH   5   6
ATOM      6  O   UNL     1      17.171  10.646  37.180  1.00  0.00    -0.394 OA
ATOM      7  H   UNL     1      17.468  10.590  38.126  1.00  0.00     0.210 HD
ENDBRANCH   5   6
ENDBRANCH   1   5
BRANCH   1   8
ATOM      8  O   UNL     1      19.871  11.591  36.522  1.00  0.00    -0.388 OA
ATOM      9  H   UNL     1      20.199  12.144  35.766  1.00  0.00     0.211 HD
ENDBRANCH   1   8
TORSDOF 5
ENDMDL
MODEL 5
REMARK VINA RESULT:    -2.728     14.540     15.680
REMARK INTER + INTRA:          -3.502
REMARK INTER:                  -3.278
REMARK INTRA:                  -0.224
REMARK UNBOUND:                -0.216
REMARK SMILES OCC(O)CO
REMARK SMILES IDX 3 1 5 2 6 3 2 5 1 6 4 8
REMARK H PARENT 6 4 1 7 4 9
REMARK Flexibility Score: inf
ROOT
ATOM      1  C   UNL     1      18.196  13.205  21.337  1.00  0.00     0.165 C 
ENDROOT
BRANCH   1   2
ATOM      2  C   UNL     1      16.787  12.789  20.899  1.00  0.00     0.190 C 
BRANCH   2   3
ATOM      3  O   UNL     1      16.377  11.651  21.607  1.00  0.00    -0.394 OA
ATOM      4  H   UNL     1      16.329  11.923  22.560  1.00  0.00     0.210 HD
ENDBRANCH   2   3
ENDBRANCH   1   2
BRANCH   1   5
ATOM      5  C   UNL     1      18.501  12.768  22.782  1.00  0.00     0.190 C 
BRANCH   5   6
ATOM      6  O   UNL     1      19.024  11.467  22.820  1.00  0.00    -0.394 OA
ATOM      7  H   UNL     1      18.474  10.920  22.200  1.00  0.00     0.210 HD
ENDBRANCH   5   6
ENDBRANCH   1   5
BRANCH   1   8
ATOM      8  O   UNL     1      18.318  14.599  21.219  1.00  0.00    -0.388 OA
ATOM      9  H   UNL     1      17.481  14.992  21.579  1.00  0.00     0.211 HD
ENDBRANCH   1   8
TORSDOF 5
ENDMDL
MODEL 6
REMARK VINA RESULT:    -2.724     14.801     15.518
REMARK INTER + INTRA:          -3.497
REMARK INTER:                  -3.285
REMARK INTRA:                  -0.211
REMARK UNBOUND:                -0.216
REMARK SMILES OCC(O)CO
REMARK SMILES IDX 3 1 5 2 6 3 2 5 1 6 4 8
REMARK H PARENT 6 4 1 7 4 9
REMARK Flexibility Score: inf
ROOT
ATOM      1  C   UNL     1      18.166  13.548  22.145  1.00  0.00     0.165 C 
ENDROOT
BRANCH   1   2
ATOM      2  C   UNL     1      19.296  12.531  21.948  1.00  0.00     0.190 C 
BRANCH   2   3
ATOM      3  O   UNL     1      19.086  11.411  22.764  1.00  0.00    -0.394 OA
ATOM      4  H   UNL     1      19.120  10.623  22.163  1.00  0.00     0.210 HD
ENDBRANCH   2   3
ENDBRANCH   1   2
BRANCH   1   5
ATOM      5  C   UNL     1      16.812  12.859  22.399  1.00  0.00     0.190 C 
BRANCH   5   6
ATOM      6  O   UNL     1      16.606  11.799  21.505  1.00  0.00    -0.394 OA
ATOM      7  H   UNL     1      15.729  11.960  21.066  1.00  0.00     0.210 HD
ENDBRANCH   5   6
ENDBRANCH   1   5
BRANCH   1   8
ATOM      8  O   UNL     1      18.085  14.368  21.007  1.00  0.00    -0.388 OA
ATOM      9  H   UNL     1      17.859  13.775  20.243  1.00  0.00     0.211 HD
ENDBRANCH   1   8
TORSDOF 5
ENDMDL
MODEL 7
REMARK VINA RESULT:    -2.633     14.519     15.584
REMARK INTER + INTRA:          -3.387
REMARK INTER:                  -3.175
REMARK INTRA:                  -0.212
REMARK UNBOUND:                -0.216
REMARK SMILES OCC(O)CO
REMARK SMILES IDX 3 1 5 2 6 3 2 5 1 6 4 8
REMARK H PARENT 6 4 1 7 4 9
REMARK Flexibility Score: inf
ROOT
ATOM      1  C   UNL     1      16.724  12.920  21.920  1.00  0.00     0.165 C 
ENDROOT
BRANCH   1   2
ATOM      2  C   UNL     1      17.207  13.616  20.642  1.00  0.00     0.190 C 
BRANCH   2   3
ATOM      3  O   UNL     1      18.481  14.166  20.843  1.00  0.00    -0.394 OA
ATOM      4  H   UNL     1      18.697  14.017  21.800  1.00  0.00     0.210 HD
ENDBRANCH   2   3
ENDBRANCH   1   2
BRANCH   1   5
ATOM      5  C   UNL     1      17.842  12.814  22.974  1.00  0.00     0.190 C 
BRANCH   5   6
ATOM      6  O   UNL     1      18.704  11.744  22.694  1.00  0.00    -0.394 OA
ATOM      7  H   UNL     1      18.413  11.361  21.825  1.00  0.00     0.210 HD
ENDBRANCH   5   6
ENDBRANCH   1   5
BRANCH   1   8
ATOM      8  O   UNL     1      16.248  11.640  21.591  1.00  0.00    -0.388 OA
ATOM      9  H   UNL     1      16.912  10.989  21.939  1.00  0.00     0.211 HD
ENDBRANCH   1   8
TORSDOF 5
ENDMDL
MODEL 8
REMARK VINA RESULT:    -2.629     16.350     17.246
REMARK INTER + INTRA:          -3.383
REMARK INTER:                  -3.378
REMARK INTRA:                  -0.005
REMARK UNBOUND:                -0.216
REMARK SMILES OCC(O)CO
REMARK SMILES IDX 3 1 5 2 6 3 2 5 1 6 4 8
REMARK H PARENT 6 4 1 7 4 9
REMARK Flexibility Score: inf
ROOT
ATOM      1  C   UNL     1      10.475  11.805  21.875  1.00  0.00     0.165 C 
ENDROOT
BRANCH   1   2
ATOM      2  C   UNL     1      10.793  11.723  20.377  1.00  0.00     0.190 C 
BRANCH   2   3
ATOM      3  O   UNL     1      10.625  10.410  19.918  1.00  0.00    -0.394 OA
ATOM      4  H   UNL     1       9.776  10.086  20.316  1.00  0.00     0.210 HD
ENDBRANCH   2   3
ENDBRANCH   1   2
BRANCH   1   5
ATOM      5  C   UNL     1      11.589  12.523  22.660  1.00  0.00     0.190 C 
BRANCH   5   6
ATOM      6  O   UNL     1      12.252  11.639  23.524  1.00  0.00    -0.394 OA
ATOM      7  H   UNL     1      12.637  10.920  22.958  1.00  0.00     0.210 HD
ENDBRANCH   5   6
ENDBRANCH   1   5
BRANCH   1   8
ATOM      8  O   UNL     1      10.293  10.505  22.375  1.00  0.00    -0.388 OA
ATOM      9  H   UNL     1       9.534  10.108  21.872  1.00  0.00     0.211 HD
ENDBRANCH   1   8
TORSDOF 5
ENDMDL
MODEL 9
REMARK VINA RESULT:    -2.620     14.691     15.630
REMARK INTER + INTRA:          -3.372
REMARK INTER:                  -3.149
REMARK INTRA:                  -0.223
REMARK UNBOUND:                -0.216
REMARK SMILES OCC(O)CO
REMARK SMILES IDX 3 1 5 2 6 3 2 5 1 6 4 8
REMARK H PARENT 6 4 1 7 4 9
REMARK Flexibility Score: inf
ROOT
ATOM      1  C   UNL     1      17.829  12.967  22.730  1.00  0.00     0.165 C 
ENDROOT
BRANCH   1   2
ATOM      2  C   UNL     1      16.361  12.703  22.376  1.00  0.00     0.190 C 
BRANCH   2   3
ATOM      3  O   UNL     1      16.271  11.711  21.390  1.00  0.00    -0.394 OA
ATOM      4  H   UNL     1      16.550  12.141  20.541  1.00  0.00     0.210 HD
ENDBRANCH   2   3
ENDBRANCH   1   2
BRANCH   1   5
ATOM      5  C   UNL     1      18.448  14.057  21.835  1.00  0.00     0.190 C 
BRANCH   5   6
ATOM      6  O   UNL     1      17.791  14.132  20.598  1.00  0.00    -0.394 OA
ATOM      7  H   UNL     1      17.146  14.884  20.662  1.00  0.00     0.210 HD
ENDBRANCH   5   6
ENDBRANCH   1   5
BRANCH   1   8
ATOM      8  O   UNL     1      18.552  11.769  22.601  1.00  0.00    -0.388 OA
ATOM      9  H   UNL     1      18.573  11.349  23.501  1.00  0.00     0.211 HD
ENDBRANCH   1   8
TORSDOF 5
ENDMDL
