MODEL 1
REMARK VINA RESULT:    -3.644      0.000      0.000
REMARK INTER + INTRA:          -4.597
REMARK INTER:                  -4.603
REMARK INTRA:                   0.006
REMARK UNBOUND:                 0.006
REMARK SMILES CSCC[C@H]([NH3+])C(=O)[O-]
REMARK SMILES IDX 4 1 5 2 6 3 7 7 8 8 9 9 3 10 2 11 1 12
REMARK H PARENT 6 4 6 5 6 6
REMARK Flexibility Score: inf
ROOT
ATOM      1  C   UNL     1      63.201   1.884  -2.243  1.00  0.00     0.082 C 
ENDROOT
BRANCH   1   2
ATOM      2  C   UNL     1      64.746   1.848  -2.267  1.00  0.00     0.228 C 
BRANCH   2   3
ATOM      3  N   UNL     1      65.304   1.610  -0.929  1.00  0.00    -0.350 N 
ATOM      4  H   UNL     1      64.904   0.730  -0.529  1.00  0.00     0.345 HD
ATOM      5  H   UNL     1      65.047   2.393  -0.287  1.00  0.00     0.345 HD
ATOM      6  H   UNL     1      66.347   1.523  -0.971  1.00  0.00     0.345 HD
ENDBRANCH   2   3
BRANCH   2   7
ATOM      7  C   UNL     1      65.268   3.147  -2.821  1.00  0.00     0.099 C 
ATOM      8  O   UNL     1      65.984   3.152  -3.857  1.00  0.00    -0.544 OA
ATOM      9  O   UNL     1      64.949   4.350  -2.203  1.00  0.00    -0.544 OA
ENDBRANCH   2   7
ENDBRANCH   1   2
BRANCH   1  10
ATOM     10  C   UNL     1      62.605   2.502  -3.513  1.00  0.00     0.076 C 
BRANCH  10  11
ATOM     11  S   UNL     1      60.778   2.513  -3.429  1.00  0.00    -0.165 SA
ATOM     12  C   UNL     1      60.642   1.389  -2.002  1.00  0.00     0.085 C 
ENDBRANCH  10  11
ENDBRANCH   1  10
TORSDOF 5
ENDMDL
MODEL 2
REMARK VINA RESULT:    -3.449      3.149      4.223
REMARK INTER + INTRA:          -4.351
REMARK INTER:                  -4.221
REMARK INTRA:                  -0.130
REMARK UNBOUND:                 0.006
REMARK SMILES CSCC[C@H]([NH3+])C(=O)[O-]
REMARK SMILES IDX 4 1 5 2 6 3 7 7 8 8 9 9 3 10 2 11 1 12
REMARK H PARENT 6 4 6 5 6 6
REMARK Flexibility Score: inf
ROOT
ATOM      1  C   UNL     1      64.268   3.862  -3.040  1.00  0.00     0.082 C 
ENDROOT
BRANCH   1   2
ATOM      2  C   UNL     1      65.274   2.885  -2.392  1.00  0.00     0.228 C 
BRANCH   2   3
ATOM      3  N   UNL     1      66.339   2.502  -3.329  1.00  0.00    -0.350 N 
ATOM      4  H   UNL     1      65.945   2.404  -4.294  1.00  0.00     0.345 HD
ATOM      5  H   UNL     1      66.741   1.576  -3.059  1.00  0.00     0.345 HD
ATOM      6  H   UNL     1      67.100   3.221  -3.342  1.00  0.00     0.345 HD
ENDBRANCH   2   3
BRANCH   2   7
ATOM      7  C   UNL     1      64.544   1.660  -1.911  1.00  0.00     0.099 C 
ATOM      8  O   UNL     1      63.343   1.470  -2.236  1.00  0.00    -0.544 OA
ATOM      9  O   UNL     1      65.197   0.720  -1.121  1.00  0.00    -0.544 OA
ENDBRANCH   2   7
ENDBRANCH   1   2
BRANCH   1  10
ATOM     10  C   UNL     1      64.909   4.739  -4.121  1.00  0.00     0.076 C 
BRANCH  10  11
ATOM     11  S   UNL     1      65.332   6.387  -3.448  1.00  0.00    -0.165 SA
ATOM     12  C   UNL     1      67.122   6.274  -3.770  1.00  0.00     0.085 C 
ENDBRANCH  10  11
ENDBRANCH   1  10
TORSDOF 5
ENDMDL
MODEL 3
REMARK VINA RESULT:    -3.427      1.814      2.110
REMARK INTER + INTRA:          -4.323
REMARK INTER:                  -4.186
REMARK INTRA:                  -0.136
REMARK UNBOUND:                 0.006
REMARK SMILES CSCC[C@H]([NH3+])C(=O)[O-]
REMARK SMILES IDX 4 1 5 2 6 3 7 7 8 8 9 9 3 10 2 11 1 12
REMARK H PARENT 6 4 6 5 6 6
REMARK Flexibility Score: inf
ROOT
ATOM      1  C   UNL     1      65.189   2.656  -2.159  1.00  0.00     0.082 C 
ENDROOT
BRANCH   1   2
ATOM      2  C   UNL     1      65.562   3.253  -3.534  1.00  0.00     0.228 C 
BRANCH   2   3
ATOM      3  N   UNL     1      66.777   2.634  -4.083  1.00  0.00    -0.350 N 
ATOM      4  H   UNL     1      67.229   2.033  -3.356  1.00  0.00     0.345 HD
ATOM      5  H   UNL     1      67.466   3.372  -4.355  1.00  0.00     0.345 HD
ATOM      6  H   UNL     1      66.550   2.046  -4.919  1.00  0.00     0.345 HD
ENDBRANCH   2   3
BRANCH   2   7
ATOM      7  C   UNL     1      65.756   4.739  -3.399  1.00  0.00     0.099 C 
ATOM      8  O   UNL     1      66.730   5.305  -3.961  1.00  0.00    -0.544 OA
ATOM      9  O   UNL     1      64.850   5.500  -2.670  1.00  0.00    -0.544 OA
ENDBRANCH   2   7
ENDBRANCH   1   2
BRANCH   1  10
ATOM     10  C   UNL     1      63.959   1.744  -2.225  1.00  0.00     0.076 C 
BRANCH  10  11
ATOM     11  S   UNL     1      62.650   2.500  -3.255  1.00  0.00    -0.165 SA
ATOM     12  C   UNL     1      61.248   1.718  -2.394  1.00  0.00     0.085 C 
ENDBRANCH  10  11
ENDBRANCH   1  10
TORSDOF 5
ENDMDL
MODEL 4
REMARK VINA RESULT:    -3.407      4.947      6.165
REMARK INTER + INTRA:          -4.297
REMARK INTER:                  -4.222
REMARK INTRA:                  -0.075
REMARK UNBOUND:                 0.006
REMARK SMILES CSCC[C@H]([NH3+])C(=O)[O-]
REMARK SMILES IDX 4 1 5 2 6 3 7 7 8 8 9 9 3 10 2 11 1 12
REMARK H PARENT 6 4 6 5 6 6
REMARK Flexibility Score: inf
ROOT
ATOM      1  C   UNL     1      59.559   1.016  -1.249  1.00  0.00     0.082 C 
ENDROOT
BRANCH   1   2
ATOM      2  C   UNL     1      59.093  -0.320  -0.628  1.00  0.00     0.228 C 
BRANCH   2   3
ATOM      3  N   UNL     1      57.635  -0.479  -0.713  1.00  0.00    -0.350 N 
ATOM      4  H   UNL     1      57.238   0.229  -1.374  1.00  0.00     0.345 HD
ATOM      5  H   UNL     1      57.199  -0.315   0.222  1.00  0.00     0.345 HD
ATOM      6  H   UNL     1      57.384  -1.438  -1.050  1.00  0.00     0.345 HD
ENDBRANCH   2   3
BRANCH   2   7
ATOM      7  C   UNL     1      59.536  -0.387   0.809  1.00  0.00     0.099 C 
ATOM      8  O   UNL     1      60.325   0.480   1.269  1.00  0.00    -0.544 OA
ATOM      9  O   UNL     1      59.064  -1.394   1.642  1.00  0.00    -0.544 OA
ENDBRANCH   2   7
ENDBRANCH   1   2
BRANCH   1  10
ATOM     10  C   UNL     1      60.352   0.820  -2.545  1.00  0.00     0.076 C 
BRANCH  10  11
ATOM     11  S   UNL     1      61.895   1.802  -2.513  1.00  0.00    -0.165 SA
ATOM     12  C   UNL     1      61.494   2.842  -3.954  1.00  0.00     0.085 C 
ENDBRANCH  10  11
ENDBRANCH   1  10
TORSDOF 5
ENDMDL
MODEL 5
REMARK VINA RESULT:    -3.342      4.156      5.192
REMARK INTER + INTRA:          -4.215
REMARK INTER:                  -4.149
REMARK INTRA:                  -0.066
REMARK UNBOUND:                 0.006
REMARK SMILES CSCC[C@H]([NH3+])C(=O)[O-]
REMARK SMILES IDX 4 1 5 2 6 3 7 7 8 8 9 9 3 10 2 11 1 12
REMARK H PARENT 6 4 6 5 6 6
REMARK Flexibility Score: inf
ROOT
ATOM      1  C   UNL     1      61.561   1.671  -2.101  1.00  0.00     0.082 C 
ENDROOT
BRANCH   1   2
ATOM      2  C   UNL     1      60.232   0.902  -2.284  1.00  0.00     0.228 C 
BRANCH   2   3
ATOM      3  N   UNL     1      59.286   1.646  -3.126  1.00  0.00    -0.350 N 
ATOM      4  H   UNL     1      59.632   1.671  -4.113  1.00  0.00     0.345 HD
ATOM      5  H   UNL     1      59.209   2.635  -2.795  1.00  0.00     0.345 HD
ATOM      6  H   UNL     1      58.340   1.199  -3.107  1.00  0.00     0.345 HD
ENDBRANCH   2   3
BRANCH   2   7
ATOM      7  C   UNL     1      59.621   0.631  -0.935  1.00  0.00     0.099 C 
ATOM      8  O   UNL     1      58.491   0.083  -0.851  1.00  0.00    -0.544 OA
ATOM      9  O   UNL     1      60.307   0.967   0.225  1.00  0.00    -0.544 OA
ENDBRANCH   2   7
ENDBRANCH   1   2
BRANCH   1  10
ATOM     10  C   UNL     1      61.955   2.472  -3.347  1.00  0.00     0.076 C 
BRANCH  10  11
ATOM     11  S   UNL     1      63.708   2.985  -3.256  1.00  0.00    -0.165 SA
ATOM     12  C   UNL     1      64.235   1.675  -2.104  1.00  0.00     0.085 C 
ENDBRANCH  10  11
ENDBRANCH   1  10
TORSDOF 5
ENDMDL
MODEL 6
REMARK VINA RESULT:    -3.292      2.954      4.131
REMARK INTER + INTRA:          -4.152
REMARK INTER:                  -4.010
REMARK INTRA:                  -0.142
REMARK UNBOUND:                 0.006
REMARK SMILES CSCC[C@H]([NH3+])C(=O)[O-]
REMARK SMILES IDX 4 1 5 2 6 3 7 7 8 8 9 9 3 10 2 11 1 12
REMARK H PARENT 6 4 6 5 6 6
REMARK Flexibility Score: inf
ROOT
ATOM      1  C   UNL     1      65.635   3.351  -3.619  1.00  0.00     0.082 C 
ENDROOT
BRANCH   1   2
ATOM      2  C   UNL     1      64.621   3.192  -2.463  1.00  0.00     0.228 C 
BRANCH   2   3
ATOM      3  N   UNL     1      65.179   2.403  -1.356  1.00  0.00    -0.350 N 
ATOM      4  H   UNL     1      65.690   3.032  -0.694  1.00  0.00     0.345 HD
ATOM      5  H   UNL     1      65.867   1.705  -1.721  1.00  0.00     0.345 HD
ATOM      6  H   UNL     1      64.421   1.903  -0.836  1.00  0.00     0.345 HD
ENDBRANCH   2   3
BRANCH   2   7
ATOM      7  C   UNL     1      63.368   2.539  -2.982  1.00  0.00     0.099 C 
ATOM      8  O   UNL     1      62.931   2.828  -4.127  1.00  0.00    -0.544 OA
ATOM      9  O   UNL     1      62.696   1.600  -2.209  1.00  0.00    -0.544 OA
ENDBRANCH   2   7
ENDBRANCH   1   2
BRANCH   1  10
ATOM     10  C   UNL     1      66.188   4.776  -3.727  1.00  0.00     0.076 C 
BRANCH  10  11
ATOM     11  S   UNL     1      64.902   6.002  -3.291  1.00  0.00    -0.165 SA
ATOM     12  C   UNL     1      65.915   7.477  -3.637  1.00  0.00     0.085 C 
ENDBRANCH  10  11
ENDBRANCH   1  10
TORSDOF 5
ENDMDL
MODEL 7
REMARK VINA RESULT:    -3.267      7.948      8.689
REMARK INTER + INTRA:          -4.121
REMARK INTER:                  -3.987
REMARK INTRA:                  -0.134
REMARK UNBOUND:                 0.006
REMARK SMILES CSCC[C@H]([NH3+])C(=O)[O-]
REMARK SMILES IDX 4 1 5 2 6 3 7 7 8 8 9 9 3 10 2 11 1 12
REMARK H PARENT 6 4 6 5 6 6
REMARK Flexibility Score: inf
ROOT
ATOM      1  C   UNL     1      59.315  -1.744   0.879  1.00  0.00     0.082 C 
ENDROOT
BRANCH   1   2
ATOM      2  C   UNL     1      58.345  -1.904  -0.313  1.00  0.00     0.228 C 
BRANCH   2   3
ATOM      3  N   UNL     1      58.864  -1.260  -1.526  1.00  0.00    -0.350 N 
ATOM      4  H   UNL     1      58.929  -0.225  -1.379  1.00  0.00     0.345 HD
ATOM      5  H   UNL     1      58.215  -1.423  -2.328  1.00  0.00     0.345 HD
ATOM      6  H   UNL     1      59.814  -1.629  -1.767  1.00  0.00     0.345 HD
ENDBRANCH   2   3
BRANCH   2   7
ATOM      7  C   UNL     1      57.006  -1.320   0.050  1.00  0.00     0.099 C 
ATOM      8  O   UNL     1      56.903  -0.527   1.022  1.00  0.00    -0.544 OA
ATOM      9  O   UNL     1      55.878  -1.636  -0.698  1.00  0.00    -0.544 OA
ENDBRANCH   2   7
ENDBRANCH   1   2
BRANCH   1  10
ATOM     10  C   UNL     1      59.360  -2.987   1.775  1.00  0.00     0.076 C 
BRANCH  10  11
ATOM     11  S   UNL     1      59.174  -4.509   0.777  1.00  0.00    -0.165 SA
ATOM     12  C   UNL     1      60.628  -5.369   1.462  1.00  0.00     0.085 C 
ENDBRANCH  10  11
ENDBRANCH   1  10
TORSDOF 5
ENDMDL
MODEL 8
REMARK VINA RESULT:    -3.257      2.708      2.963
REMARK INTER + INTRA:          -4.109
REMARK INTER:                  -3.962
REMARK INTRA:                  -0.146
REMARK UNBOUND:                 0.006
REMARK SMILES CSCC[C@H]([NH3+])C(=O)[O-]
REMARK SMILES IDX 4 1 5 2 6 3 7 7 8 8 9 9 3 10 2 11 1 12
REMARK H PARENT 6 4 6 5 6 6
REMARK Flexibility Score: inf
ROOT
ATOM      1  C   UNL     1      64.191   3.633  -3.313  1.00  0.00     0.082 C 
ENDROOT
BRANCH   1   2
ATOM      2  C   UNL     1      65.215   2.821  -2.489  1.00  0.00     0.228 C 
BRANCH   2   3
ATOM      3  N   UNL     1      66.366   2.412  -3.305  1.00  0.00    -0.350 N 
ATOM      4  H   UNL     1      66.033   2.027  -4.220  1.00  0.00     0.345 HD
ATOM      5  H   UNL     1      66.901   1.655  -2.822  1.00  0.00     0.345 HD
ATOM      6  H   UNL     1      67.000   3.224  -3.488  1.00  0.00     0.345 HD
ENDBRANCH   2   3
BRANCH   2   7
ATOM      7  C   UNL     1      64.539   1.609  -1.905  1.00  0.00     0.099 C 
ATOM      8  O   UNL     1      65.185   0.818  -1.168  1.00  0.00    -0.544 OA
ATOM      9  O   UNL     1      63.195   1.365  -2.160  1.00  0.00    -0.544 OA
ENDBRANCH   2   7
ENDBRANCH   1   2
BRANCH   1  10
ATOM     10  C   UNL     1      64.696   3.965  -4.722  1.00  0.00     0.076 C 
BRANCH  10  11
ATOM     11  S   UNL     1      63.396   3.641  -5.967  1.00  0.00    -0.165 SA
ATOM     12  C   UNL     1      62.044   3.382  -4.774  1.00  0.00     0.085 C 
ENDBRANCH  10  11
ENDBRANCH   1  10
TORSDOF 5
ENDMDL
MODEL 9
REMARK VINA RESULT:    -3.145      3.728      4.430
REMARK INTER + INTRA:          -3.966
REMARK INTER:                  -3.870
REMARK INTRA:                  -0.097
REMARK UNBOUND:                 0.006
REMARK SMILES CSCC[C@H]([NH3+])C(=O)[O-]
REMARK SMILES IDX 4 1 5 2 6 3 7 7 8 8 9 9 3 10 2 11 1 12
REMARK H PARENT 6 4 6 5 6 6
REMARK Flexibility Score: inf
ROOT
ATOM      1  C   UNL     1      60.184   1.067  -1.350  1.00  0.00     0.082 C 
ENDROOT
BRANCH   1   2
ATOM      2  C   UNL     1      60.205   1.957  -2.614  1.00  0.00     0.228 C 
BRANCH   2   3
ATOM      3  N   UNL     1      59.478   1.333  -3.728  1.00  0.00    -0.350 N 
ATOM      4  H   UNL     1      60.041   0.544  -4.123  1.00  0.00     0.345 HD
ATOM      5  H   UNL     1      59.329   2.027  -4.495  1.00  0.00     0.345 HD
ATOM      6  H   UNL     1      58.552   0.964  -3.409  1.00  0.00     0.345 HD
ENDBRANCH   2   3
BRANCH   2   7
ATOM      7  C   UNL     1      61.631   2.225  -3.014  1.00  0.00     0.099 C 
ATOM      8  O   UNL     1      61.882   2.911  -4.040  1.00  0.00    -0.544 OA
ATOM      9  O   UNL     1      62.679   1.735  -2.244  1.00  0.00    -0.544 OA
ENDBRANCH   2   7
ENDBRANCH   1   2
BRANCH   1  10
ATOM     10  C   UNL     1      59.323  -0.188  -1.526  1.00  0.00     0.076 C 
BRANCH  10  11
ATOM     11  S   UNL     1      58.136  -0.356  -0.145  1.00  0.00    -0.165 SA
ATOM     12  C   UNL     1      59.131   0.559   1.078  1.00  0.00     0.085 C 
ENDBRANCH  10  11
ENDBRANCH   1  10
TORSDOF 5
ENDMDL
