MODEL 1
REMARK VINA RESULT:    -4.394      0.000      0.000
REMARK INTER + INTRA:          -5.282
REMARK INTER:                  -5.165
REMARK INTRA:                  -0.117
REMARK UNBOUND:                -0.117
REMARK SMILES O=C([O-])CCC(=O)[O-]
REMARK SMILES IDX 4 1 2 2 1 3 3 4 5 5 6 6 7 7 8 8
REMARK H PARENT
REMARK Flexibility Score: inf
ROOT
ATOM      1  C   UNL     1      -8.363  -3.810  -9.743  1.00  0.00     0.059 C 
ENDROOT
BRANCH   1   2
ATOM      2  C   UNL     1      -8.374  -5.147  -9.068  1.00  0.00     0.042 C 
ATOM      3  O   UNL     1      -8.745  -5.246  -7.869  1.00  0.00    -0.550 OA
ATOM      4  O   UNL     1      -7.939  -6.276  -9.751  1.00  0.00    -0.550 OA
ENDBRANCH   1   2
BRANCH   1   5
ATOM      5  C   UNL     1      -9.001  -2.727  -8.865  1.00  0.00     0.059 C 
BRANCH   5   6
ATOM      6  C   UNL     1     -10.415  -2.448  -9.273  1.00  0.00     0.042 C 
ATOM      7  O   UNL     1     -10.654  -1.682 -10.243  1.00  0.00    -0.550 OA
ATOM      8  O   UNL     1     -11.466  -3.066  -8.608  1.00  0.00    -0.550 OA
ENDBRANCH   5   6
ENDBRANCH   1   5
TORSDOF 3
ENDMDL
MODEL 2
REMARK VINA RESULT:    -4.378      0.158      3.837
REMARK INTER + INTRA:          -5.263
REMARK INTER:                  -5.157
REMARK INTRA:                  -0.106
REMARK UNBOUND:                -0.117
REMARK SMILES O=C([O-])CCC(=O)[O-]
REMARK SMILES IDX 4 1 2 2 1 3 3 4 5 5 6 6 7 7 8 8
REMARK H PARENT
REMARK Flexibility Score: inf
ROOT
ATOM      1  C   UNL     1      -9.062  -2.657  -8.745  1.00  0.00     0.059 C 
ENDROOT
BRANCH   1   2
ATOM      2  C   UNL     1     -10.497  -2.496  -9.145  1.00  0.00     0.042 C 
ATOM      3  O   UNL     1     -10.806  -1.735 -10.099  1.00  0.00    -0.550 OA
ATOM      4  O   UNL     1     -11.495  -3.156  -8.438  1.00  0.00    -0.550 OA
ENDBRANCH   1   2
BRANCH   1   5
ATOM      5  C   UNL     1      -8.338  -3.672  -9.637  1.00  0.00     0.059 C 
BRANCH   5   6
ATOM      6  C   UNL     1      -8.362  -5.046  -9.040  1.00  0.00     0.042 C 
ATOM      7  O   UNL     1      -8.792  -5.221  -7.870  1.00  0.00    -0.550 OA
ATOM      8  O   UNL     1      -7.947  -6.138  -9.792  1.00  0.00    -0.550 OA
ENDBRANCH   5   6
ENDBRANCH   1   5
TORSDOF 3
ENDMDL
MODEL 3
REMARK VINA RESULT:    -4.206     10.904     12.986
REMARK INTER + INTRA:          -5.061
REMARK INTER:                  -5.026
REMARK INTRA:                  -0.035
REMARK UNBOUND:                -0.117
REMARK SMILES O=C([O-])CCC(=O)[O-]
REMARK SMILES IDX 4 1 2 2 1 3 3 4 5 5 6 6 7 7 8 8
REMARK H PARENT
REMARK Flexibility Score: inf
ROOT
ATOM      1  C   UNL     1      -7.244 -14.633  -4.499  1.00  0.00     0.059 C 
ENDROOT
BRANCH   1   2
ATOM      2  C   UNL     1      -7.351 -13.206  -4.941  1.00  0.00     0.042 C 
ATOM      3  O   UNL     1      -6.450 -12.380  -4.638  1.00  0.00    -0.550 OA
ATOM      4  O   UNL     1      -8.465 -12.779  -5.654  1.00  0.00    -0.550 OA
ENDBRANCH   1   2
BRANCH   1   5
ATOM      5  C   UNL     1      -6.620 -14.747  -3.104  1.00  0.00     0.059 C 
BRANCH   5   6
ATOM      6  C   UNL     1      -6.407 -16.176  -2.709  1.00  0.00     0.042 C 
ATOM      7  O   UNL     1      -7.189 -17.071  -3.124  1.00  0.00    -0.550 OA
ATOM      8  O   UNL     1      -5.321 -16.525  -1.917  1.00  0.00    -0.550 OA
ENDBRANCH   5   6
ENDBRANCH   1   5
TORSDOF 3
ENDMDL
MODEL 4
REMARK VINA RESULT:    -4.201     10.893     12.507
REMARK INTER + INTRA:          -5.055
REMARK INTER:                  -5.020
REMARK INTRA:                  -0.035
REMARK UNBOUND:                -0.117
REMARK SMILES O=C([O-])CCC(=O)[O-]
REMARK SMILES IDX 4 1 2 2 1 3 3 4 5 5 6 6 7 7 8 8
REMARK H PARENT
REMARK Flexibility Score: inf
ROOT
ATOM      1  C   UNL     1      -6.503 -14.713  -3.134  1.00  0.00     0.059 C 
ENDROOT
BRANCH   1   2
ATOM      2  C   UNL     1      -6.361 -16.136  -2.688  1.00  0.00     0.042 C 
ATOM      3  O   UNL     1      -7.204 -16.999  -3.048  1.00  0.00    -0.550 OA
ATOM      4  O   UNL     1      -5.320 -16.500  -1.843  1.00  0.00    -0.550 OA
ENDBRANCH   1   2
BRANCH   1   5
ATOM      5  C   UNL     1      -7.215 -14.614  -4.488  1.00  0.00     0.059 C 
BRANCH   5   6
ATOM      6  C   UNL     1      -7.351 -13.191  -4.938  1.00  0.00     0.042 C 
ATOM      7  O   UNL     1      -6.433 -12.363  -4.702  1.00  0.00    -0.550 OA
ATOM      8  O   UNL     1      -8.472 -12.792  -5.652  1.00  0.00    -0.550 OA
ENDBRANCH   5   6
ENDBRANCH   1   5
TORSDOF 3
ENDMDL
MODEL 5
REMARK VINA RESULT:    -4.169     10.577     12.244
REMARK INTER + INTRA:          -5.018
REMARK INTER:                  -4.970
REMARK INTRA:                  -0.048
REMARK UNBOUND:                -0.117
REMARK SMILES O=C([O-])CCC(=O)[O-]
REMARK SMILES IDX 4 1 2 2 1 3 3 4 5 5 6 6 7 7 8 8
REMARK H PARENT
REMARK Flexibility Score: inf
ROOT
ATOM      1  C   UNL     1      -7.299 -15.503  -4.255  1.00  0.00     0.059 C 
ENDROOT
BRANCH   1   2
ATOM      2  C   UNL     1      -6.115 -16.420  -4.195  1.00  0.00     0.042 C 
ATOM      3  O   UNL     1      -5.380 -16.437  -3.173  1.00  0.00    -0.550 OA
ATOM      4  O   UNL     1      -5.803 -17.225  -5.283  1.00  0.00    -0.550 OA
ENDBRANCH   1   2
BRANCH   1   5
ATOM      5  C   UNL     1      -7.333 -14.710  -5.566  1.00  0.00     0.059 C 
BRANCH   5   6
ATOM      6  C   UNL     1      -7.550 -13.248  -5.321  1.00  0.00     0.042 C 
ATOM      7  O   UNL     1      -8.600 -12.686  -5.729  1.00  0.00    -0.550 OA
ATOM      8  O   UNL     1      -6.611 -12.516  -4.607  1.00  0.00    -0.550 OA
ENDBRANCH   5   6
ENDBRANCH   1   5
TORSDOF 3
ENDMDL
MODEL 6
REMARK VINA RESULT:    -4.156     10.568     12.773
REMARK INTER + INTRA:          -5.002
REMARK INTER:                  -4.955
REMARK INTRA:                  -0.047
REMARK UNBOUND:                -0.117
REMARK SMILES O=C([O-])CCC(=O)[O-]
REMARK SMILES IDX 4 1 2 2 1 3 3 4 5 5 6 6 7 7 8 8
REMARK H PARENT
REMARK Flexibility Score: inf
ROOT
ATOM      1  C   UNL     1      -7.276 -14.683  -5.644  1.00  0.00     0.059 C 
ENDROOT
BRANCH   1   2
ATOM      2  C   UNL     1      -7.534 -13.243  -5.319  1.00  0.00     0.042 C 
ATOM      3  O   UNL     1      -8.589 -12.684  -5.718  1.00  0.00    -0.550 OA
ATOM      4  O   UNL     1      -6.591 -12.509  -4.611  1.00  0.00    -0.550 OA
ENDBRANCH   1   2
BRANCH   1   5
ATOM      5  C   UNL     1      -7.333 -15.564  -4.390  1.00  0.00     0.059 C 
BRANCH   5   6
ATOM      6  C   UNL     1      -6.127 -16.445  -4.279  1.00  0.00     0.042 C 
ATOM      7  O   UNL     1      -5.809 -17.205  -5.231  1.00  0.00    -0.550 OA
ATOM      8  O   UNL     1      -5.333 -16.397  -3.141  1.00  0.00    -0.550 OA
ENDBRANCH   5   6
ENDBRANCH   1   5
TORSDOF 3
ENDMDL
MODEL 7
REMARK VINA RESULT:    -4.153      1.469      1.942
REMARK INTER + INTRA:          -4.999
REMARK INTER:                  -4.895
REMARK INTRA:                  -0.104
REMARK UNBOUND:                -0.117
REMARK SMILES O=C([O-])CCC(=O)[O-]
REMARK SMILES IDX 4 1 2 2 1 3 3 4 5 5 6 6 7 7 8 8
REMARK H PARENT
REMARK Flexibility Score: inf
ROOT
ATOM      1  C   UNL     1      -9.450  -3.033  -9.615  1.00  0.00     0.059 C 
ENDROOT
BRANCH   1   2
ATOM      2  C   UNL     1      -8.568  -3.539  -8.515  1.00  0.00     0.042 C 
ATOM      3  O   UNL     1      -8.763  -4.681  -8.023  1.00  0.00    -0.550 OA
ATOM      4  O   UNL     1      -7.557  -2.733  -8.006  1.00  0.00    -0.550 OA
ENDBRANCH   1   2
BRANCH   1   5
ATOM      5  C   UNL     1     -10.305  -1.847  -9.154  1.00  0.00     0.059 C 
BRANCH   5   6
ATOM      6  C   UNL     1     -11.742  -2.236  -8.986  1.00  0.00     0.042 C 
ATOM      7  O   UNL     1     -12.630  -1.708  -9.705  1.00  0.00    -0.550 OA
ATOM      8  O   UNL     1     -12.095  -3.212  -8.063  1.00  0.00    -0.550 OA
ENDBRANCH   5   6
ENDBRANCH   1   5
TORSDOF 3
ENDMDL
MODEL 8
REMARK VINA RESULT:    -4.129      1.466      3.944
REMARK INTER + INTRA:          -4.971
REMARK INTER:                  -4.899
REMARK INTRA:                  -0.072
REMARK UNBOUND:                -0.117
REMARK SMILES O=C([O-])CCC(=O)[O-]
REMARK SMILES IDX 4 1 2 2 1 3 3 4 5 5 6 6 7 7 8 8
REMARK H PARENT
REMARK Flexibility Score: inf
ROOT
ATOM      1  C   UNL     1     -10.032  -1.929  -9.204  1.00  0.00     0.059 C 
ENDROOT
BRANCH   1   2
ATOM      2  C   UNL     1     -11.480  -2.235  -8.967  1.00  0.00     0.042 C 
ATOM      3  O   UNL     1     -12.371  -1.489  -9.450  1.00  0.00    -0.550 OA
ATOM      4  O   UNL     1     -11.842  -3.322  -8.181  1.00  0.00    -0.550 OA
ENDBRANCH   1   2
BRANCH   1   5
ATOM      5  C   UNL     1      -9.272  -3.157  -9.717  1.00  0.00     0.059 C 
BRANCH   5   6
ATOM      6  C   UNL     1      -8.231  -3.610  -8.740  1.00  0.00     0.042 C 
ATOM      7  O   UNL     1      -8.010  -4.838  -8.575  1.00  0.00    -0.550 OA
ATOM      8  O   UNL     1      -7.478  -2.675  -8.043  1.00  0.00    -0.550 OA
ENDBRANCH   5   6
ENDBRANCH   1   5
TORSDOF 3
ENDMDL
MODEL 9
REMARK VINA RESULT:    -4.081     10.338     12.378
REMARK INTER + INTRA:          -4.914
REMARK INTER:                  -4.827
REMARK INTRA:                  -0.087
REMARK UNBOUND:                -0.117
REMARK SMILES O=C([O-])CCC(=O)[O-]
REMARK SMILES IDX 4 1 2 2 1 3 3 4 5 5 6 6 7 7 8 8
REMARK H PARENT
REMARK Flexibility Score: inf
ROOT
ATOM      1  C   UNL     1      -8.433 -14.685  -5.609  1.00  0.00     0.059 C 
ENDROOT
BRANCH   1   2
ATOM      2  C   UNL     1      -8.349 -13.191  -5.539  1.00  0.00     0.042 C 
ATOM      3  O   UNL     1      -7.574 -12.639  -4.714  1.00  0.00    -0.550 OA
ATOM      4  O   UNL     1      -9.156 -12.409  -6.356  1.00  0.00    -0.550 OA
ENDBRANCH   1   2
BRANCH   1   5
ATOM      5  C   UNL     1      -7.182 -15.350  -5.022  1.00  0.00     0.059 C 
BRANCH   5   6
ATOM      6  C   UNL     1      -7.464 -15.976  -3.691  1.00  0.00     0.042 C 
ATOM      7  O   UNL     1      -8.292 -16.920  -3.597  1.00  0.00    -0.550 OA
ATOM      8  O   UNL     1      -6.780 -15.546  -2.561  1.00  0.00    -0.550 OA
ENDBRANCH   5   6
ENDBRANCH   1   5
TORSDOF 3
ENDMDL
