MODEL 1
REMARK VINA RESULT:    -5.710      0.000      0.000
REMARK INTER + INTRA:          -7.962
REMARK INTER:                  -7.212
REMARK INTRA:                  -0.751
REMARK UNBOUND:                -0.751
REMARK SMILES O=C(C=Cc1ccc(O)cc1)c1ccc(O)cc1O
REMARK SMILES IDX 4 1 3 2 5 3 6 4 7 5 8 6 11 7 10 8 9 9 2 11 1 12 12 13 18 14
REMARK SMILES IDX 13 15 17 16 14 17 15 18 19 19 16 21
REMARK H PARENT 9 10 19 20 16 22
REMARK Flexibility Score: inf
ROOT
ATOM      1  C   UNL     1      -6.141  -5.022   0.602  1.00  0.00     0.012 C 
ATOM      2  C   UNL     1      -5.627  -5.185   1.830  1.00  0.00     0.053 C 
ENDROOT
BRANCH   1   3
ATOM      3  C   UNL     1      -7.586  -4.830   0.335  1.00  0.00    -0.025 A 
ATOM      4  C   UNL     1      -7.972  -3.905  -0.650  1.00  0.00     0.012 A 
ATOM      5  C   UNL     1      -9.324  -3.699  -0.943  1.00  0.00     0.047 A 
ATOM      6  C   UNL     1     -10.309  -4.422  -0.265  1.00  0.00     0.115 A 
ATOM      7  C   UNL     1      -8.586  -5.566   1.003  1.00  0.00     0.012 A 
ATOM      8  C   UNL     1      -9.936  -5.358   0.706  1.00  0.00     0.047 A 
BRANCH   6   9
ATOM      9  O   UNL     1     -11.651  -4.207  -0.568  1.00  0.00    -0.508 OA
ATOM     10  H   UNL     1     -12.122  -3.349  -0.305  1.00  0.00     0.293 HD
ENDBRANCH   6   9
ENDBRANCH   1   3
BRANCH   2  11
ATOM     11  C   UNL     1      -4.176  -5.358   2.061  1.00  0.00     0.189 C 
ATOM     12  O   UNL     1      -3.766  -6.276   2.822  1.00  0.00    -0.289 OA
BRANCH  11  13
ATOM     13  C   UNL     1      -3.185  -4.499   1.371  1.00  0.00     0.064 A 
ATOM     14  C   UNL     1      -2.325  -5.008   0.372  1.00  0.00     0.130 A 
ATOM     15  C   UNL     1      -3.116  -3.135   1.702  1.00  0.00     0.020 A 
ATOM     16  C   UNL     1      -1.392  -4.160  -0.245  1.00  0.00     0.093 A 
ATOM     17  C   UNL     1      -2.188  -2.297   1.078  1.00  0.00     0.047 A 
ATOM     18  C   UNL     1      -1.322  -2.807   0.107  1.00  0.00     0.119 A 
BRANCH  14  19
ATOM     19  O   UNL     1      -2.413  -6.342  -0.030  1.00  0.00    -0.507 OA
ATOM     20  H   UNL     1      -3.302  -6.771  -0.256  1.00  0.00     0.293 HD
ENDBRANCH  14  19
BRANCH  18  21
ATOM     21  O   UNL     1      -0.398  -1.961  -0.502  1.00  0.00    -0.508 OA
ATOM     22  H   UNL     1      -0.665  -1.338  -1.254  1.00  0.00     0.293 HD
ENDBRANCH  18  21
ENDBRANCH  11  13
ENDBRANCH   2  11
TORSDOF 6
ENDMDL
MODEL 2
REMARK VINA RESULT:    -5.568      2.039      2.741
REMARK INTER + INTRA:          -7.783
REMARK INTER:                  -7.157
REMARK INTRA:                  -0.627
REMARK UNBOUND:                -0.751
REMARK SMILES O=C(C=Cc1ccc(O)cc1)c1ccc(O)cc1O
REMARK SMILES IDX 4 1 3 2 5 3 6 4 7 5 8 6 11 7 10 8 9 9 2 11 1 12 12 13 18 14
REMARK SMILES IDX 13 15 17 16 14 17 15 18 19 19 16 21
REMARK H PARENT 9 10 19 20 16 22
REMARK Flexibility Score: inf
ROOT
ATOM      1  C   UNL     1      -6.087  -3.281   0.729  1.00  0.00     0.012 C 
ATOM      2  C   UNL     1      -4.992  -3.696   1.382  1.00  0.00     0.053 C 
ENDROOT
BRANCH   1   3
ATOM      3  C   UNL     1      -7.230  -4.164   0.396  1.00  0.00    -0.025 A 
ATOM      4  C   UNL     1      -7.426  -5.329   1.158  1.00  0.00     0.012 A 
ATOM      5  C   UNL     1      -8.497  -6.185   0.886  1.00  0.00     0.047 A 
ATOM      6  C   UNL     1      -9.394  -5.885  -0.143  1.00  0.00     0.115 A 
ATOM      7  C   UNL     1      -8.149  -3.861  -0.630  1.00  0.00     0.012 A 
ATOM      8  C   UNL     1      -9.219  -4.720  -0.898  1.00  0.00     0.047 A 
BRANCH   6   9
ATOM      9  O   UNL     1     -10.457  -6.748  -0.402  1.00  0.00    -0.508 OA
ATOM     10  H   UNL     1     -11.415  -6.483  -0.206  1.00  0.00     0.293 HD
ENDBRANCH   6   9
ENDBRANCH   1   3
BRANCH   2  11
ATOM     11  C   UNL     1      -3.877  -2.780   1.712  1.00  0.00     0.189 C 
ATOM     12  O   UNL     1      -4.123  -1.621   2.143  1.00  0.00    -0.289 OA
BRANCH  11  13
ATOM     13  C   UNL     1      -2.467  -3.219   1.593  1.00  0.00     0.064 A 
ATOM     14  C   UNL     1      -1.521  -2.494   0.835  1.00  0.00     0.130 A 
ATOM     15  C   UNL     1      -2.052  -4.376   2.276  1.00  0.00     0.020 A 
ATOM     16  C   UNL     1      -0.200  -2.956   0.739  1.00  0.00     0.093 A 
ATOM     17  C   UNL     1      -0.733  -4.825   2.179  1.00  0.00     0.047 A 
ATOM     18  C   UNL     1       0.195  -4.120   1.409  1.00  0.00     0.119 A 
BRANCH  14  19
ATOM     19  O   UNL     1      -1.882  -1.304   0.200  1.00  0.00    -0.507 OA
ATOM     20  H   UNL     1      -1.202  -0.579   0.004  1.00  0.00     0.293 HD
ENDBRANCH  14  19
BRANCH  18  21
ATOM     21  O   UNL     1       1.506  -4.583   1.318  1.00  0.00    -0.508 OA
ATOM     22  H   UNL     1       2.021  -4.548   0.447  1.00  0.00     0.293 HD
ENDBRANCH  18  21
ENDBRANCH  11  13
ENDBRANCH   2  11
TORSDOF 6
ENDMDL
MODEL 3
REMARK VINA RESULT:    -5.500      1.668      7.313
REMARK INTER + INTRA:          -7.698
REMARK INTER:                  -7.235
REMARK INTRA:                  -0.462
REMARK UNBOUND:                -0.751
REMARK SMILES O=C(C=Cc1ccc(O)cc1)c1ccc(O)cc1O
REMARK SMILES IDX 4 1 3 2 5 3 6 4 7 5 8 6 11 7 10 8 9 9 2 11 1 12 12 13 18 14
REMARK SMILES IDX 13 15 17 16 14 17 15 18 19 19 16 21
REMARK H PARENT 9 10 19 20 16 22
REMARK Flexibility Score: inf
ROOT
ATOM      1  C   UNL     1      -4.604  -4.480   2.119  1.00  0.00     0.012 C 
ATOM      2  C   UNL     1      -5.354  -5.141   1.226  1.00  0.00     0.053 C 
ENDROOT
BRANCH   1   3
ATOM      3  C   UNL     1      -3.263  -3.925   1.816  1.00  0.00    -0.025 A 
ATOM      4  C   UNL     1      -2.131  -4.715   2.077  1.00  0.00     0.012 A 
ATOM      5  C   UNL     1      -0.848  -4.235   1.796  1.00  0.00     0.047 A 
ATOM      6  C   UNL     1      -0.677  -2.965   1.241  1.00  0.00     0.115 A 
ATOM      7  C   UNL     1      -3.083  -2.649   1.241  1.00  0.00     0.012 A 
ATOM      8  C   UNL     1      -1.798  -2.174   0.962  1.00  0.00     0.047 A 
BRANCH   6   9
ATOM      9  O   UNL     1       0.607  -2.500   0.967  1.00  0.00    -0.508 OA
ATOM     10  H   UNL     1       1.222  -2.990   0.328  1.00  0.00     0.293 HD
ENDBRANCH   6   9
ENDBRANCH   1   3
BRANCH   2  11
ATOM     11  C   UNL     1      -6.696  -5.667   1.560  1.00  0.00     0.189 C 
ATOM     12  O   UNL     1      -6.834  -6.471   2.522  1.00  0.00    -0.289 OA
BRANCH  11  13
ATOM     13  C   UNL     1      -7.898  -5.227   0.813  1.00  0.00     0.064 A 
ATOM     14  C   UNL     1      -9.164  -5.815   1.025  1.00  0.00     0.130 A 
ATOM     15  C   UNL     1      -7.778  -4.177  -0.114  1.00  0.00     0.020 A 
ATOM     16  C   UNL     1     -10.272  -5.375   0.284  1.00  0.00     0.093 A 
ATOM     17  C   UNL     1      -8.888  -3.741  -0.842  1.00  0.00     0.047 A 
ATOM     18  C   UNL     1     -10.135  -4.340  -0.649  1.00  0.00     0.119 A 
BRANCH  14  19
ATOM     19  O   UNL     1      -9.333  -6.813   1.987  1.00  0.00    -0.507 OA
ATOM     20  H   UNL     1      -9.971  -6.700   2.765  1.00  0.00     0.293 HD
ENDBRANCH  14  19
BRANCH  18  21
ATOM     21  O   UNL     1     -11.232  -3.899  -1.386  1.00  0.00    -0.508 OA
ATOM     22  H   UNL     1     -11.346  -4.142  -2.363  1.00  0.00     0.293 HD
ENDBRANCH  18  21
ENDBRANCH  11  13
ENDBRANCH   2  11
TORSDOF 6
ENDMDL
MODEL 4
REMARK VINA RESULT:    -5.463      0.935      1.971
REMARK INTER + INTRA:          -7.650
REMARK INTER:                  -7.094
REMARK INTRA:                  -0.557
REMARK UNBOUND:                -0.751
REMARK SMILES O=C(C=Cc1ccc(O)cc1)c1ccc(O)cc1O
REMARK SMILES IDX 4 1 3 2 5 3 6 4 7 5 8 6 11 7 10 8 9 9 2 11 1 12 12 13 18 14
REMARK SMILES IDX 13 15 17 16 14 17 15 18 19 19 16 21
REMARK H PARENT 9 10 19 20 16 22
REMARK Flexibility Score: inf
ROOT
ATOM      1  C   UNL     1      -6.168  -4.585   0.778  1.00  0.00     0.012 C 
ATOM      2  C   UNL     1      -5.680  -5.308   1.797  1.00  0.00     0.053 C 
ENDROOT
BRANCH   1   3
ATOM      3  C   UNL     1      -7.588  -4.617   0.355  1.00  0.00    -0.025 A 
ATOM      4  C   UNL     1      -8.469  -5.493   1.012  1.00  0.00     0.012 A 
ATOM      5  C   UNL     1      -9.819  -5.548   0.652  1.00  0.00     0.047 A 
ATOM      6  C   UNL     1     -10.312  -4.721  -0.361  1.00  0.00     0.115 A 
ATOM      7  C   UNL     1      -8.097  -3.775  -0.656  1.00  0.00     0.012 A 
ATOM      8  C   UNL     1      -9.448  -3.833  -1.012  1.00  0.00     0.047 A 
BRANCH   6   9
ATOM      9  O   UNL     1     -11.659  -4.787  -0.709  1.00  0.00    -0.508 OA
ATOM     10  H   UNL     1     -12.189  -5.646  -0.615  1.00  0.00     0.293 HD
ENDBRANCH   6   9
ENDBRANCH   1   3
BRANCH   2  11
ATOM     11  C   UNL     1      -4.258  -5.238   2.202  1.00  0.00     0.189 C 
ATOM     12  O   UNL     1      -3.840  -5.956   3.151  1.00  0.00    -0.289 OA
BRANCH  11  13
ATOM     13  C   UNL     1      -3.299  -4.372   1.478  1.00  0.00     0.064 A 
ATOM     14  C   UNL     1      -3.217  -2.983   1.721  1.00  0.00     0.130 A 
ATOM     15  C   UNL     1      -2.427  -4.954   0.541  1.00  0.00     0.020 A 
ATOM     16  C   UNL     1      -2.302  -2.200   1.001  1.00  0.00     0.093 A 
ATOM     17  C   UNL     1      -1.515  -4.167  -0.167  1.00  0.00     0.047 A 
ATOM     18  C   UNL     1      -1.453  -2.790   0.057  1.00  0.00     0.119 A 
BRANCH  14  19
ATOM     19  O   UNL     1      -4.020  -2.384   2.694  1.00  0.00    -0.507 OA
ATOM     20  H   UNL     1      -4.145  -2.798   3.609  1.00  0.00     0.293 HD
ENDBRANCH  14  19
BRANCH  18  21
ATOM     21  O   UNL     1      -0.542  -2.017  -0.660  1.00  0.00    -0.508 OA
ATOM     22  H   UNL     1      -0.105  -2.362  -1.506  1.00  0.00     0.293 HD
ENDBRANCH  18  21
ENDBRANCH  11  13
ENDBRANCH   2  11
TORSDOF 6
ENDMDL
MODEL 5
REMARK VINA RESULT:    -5.365      1.921      2.345
REMARK INTER + INTRA:          -7.527
REMARK INTER:                  -7.084
REMARK INTRA:                  -0.443
REMARK UNBOUND:                -0.751
REMARK SMILES O=C(C=Cc1ccc(O)cc1)c1ccc(O)cc1O
REMARK SMILES IDX 4 1 3 2 5 3 6 4 7 5 8 6 11 7 10 8 9 9 2 11 1 12 12 13 18 14
REMARK SMILES IDX 13 15 17 16 14 17 15 18 19 19 16 21
REMARK H PARENT 9 10 19 20 16 22
REMARK Flexibility Score: inf
ROOT
ATOM      1  C   UNL     1      -5.731  -4.058   1.163  1.00  0.00     0.012 C 
ATOM      2  C   UNL     1      -5.411  -2.758   1.248  1.00  0.00     0.053 C 
ENDROOT
BRANCH   1   3
ATOM      3  C   UNL     1      -6.905  -4.569   0.415  1.00  0.00    -0.025 A 
ATOM      4  C   UNL     1      -7.725  -3.650  -0.262  1.00  0.00     0.012 A 
ATOM      5  C   UNL     1      -8.836  -4.088  -0.988  1.00  0.00     0.047 A 
ATOM      6  C   UNL     1      -9.138  -5.451  -1.059  1.00  0.00     0.115 A 
ATOM      7  C   UNL     1      -7.208  -5.943   0.326  1.00  0.00     0.012 A 
ATOM      8  C   UNL     1      -8.320  -6.377  -0.402  1.00  0.00     0.047 A 
BRANCH   6   9
ATOM      9  O   UNL     1     -10.249  -5.873  -1.786  1.00  0.00    -0.508 OA
ATOM     10  H   UNL     1     -10.301  -5.753  -2.791  1.00  0.00     0.293 HD
ENDBRANCH   6   9
ENDBRANCH   1   3
BRANCH   2  11
ATOM     11  C   UNL     1      -4.221  -2.286   1.990  1.00  0.00     0.189 C 
ATOM     12  O   UNL     1      -4.350  -1.420   2.897  1.00  0.00    -0.289 OA
BRANCH  11  13
ATOM     13  C   UNL     1      -2.879  -2.852   1.721  1.00  0.00     0.064 A 
ATOM     14  C   UNL     1      -2.424  -4.028   2.358  1.00  0.00     0.130 A 
ATOM     15  C   UNL     1      -2.044  -2.216   0.786  1.00  0.00     0.020 A 
ATOM     16  C   UNL     1      -1.139  -4.520   2.083  1.00  0.00     0.093 A 
ATOM     17  C   UNL     1      -0.769  -2.717   0.513  1.00  0.00     0.047 A 
ATOM     18  C   UNL     1      -0.311  -3.865   1.162  1.00  0.00     0.119 A 
BRANCH  14  19
ATOM     19  O   UNL     1      -3.252  -4.724   3.241  1.00  0.00    -0.507 OA
ATOM     20  H   UNL     1      -3.114  -4.683   4.243  1.00  0.00     0.293 HD
ENDBRANCH  14  19
BRANCH  18  21
ATOM     21  O   UNL     1       0.965  -4.350   0.885  1.00  0.00    -0.508 OA
ATOM     22  H   UNL     1       1.261  -5.269   1.189  1.00  0.00     0.293 HD
ENDBRANCH  18  21
ENDBRANCH  11  13
ENDBRANCH   2  11
TORSDOF 6
ENDMDL
MODEL 6
REMARK VINA RESULT:    -5.237     11.930     13.600
REMARK INTER + INTRA:          -7.365
REMARK INTER:                  -6.737
REMARK INTRA:                  -0.628
REMARK UNBOUND:                -0.751
REMARK SMILES O=C(C=Cc1ccc(O)cc1)c1ccc(O)cc1O
REMARK SMILES IDX 4 1 3 2 5 3 6 4 7 5 8 6 11 7 10 8 9 9 2 11 1 12 12 13 18 14
REMARK SMILES IDX 13 15 17 16 14 17 15 18 19 19 16 21
REMARK H PARENT 9 10 19 20 16 22
REMARK Flexibility Score: inf
ROOT
ATOM      1  C   UNL     1       6.242  -0.331  -3.074  1.00  0.00     0.012 C 
ATOM      2  C   UNL     1       5.578   0.129  -4.145  1.00  0.00     0.053 C 
ENDROOT
BRANCH   1   3
ATOM      3  C   UNL     1       6.301  -1.763  -2.696  1.00  0.00    -0.025 A 
ATOM      4  C   UNL     1       6.698  -2.100  -1.391  1.00  0.00     0.012 A 
ATOM      5  C   UNL     1       6.758  -3.438  -0.988  1.00  0.00     0.047 A 
ATOM      6  C   UNL     1       6.411  -4.457  -1.879  1.00  0.00     0.115 A 
ATOM      7  C   UNL     1       5.939  -2.797  -3.584  1.00  0.00     0.012 A 
ATOM      8  C   UNL     1       6.000  -4.133  -3.177  1.00  0.00     0.047 A 
BRANCH   6   9
ATOM      9  O   UNL     1       6.476  -5.785  -1.463  1.00  0.00    -0.508 OA
ATOM     10  H   UNL     1       5.649  -6.288  -1.164  1.00  0.00     0.293 HD
ENDBRANCH   6   9
ENDBRANCH   1   3
BRANCH   2  11
ATOM     11  C   UNL     1       5.555   1.565  -4.501  1.00  0.00     0.189 C 
ATOM     12  O   UNL     1       6.639   2.195  -4.640  1.00  0.00    -0.289 OA
BRANCH  11  13
ATOM     13  C   UNL     1       4.276   2.270  -4.748  1.00  0.00     0.064 A 
ATOM     14  C   UNL     1       4.004   3.540  -4.191  1.00  0.00     0.130 A 
ATOM     15  C   UNL     1       3.316   1.671  -5.581  1.00  0.00     0.020 A 
ATOM     16  C   UNL     1       2.773   4.163  -4.441  1.00  0.00     0.093 A 
ATOM     17  C   UNL     1       2.094   2.303  -5.830  1.00  0.00     0.047 A 
ATOM     18  C   UNL     1       1.818   3.547  -5.258  1.00  0.00     0.119 A 
BRANCH  14  19
ATOM     19  O   UNL     1       4.962   4.194  -3.414  1.00  0.00    -0.507 OA
ATOM     20  H   UNL     1       5.081   3.988  -2.430  1.00  0.00     0.293 HD
ENDBRANCH  14  19
BRANCH  18  21
ATOM     21  O   UNL     1       0.594   4.162  -5.510  1.00  0.00    -0.508 OA
ATOM     22  H   UNL     1       0.321   4.436  -6.446  1.00  0.00     0.293 HD
ENDBRANCH  18  21
ENDBRANCH  11  13
ENDBRANCH   2  11
TORSDOF 6
ENDMDL
MODEL 7
REMARK VINA RESULT:    -5.000      6.028      8.440
REMARK INTER + INTRA:          -7.066
REMARK INTER:                  -6.608
REMARK INTRA:                  -0.457
REMARK UNBOUND:                -0.751
REMARK SMILES O=C(C=Cc1ccc(O)cc1)c1ccc(O)cc1O
REMARK SMILES IDX 4 1 3 2 5 3 6 4 7 5 8 6 11 7 10 8 9 9 2 11 1 12 12 13 18 14
REMARK SMILES IDX 13 15 17 16 14 17 15 18 19 19 16 21
REMARK H PARENT 9 10 19 20 16 22
REMARK Flexibility Score: inf
ROOT
ATOM      1  C   UNL     1       1.385  -4.407   1.393  1.00  0.00     0.012 C 
ATOM      2  C   UNL     1       2.457  -3.706   1.789  1.00  0.00     0.053 C 
ENDROOT
BRANCH   1   3
ATOM      3  C   UNL     1       0.009  -3.856   1.355  1.00  0.00    -0.025 A 
ATOM      4  C   UNL     1      -1.006  -4.528   2.057  1.00  0.00     0.012 A 
ATOM      5  C   UNL     1      -2.316  -4.037   2.057  1.00  0.00     0.047 A 
ATOM      6  C   UNL     1      -2.628  -2.863   1.368  1.00  0.00     0.115 A 
ATOM      7  C   UNL     1      -0.311  -2.663   0.674  1.00  0.00     0.012 A 
ATOM      8  C   UNL     1      -1.621  -2.176   0.678  1.00  0.00     0.047 A 
BRANCH   6   9
ATOM      9  O   UNL     1      -3.936  -2.386   1.377  1.00  0.00    -0.508 OA
ATOM     10  H   UNL     1      -4.530  -2.453   0.559  1.00  0.00     0.293 HD
ENDBRANCH   6   9
ENDBRANCH   1   3
BRANCH   2  11
ATOM     11  C   UNL     1       3.818  -4.285   1.798  1.00  0.00     0.189 C 
ATOM     12  O   UNL     1       4.241  -4.911   0.788  1.00  0.00    -0.289 OA
BRANCH  11  13
ATOM     13  C   UNL     1       4.720  -4.099   2.958  1.00  0.00     0.064 A 
ATOM     14  C   UNL     1       5.899  -4.862   3.116  1.00  0.00     0.130 A 
ATOM     15  C   UNL     1       4.408  -3.119   3.916  1.00  0.00     0.020 A 
ATOM     16  C   UNL     1       6.716  -4.661   4.239  1.00  0.00     0.093 A 
ATOM     17  C   UNL     1       5.231  -2.922   5.028  1.00  0.00     0.047 A 
ATOM     18  C   UNL     1       6.383  -3.694   5.195  1.00  0.00     0.119 A 
BRANCH  14  19
ATOM     19  O   UNL     1       6.275  -5.796   2.149  1.00  0.00    -0.507 OA
ATOM     20  H   UNL     1       5.653  -6.063   1.396  1.00  0.00     0.293 HD
ENDBRANCH  14  19
BRANCH  18  21
ATOM     21  O   UNL     1       7.191  -3.490   6.311  1.00  0.00    -0.508 OA
ATOM     22  H   UNL     1       7.007  -2.742   6.969  1.00  0.00     0.293 HD
ENDBRANCH  18  21
ENDBRANCH  11  13
ENDBRANCH   2  11
TORSDOF 6
ENDMDL
MODEL 8
REMARK VINA RESULT:    -4.916     11.802     13.782
REMARK INTER + INTRA:          -6.960
REMARK INTER:                  -6.250
REMARK INTRA:                  -0.711
REMARK UNBOUND:                -0.751
REMARK SMILES O=C(C=Cc1ccc(O)cc1)c1ccc(O)cc1O
REMARK SMILES IDX 4 1 3 2 5 3 6 4 7 5 8 6 11 7 10 8 9 9 2 11 1 12 12 13 18 14
REMARK SMILES IDX 13 15 17 16 14 17 15 18 19 19 16 21
REMARK H PARENT 9 10 19 20 16 22
REMARK Flexibility Score: inf
ROOT
ATOM      1  C   UNL     1       5.431   0.298  -4.530  1.00  0.00     0.012 C 
ATOM      2  C   UNL     1       4.482   0.212  -5.474  1.00  0.00     0.053 C 
ENDROOT
BRANCH   1   3
ATOM      3  C   UNL     1       5.815  -0.829  -3.647  1.00  0.00    -0.025 A 
ATOM      4  C   UNL     1       5.596  -2.143  -4.096  1.00  0.00     0.012 A 
ATOM      5  C   UNL     1       5.953  -3.235  -3.300  1.00  0.00     0.047 A 
ATOM      6  C   UNL     1       6.545  -3.033  -2.050  1.00  0.00     0.115 A 
ATOM      7  C   UNL     1       6.427  -0.634  -2.391  1.00  0.00     0.012 A 
ATOM      8  C   UNL     1       6.783  -1.729  -1.600  1.00  0.00     0.047 A 
BRANCH   6   9
ATOM      9  O   UNL     1       6.895  -4.131  -1.269  1.00  0.00    -0.508 OA
ATOM     10  H   UNL     1       6.601  -4.209  -0.302  1.00  0.00     0.293 HD
ENDBRANCH   6   9
ENDBRANCH   1   3
BRANCH   2  11
ATOM     11  C   UNL     1       4.137   1.355  -6.349  1.00  0.00     0.189 C 
ATOM     12  O   UNL     1       4.513   1.360  -7.553  1.00  0.00    -0.289 OA
BRANCH  11  13
ATOM     13  C   UNL     1       3.308   2.477  -5.850  1.00  0.00     0.064 A 
ATOM     14  C   UNL     1       3.689   3.824  -6.034  1.00  0.00     0.130 A 
ATOM     15  C   UNL     1       2.096   2.192  -5.197  1.00  0.00     0.020 A 
ATOM     16  C   UNL     1       2.879   4.854  -5.530  1.00  0.00     0.093 A 
ATOM     17  C   UNL     1       1.293   3.225  -4.705  1.00  0.00     0.047 A 
ATOM     18  C   UNL     1       1.683   4.556  -4.866  1.00  0.00     0.119 A 
BRANCH  14  19
ATOM     19  O   UNL     1       4.852   4.145  -6.737  1.00  0.00    -0.507 OA
ATOM     20  H   UNL     1       5.604   3.477  -6.853  1.00  0.00     0.293 HD
ENDBRANCH  14  19
BRANCH  18  21
ATOM     21  O   UNL     1       0.876   5.575  -4.366  1.00  0.00    -0.508 OA
ATOM     22  H   UNL     1      -0.058   5.390  -4.019  1.00  0.00     0.293 HD
ENDBRANCH  18  21
ENDBRANCH  11  13
ENDBRANCH   2  11
TORSDOF 6
ENDMDL
MODEL 9
REMARK VINA RESULT:    -4.897     10.255     11.454
REMARK INTER + INTRA:          -6.937
REMARK INTER:                  -6.283
REMARK INTRA:                  -0.654
REMARK UNBOUND:                -0.751
REMARK SMILES O=C(C=Cc1ccc(O)cc1)c1ccc(O)cc1O
REMARK SMILES IDX 4 1 3 2 5 3 6 4 7 5 8 6 11 7 10 8 9 9 2 11 1 12 12 13 18 14
REMARK SMILES IDX 13 15 17 16 14 17 15 18 19 19 16 21
REMARK H PARENT 9 10 19 20 16 22
REMARK Flexibility Score: inf
ROOT
ATOM      1  C   UNL     1       2.629   0.301   7.202  1.00  0.00     0.012 C 
ATOM      2  C   UNL     1       3.646   0.353   6.330  1.00  0.00     0.053 C 
ENDROOT
BRANCH   1   3
ATOM      3  C   UNL     1       1.360   1.048   7.030  1.00  0.00    -0.025 A 
ATOM      4  C   UNL     1       1.365   2.214   6.245  1.00  0.00     0.012 A 
ATOM      5  C   UNL     1       0.188   2.943   6.048  1.00  0.00     0.047 A 
ATOM      6  C   UNL     1      -1.012   2.513   6.620  1.00  0.00     0.115 A 
ATOM      7  C   UNL     1       0.142   0.613   7.592  1.00  0.00     0.012 A 
ATOM      8  C   UNL     1      -1.032   1.344   7.390  1.00  0.00     0.047 A 
BRANCH   6   9
ATOM      9  O   UNL     1      -2.175   3.250   6.415  1.00  0.00    -0.508 OA
ATOM     10  H   UNL     1      -2.242   3.939   5.674  1.00  0.00     0.293 HD
ENDBRANCH   6   9
ENDBRANCH   1   3
BRANCH   2  11
ATOM     11  C   UNL     1       4.893  -0.420   6.526  1.00  0.00     0.189 C 
ATOM     12  O   UNL     1       5.810   0.043   7.258  1.00  0.00    -0.289 OA
BRANCH  11  13
ATOM     13  C   UNL     1       5.066  -1.759   5.917  1.00  0.00     0.064 A 
ATOM     14  C   UNL     1       5.854  -2.760   6.527  1.00  0.00     0.130 A 
ATOM     15  C   UNL     1       4.406  -2.050   4.710  1.00  0.00     0.020 A 
ATOM     16  C   UNL     1       6.001  -4.009   5.905  1.00  0.00     0.093 A 
ATOM     17  C   UNL     1       4.553  -3.300   4.102  1.00  0.00     0.047 A 
ATOM     18  C   UNL     1       5.353  -4.280   4.694  1.00  0.00     0.119 A 
BRANCH  14  19
ATOM     19  O   UNL     1       6.469  -2.528   7.759  1.00  0.00    -0.507 OA
ATOM     20  H   UNL     1       7.336  -2.011   7.832  1.00  0.00     0.293 HD
ENDBRANCH  14  19
BRANCH  18  21
ATOM     21  O   UNL     1       5.494  -5.519   4.073  1.00  0.00    -0.508 OA
ATOM     22  H   UNL     1       5.033  -5.728   3.197  1.00  0.00     0.293 HD
ENDBRANCH  18  21
ENDBRANCH  11  13
ENDBRANCH   2  11
TORSDOF 6
ENDMDL
