MODEL 1
REMARK VINA RESULT:    -5.046      0.000      0.000
REMARK INTER + INTRA:         -17.455
REMARK INTER:                 -12.716
REMARK INTRA:                  -4.739
REMARK UNBOUND:                -4.739
REMARK SMILES CCCCCCCCCCCCCCCCCCCCCCCCCCCC(=O)[O-]
REMARK SMILES IDX 15 1 16 2 17 3 18 4 19 5 20 6 21 7 22 8 23 9 24 10 25 11
REMARK SMILES IDX 26 12 27 13 28 14 29 15 30 16 14 17 13 18 12 19 11 20 10 21
REMARK SMILES IDX 9 22 8 23 7 24 6 25 5 26 4 27 3 28 2 29 1 30
REMARK H PARENT
REMARK Flexibility Score: inf
ROOT
ATOM      1  C   UNL     1      14.654 -29.177  23.409  1.00  0.00     0.000 C 
ENDROOT
BRANCH   1   2
ATOM      2  C   UNL     1      13.225 -29.721  23.239  1.00  0.00     0.000 C 
BRANCH   2   3
ATOM      3  C   UNL     1      13.206 -31.191  22.790  1.00  0.00     0.000 C 
BRANCH   3   4
ATOM      4  C   UNL     1      12.768 -31.359  21.325  1.00  0.00     0.000 C 
BRANCH   4   5
ATOM      5  C   UNL     1      13.773 -32.181  20.500  1.00  0.00     0.000 C 
BRANCH   5   6
ATOM      6  C   UNL     1      14.641 -33.099  21.377  1.00  0.00     0.000 C 
BRANCH   6   7
ATOM      7  C   UNL     1      15.075 -34.382  20.649  1.00  0.00     0.000 C 
BRANCH   7   8
ATOM      8  C   UNL     1      15.945 -34.122  19.401  1.00  0.00     0.000 C 
BRANCH   8   9
ATOM      9  C   UNL     1      17.289 -34.867  19.464  1.00  0.00     0.000 C 
BRANCH   9  10
ATOM     10  C   UNL     1      17.122 -36.376  19.704  1.00  0.00     0.000 C 
BRANCH  10  11
ATOM     11  C   UNL     1      17.839 -36.853  20.979  1.00  0.00     0.000 C 
BRANCH  11  12
ATOM     12  C   UNL     1      18.448 -35.694  21.790  1.00  0.00     0.006 C 
BRANCH  12  13
ATOM     13  C   UNL     1      17.667 -35.328  23.063  1.00  0.00     0.053 C 
BRANCH  13  14
ATOM     14  C   UNL     1      18.404 -35.719  24.307  1.00  0.00     0.041 C 
ATOM     15  O   UNL     1      18.997 -36.829  24.368  1.00  0.00    -0.550 OA
ATOM     16  O   UNL     1      18.466 -34.844  25.386  1.00  0.00    -0.550 OA
ENDBRANCH  13  14
ENDBRANCH  12  13
ENDBRANCH  11  12
ENDBRANCH  10  11
ENDBRANCH   9  10
ENDBRANCH   8   9
ENDBRANCH   7   8
ENDBRANCH   6   7
ENDBRANCH   5   6
ENDBRANCH   4   5
ENDBRANCH   3   4
ENDBRANCH   2   3
ENDBRANCH   1   2
BRANCH   1  17
ATOM     17  C   UNL     1      15.328 -28.851  22.066  1.00  0.00     0.000 C 
BRANCH  17  18
ATOM     18  C   UNL     1      16.574 -29.709  21.799  1.00  0.00     0.000 C 
BRANCH  18  19
ATOM     19  C   UNL     1      16.943 -30.535  23.037  1.00  0.00     0.000 C 
BRANCH  19  20
ATOM     20  C   UNL     1      17.954 -31.635  22.688  1.00  0.00     0.000 C 
BRANCH  20  21
ATOM     21  C   UNL     1      18.274 -31.700  21.184  1.00  0.00     0.000 C 
BRANCH  21  22
ATOM     22  C   UNL     1      19.734 -32.096  20.875  1.00  0.00    -0.000 C 
BRANCH  22  23
ATOM     23  C   UNL     1      20.746 -31.144  21.538  1.00  0.00    -0.000 C 
BRANCH  23  24
ATOM     24  C   UNL     1      20.781 -29.760  20.872  1.00  0.00    -0.000 C 
BRANCH  24  25
ATOM     25  C   UNL     1      20.202 -28.657  21.771  1.00  0.00    -0.000 C 
BRANCH  25  26
ATOM     26  C   UNL     1      19.558 -27.547  20.932  1.00  0.00    -0.000 C 
BRANCH  26  27
ATOM     27  C   UNL     1      20.622 -26.583  20.385  1.00  0.00    -0.000 C 
BRANCH  27  28
ATOM     28  C   UNL     1      21.519 -25.994  21.489  1.00  0.00    -0.000 C 
BRANCH  28  29
ATOM     29  C   UNL     1      23.029 -26.177  21.260  1.00  0.00    -0.003 C 
ATOM     30  C   UNL     1      23.350 -26.960  19.988  1.00  0.00     0.004 C 
ENDBRANCH  28  29
ENDBRANCH  27  28
ENDBRANCH  26  27
ENDBRANCH  25  26
ENDBRANCH  24  25
ENDBRANCH  23  24
ENDBRANCH  22  23
ENDBRANCH  21  22
ENDBRANCH  20  21
ENDBRANCH  19  20
ENDBRANCH  18  19
ENDBRANCH  17  18
ENDBRANCH   1  17
TORSDOF 26
ENDMDL
MODEL 2
REMARK VINA RESULT:    -5.037      3.218      7.382
REMARK INTER + INTRA:         -17.431
REMARK INTER:                 -12.198
REMARK INTRA:                  -5.233
REMARK UNBOUND:                -4.739
REMARK SMILES CCCCCCCCCCCCCCCCCCCCCCCCCCCC(=O)[O-]
REMARK SMILES IDX 15 1 16 2 17 3 18 4 19 5 20 6 21 7 22 8 23 9 24 10 25 11
REMARK SMILES IDX 26 12 27 13 28 14 29 15 30 16 14 17 13 18 12 19 11 20 10 21
REMARK SMILES IDX 9 22 8 23 7 24 6 25 5 26 4 27 3 28 2 29 1 30
REMARK H PARENT
REMARK Flexibility Score: inf
ROOT
ATOM      1  C   UNL     1      18.355 -30.982  25.020  1.00  0.00     0.000 C 
ENDROOT
BRANCH   1   2
ATOM      2  C   UNL     1      17.250 -30.998  23.949  1.00  0.00     0.000 C 
BRANCH   2   3
ATOM      3  C   UNL     1      17.134 -29.657  23.206  1.00  0.00     0.000 C 
BRANCH   3   4
ATOM      4  C   UNL     1      17.391 -29.791  21.695  1.00  0.00     0.000 C 
BRANCH   4   5
ATOM      5  C   UNL     1      17.417 -31.256  21.229  1.00  0.00     0.000 C 
BRANCH   5   6
ATOM      6  C   UNL     1      18.810 -31.695  20.746  1.00  0.00     0.000 C 
BRANCH   6   7
ATOM      7  C   UNL     1      19.354 -32.909  21.517  1.00  0.00     0.000 C 
BRANCH   7   8
ATOM      8  C   UNL     1      20.733 -32.663  22.165  1.00  0.00     0.000 C 
BRANCH   8   9
ATOM      9  C   UNL     1      21.401 -31.379  21.640  1.00  0.00     0.000 C 
BRANCH   9  10
ATOM     10  C   UNL     1      21.766 -30.396  22.764  1.00  0.00     0.000 C 
BRANCH  10  11
ATOM     11  C   UNL     1      20.798 -29.203  22.840  1.00  0.00     0.000 C 
BRANCH  11  12
ATOM     12  C   UNL     1      20.734 -28.401  21.526  1.00  0.00     0.006 C 
BRANCH  12  13
ATOM     13  C   UNL     1      21.978 -27.544  21.242  1.00  0.00     0.053 C 
BRANCH  13  14
ATOM     14  C   UNL     1      21.620 -26.190  20.711  1.00  0.00     0.041 C 
ATOM     15  O   UNL     1      22.443 -25.240  20.794  1.00  0.00    -0.550 OA
ATOM     16  O   UNL     1      20.391 -25.985  20.093  1.00  0.00    -0.550 OA
ENDBRANCH  13  14
ENDBRANCH  12  13
ENDBRANCH  11  12
ENDBRANCH  10  11
ENDBRANCH   9  10
ENDBRANCH   8   9
ENDBRANCH   7   8
ENDBRANCH   6   7
ENDBRANCH   5   6
ENDBRANCH   4   5
ENDBRANCH   3   4
ENDBRANCH   2   3
ENDBRANCH   1   2
BRANCH   1  17
ATOM     17  C   UNL     1      18.965 -32.372  25.263  1.00  0.00     0.000 C 
BRANCH  17  18
ATOM     18  C   UNL     1      18.000 -33.332  25.974  1.00  0.00     0.000 C 
BRANCH  18  19
ATOM     19  C   UNL     1      18.375 -34.791  25.690  1.00  0.00     0.000 C 
BRANCH  19  20
ATOM     20  C   UNL     1      17.268 -35.505  24.903  1.00  0.00     0.000 C 
BRANCH  20  21
ATOM     21  C   UNL     1      17.334 -35.229  23.390  1.00  0.00     0.000 C 
BRANCH  21  22
ATOM     22  C   UNL     1      16.185 -34.339  22.870  1.00  0.00    -0.000 C 
BRANCH  22  23
ATOM     23  C   UNL     1      15.852 -34.625  21.395  1.00  0.00    -0.000 C 
BRANCH  23  24
ATOM     24  C   UNL     1      14.886 -33.592  20.795  1.00  0.00    -0.000 C 
BRANCH  24  25
ATOM     25  C   UNL     1      14.168 -32.760  21.869  1.00  0.00    -0.000 C 
BRANCH  25  26
ATOM     26  C   UNL     1      13.427 -31.574  21.240  1.00  0.00    -0.000 C 
BRANCH  26  27
ATOM     27  C   UNL     1      13.733 -30.271  21.995  1.00  0.00    -0.000 C 
BRANCH  27  28
ATOM     28  C   UNL     1      13.439 -30.370  23.503  1.00  0.00    -0.000 C 
BRANCH  28  29
ATOM     29  C   UNL     1      12.997 -29.052  24.163  1.00  0.00    -0.003 C 
ATOM     30  C   UNL     1      11.640 -28.559  23.662  1.00  0.00     0.004 C 
ENDBRANCH  28  29
ENDBRANCH  27  28
ENDBRANCH  26  27
ENDBRANCH  25  26
ENDBRANCH  24  25
ENDBRANCH  23  24
ENDBRANCH  22  23
ENDBRANCH  21  22
ENDBRANCH  20  21
ENDBRANCH  19  20
ENDBRANCH  18  19
ENDBRANCH  17  18
ENDBRANCH   1  17
TORSDOF 26
ENDMDL
MODEL 3
REMARK VINA RESULT:    -5.034      2.723      6.076
REMARK INTER + INTRA:         -17.425
REMARK INTER:                 -11.799
REMARK INTRA:                  -5.626
REMARK UNBOUND:                -4.739
REMARK SMILES CCCCCCCCCCCCCCCCCCCCCCCCCCCC(=O)[O-]
REMARK SMILES IDX 15 1 16 2 17 3 18 4 19 5 20 6 21 7 22 8 23 9 24 10 25 11
REMARK SMILES IDX 26 12 27 13 28 14 29 15 30 16 14 17 13 18 12 19 11 20 10 21
REMARK SMILES IDX 9 22 8 23 7 24 6 25 5 26 4 27 3 28 2 29 1 30
REMARK H PARENT
REMARK Flexibility Score: inf
ROOT
ATOM      1  C   UNL     1      14.956 -33.686  21.222  1.00  0.00     0.000 C 
ENDROOT
BRANCH   1   2
ATOM      2  C   UNL     1      14.054 -32.616  20.584  1.00  0.00     0.000 C 
BRANCH   2   3
ATOM      3  C   UNL     1      13.569 -31.573  21.604  1.00  0.00     0.000 C 
BRANCH   3   4
ATOM      4  C   UNL     1      13.828 -32.000  23.060  1.00  0.00     0.000 C 
BRANCH   4   5
ATOM      5  C   UNL     1      14.619 -30.946  23.851  1.00  0.00     0.000 C 
BRANCH   5   6
ATOM      6  C   UNL     1      15.062 -29.762  22.974  1.00  0.00     0.000 C 
BRANCH   6   7
ATOM      7  C   UNL     1      16.590 -29.604  22.914  1.00  0.00     0.000 C 
BRANCH   7   8
ATOM      8  C   UNL     1      17.337 -30.921  22.615  1.00  0.00     0.000 C 
BRANCH   8   9
ATOM      9  C   UNL     1      17.557 -31.135  21.107  1.00  0.00     0.000 C 
BRANCH   9  10
ATOM     10  C   UNL     1      18.591 -32.232  20.806  1.00  0.00     0.000 C 
BRANCH  10  11
ATOM     11  C   UNL     1      19.878 -32.071  21.634  1.00  0.00     0.000 C 
BRANCH  11  12
ATOM     12  C   UNL     1      20.855 -31.047  21.025  1.00  0.00     0.006 C 
BRANCH  12  13
ATOM     13  C   UNL     1      21.266 -29.914  21.979  1.00  0.00     0.053 C 
BRANCH  13  14
ATOM     14  C   UNL     1      20.788 -28.576  21.502  1.00  0.00     0.041 C 
ATOM     15  O   UNL     1      19.681 -28.475  20.910  1.00  0.00    -0.550 OA
ATOM     16  O   UNL     1      21.548 -27.437  21.743  1.00  0.00    -0.550 OA
ENDBRANCH  13  14
ENDBRANCH  12  13
ENDBRANCH  11  12
ENDBRANCH  10  11
ENDBRANCH   9  10
ENDBRANCH   8   9
ENDBRANCH   7   8
ENDBRANCH   6   7
ENDBRANCH   5   6
ENDBRANCH   4   5
ENDBRANCH   3   4
ENDBRANCH   2   3
ENDBRANCH   1   2
BRANCH   1  17
ATOM     17  C   UNL     1      15.334 -34.806  20.239  1.00  0.00     0.000 C 
BRANCH  17  18
ATOM     18  C   UNL     1      16.500 -34.423  19.316  1.00  0.00     0.000 C 
BRANCH  18  19
ATOM     19  C   UNL     1      17.620 -35.466  19.391  1.00  0.00     0.000 C 
BRANCH  19  20
ATOM     20  C   UNL     1      17.224 -36.641  20.295  1.00  0.00     0.000 C 
BRANCH  20  21
ATOM     21  C   UNL     1      18.234 -36.894  21.428  1.00  0.00     0.000 C 
BRANCH  21  22
ATOM     22  C   UNL     1      18.694 -35.609  22.149  1.00  0.00    -0.000 C 
BRANCH  22  23
ATOM     23  C   UNL     1      18.090 -35.486  23.559  1.00  0.00    -0.000 C 
BRANCH  23  24
ATOM     24  C   UNL     1      16.968 -34.440  23.633  1.00  0.00    -0.000 C 
BRANCH  24  25
ATOM     25  C   UNL     1      16.725 -33.934  25.064  1.00  0.00    -0.000 C 
BRANCH  25  26
ATOM     26  C   UNL     1      18.052 -33.659  25.782  1.00  0.00    -0.000 C 
BRANCH  26  27
ATOM     27  C   UNL     1      18.404 -32.164  25.732  1.00  0.00    -0.000 C 
BRANCH  27  28
ATOM     28  C   UNL     1      19.891 -31.909  25.425  1.00  0.00    -0.000 C 
BRANCH  28  29
ATOM     29  C   UNL     1      20.665 -33.138  24.916  1.00  0.00    -0.003 C 
ATOM     30  C   UNL     1      22.144 -33.113  25.299  1.00  0.00     0.004 C 
ENDBRANCH  28  29
ENDBRANCH  27  28
ENDBRANCH  26  27
ENDBRANCH  25  26
ENDBRANCH  24  25
ENDBRANCH  23  24
ENDBRANCH  22  23
ENDBRANCH  21  22
ENDBRANCH  20  21
ENDBRANCH  19  20
ENDBRANCH  18  19
ENDBRANCH  17  18
ENDBRANCH   1  17
TORSDOF 26
ENDMDL
MODEL 4
REMARK VINA RESULT:    -4.990      1.906      6.524
REMARK INTER + INTRA:         -17.313
REMARK INTER:                 -12.564
REMARK INTRA:                  -4.749
REMARK UNBOUND:                -4.739
REMARK SMILES CCCCCCCCCCCCCCCCCCCCCCCCCCCC(=O)[O-]
REMARK SMILES IDX 15 1 16 2 17 3 18 4 19 5 20 6 21 7 22 8 23 9 24 10 25 11
REMARK SMILES IDX 26 12 27 13 28 14 29 15 30 16 14 17 13 18 12 19 11 20 10 21
REMARK SMILES IDX 9 22 8 23 7 24 6 25 5 26 4 27 3 28 2 29 1 30
REMARK H PARENT
REMARK Flexibility Score: inf
ROOT
ATOM      1  C   UNL     1      14.238 -32.776  21.099  1.00  0.00     0.000 C 
ENDROOT
BRANCH   1   2
ATOM      2  C   UNL     1      13.194 -31.738  20.650  1.00  0.00     0.000 C 
BRANCH   2   3
ATOM      3  C   UNL     1      12.618 -30.937  21.828  1.00  0.00     0.000 C 
BRANCH   3   4
ATOM      4  C   UNL     1      13.229 -31.347  23.180  1.00  0.00     0.000 C 
BRANCH   4   5
ATOM      5  C   UNL     1      14.119 -30.247  23.782  1.00  0.00     0.000 C 
BRANCH   5   6
ATOM      6  C   UNL     1      14.446 -29.136  22.770  1.00  0.00     0.000 C 
BRANCH   6   7
ATOM      7  C   UNL     1      15.748 -29.400  21.995  1.00  0.00     0.000 C 
BRANCH   7   8
ATOM      8  C   UNL     1      16.813 -28.299  22.183  1.00  0.00     0.000 C 
BRANCH   8   9
ATOM      9  C   UNL     1      18.231 -28.880  22.322  1.00  0.00     0.000 C 
BRANCH   9  10
ATOM     10  C   UNL     1      19.029 -28.822  21.010  1.00  0.00     0.000 C 
BRANCH  10  11
ATOM     11  C   UNL     1      20.543 -28.983  21.234  1.00  0.00     0.000 C 
BRANCH  11  12
ATOM     12  C   UNL     1      20.994 -30.456  21.232  1.00  0.00     0.006 C 
BRANCH  12  13
ATOM     13  C   UNL     1      21.233 -31.051  22.629  1.00  0.00     0.053 C 
BRANCH  13  14
ATOM     14  C   UNL     1      21.834 -32.421  22.562  1.00  0.00     0.041 C 
ATOM     15  O   UNL     1      22.892 -32.616  21.904  1.00  0.00    -0.550 OA
ATOM     16  O   UNL     1      21.248 -33.475  23.254  1.00  0.00    -0.550 OA
ENDBRANCH  13  14
ENDBRANCH  12  13
ENDBRANCH  11  12
ENDBRANCH  10  11
ENDBRANCH   9  10
ENDBRANCH   8   9
ENDBRANCH   7   8
ENDBRANCH   6   7
ENDBRANCH   5   6
ENDBRANCH   4   5
ENDBRANCH   3   4
ENDBRANCH   2   3
ENDBRANCH   1   2
BRANCH   1  17
ATOM     17  C   UNL     1      14.618 -33.757  19.978  1.00  0.00     0.000 C 
BRANCH  17  18
ATOM     18  C   UNL     1      15.386 -34.984  20.493  1.00  0.00     0.000 C 
BRANCH  18  19
ATOM     19  C   UNL     1      16.585 -35.295  19.590  1.00  0.00     0.000 C 
BRANCH  19  20
ATOM     20  C   UNL     1      17.772 -35.822  20.407  1.00  0.00     0.000 C 
BRANCH  20  21
ATOM     21  C   UNL     1      18.679 -34.699  20.940  1.00  0.00     0.000 C 
BRANCH  21  22
ATOM     22  C   UNL     1      18.351 -33.307  20.360  1.00  0.00    -0.000 C 
BRANCH  22  23
ATOM     23  C   UNL     1      17.886 -32.321  21.447  1.00  0.00    -0.000 C 
BRANCH  23  24
ATOM     24  C   UNL     1      17.990 -32.907  22.862  1.00  0.00    -0.000 C 
BRANCH  24  25
ATOM     25  C   UNL     1      16.728 -32.653  23.702  1.00  0.00    -0.000 C 
BRANCH  25  26
ATOM     26  C   UNL     1      16.010 -33.970  24.025  1.00  0.00    -0.000 C 
BRANCH  26  27
ATOM     27  C   UNL     1      17.020 -35.097  24.288  1.00  0.00    -0.000 C 
BRANCH  27  28
ATOM     28  C   UNL     1      17.636 -35.031  25.697  1.00  0.00    -0.000 C 
BRANCH  28  29
ATOM     29  C   UNL     1      18.032 -36.393  26.293  1.00  0.00    -0.003 C 
ATOM     30  C   UNL     1      16.833 -37.203  26.783  1.00  0.00     0.004 C 
ENDBRANCH  28  29
ENDBRANCH  27  28
ENDBRANCH  26  27
ENDBRANCH  25  26
ENDBRANCH  24  25
ENDBRANCH  23  24
ENDBRANCH  22  23
ENDBRANCH  21  22
ENDBRANCH  20  21
ENDBRANCH  19  20
ENDBRANCH  18  19
ENDBRANCH  17  18
ENDBRANCH   1  17
TORSDOF 26
ENDMDL
MODEL 5
REMARK VINA RESULT:    -4.968      1.363      3.615
REMARK INTER + INTRA:         -17.257
REMARK INTER:                 -12.535
REMARK INTRA:                  -4.722
REMARK UNBOUND:                -4.739
REMARK SMILES CCCCCCCCCCCCCCCCCCCCCCCCCCCC(=O)[O-]
REMARK SMILES IDX 15 1 16 2 17 3 18 4 19 5 20 6 21 7 22 8 23 9 24 10 25 11
REMARK SMILES IDX 26 12 27 13 28 14 29 15 30 16 14 17 13 18 12 19 11 20 10 21
REMARK SMILES IDX 9 22 8 23 7 24 6 25 5 26 4 27 3 28 2 29 1 30
REMARK H PARENT
REMARK Flexibility Score: inf
ROOT
ATOM      1  C   UNL     1      13.555 -31.843  21.007  1.00  0.00     0.000 C 
ENDROOT
BRANCH   1   2
ATOM      2  C   UNL     1      12.689 -30.980  21.942  1.00  0.00     0.000 C 
BRANCH   2   3
ATOM      3  C   UNL     1      13.096 -31.123  23.418  1.00  0.00     0.000 C 
BRANCH   3   4
ATOM      4  C   UNL     1      13.158 -29.772  24.151  1.00  0.00     0.000 C 
BRANCH   4   5
ATOM      5  C   UNL     1      13.638 -28.629  23.240  1.00  0.00     0.000 C 
BRANCH   5   6
ATOM      6  C   UNL     1      15.160 -28.419  23.314  1.00  0.00     0.000 C 
BRANCH   6   7
ATOM      7  C   UNL     1      15.899 -28.964  22.081  1.00  0.00     0.000 C 
BRANCH   7   8
ATOM      8  C   UNL     1      16.712 -30.244  22.363  1.00  0.00     0.000 C 
BRANCH   8   9
ATOM      9  C   UNL     1      16.725 -30.607  23.858  1.00  0.00     0.000 C 
BRANCH   9  10
ATOM     10  C   UNL     1      18.109 -31.060  24.349  1.00  0.00     0.000 C 
BRANCH  10  11
ATOM     11  C   UNL     1      18.242 -32.592  24.403  1.00  0.00     0.000 C 
BRANCH  11  12
ATOM     12  C   UNL     1      17.603 -33.203  25.664  1.00  0.00     0.006 C 
BRANCH  12  13
ATOM     13  C   UNL     1      16.756 -34.460  25.405  1.00  0.00     0.053 C 
BRANCH  13  14
ATOM     14  C   UNL     1      17.440 -35.706  25.877  1.00  0.00     0.041 C 
ATOM     15  O   UNL     1      16.762 -36.663  26.338  1.00  0.00    -0.550 OA
ATOM     16  O   UNL     1      18.822 -35.826  25.774  1.00  0.00    -0.550 OA
ENDBRANCH  13  14
ENDBRANCH  12  13
ENDBRANCH  11  12
ENDBRANCH  10  11
ENDBRANCH   9  10
ENDBRANCH   8   9
ENDBRANCH   7   8
ENDBRANCH   6   7
ENDBRANCH   5   6
ENDBRANCH   4   5
ENDBRANCH   3   4
ENDBRANCH   2   3
ENDBRANCH   1   2
BRANCH   1  17
ATOM     17  C   UNL     1      14.501 -32.781  21.774  1.00  0.00     0.000 C 
BRANCH  17  18
ATOM     18  C   UNL     1      15.318 -33.694  20.847  1.00  0.00     0.000 C 
BRANCH  18  19
ATOM     19  C   UNL     1      16.250 -34.600  21.658  1.00  0.00     0.000 C 
BRANCH  19  20
ATOM     20  C   UNL     1      17.717 -34.381  21.265  1.00  0.00     0.000 C 
BRANCH  20  21
ATOM     21  C   UNL     1      17.898 -33.258  20.229  1.00  0.00     0.000 C 
BRANCH  21  22
ATOM     22  C   UNL     1      18.882 -32.154  20.672  1.00  0.00    -0.000 C 
BRANCH  22  23
ATOM     23  C   UNL     1      20.057 -32.719  21.491  1.00  0.00    -0.000 C 
BRANCH  23  24
ATOM     24  C   UNL     1      21.054 -31.633  21.923  1.00  0.00    -0.000 C 
BRANCH  24  25
ATOM     25  C   UNL     1      21.004 -30.391  21.019  1.00  0.00    -0.000 C 
BRANCH  25  26
ATOM     26  C   UNL     1      20.626 -29.141  21.824  1.00  0.00    -0.000 C 
BRANCH  26  27
ATOM     27  C   UNL     1      19.489 -28.369  21.138  1.00  0.00    -0.000 C 
BRANCH  27  28
ATOM     28  C   UNL     1      19.958 -27.041  20.515  1.00  0.00    -0.000 C 
BRANCH  28  29
ATOM     29  C   UNL     1      21.274 -26.488  21.089  1.00  0.00    -0.003 C 
ATOM     30  C   UNL     1      22.075 -25.676  20.071  1.00  0.00     0.004 C 
ENDBRANCH  28  29
ENDBRANCH  27  28
ENDBRANCH  26  27
ENDBRANCH  25  26
ENDBRANCH  24  25
ENDBRANCH  23  24
ENDBRANCH  22  23
ENDBRANCH  21  22
ENDBRANCH  20  21
ENDBRANCH  19  20
ENDBRANCH  18  19
ENDBRANCH  17  18
ENDBRANCH   1  17
TORSDOF 26
ENDMDL
MODEL 6
REMARK VINA RESULT:    -4.958      1.551      3.409
REMARK INTER + INTRA:         -17.233
REMARK INTER:                 -11.930
REMARK INTRA:                  -5.304
REMARK UNBOUND:                -4.739
REMARK SMILES CCCCCCCCCCCCCCCCCCCCCCCCCCCC(=O)[O-]
REMARK SMILES IDX 15 1 16 2 17 3 18 4 19 5 20 6 21 7 22 8 23 9 24 10 25 11
REMARK SMILES IDX 26 12 27 13 28 14 29 15 30 16 14 17 13 18 12 19 11 20 10 21
REMARK SMILES IDX 9 22 8 23 7 24 6 25 5 26 4 27 3 28 2 29 1 30
REMARK H PARENT
REMARK Flexibility Score: inf
ROOT
ATOM      1  C   UNL     1      14.039 -31.921  22.869  1.00  0.00     0.000 C 
ENDROOT
BRANCH   1   2
ATOM      2  C   UNL     1      13.647 -31.618  21.412  1.00  0.00     0.000 C 
BRANCH   2   3
ATOM      3  C   UNL     1      14.006 -32.768  20.457  1.00  0.00     0.000 C 
BRANCH   3   4
ATOM      4  C   UNL     1      14.925 -33.817  21.108  1.00  0.00     0.000 C 
BRANCH   4   5
ATOM      5  C   UNL     1      15.361 -34.912  20.121  1.00  0.00     0.000 C 
BRANCH   5   6
ATOM      6  C   UNL     1      16.637 -34.533  19.349  1.00  0.00     0.000 C 
BRANCH   6   7
ATOM      7  C   UNL     1      17.708 -35.635  19.390  1.00  0.00     0.000 C 
BRANCH   7   8
ATOM      8  C   UNL     1      17.296 -36.867  20.223  1.00  0.00     0.000 C 
BRANCH   8   9
ATOM      9  C   UNL     1      18.234 -37.098  21.421  1.00  0.00     0.000 C 
BRANCH   9  10
ATOM     10  C   UNL     1      18.637 -35.790  22.122  1.00  0.00     0.000 C 
BRANCH  10  11
ATOM     11  C   UNL     1      17.570 -35.304  23.119  1.00  0.00     0.000 C 
BRANCH  11  12
ATOM     12  C   UNL     1      18.153 -34.987  24.509  1.00  0.00     0.006 C 
BRANCH  12  13
ATOM     13  C   UNL     1      19.651 -34.640  24.508  1.00  0.00     0.053 C 
BRANCH  13  14
ATOM     14  C   UNL     1      20.465 -35.656  25.249  1.00  0.00     0.041 C 
ATOM     15  O   UNL     1      20.010 -36.816  25.437  1.00  0.00    -0.550 OA
ATOM     16  O   UNL     1      21.740 -35.334  25.700  1.00  0.00    -0.550 OA
ENDBRANCH  13  14
ENDBRANCH  12  13
ENDBRANCH  11  12
ENDBRANCH  10  11
ENDBRANCH   9  10
ENDBRANCH   8   9
ENDBRANCH   7   8
ENDBRANCH   6   7
ENDBRANCH   5   6
ENDBRANCH   4   5
ENDBRANCH   3   4
ENDBRANCH   2   3
ENDBRANCH   1   2
BRANCH   1  17
ATOM     17  C   UNL     1      13.611 -30.810  23.841  1.00  0.00     0.000 C 
BRANCH  17  18
ATOM     18  C   UNL     1      13.444 -29.446  23.154  1.00  0.00     0.000 C 
BRANCH  18  19
ATOM     19  C   UNL     1      14.663 -28.553  23.413  1.00  0.00     0.000 C 
BRANCH  19  20
ATOM     20  C   UNL     1      15.481 -28.346  22.131  1.00  0.00     0.000 C 
BRANCH  20  21
ATOM     21  C   UNL     1      16.584 -29.404  21.947  1.00  0.00     0.000 C 
BRANCH  21  22
ATOM     22  C   UNL     1      17.181 -29.918  23.274  1.00  0.00    -0.000 C 
BRANCH  22  23
ATOM     23  C   UNL     1      17.875 -31.282  23.109  1.00  0.00    -0.000 C 
BRANCH  23  24
ATOM     24  C   UNL     1      17.633 -31.906  21.726  1.00  0.00    -0.000 C 
BRANCH  24  25
ATOM     25  C   UNL     1      18.890 -31.893  20.844  1.00  0.00    -0.000 C 
BRANCH  25  26
ATOM     26  C   UNL     1      20.099 -32.454  21.602  1.00  0.00    -0.000 C 
BRANCH  26  27
ATOM     27  C   UNL     1      21.289 -31.486  21.534  1.00  0.00    -0.000 C 
BRANCH  27  28
ATOM     28  C   UNL     1      20.919 -30.125  20.916  1.00  0.00    -0.000 C 
BRANCH  28  29
ATOM     29  C   UNL     1      20.579 -29.024  21.935  1.00  0.00    -0.003 C 
ATOM     30  C   UNL     1      21.334 -29.177  23.255  1.00  0.00     0.004 C 
ENDBRANCH  28  29
ENDBRANCH  27  28
ENDBRANCH  26  27
ENDBRANCH  25  26
ENDBRANCH  24  25
ENDBRANCH  23  24
ENDBRANCH  22  23
ENDBRANCH  21  22
ENDBRANCH  20  21
ENDBRANCH  19  20
ENDBRANCH  18  19
ENDBRANCH  17  18
ENDBRANCH   1  17
TORSDOF 26
ENDMDL
MODEL 7
REMARK VINA RESULT:    -4.957      1.392      3.889
REMARK INTER + INTRA:         -17.230
REMARK INTER:                 -12.400
REMARK INTRA:                  -4.830
REMARK UNBOUND:                -4.739
REMARK SMILES CCCCCCCCCCCCCCCCCCCCCCCCCCCC(=O)[O-]
REMARK SMILES IDX 15 1 16 2 17 3 18 4 19 5 20 6 21 7 22 8 23 9 24 10 25 11
REMARK SMILES IDX 26 12 27 13 28 14 29 15 30 16 14 17 13 18 12 19 11 20 10 21
REMARK SMILES IDX 9 22 8 23 7 24 6 25 5 26 4 27 3 28 2 29 1 30
REMARK H PARENT
REMARK Flexibility Score: inf
ROOT
ATOM      1  C   UNL     1      12.667 -30.998  21.697  1.00  0.00     0.000 C 
ENDROOT
BRANCH   1   2
ATOM      2  C   UNL     1      13.089 -31.293  23.147  1.00  0.00     0.000 C 
BRANCH   2   3
ATOM      3  C   UNL     1      13.245 -30.013  23.984  1.00  0.00     0.000 C 
BRANCH   3   4
ATOM      4  C   UNL     1      13.543 -28.773  23.124  1.00  0.00     0.000 C 
BRANCH   4   5
ATOM      5  C   UNL     1      15.025 -28.366  23.170  1.00  0.00     0.000 C 
BRANCH   5   6
ATOM      6  C   UNL     1      15.775 -28.733  21.878  1.00  0.00     0.000 C 
BRANCH   6   7
ATOM      7  C   UNL     1      16.416 -30.129  21.937  1.00  0.00     0.000 C 
BRANCH   7   8
ATOM      8  C   UNL     1      17.268 -30.366  23.202  1.00  0.00     0.000 C 
BRANCH   8   9
ATOM      9  C   UNL     1      16.596 -31.347  24.179  1.00  0.00     0.000 C 
BRANCH   9  10
ATOM     10  C   UNL     1      17.398 -32.645  24.364  1.00  0.00     0.000 C 
BRANCH  10  11
ATOM     11  C   UNL     1      16.708 -33.861  23.721  1.00  0.00     0.000 C 
BRANCH  11  12
ATOM     12  C   UNL     1      17.327 -35.200  24.162  1.00  0.00     0.006 C 
BRANCH  12  13
ATOM     13  C   UNL     1      18.181 -35.119  25.437  1.00  0.00     0.053 C 
BRANCH  13  14
ATOM     14  C   UNL     1      18.739 -36.453  25.828  1.00  0.00     0.041 C 
ATOM     15  O   UNL     1      17.966 -37.428  26.025  1.00  0.00    -0.550 OA
ATOM     16  O   UNL     1      20.114 -36.629  25.939  1.00  0.00    -0.550 OA
ENDBRANCH  13  14
ENDBRANCH  12  13
ENDBRANCH  11  12
ENDBRANCH  10  11
ENDBRANCH   9  10
ENDBRANCH   8   9
ENDBRANCH   7   8
ENDBRANCH   6   7
ENDBRANCH   5   6
ENDBRANCH   4   5
ENDBRANCH   3   4
ENDBRANCH   2   3
ENDBRANCH   1   2
BRANCH   1  17
ATOM     17  C   UNL     1      13.480 -31.800  20.668  1.00  0.00     0.000 C 
BRANCH  17  18
ATOM     18  C   UNL     1      14.283 -32.946  21.302  1.00  0.00     0.000 C 
BRANCH  18  19
ATOM     19  C   UNL     1      15.318 -33.497  20.315  1.00  0.00     0.000 C 
BRANCH  19  20
ATOM     20  C   UNL     1      15.335 -35.032  20.330  1.00  0.00     0.000 C 
BRANCH  20  21
ATOM     21  C   UNL     1      16.758 -35.616  20.312  1.00  0.00     0.000 C 
BRANCH  21  22
ATOM     22  C   UNL     1      17.822 -34.647  19.754  1.00  0.00    -0.000 C 
BRANCH  22  23
ATOM     23  C   UNL     1      18.871 -34.264  20.813  1.00  0.00    -0.000 C 
BRANCH  23  24
ATOM     24  C   UNL     1      19.094 -32.747  20.905  1.00  0.00    -0.000 C 
BRANCH  24  25
ATOM     25  C   UNL     1      19.970 -32.349  22.103  1.00  0.00    -0.000 C 
BRANCH  25  26
ATOM     26  C   UNL     1      21.308 -31.763  21.633  1.00  0.00    -0.000 C 
BRANCH  26  27
ATOM     27  C   UNL     1      21.089 -30.494  20.797  1.00  0.00    -0.000 C 
BRANCH  27  28
ATOM     28  C   UNL     1      21.343 -29.201  21.594  1.00  0.00    -0.000 C 
BRANCH  28  29
ATOM     29  C   UNL     1      20.718 -27.934  20.985  1.00  0.00    -0.003 C 
ATOM     30  C   UNL     1      19.195 -28.005  20.891  1.00  0.00     0.004 C 
ENDBRANCH  28  29
ENDBRANCH  27  28
ENDBRANCH  26  27
ENDBRANCH  25  26
ENDBRANCH  24  25
ENDBRANCH  23  24
ENDBRANCH  22  23
ENDBRANCH  21  22
ENDBRANCH  20  21
ENDBRANCH  19  20
ENDBRANCH  18  19
ENDBRANCH  17  18
ENDBRANCH   1  17
TORSDOF 26
ENDMDL
MODEL 8
REMARK VINA RESULT:    -4.953      3.344      7.760
REMARK INTER + INTRA:         -17.219
REMARK INTER:                 -12.837
REMARK INTRA:                  -4.382
REMARK UNBOUND:                -4.739
REMARK SMILES CCCCCCCCCCCCCCCCCCCCCCCCCCCC(=O)[O-]
REMARK SMILES IDX 15 1 16 2 17 3 18 4 19 5 20 6 21 7 22 8 23 9 24 10 25 11
REMARK SMILES IDX 26 12 27 13 28 14 29 15 30 16 14 17 13 18 12 19 11 20 10 21
REMARK SMILES IDX 9 22 8 23 7 24 6 25 5 26 4 27 3 28 2 29 1 30
REMARK H PARENT
REMARK Flexibility Score: inf
ROOT
ATOM      1  C   UNL     1      14.513 -29.031  23.383  1.00  0.00     0.000 C 
ENDROOT
BRANCH   1   2
ATOM      2  C   UNL     1      15.250 -28.781  22.055  1.00  0.00     0.000 C 
BRANCH   2   3
ATOM      3  C   UNL     1      16.615 -29.486  22.000  1.00  0.00     0.000 C 
BRANCH   3   4
ATOM      4  C   UNL     1      16.874 -30.374  23.230  1.00  0.00     0.000 C 
BRANCH   4   5
ATOM      5  C   UNL     1      17.866 -31.512  22.936  1.00  0.00     0.000 C 
BRANCH   5   6
ATOM      6  C   UNL     1      18.403 -31.466  21.496  1.00  0.00     0.000 C 
BRANCH   6   7
ATOM      7  C   UNL     1      19.872 -31.910  21.392  1.00  0.00     0.000 C 
BRANCH   7   8
ATOM      8  C   UNL     1      20.804 -30.829  20.804  1.00  0.00     0.000 C 
BRANCH   8   9
ATOM      9  C   UNL     1      20.744 -29.514  21.601  1.00  0.00     0.000 C 
BRANCH   9  10
ATOM     10  C   UNL     1      19.924 -28.425  20.891  1.00  0.00     0.000 C 
BRANCH  10  11
ATOM     11  C   UNL     1      20.672 -27.083  20.810  1.00  0.00     0.000 C 
BRANCH  11  12
ATOM     12  C   UNL     1      22.203 -27.251  20.813  1.00  0.00     0.006 C 
BRANCH  12  13
ATOM     13  C   UNL     1      22.947 -26.298  21.763  1.00  0.00     0.053 C 
BRANCH  13  14
ATOM     14  C   UNL     1      22.850 -24.871  21.317  1.00  0.00     0.041 C 
ATOM     15  O   UNL     1      22.097 -24.068  21.930  1.00  0.00    -0.550 OA
ATOM     16  O   UNL     1      23.618 -24.420  20.250  1.00  0.00    -0.550 OA
ENDBRANCH  13  14
ENDBRANCH  12  13
ENDBRANCH  11  12
ENDBRANCH  10  11
ENDBRANCH   9  10
ENDBRANCH   8   9
ENDBRANCH   7   8
ENDBRANCH   6   7
ENDBRANCH   5   6
ENDBRANCH   4   5
ENDBRANCH   3   4
ENDBRANCH   2   3
ENDBRANCH   1   2
BRANCH   1  17
ATOM     17  C   UNL     1      13.056 -29.475  23.177  1.00  0.00     0.000 C 
BRANCH  17  18
ATOM     18  C   UNL     1      12.923 -30.982  22.909  1.00  0.00     0.000 C 
BRANCH  18  19
ATOM     19  C   UNL     1      12.741 -31.256  21.412  1.00  0.00     0.000 C 
BRANCH  19  20
ATOM     20  C   UNL     1      13.847 -32.177  20.879  1.00  0.00     0.000 C 
BRANCH  20  21
ATOM     21  C   UNL     1      14.600 -32.920  21.996  1.00  0.00     0.000 C 
BRANCH  21  22
ATOM     22  C   UNL     1      15.272 -34.229  21.530  1.00  0.00    -0.000 C 
BRANCH  22  23
ATOM     23  C   UNL     1      16.006 -34.058  20.188  1.00  0.00    -0.000 C 
BRANCH  23  24
ATOM     24  C   UNL     1      16.914 -35.252  19.855  1.00  0.00    -0.000 C 
BRANCH  24  25
ATOM     25  C   UNL     1      18.315 -35.119  20.472  1.00  0.00    -0.000 C 
BRANCH  25  26
ATOM     26  C   UNL     1      18.461 -36.023  21.703  1.00  0.00    -0.000 C 
BRANCH  26  27
ATOM     27  C   UNL     1      18.722 -35.192  22.968  1.00  0.00    -0.000 C 
BRANCH  27  28
ATOM     28  C   UNL     1      18.127 -35.830  24.236  1.00  0.00    -0.000 C 
BRANCH  28  29
ATOM     29  C   UNL     1      16.861 -35.139  24.773  1.00  0.00    -0.003 C 
ATOM     30  C   UNL     1      17.163 -33.870  25.567  1.00  0.00     0.004 C 
ENDBRANCH  28  29
ENDBRANCH  27  28
ENDBRANCH  26  27
ENDBRANCH  25  26
ENDBRANCH  24  25
ENDBRANCH  23  24
ENDBRANCH  22  23
ENDBRANCH  21  22
ENDBRANCH  20  21
ENDBRANCH  19  20
ENDBRANCH  18  19
ENDBRANCH  17  18
ENDBRANCH   1  17
TORSDOF 26
ENDMDL
MODEL 9
REMARK VINA RESULT:    -4.890      2.676      6.359
REMARK INTER + INTRA:         -17.061
REMARK INTER:                 -11.458
REMARK INTRA:                  -5.603
REMARK UNBOUND:                -4.739
REMARK SMILES CCCCCCCCCCCCCCCCCCCCCCCCCCCC(=O)[O-]
REMARK SMILES IDX 15 1 16 2 17 3 18 4 19 5 20 6 21 7 22 8 23 9 24 10 25 11
REMARK SMILES IDX 26 12 27 13 28 14 29 15 30 16 14 17 13 18 12 19 11 20 10 21
REMARK SMILES IDX 9 22 8 23 7 24 6 25 5 26 4 27 3 28 2 29 1 30
REMARK H PARENT
REMARK Flexibility Score: inf
ROOT
ATOM      1  C   UNL     1      13.780 -32.081  22.448  1.00  0.00     0.000 C 
ENDROOT
BRANCH   1   2
ATOM      2  C   UNL     1      12.943 -31.068  21.649  1.00  0.00     0.000 C 
BRANCH   2   3
ATOM      3  C   UNL     1      12.333 -29.976  22.542  1.00  0.00     0.000 C 
BRANCH   3   4
ATOM      4  C   UNL     1      13.228 -29.622  23.743  1.00  0.00     0.000 C 
BRANCH   4   5
ATOM      5  C   UNL     1      14.063 -28.354  23.503  1.00  0.00     0.000 C 
BRANCH   5   6
ATOM      6  C   UNL     1      15.464 -28.669  22.951  1.00  0.00     0.000 C 
BRANCH   6   7
ATOM      7  C   UNL     1      16.145 -29.837  23.684  1.00  0.00     0.000 C 
BRANCH   7   8
ATOM      8  C   UNL     1      17.413 -30.357  22.974  1.00  0.00     0.000 C 
BRANCH   8   9
ATOM      9  C   UNL     1      17.263 -30.356  21.443  1.00  0.00     0.000 C 
BRANCH   9  10
ATOM     10  C   UNL     1      17.816 -31.633  20.790  1.00  0.00     0.000 C 
BRANCH  10  11
ATOM     11  C   UNL     1      18.854 -32.345  21.676  1.00  0.00     0.000 C 
BRANCH  11  12
ATOM     12  C   UNL     1      20.304 -32.054  21.247  1.00  0.00     0.006 C 
BRANCH  12  13
ATOM     13  C   UNL     1      21.161 -31.371  22.325  1.00  0.00     0.053 C 
BRANCH  13  14
ATOM     14  C   UNL     1      21.082 -29.877  22.243  1.00  0.00     0.041 C 
ATOM     15  O   UNL     1      21.428 -29.171  23.228  1.00  0.00    -0.550 OA
ATOM     16  O   UNL     1      20.659 -29.263  21.070  1.00  0.00    -0.550 OA
ENDBRANCH  13  14
ENDBRANCH  12  13
ENDBRANCH  11  12
ENDBRANCH  10  11
ENDBRANCH   9  10
ENDBRANCH   8   9
ENDBRANCH   7   8
ENDBRANCH   6   7
ENDBRANCH   5   6
ENDBRANCH   4   5
ENDBRANCH   3   4
ENDBRANCH   2   3
ENDBRANCH   1   2
BRANCH   1  17
ATOM     17  C   UNL     1      14.568 -33.043  21.545  1.00  0.00     0.000 C 
BRANCH  17  18
ATOM     18  C   UNL     1      15.427 -34.040  22.338  1.00  0.00     0.000 C 
BRANCH  18  19
ATOM     19  C   UNL     1      15.558 -33.603  23.801  1.00  0.00     0.000 C 
BRANCH  19  20
ATOM     20  C   UNL     1      16.785 -34.244  24.464  1.00  0.00     0.000 C 
BRANCH  20  21
ATOM     21  C   UNL     1      17.733 -33.211  25.097  1.00  0.00     0.000 C 
BRANCH  21  22
ATOM     22  C   UNL     1      18.991 -33.833  25.740  1.00  0.00    -0.000 C 
BRANCH  22  23
ATOM     23  C   UNL     1      19.474 -35.081  24.981  1.00  0.00    -0.000 C 
BRANCH  23  24
ATOM     24  C   UNL     1      20.553 -34.758  23.937  1.00  0.00    -0.000 C 
BRANCH  24  25
ATOM     25  C   UNL     1      20.470 -35.668  22.701  1.00  0.00    -0.000 C 
BRANCH  25  26
ATOM     26  C   UNL     1      19.193 -36.517  22.729  1.00  0.00    -0.000 C 
BRANCH  26  27
ATOM     27  C   UNL     1      18.206 -36.061  21.644  1.00  0.00    -0.000 C 
BRANCH  27  28
ATOM     28  C   UNL     1      17.835 -37.187  20.661  1.00  0.00    -0.000 C 
BRANCH  28  29
ATOM     29  C   UNL     1      17.154 -36.715  19.365  1.00  0.00    -0.003 C 
ATOM     30  C   UNL     1      16.999 -35.196  19.290  1.00  0.00     0.004 C 
ENDBRANCH  28  29
ENDBRANCH  27  28
ENDBRANCH  26  27
ENDBRANCH  25  26
ENDBRANCH  24  25
ENDBRANCH  23  24
ENDBRANCH  22  23
ENDBRANCH  21  22
ENDBRANCH  20  21
ENDBRANCH  19  20
ENDBRANCH  18  19
ENDBRANCH  17  18
ENDBRANCH   1  17
TORSDOF 26
ENDMDL
