MODEL 1
REMARK VINA RESULT:     0.025      0.000      0.000
REMARK INTER + INTRA:           1.048
REMARK INTER:                   0.036
REMARK INTRA:                   1.012
REMARK UNBOUND:                 1.012
REMARK SMILES OC[C@@H]1O[C@H](O[C@H]2OC=C[C@H]3[C@@H](O)[C@H]4O[C@@]4(CO)[C@H]23)[C@@H](O)[C@H](O)[C@@H]1O
REMARK SMILES IDX 6 1 7 2 10 3 9 4 11 5 8 6 19 7 12 8 16 9 14 10 15 11 13 12
REMARK SMILES IDX 17 14 18 15 5 17 20 18 4 19 22 20 3 21 24 22 21 23 23 25
REMARK SMILES IDX 2 27 1 28 25 30
REMARK H PARENT 13 13 18 16 21 24 23 26 1 29 25 31
REMARK Flexibility Score: inf
ROOT
ATOM      1  O   UNL     1     -22.769 -14.520 -13.308  1.00  0.00    -0.310 OA
ENDROOT
BRANCH   1   2
ATOM      2  C   UNL     1     -22.877 -15.925 -13.412  1.00  0.00     0.315 C 
ATOM      3  C   UNL     1     -24.366 -18.248 -12.495  1.00  0.00     0.018 C 
ATOM      4  C   UNL     1     -23.488 -17.650 -11.674  1.00  0.00     0.186 C 
ATOM      5  C   UNL     1     -24.397 -17.789 -13.918  1.00  0.00     0.059 C 
ATOM      6  O   UNL     1     -22.740 -16.529 -12.105  1.00  0.00    -0.472 OA
ATOM      7  C   UNL     1     -24.263 -16.281 -13.964  1.00  0.00     0.105 C 
ATOM      8  C   UNL     1     -25.608 -18.096 -14.798  1.00  0.00     0.154 C 
ATOM      9  C   UNL     1     -24.631 -15.947 -15.406  1.00  0.00     0.130 C 
ATOM     10  C   UNL     1     -25.507 -17.042 -15.919  1.00  0.00     0.183 C 
ATOM     11  O   UNL     1     -26.013 -15.756 -15.614  1.00  0.00    -0.360 OA
BRANCH   8  12
ATOM     12  O   UNL     1     -26.833 -18.024 -14.106  1.00  0.00    -0.390 OA
ATOM     13  H   UNL     1     -27.571 -18.012 -14.769  1.00  0.00     0.211 HD
ENDBRANCH   8  12
BRANCH   9  14
ATOM     14  C   UNL     1     -23.691 -15.243 -16.395  1.00  0.00     0.195 C 
BRANCH  14  15
ATOM     15  O   UNL     1     -24.115 -13.933 -16.670  1.00  0.00    -0.393 OA
ATOM     16  H   UNL     1     -24.848 -13.724 -16.035  1.00  0.00     0.210 HD
ENDBRANCH  14  15
ENDBRANCH   9  14
ENDBRANCH   1   2
BRANCH   1  17
ATOM     17  C   UNL     1     -21.554 -14.040 -13.863  1.00  0.00     0.286 C 
ATOM     18  C   UNL     1     -21.299 -14.793 -15.210  1.00  0.00     0.202 C 
ATOM     19  O   UNL     1     -20.532 -14.269 -12.903  1.00  0.00    -0.341 OA
ATOM     20  C   UNL     1     -20.174 -15.841 -15.076  1.00  0.00     0.179 C 
ATOM     21  C   UNL     1     -19.251 -14.068 -13.469  1.00  0.00     0.178 C 
ATOM     22  C   UNL     1     -18.896 -15.236 -14.434  1.00  0.00     0.177 C 
BRANCH  18  23
ATOM     23  O   UNL     1     -20.945 -13.876 -16.215  1.00  0.00    -0.385 OA
ATOM     24  H   UNL     1     -19.998 -13.623 -16.053  1.00  0.00     0.211 HD
ENDBRANCH  18  23
BRANCH  20  25
ATOM     25  O   UNL     1     -20.623 -16.976 -14.370  1.00  0.00    -0.387 OA
ATOM     26  H   UNL     1     -20.425 -16.843 -13.410  1.00  0.00     0.211 HD
ENDBRANCH  20  25
BRANCH  21  27
ATOM     27  C   UNL     1     -18.221 -13.875 -12.345  1.00  0.00     0.191 C 
BRANCH  27  28
ATOM     28  O   UNL     1     -16.913 -13.988 -12.848  1.00  0.00    -0.394 OA
ATOM     29  H   UNL     1     -16.353 -14.380 -12.130  1.00  0.00     0.210 HD
ENDBRANCH  27  28
ENDBRANCH  21  27
BRANCH  22  30
ATOM     30  O   UNL     1     -18.161 -16.242 -13.780  1.00  0.00    -0.387 OA
ATOM     31  H   UNL     1     -17.316 -16.356 -14.288  1.00  0.00     0.211 HD
ENDBRANCH  22  30
ENDBRANCH   1  17
TORSDOF 10
ENDMDL
MODEL 2
REMARK VINA RESULT:     2.827      2.090      4.988
REMARK INTER + INTRA:           4.996
REMARK INTER:                   4.078
REMARK INTRA:                   0.918
REMARK UNBOUND:                 1.012
REMARK SMILES OC[C@@H]1O[C@H](O[C@H]2OC=C[C@H]3[C@@H](O)[C@H]4O[C@@]4(CO)[C@H]23)[C@@H](O)[C@H](O)[C@@H]1O
REMARK SMILES IDX 6 1 7 2 10 3 9 4 11 5 8 6 19 7 12 8 16 9 14 10 15 11 13 12
REMARK SMILES IDX 17 14 18 15 5 17 20 18 4 19 22 20 3 21 24 22 21 23 23 25
REMARK SMILES IDX 2 27 1 28 25 30
REMARK H PARENT 13 13 18 16 21 24 23 26 1 29 25 31
REMARK Flexibility Score: inf
ROOT
ATOM      1  O   UNL     1     -23.960 -15.177 -12.708  1.00  0.00    -0.310 OA
ENDROOT
BRANCH   1   2
ATOM      2  C   UNL     1     -23.309 -14.385 -13.680  1.00  0.00     0.315 C 
ATOM      3  C   UNL     1     -21.206 -14.376 -15.689  1.00  0.00     0.018 C 
ATOM      4  C   UNL     1     -20.885 -14.328 -14.386  1.00  0.00     0.186 C 
ATOM      5  C   UNL     1     -22.653 -14.248 -16.045  1.00  0.00     0.059 C 
ATOM      6  O   UNL     1     -21.893 -14.314 -13.393  1.00  0.00    -0.472 OA
ATOM      7  C   UNL     1     -23.487 -15.037 -15.057  1.00  0.00     0.105 C 
ATOM      8  C   UNL     1     -23.148 -14.700 -17.418  1.00  0.00     0.154 C 
ATOM      9  C   UNL     1     -24.858 -15.077 -15.722  1.00  0.00     0.130 C 
ATOM     10  C   UNL     1     -24.658 -14.920 -17.194  1.00  0.00     0.183 C 
ATOM     11  O   UNL     1     -25.030 -16.157 -16.615  1.00  0.00    -0.360 OA
BRANCH   8  12
ATOM     12  O   UNL     1     -22.504 -15.861 -17.890  1.00  0.00    -0.390 OA
ATOM     13  H   UNL     1     -23.175 -16.433 -18.344  1.00  0.00     0.211 HD
ENDBRANCH   8  12
BRANCH   9  14
ATOM     14  C   UNL     1     -26.138 -14.504 -15.096  1.00  0.00     0.195 C 
BRANCH  14  15
ATOM     15  O   UNL     1     -27.191 -15.433 -15.125  1.00  0.00    -0.393 OA
ATOM     16  H   UNL     1     -26.825 -16.276 -15.500  1.00  0.00     0.210 HD
ENDBRANCH  14  15
ENDBRANCH   9  14
ENDBRANCH   1   2
BRANCH   1  17
ATOM     17  C   UNL     1     -23.425 -16.491 -12.652  1.00  0.00     0.286 C 
ATOM     18  C   UNL     1     -23.918 -17.276 -13.911  1.00  0.00     0.202 C 
ATOM     19  O   UNL     1     -23.864 -17.074 -11.433  1.00  0.00    -0.341 OA
ATOM     20  C   UNL     1     -25.009 -18.307 -13.552  1.00  0.00     0.179 C 
ATOM     21  C   UNL     1     -23.601 -18.464 -11.413  1.00  0.00     0.178 C 
ATOM     22  C   UNL     1     -24.578 -19.212 -12.367  1.00  0.00     0.177 C 
BRANCH  18  23
ATOM     23  O   UNL     1     -22.840 -17.949 -14.512  1.00  0.00    -0.385 OA
ATOM     24  H   UNL     1     -22.510 -17.366 -15.246  1.00  0.00     0.211 HD
ENDBRANCH  18  23
BRANCH  20  25
ATOM     25  O   UNL     1     -26.241 -17.670 -13.299  1.00  0.00    -0.387 OA
ATOM     26  H   UNL     1     -26.065 -16.851 -12.773  1.00  0.00     0.211 HD
ENDBRANCH  20  25
BRANCH  21  27
ATOM     27  C   UNL     1     -23.658 -18.973  -9.965  1.00  0.00     0.191 C 
BRANCH  27  28
ATOM     28  O   UNL     1     -22.362 -19.104  -9.435  1.00  0.00    -0.394 OA
ATOM     29  H   UNL     1     -21.729 -18.751 -10.111  1.00  0.00     0.210 HD
ENDBRANCH  27  28
ENDBRANCH  21  27
BRANCH  22  30
ATOM     30  O   UNL     1     -25.712 -19.683 -11.680  1.00  0.00    -0.387 OA
ATOM     31  H   UNL     1     -26.503 -19.431 -12.224  1.00  0.00     0.211 HD
ENDBRANCH  22  30
ENDBRANCH   1  17
TORSDOF 10
ENDMDL
