MODEL 1
REMARK VINA RESULT:    -4.312      0.000      0.000
REMARK INTER + INTRA:          -5.973
REMARK INTER:                  -5.825
REMARK INTRA:                  -0.148
REMARK UNBOUND:                -0.148
REMARK SMILES [NH3+]CCCC[C@@H]([NH3+])C(=O)[O-]
REMARK SMILES IDX 4 1 3 2 2 3 1 4 5 8 6 9 7 10 8 14 9 15 10 16
REMARK H PARENT 1 5 1 6 1 7 7 11 7 12 7 13
REMARK Flexibility Score: inf
ROOT
ATOM      1  C   UNL     1     -27.384 -47.330  47.889  1.00  0.00     0.012 C 
ENDROOT
BRANCH   1   2
ATOM      2  C   UNL     1     -27.221 -48.794  47.457  1.00  0.00     0.061 C 
BRANCH   2   3
ATOM      3  C   UNL     1     -28.518 -49.386  46.879  1.00  0.00     0.258 C 
BRANCH   3   4
ATOM      4  N   UNL     1     -28.367 -50.798  46.520  1.00  0.00    -0.358 N 
ATOM      5  H   UNL     1     -28.321 -51.391  47.380  1.00  0.00     0.344 HD
ATOM      6  H   UNL     1     -29.162 -51.106  45.914  1.00  0.00     0.344 HD
ATOM      7  H   UNL     1     -27.479 -50.918  45.982  1.00  0.00     0.344 HD
ENDBRANCH   3   4
ENDBRANCH   2   3
ENDBRANCH   1   2
BRANCH   1   8
ATOM      8  C   UNL     1     -26.516 -47.020  49.120  1.00  0.00     0.072 C 
BRANCH   8   9
ATOM      9  C   UNL     1     -25.092 -46.567  48.731  1.00  0.00     0.227 C 
BRANCH   9  10
ATOM     10  N   UNL     1     -24.840 -45.201  49.207  1.00  0.00    -0.350 N 
ATOM     11  H   UNL     1     -24.551 -44.594  48.406  1.00  0.00     0.345 HD
ATOM     12  H   UNL     1     -25.700 -44.799  49.647  1.00  0.00     0.345 HD
ATOM     13  H   UNL     1     -24.065 -45.206  49.909  1.00  0.00     0.345 HD
ENDBRANCH   9  10
BRANCH   9  14
ATOM     14  C   UNL     1     -24.054 -47.505  49.291  1.00  0.00     0.099 C 
ATOM     15  O   UNL     1     -23.293 -47.125  50.220  1.00  0.00    -0.544 OA
ATOM     16  O   UNL     1     -23.923 -48.792  48.782  1.00  0.00    -0.544 OA
ENDBRANCH   9  14
ENDBRANCH   8   9
ENDBRANCH   1   8
TORSDOF 7
ENDMDL
MODEL 2
REMARK VINA RESULT:    -4.239      1.816      2.037
REMARK INTER + INTRA:          -5.873
REMARK INTER:                  -5.361
REMARK INTRA:                  -0.512
REMARK UNBOUND:                -0.148
REMARK SMILES [NH3+]CCCC[C@@H]([NH3+])C(=O)[O-]
REMARK SMILES IDX 4 1 3 2 2 3 1 4 5 8 6 9 7 10 8 14 9 15 10 16
REMARK H PARENT 1 5 1 6 1 7 7 11 7 12 7 13
REMARK Flexibility Score: inf
ROOT
ATOM      1  C   UNL     1     -28.734 -47.895  47.412  1.00  0.00     0.012 C 
ENDROOT
BRANCH   1   2
ATOM      2  C   UNL     1     -29.085 -49.147  46.598  1.00  0.00     0.061 C 
BRANCH   2   3
ATOM      3  C   UNL     1     -27.840 -49.849  46.028  1.00  0.00     0.258 C 
BRANCH   3   4
ATOM      4  N   UNL     1     -27.346 -50.904  46.915  1.00  0.00    -0.358 N 
ATOM      5  H   UNL     1     -26.352 -51.137  46.688  1.00  0.00     0.344 HD
ATOM      6  H   UNL     1     -27.425 -50.605  47.914  1.00  0.00     0.344 HD
ATOM      7  H   UNL     1     -27.930 -51.761  46.781  1.00  0.00     0.344 HD
ENDBRANCH   3   4
ENDBRANCH   2   3
ENDBRANCH   1   2
BRANCH   1   8
ATOM      8  C   UNL     1     -27.442 -47.244  46.890  1.00  0.00     0.072 C 
BRANCH   8   9
ATOM      9  C   UNL     1     -26.416 -46.995  48.017  1.00  0.00     0.227 C 
BRANCH   9  10
ATOM     10  N   UNL     1     -27.022 -47.254  49.329  1.00  0.00    -0.350 N 
ATOM     11  H   UNL     1     -26.676 -48.168  49.704  1.00  0.00     0.345 HD
ATOM     12  H   UNL     1     -26.778 -46.493  50.004  1.00  0.00     0.345 HD
ATOM     13  H   UNL     1     -28.061 -47.312  49.235  1.00  0.00     0.345 HD
ENDBRANCH   9  10
BRANCH   9  14
ATOM     14  C   UNL     1     -25.194 -47.858  47.836  1.00  0.00     0.099 C 
ATOM     15  O   UNL     1     -24.151 -47.379  47.318  1.00  0.00    -0.544 OA
ATOM     16  O   UNL     1     -25.211 -49.190  48.234  1.00  0.00    -0.544 OA
ENDBRANCH   9  14
ENDBRANCH   8   9
ENDBRANCH   1   8
TORSDOF 7
ENDMDL
MODEL 3
REMARK VINA RESULT:    -4.167      3.251      5.064
REMARK INTER + INTRA:          -5.776
REMARK INTER:                  -5.359
REMARK INTRA:                  -0.417
REMARK UNBOUND:                -0.148
REMARK SMILES [NH3+]CCCC[C@@H]([NH3+])C(=O)[O-]
REMARK SMILES IDX 4 1 3 2 2 3 1 4 5 8 6 9 7 10 8 14 9 15 10 16
REMARK H PARENT 1 5 1 6 1 7 7 11 7 12 7 13
REMARK Flexibility Score: inf
ROOT
ATOM      1  C   UNL     1     -26.131 -49.333  47.638  1.00  0.00     0.012 C 
ENDROOT
BRANCH   1   2
ATOM      2  C   UNL     1     -25.234 -48.133  47.973  1.00  0.00     0.061 C 
BRANCH   2   3
ATOM      3  C   UNL     1     -26.001 -47.001  48.678  1.00  0.00     0.258 C 
BRANCH   3   4
ATOM      4  N   UNL     1     -27.316 -47.437  49.152  1.00  0.00    -0.358 N 
ATOM      5  H   UNL     1     -28.039 -47.290  48.412  1.00  0.00     0.344 HD
ATOM      6  H   UNL     1     -27.287 -48.444  49.430  1.00  0.00     0.344 HD
ATOM      7  H   UNL     1     -27.578 -46.872  49.993  1.00  0.00     0.344 HD
ENDBRANCH   3   4
ENDBRANCH   2   3
ENDBRANCH   1   2
BRANCH   1   8
ATOM      8  C   UNL     1     -26.452 -49.377  46.136  1.00  0.00     0.072 C 
BRANCH   8   9
ATOM      9  C   UNL     1     -27.941 -49.683  45.864  1.00  0.00     0.227 C 
BRANCH   9  10
ATOM     10  N   UNL     1     -28.345 -50.914  46.553  1.00  0.00    -0.350 N 
ATOM     11  H   UNL     1     -29.306 -50.799  46.951  1.00  0.00     0.345 HD
ATOM     12  H   UNL     1     -28.344 -51.725  45.892  1.00  0.00     0.345 HD
ATOM     13  H   UNL     1     -27.688 -51.113  47.342  1.00  0.00     0.345 HD
ENDBRANCH   9  10
BRANCH   9  14
ATOM     14  C   UNL     1     -28.818 -48.539  46.302  1.00  0.00     0.099 C 
ATOM     15  O   UNL     1     -29.566 -48.662  47.307  1.00  0.00    -0.544 OA
ATOM     16  O   UNL     1     -28.813 -47.341  45.596  1.00  0.00    -0.544 OA
ENDBRANCH   9  14
ENDBRANCH   8   9
ENDBRANCH   1   8
TORSDOF 7
ENDMDL
MODEL 4
REMARK VINA RESULT:    -4.030      2.905      5.050
REMARK INTER + INTRA:          -5.592
REMARK INTER:                  -5.459
REMARK INTRA:                  -0.133
REMARK UNBOUND:                -0.148
REMARK SMILES [NH3+]CCCC[C@@H]([NH3+])C(=O)[O-]
REMARK SMILES IDX 4 1 3 2 2 3 1 4 5 8 6 9 7 10 8 14 9 15 10 16
REMARK H PARENT 1 5 1 6 1 7 7 11 7 12 7 13
REMARK Flexibility Score: inf
ROOT
ATOM      1  C   UNL     1     -26.880 -47.174  48.858  1.00  0.00     0.012 C 
ENDROOT
BRANCH   1   2
ATOM      2  C   UNL     1     -25.362 -47.299  48.674  1.00  0.00     0.061 C 
BRANCH   2   3
ATOM      3  C   UNL     1     -24.582 -46.229  49.457  1.00  0.00     0.258 C 
BRANCH   3   4
ATOM      4  N   UNL     1     -24.630 -44.920  48.801  1.00  0.00    -0.358 N 
ATOM      5  H   UNL     1     -25.389 -44.900  48.082  1.00  0.00     0.344 HD
ATOM      6  H   UNL     1     -24.785 -44.165  49.507  1.00  0.00     0.344 HD
ATOM      7  H   UNL     1     -23.715 -44.744  48.328  1.00  0.00     0.344 HD
ENDBRANCH   3   4
ENDBRANCH   2   3
ENDBRANCH   1   2
BRANCH   1   8
ATOM      8  C   UNL     1     -27.602 -47.198  47.500  1.00  0.00     0.072 C 
BRANCH   8   9
ATOM      9  C   UNL     1     -28.616 -48.357  47.397  1.00  0.00     0.227 C 
BRANCH   9  10
ATOM     10  N   UNL     1     -29.931 -47.853  46.981  1.00  0.00    -0.350 N 
ATOM     11  H   UNL     1     -30.682 -48.313  47.546  1.00  0.00     0.345 HD
ATOM     12  H   UNL     1     -29.988 -46.817  47.114  1.00  0.00     0.345 HD
ATOM     13  H   UNL     1     -30.096 -48.079  45.974  1.00  0.00     0.345 HD
ENDBRANCH   9  10
BRANCH   9  14
ATOM     14  C   UNL     1     -28.140 -49.408  46.429  1.00  0.00     0.099 C 
ATOM     15  O   UNL     1     -27.428 -49.085  45.442  1.00  0.00    -0.544 OA
ATOM     16  O   UNL     1     -28.489 -50.741  46.613  1.00  0.00    -0.544 OA
ENDBRANCH   9  14
ENDBRANCH   8   9
ENDBRANCH   1   8
TORSDOF 7
ENDMDL
MODEL 5
REMARK VINA RESULT:    -3.993      1.912      2.425
REMARK INTER + INTRA:          -5.542
REMARK INTER:                  -5.047
REMARK INTRA:                  -0.495
REMARK UNBOUND:                -0.148
REMARK SMILES [NH3+]CCCC[C@@H]([NH3+])C(=O)[O-]
REMARK SMILES IDX 4 1 3 2 2 3 1 4 5 8 6 9 7 10 8 14 9 15 10 16
REMARK H PARENT 1 5 1 6 1 7 7 11 7 12 7 13
REMARK Flexibility Score: inf
ROOT
ATOM      1  C   UNL     1     -26.171 -46.799  49.370  1.00  0.00     0.012 C 
ENDROOT
BRANCH   1   2
ATOM      2  C   UNL     1     -26.629 -47.030  47.924  1.00  0.00     0.061 C 
BRANCH   2   3
ATOM      3  C   UNL     1     -26.793 -48.523  47.588  1.00  0.00     0.258 C 
BRANCH   3   4
ATOM      4  N   UNL     1     -25.572 -49.286  47.856  1.00  0.00    -0.358 N 
ATOM      5  H   UNL     1     -25.132 -48.970  48.749  1.00  0.00     0.344 HD
ATOM      6  H   UNL     1     -25.786 -50.308  47.903  1.00  0.00     0.344 HD
ATOM      7  H   UNL     1     -24.896 -49.127  47.074  1.00  0.00     0.344 HD
ENDBRANCH   3   4
ENDBRANCH   2   3
ENDBRANCH   1   2
BRANCH   1   8
ATOM      8  C   UNL     1     -24.896 -45.940  49.412  1.00  0.00     0.072 C 
BRANCH   8   9
ATOM      9  C   UNL     1     -24.332 -45.662  48.002  1.00  0.00     0.227 C 
BRANCH   9  10
ATOM     10  N   UNL     1     -23.961 -44.248  47.868  1.00  0.00    -0.350 N 
ATOM     11  H   UNL     1     -23.013 -44.089  48.283  1.00  0.00     0.345 HD
ATOM     12  H   UNL     1     -23.944 -43.964  46.861  1.00  0.00     0.345 HD
ATOM     13  H   UNL     1     -24.646 -43.650  48.383  1.00  0.00     0.345 HD
ENDBRANCH   9  10
BRANCH   9  14
ATOM     14  C   UNL     1     -23.139 -46.535  47.714  1.00  0.00     0.099 C 
ATOM     15  O   UNL     1     -23.231 -47.480  46.886  1.00  0.00    -0.544 OA
ATOM     16  O   UNL     1     -21.931 -46.311  48.364  1.00  0.00    -0.544 OA
ENDBRANCH   9  14
ENDBRANCH   8   9
ENDBRANCH   1   8
TORSDOF 7
ENDMDL
MODEL 6
REMARK VINA RESULT:    -3.943      3.310      4.950
REMARK INTER + INTRA:          -5.474
REMARK INTER:                  -5.245
REMARK INTRA:                  -0.229
REMARK UNBOUND:                -0.148
REMARK SMILES [NH3+]CCCC[C@@H]([NH3+])C(=O)[O-]
REMARK SMILES IDX 4 1 3 2 2 3 1 4 5 8 6 9 7 10 8 14 9 15 10 16
REMARK H PARENT 1 5 1 6 1 7 7 11 7 12 7 13
REMARK Flexibility Score: inf
ROOT
ATOM      1  C   UNL     1     -26.537 -46.476  46.611  1.00  0.00     0.012 C 
ENDROOT
BRANCH   1   2
ATOM      2  C   UNL     1     -25.162 -45.798  46.667  1.00  0.00     0.061 C 
BRANCH   2   3
ATOM      3  C   UNL     1     -24.416 -46.083  47.982  1.00  0.00     0.258 C 
BRANCH   3   4
ATOM      4  N   UNL     1     -24.709 -45.083  49.011  1.00  0.00    -0.358 N 
ATOM      5  H   UNL     1     -23.826 -44.644  49.357  1.00  0.00     0.344 HD
ATOM      6  H   UNL     1     -25.350 -44.348  48.632  1.00  0.00     0.344 HD
ATOM      7  H   UNL     1     -25.187 -45.552  49.814  1.00  0.00     0.344 HD
ENDBRANCH   3   4
ENDBRANCH   2   3
ENDBRANCH   1   2
BRANCH   1   8
ATOM      8  C   UNL     1     -26.399 -48.006  46.684  1.00  0.00     0.072 C 
BRANCH   8   9
ATOM      9  C   UNL     1     -27.313 -48.625  47.763  1.00  0.00     0.227 C 
BRANCH   9  10
ATOM     10  N   UNL     1     -27.546 -47.667  48.849  1.00  0.00    -0.350 N 
ATOM     11  H   UNL     1     -27.779 -48.180  49.731  1.00  0.00     0.345 HD
ATOM     12  H   UNL     1     -26.697 -47.077  49.011  1.00  0.00     0.345 HD
ATOM     13  H   UNL     1     -28.354 -47.048  48.610  1.00  0.00     0.345 HD
ENDBRANCH   9  10
BRANCH   9  14
ATOM     14  C   UNL     1     -28.629 -49.062  47.172  1.00  0.00     0.099 C 
ATOM     15  O   UNL     1     -28.722 -50.170  46.582  1.00  0.00    -0.544 OA
ATOM     16  O   UNL     1     -29.747 -48.242  47.268  1.00  0.00    -0.544 OA
ENDBRANCH   9  14
ENDBRANCH   8   9
ENDBRANCH   1   8
TORSDOF 7
ENDMDL
MODEL 7
REMARK VINA RESULT:    -3.903      2.960      4.671
REMARK INTER + INTRA:          -5.420
REMARK INTER:                  -4.937
REMARK INTRA:                  -0.484
REMARK UNBOUND:                -0.148
REMARK SMILES [NH3+]CCCC[C@@H]([NH3+])C(=O)[O-]
REMARK SMILES IDX 4 1 3 2 2 3 1 4 5 8 6 9 7 10 8 14 9 15 10 16
REMARK H PARENT 1 5 1 6 1 7 7 11 7 12 7 13
REMARK Flexibility Score: inf
ROOT
ATOM      1  C   UNL     1     -23.841 -46.667  50.075  1.00  0.00     0.012 C 
ENDROOT
BRANCH   1   2
ATOM      2  C   UNL     1     -23.022 -47.474  49.060  1.00  0.00     0.061 C 
BRANCH   2   3
ATOM      3  C   UNL     1     -21.846 -46.671  48.478  1.00  0.00     0.258 C 
BRANCH   3   4
ATOM      4  N   UNL     1     -22.224 -45.935  47.270  1.00  0.00    -0.358 N 
ATOM      5  H   UNL     1     -22.339 -44.918  47.482  1.00  0.00     0.344 HD
ATOM      6  H   UNL     1     -21.504 -46.066  46.523  1.00  0.00     0.344 HD
ATOM      7  H   UNL     1     -23.135 -46.308  46.917  1.00  0.00     0.344 HD
ENDBRANCH   3   4
ENDBRANCH   2   3
ENDBRANCH   1   2
BRANCH   1   8
ATOM      8  C   UNL     1     -25.083 -46.048  49.412  1.00  0.00     0.072 C 
BRANCH   8   9
ATOM      9  C   UNL     1     -25.899 -47.088  48.615  1.00  0.00     0.227 C 
BRANCH   9  10
ATOM     10  N   UNL     1     -27.190 -47.337  49.268  1.00  0.00    -0.350 N 
ATOM     11  H   UNL     1     -27.895 -47.641  48.556  1.00  0.00     0.345 HD
ATOM     12  H   UNL     1     -27.098 -48.081  49.998  1.00  0.00     0.345 HD
ATOM     13  H   UNL     1     -27.538 -46.458  49.715  1.00  0.00     0.345 HD
ENDBRANCH   9  10
BRANCH   9  14
ATOM     14  C   UNL     1     -26.121 -46.630  47.197  1.00  0.00     0.099 C 
ATOM     15  O   UNL     1     -25.196 -46.055  46.564  1.00  0.00    -0.544 OA
ATOM     16  O   UNL     1     -27.350 -46.832  46.579  1.00  0.00    -0.544 OA
ENDBRANCH   9  14
ENDBRANCH   8   9
ENDBRANCH   1   8
TORSDOF 7
ENDMDL
MODEL 8
REMARK VINA RESULT:    -3.850      7.165      7.821
REMARK INTER + INTRA:          -5.348
REMARK INTER:                  -4.786
REMARK INTRA:                  -0.562
REMARK UNBOUND:                -0.148
REMARK SMILES [NH3+]CCCC[C@@H]([NH3+])C(=O)[O-]
REMARK SMILES IDX 4 1 3 2 2 3 1 4 5 8 6 9 7 10 8 14 9 15 10 16
REMARK H PARENT 1 5 1 6 1 7 7 11 7 12 7 13
REMARK Flexibility Score: inf
ROOT
ATOM      1  C   UNL     1     -19.627 -48.546  49.945  1.00  0.00     0.012 C 
ENDROOT
BRANCH   1   2
ATOM      2  C   UNL     1     -18.851 -48.328  48.639  1.00  0.00     0.061 C 
BRANCH   2   3
ATOM      3  C   UNL     1     -19.669 -48.715  47.395  1.00  0.00     0.258 C 
BRANCH   3   4
ATOM      4  N   UNL     1     -19.780 -50.167  47.237  1.00  0.00    -0.358 N 
ATOM      5  H   UNL     1     -18.886 -50.634  47.510  1.00  0.00     0.344 HD
ATOM      6  H   UNL     1     -20.568 -50.536  47.817  1.00  0.00     0.344 HD
ATOM      7  H   UNL     1     -19.980 -50.385  46.234  1.00  0.00     0.344 HD
ENDBRANCH   3   4
ENDBRANCH   2   3
ENDBRANCH   1   2
BRANCH   1   8
ATOM      8  C   UNL     1     -18.838 -49.446  50.910  1.00  0.00     0.072 C 
BRANCH   8   9
ATOM      9  C   UNL     1     -19.512 -50.820  51.112  1.00  0.00     0.227 C 
BRANCH   9  10
ATOM     10  N   UNL     1     -20.871 -50.811  50.558  1.00  0.00    -0.350 N 
ATOM     11  H   UNL     1     -21.409 -51.631  50.923  1.00  0.00     0.345 HD
ATOM     12  H   UNL     1     -21.372 -49.930  50.820  1.00  0.00     0.345 HD
ATOM     13  H   UNL     1     -20.831 -50.886  49.516  1.00  0.00     0.345 HD
ENDBRANCH   9  10
BRANCH   9  14
ATOM     14  C   UNL     1     -18.704 -51.919  50.473  1.00  0.00     0.099 C 
ATOM     15  O   UNL     1     -18.256 -52.865  51.173  1.00  0.00    -0.544 OA
ATOM     16  O   UNL     1     -18.443 -51.895  49.108  1.00  0.00    -0.544 OA
ENDBRANCH   9  14
ENDBRANCH   8   9
ENDBRANCH   1   8
TORSDOF 7
ENDMDL
MODEL 9
REMARK VINA RESULT:    -3.848      4.401      5.867
REMARK INTER + INTRA:          -5.346
REMARK INTER:                  -4.885
REMARK INTRA:                  -0.460
REMARK UNBOUND:                -0.148
REMARK SMILES [NH3+]CCCC[C@@H]([NH3+])C(=O)[O-]
REMARK SMILES IDX 4 1 3 2 2 3 1 4 5 8 6 9 7 10 8 14 9 15 10 16
REMARK H PARENT 1 5 1 6 1 7 7 11 7 12 7 13
REMARK Flexibility Score: inf
ROOT
ATOM      1  C   UNL     1     -19.719 -48.269  50.136  1.00  0.00     0.012 C 
ENDROOT
BRANCH   1   2
ATOM      2  C   UNL     1     -19.485 -49.781  50.251  1.00  0.00     0.061 C 
BRANCH   2   3
ATOM      3  C   UNL     1     -20.715 -50.603  49.831  1.00  0.00     0.258 C 
BRANCH   3   4
ATOM      4  N   UNL     1     -21.777 -50.562  50.839  1.00  0.00    -0.358 N 
ATOM      5  H   UNL     1     -21.464 -51.031  51.719  1.00  0.00     0.344 HD
ATOM      6  H   UNL     1     -22.051 -49.573  51.037  1.00  0.00     0.344 HD
ATOM      7  H   UNL     1     -22.615 -51.068  50.469  1.00  0.00     0.344 HD
ENDBRANCH   3   4
ENDBRANCH   2   3
ENDBRANCH   1   2
BRANCH   1   8
ATOM      8  C   UNL     1     -20.376 -47.915  48.791  1.00  0.00     0.072 C 
BRANCH   8   9
ATOM      9  C   UNL     1     -21.449 -46.816  48.935  1.00  0.00     0.227 C 
BRANCH   9  10
ATOM     10  N   UNL     1     -21.689 -46.160  47.644  1.00  0.00    -0.350 N 
ATOM     11  H   UNL     1     -21.176 -45.249  47.608  1.00  0.00     0.345 HD
ATOM     12  H   UNL     1     -21.364 -46.767  46.856  1.00  0.00     0.345 HD
ATOM     13  H   UNL     1     -22.710 -45.964  47.529  1.00  0.00     0.345 HD
ENDBRANCH   9  10
BRANCH   9  14
ATOM     14  C   UNL     1     -22.739 -47.385  49.468  1.00  0.00     0.099 C 
ATOM     15  O   UNL     1     -23.215 -48.443  48.978  1.00  0.00    -0.544 OA
ATOM     16  O   UNL     1     -23.415 -46.745  50.500  1.00  0.00    -0.544 OA
ENDBRANCH   9  14
ENDBRANCH   8   9
ENDBRANCH   1   8
TORSDOF 7
ENDMDL
