MODEL 1
REMARK VINA RESULT:    -3.749      0.000      0.000
REMARK INTER + INTRA:          -4.870
REMARK INTER:                  -4.735
REMARK INTRA:                  -0.135
REMARK UNBOUND:                -0.135
REMARK SMILES CCCCCCO
REMARK SMILES IDX 4 1 3 2 2 3 1 4 5 5 6 6 7 7
REMARK H PARENT 7 8
REMARK Flexibility Score: inf
ROOT
ATOM      1  C   UNL     1      21.227 -24.938  18.648  1.00  0.00     0.002 C 
ENDROOT
BRANCH   1   2
ATOM      2  C   UNL     1      21.396 -23.558  17.995  1.00  0.00    -0.000 C 
BRANCH   2   3
ATOM      3  C   UNL     1      22.750 -22.912  18.320  1.00  0.00    -0.003 C 
ATOM      4  C   UNL     1      22.669 -21.390  18.230  1.00  0.00     0.004 C 
ENDBRANCH   2   3
ENDBRANCH   1   2
BRANCH   1   5
ATOM      5  C   UNL     1      22.008 -25.070  19.965  1.00  0.00     0.028 C 
BRANCH   5   6
ATOM      6  C   UNL     1      21.080 -25.356  21.146  1.00  0.00     0.156 C 
BRANCH   6   7
ATOM      7  O   UNL     1      20.033 -24.425  21.175  1.00  0.00    -0.396 OA
ATOM      8  H   UNL     1      19.263 -24.864  20.729  1.00  0.00     0.210 HD
ENDBRANCH   6   7
ENDBRANCH   5   6
ENDBRANCH   1   5
TORSDOF 5
ENDMDL
MODEL 2
REMARK VINA RESULT:    -3.686      1.883      3.674
REMARK INTER + INTRA:          -4.790
REMARK INTER:                  -4.719
REMARK INTRA:                  -0.072
REMARK UNBOUND:                -0.135
REMARK SMILES CCCCCCO
REMARK SMILES IDX 4 1 3 2 2 3 1 4 5 5 6 6 7 7
REMARK H PARENT 7 8
REMARK Flexibility Score: inf
ROOT
ATOM      1  C   UNL     1      21.636 -25.009  19.339  1.00  0.00     0.002 C 
ENDROOT
BRANCH   1   2
ATOM      2  C   UNL     1      20.822 -25.157  20.634  1.00  0.00    -0.000 C 
BRANCH   2   3
ATOM      3  C   UNL     1      21.639 -25.770  21.779  1.00  0.00    -0.003 C 
ATOM      4  C   UNL     1      23.060 -26.095  21.328  1.00  0.00     0.004 C 
ENDBRANCH   2   3
ENDBRANCH   1   2
BRANCH   1   5
ATOM      5  C   UNL     1      21.136 -23.856  18.454  1.00  0.00     0.028 C 
BRANCH   5   6
ATOM      6  C   UNL     1      19.994 -24.300  17.538  1.00  0.00     0.156 C 
BRANCH   6   7
ATOM      7  O   UNL     1      18.759 -24.056  18.153  1.00  0.00    -0.396 OA
ATOM      8  H   UNL     1      18.387 -24.947  18.384  1.00  0.00     0.210 HD
ENDBRANCH   6   7
ENDBRANCH   5   6
ENDBRANCH   1   5
TORSDOF 5
ENDMDL
MODEL 3
REMARK VINA RESULT:    -3.647      1.993      2.543
REMARK INTER + INTRA:          -4.741
REMARK INTER:                  -4.670
REMARK INTRA:                  -0.071
REMARK UNBOUND:                -0.135
REMARK SMILES CCCCCCO
REMARK SMILES IDX 4 1 3 2 2 3 1 4 5 5 6 6 7 7
REMARK H PARENT 7 8
REMARK Flexibility Score: inf
ROOT
ATOM      1  C   UNL     1      21.792 -22.829  18.164  1.00  0.00     0.002 C 
ENDROOT
BRANCH   1   2
ATOM      2  C   UNL     1      23.307 -22.819  18.416  1.00  0.00    -0.000 C 
BRANCH   2   3
ATOM      3  C   UNL     1      23.949 -21.458  18.111  1.00  0.00    -0.003 C 
ATOM      4  C   UNL     1      22.901 -20.446  17.656  1.00  0.00     0.004 C 
ENDBRANCH   2   3
ENDBRANCH   1   2
BRANCH   1   5
ATOM      5  C   UNL     1      21.213 -24.251  18.089  1.00  0.00     0.028 C 
BRANCH   5   6
ATOM      6  C   UNL     1      19.845 -24.269  17.406  1.00  0.00     0.156 C 
BRANCH   6   7
ATOM      7  O   UNL     1      18.828 -24.122  18.357  1.00  0.00    -0.396 OA
ATOM      8  H   UNL     1      18.938 -23.212  18.739  1.00  0.00     0.210 HD
ENDBRANCH   6   7
ENDBRANCH   5   6
ENDBRANCH   1   5
TORSDOF 5
ENDMDL
MODEL 4
REMARK VINA RESULT:    -3.612      1.900      3.732
REMARK INTER + INTRA:          -4.697
REMARK INTER:                  -4.582
REMARK INTRA:                  -0.115
REMARK UNBOUND:                -0.135
REMARK SMILES CCCCCCO
REMARK SMILES IDX 4 1 3 2 2 3 1 4 5 5 6 6 7 7
REMARK H PARENT 7 8
REMARK Flexibility Score: inf
ROOT
ATOM      1  C   UNL     1      21.241 -23.513  17.978  1.00  0.00     0.002 C 
ENDROOT
BRANCH   1   2
ATOM      2  C   UNL     1      20.798 -24.666  18.892  1.00  0.00    -0.000 C 
BRANCH   2   3
ATOM      3  C   UNL     1      21.872 -25.055  19.916  1.00  0.00    -0.003 C 
ATOM      4  C   UNL     1      21.243 -25.455  21.248  1.00  0.00     0.004 C 
ENDBRANCH   2   3
ENDBRANCH   1   2
BRANCH   1   5
ATOM      5  C   UNL     1      22.682 -23.058  18.256  1.00  0.00     0.028 C 
BRANCH   5   6
ATOM      6  C   UNL     1      22.775 -21.540  18.418  1.00  0.00     0.156 C 
BRANCH   6   7
ATOM      7  O   UNL     1      23.489 -21.220  19.580  1.00  0.00    -0.396 OA
ATOM      8  H   UNL     1      24.374 -20.888  19.276  1.00  0.00     0.210 HD
ENDBRANCH   6   7
ENDBRANCH   5   6
ENDBRANCH   1   5
TORSDOF 5
ENDMDL
MODEL 5
REMARK VINA RESULT:    -3.355      3.325      5.186
REMARK INTER + INTRA:          -4.373
REMARK INTER:                  -4.288
REMARK INTRA:                  -0.084
REMARK UNBOUND:                -0.135
REMARK SMILES CCCCCCO
REMARK SMILES IDX 4 1 3 2 2 3 1 4 5 5 6 6 7 7
REMARK H PARENT 7 8
REMARK Flexibility Score: inf
ROOT
ATOM      1  C   UNL     1      23.825 -21.285  17.998  1.00  0.00     0.002 C 
ENDROOT
BRANCH   1   2
ATOM      2  C   UNL     1      23.359 -22.676  18.453  1.00  0.00    -0.000 C 
BRANCH   2   3
ATOM      3  C   UNL     1      21.880 -22.939  18.134  1.00  0.00    -0.003 C 
ATOM      4  C   UNL     1      21.525 -24.408  18.344  1.00  0.00     0.004 C 
ENDBRANCH   2   3
ENDBRANCH   1   2
BRANCH   1   5
ATOM      5  C   UNL     1      22.654 -20.362  17.622  1.00  0.00     0.028 C 
BRANCH   5   6
ATOM      6  C   UNL     1      23.133 -19.117  16.874  1.00  0.00     0.156 C 
BRANCH   6   7
ATOM      7  O   UNL     1      22.741 -17.960  17.560  1.00  0.00    -0.396 OA
ATOM      8  H   UNL     1      22.595 -18.237  18.502  1.00  0.00     0.210 HD
ENDBRANCH   6   7
ENDBRANCH   5   6
ENDBRANCH   1   5
TORSDOF 5
ENDMDL
MODEL 6
REMARK VINA RESULT:    -3.355     14.470     15.131
REMARK INTER + INTRA:          -4.372
REMARK INTER:                  -4.255
REMARK INTRA:                  -0.117
REMARK UNBOUND:                -0.135
REMARK SMILES CCCCCCO
REMARK SMILES IDX 4 1 3 2 2 3 1 4 5 5 6 6 7 7
REMARK H PARENT 7 8
REMARK Flexibility Score: inf
ROOT
ATOM      1  C   UNL     1       7.242 -24.081  15.475  1.00  0.00     0.002 C 
ENDROOT
BRANCH   1   2
ATOM      2  C   UNL     1       6.885 -25.414  14.800  1.00  0.00    -0.000 C 
BRANCH   2   3
ATOM      3  C   UNL     1       7.859 -25.786  13.674  1.00  0.00    -0.003 C 
ATOM      4  C   UNL     1       9.300 -25.468  14.064  1.00  0.00     0.004 C 
ENDBRANCH   2   3
ENDBRANCH   1   2
BRANCH   1   5
ATOM      5  C   UNL     1       7.259 -24.179  17.009  1.00  0.00     0.028 C 
BRANCH   5   6
ATOM      6  C   UNL     1       5.942 -23.701  17.621  1.00  0.00     0.156 C 
BRANCH   6   7
ATOM      7  O   UNL     1       5.390 -22.677  16.840  1.00  0.00    -0.396 OA
ATOM      8  H   UNL     1       4.737 -22.209  17.423  1.00  0.00     0.210 HD
ENDBRANCH   6   7
ENDBRANCH   5   6
ENDBRANCH   1   5
TORSDOF 5
ENDMDL
MODEL 7
REMARK VINA RESULT:    -3.335      2.297      3.768
REMARK INTER + INTRA:          -4.347
REMARK INTER:                  -4.312
REMARK INTRA:                  -0.035
REMARK UNBOUND:                -0.135
REMARK SMILES CCCCCCO
REMARK SMILES IDX 4 1 3 2 2 3 1 4 5 5 6 6 7 7
REMARK H PARENT 7 8
REMARK Flexibility Score: inf
ROOT
ATOM      1  C   UNL     1      22.504 -23.623  18.255  1.00  0.00     0.002 C 
ENDROOT
BRANCH   1   2
ATOM      2  C   UNL     1      21.380 -24.444  18.905  1.00  0.00    -0.000 C 
BRANCH   2   3
ATOM      3  C   UNL     1      19.988 -23.848  18.651  1.00  0.00    -0.003 C 
ATOM      4  C   UNL     1      19.522 -24.127  17.224  1.00  0.00     0.004 C 
ENDBRANCH   2   3
ENDBRANCH   1   2
BRANCH   1   5
ATOM      5  C   UNL     1      22.220 -22.113  18.272  1.00  0.00     0.028 C 
BRANCH   5   6
ATOM      6  C   UNL     1      23.498 -21.299  18.478  1.00  0.00     0.156 C 
BRANCH   6   7
ATOM      7  O   UNL     1      23.938 -21.419  19.803  1.00  0.00    -0.396 OA
ATOM      8  H   UNL     1      24.869 -21.076  19.816  1.00  0.00     0.210 HD
ENDBRANCH   6   7
ENDBRANCH   5   6
ENDBRANCH   1   5
TORSDOF 5
ENDMDL
MODEL 8
REMARK VINA RESULT:    -3.282     13.725     14.442
REMARK INTER + INTRA:          -4.281
REMARK INTER:                  -4.182
REMARK INTRA:                  -0.099
REMARK UNBOUND:                -0.135
REMARK SMILES CCCCCCO
REMARK SMILES IDX 4 1 3 2 2 3 1 4 5 5 6 6 7 7
REMARK H PARENT 7 8
REMARK Flexibility Score: inf
ROOT
ATOM      1  C   UNL     1       7.185 -25.288  14.160  1.00  0.00     0.002 C 
ENDROOT
BRANCH   1   2
ATOM      2  C   UNL     1       8.397 -26.135  13.743  1.00  0.00    -0.000 C 
BRANCH   2   3
ATOM      3  C   UNL     1       9.723 -25.371  13.867  1.00  0.00    -0.003 C 
ATOM      4  C   UNL     1      10.909 -26.330  13.906  1.00  0.00     0.004 C 
ENDBRANCH   2   3
ENDBRANCH   1   2
BRANCH   1   5
ATOM      5  C   UNL     1       7.563 -24.137  15.105  1.00  0.00     0.028 C 
BRANCH   5   6
ATOM      6  C   UNL     1       6.836 -24.244  16.446  1.00  0.00     0.156 C 
BRANCH   6   7
ATOM      7  O   UNL     1       6.212 -23.028  16.756  1.00  0.00    -0.396 OA
ATOM      8  H   UNL     1       5.764 -22.729  15.922  1.00  0.00     0.210 HD
ENDBRANCH   6   7
ENDBRANCH   5   6
ENDBRANCH   1   5
TORSDOF 5
ENDMDL
MODEL 9
REMARK VINA RESULT:    -3.135     12.827     13.638
REMARK INTER + INTRA:          -4.094
REMARK INTER:                  -4.017
REMARK INTRA:                  -0.077
REMARK UNBOUND:                -0.135
REMARK SMILES CCCCCCO
REMARK SMILES IDX 4 1 3 2 2 3 1 4 5 5 6 6 7 7
REMARK H PARENT 7 8
REMARK Flexibility Score: inf
ROOT
ATOM      1  C   UNL     1       8.962 -26.277  14.496  1.00  0.00     0.002 C 
ENDROOT
BRANCH   1   2
ATOM      2  C   UNL     1       7.731 -25.777  13.724  1.00  0.00    -0.000 C 
BRANCH   2   3
ATOM      3  C   UNL     1       7.256 -24.397  14.198  1.00  0.00    -0.003 C 
ATOM      4  C   UNL     1       7.432 -24.243  15.706  1.00  0.00     0.004 C 
ENDBRANCH   2   3
ENDBRANCH   1   2
BRANCH   1   5
ATOM      5  C   UNL     1      10.283 -25.766  13.898  1.00  0.00     0.028 C 
BRANCH   5   6
ATOM      6  C   UNL     1      11.446 -26.710  14.208  1.00  0.00     0.156 C 
BRANCH   6   7
ATOM      7  O   UNL     1      12.411 -26.050  14.980  1.00  0.00    -0.396 OA
ATOM      8  H   UNL     1      12.737 -26.715  15.640  1.00  0.00     0.210 HD
ENDBRANCH   6   7
ENDBRANCH   5   6
ENDBRANCH   1   5
TORSDOF 5
ENDMDL
