MODEL 1
REMARK VINA RESULT:    -3.935      0.000      0.000
REMARK INTER + INTRA:          -6.037
REMARK INTER:                  -6.005
REMARK INTRA:                  -0.032
REMARK UNBOUND:                -0.032
REMARK SMILES CC1=CCC[C@@H](C)C(=O)C[C@@H](C(C)C)C(=O)C1
REMARK SMILES IDX 8 1 9 2 6 3 7 4 5 5 4 6 3 7 2 8 1 9 10 11 11 12 15 13 16 14
REMARK SMILES IDX 17 15 12 17 13 18 14 19
REMARK H PARENT
REMARK Flexibility Score: 70.00
ROOT
ATOM      1  C   UNL     1      17.785 -23.532 -25.985  1.00  0.00     0.136 C 
ATOM      2  O   UNL     1      17.374 -23.287 -27.109  1.00  0.00    -0.299 OA
ENDROOT
BRANCH   1   3
ATOM      3  C   UNL     1      19.218 -23.163 -25.635  1.00  0.00     0.053 C 
ATOM      4  C   UNL     1      19.627 -23.833 -24.317  1.00  0.00     0.016 C 
BRANCH   3   5
ATOM      5  C   UNL     1      19.433 -21.631 -25.569  1.00  0.00     0.015 C 
BRANCH   5   6
ATOM      6  C   UNL     1      18.414 -20.868 -24.694  1.00  0.00     0.028 C 
BRANCH   6   7
ATOM      7  C   UNL     1      18.596 -21.024 -23.201  1.00  0.00    -0.028 C 
ATOM      8  C   UNL     1      17.626 -21.326 -22.309  1.00  0.00    -0.070 CG0
ATOM      9  C   UNL     1      18.024 -21.486 -20.862  1.00  0.00     0.039 C 
ATOM     10  G   UNL     1      16.173 -21.532 -22.693  1.00  0.00     0.000 G0
ENDBRANCH   6   7
ENDBRANCH   5   6
ENDBRANCH   3   5
ENDBRANCH   1   3
BRANCH   1  11
ATOM     11  C   UNL     1      16.868 -24.247 -25.016  1.00  0.00     0.087 C 
BRANCH  11  12
ATOM     12  C   UNL     1      15.689 -23.350 -24.555  1.00  0.00     0.066 C 
BRANCH  12  13
ATOM     13  C   UNL     1      15.863 -22.945 -23.098  1.00  0.00     0.140 C 
ATOM     14  O   UNL     1      15.699 -23.777 -22.217  1.00  0.00    -0.299 OA
BRANCH  13  15
ATOM     15  C   UNL     1      16.168 -21.525 -22.688  1.00  0.00     0.106 CG0
ATOM     16  G   UNL     1      17.621 -21.314 -22.306  1.00  0.00     0.000 G0
ENDBRANCH  13  15
ENDBRANCH  12  13
BRANCH  12  17
ATOM     17  C   UNL     1      14.284 -23.991 -24.796  1.00  0.00    -0.006 C 
ATOM     18  C   UNL     1      13.281 -22.958 -25.337  1.00  0.00     0.008 C 
ATOM     19  C   UNL     1      14.305 -25.225 -25.718  1.00  0.00     0.008 C 
ENDBRANCH  12  17
ENDBRANCH  11  12
ENDBRANCH   1  11
TORSDOF 1
ENDMDL
MODEL 2
REMARK VINA RESULT:    -3.882      2.289      4.015
REMARK INTER + INTRA:          -5.956
REMARK INTER:                  -5.945
REMARK INTRA:                  -0.011
REMARK UNBOUND:                -0.032
REMARK SMILES CC1=CCC[C@@H](C)C(=O)C[C@@H](C(C)C)C(=O)C1
REMARK SMILES IDX 8 1 9 2 6 3 7 4 5 5 4 6 3 7 2 8 1 9 10 11 11 12 15 13 16 14
REMARK SMILES IDX 17 15 12 17 13 18 14 19
REMARK H PARENT
REMARK Flexibility Score: 70.00
ROOT
ATOM      1  C   UNL     1      18.700 -24.423 -24.698  1.00  0.00     0.136 C 
ATOM      2  O   UNL     1      18.371 -25.533 -25.088  1.00  0.00    -0.299 OA
ENDROOT
BRANCH   1   3
ATOM      3  C   UNL     1      18.079 -23.203 -25.360  1.00  0.00     0.053 C 
ATOM      4  C   UNL     1      17.654 -23.543 -26.794  1.00  0.00     0.016 C 
BRANCH   3   5
ATOM      5  C   UNL     1      19.021 -21.975 -25.335  1.00  0.00     0.015 C 
BRANCH   5   6
ATOM      6  C   UNL     1      18.617 -20.865 -24.340  1.00  0.00     0.028 C 
BRANCH   6   7
ATOM      7  C   UNL     1      17.482 -21.214 -23.405  1.00  0.00    -0.028 C 
ATOM      8  C   UNL     1      17.595 -21.866 -22.225  1.00  0.00    -0.070 CG0
ATOM      9  C   UNL     1      16.342 -22.075 -21.412  1.00  0.00     0.039 C 
ATOM     10  G   UNL     1      18.915 -22.374 -21.676  1.00  0.00     0.000 G0
ENDBRANCH   6   7
ENDBRANCH   5   6
ENDBRANCH   3   5
ENDBRANCH   1   3
BRANCH   1  11
ATOM     11  C   UNL     1      19.756 -24.315 -23.619  1.00  0.00     0.087 C 
BRANCH  11  12
ATOM     12  C   UNL     1      19.281 -24.923 -22.272  1.00  0.00     0.066 C 
BRANCH  12  13
ATOM     13  C   UNL     1      18.931 -23.821 -21.282  1.00  0.00     0.140 C 
ATOM     14  O   UNL     1      18.581 -24.119 -20.149  1.00  0.00    -0.299 OA
BRANCH  13  15
ATOM     15  C   UNL     1      18.934 -22.362 -21.666  1.00  0.00     0.106 CG0
ATOM     16  G   UNL     1      17.596 -21.882 -22.195  1.00  0.00     0.000 G0
ENDBRANCH  13  15
ENDBRANCH  12  13
BRANCH  12  17
ATOM     17  C   UNL     1      20.297 -25.936 -21.651  1.00  0.00    -0.006 C 
ATOM     18  C   UNL     1      20.375 -27.231 -22.477  1.00  0.00     0.008 C 
ATOM     19  C   UNL     1      21.712 -25.364 -21.448  1.00  0.00     0.008 C 
ENDBRANCH  12  17
ENDBRANCH  11  12
ENDBRANCH   1  11
TORSDOF 1
ENDMDL
MODEL 3
REMARK VINA RESULT:    -3.682      1.672      4.114
REMARK INTER + INTRA:          -5.652
REMARK INTER:                  -5.107
REMARK INTRA:                  -0.545
REMARK UNBOUND:                -0.032
REMARK SMILES CC1=CCC[C@@H](C)C(=O)C[C@@H](C(C)C)C(=O)C1
REMARK SMILES IDX 8 1 9 2 6 3 7 4 5 5 4 6 3 7 2 8 1 9 10 11 11 12 15 13 16 14
REMARK SMILES IDX 17 15 12 17 13 18 14 19
REMARK H PARENT
REMARK Flexibility Score: 70.00
ROOT
ATOM      1  C   UNL     1      17.413 -21.895 -25.315  1.00  0.00     0.136 C 
ATOM      2  O   UNL     1      17.034 -21.517 -26.414  1.00  0.00    -0.299 OA
ENDROOT
BRANCH   1   3
ATOM      3  C   UNL     1      18.504 -22.951 -25.243  1.00  0.00     0.053 C 
ATOM      4  C   UNL     1      19.791 -22.423 -25.889  1.00  0.00     0.016 C 
BRANCH   3   5
ATOM      5  C   UNL     1      18.070 -24.291 -25.886  1.00  0.00     0.015 C 
BRANCH   5   6
ATOM      6  C   UNL     1      17.254 -25.222 -24.962  1.00  0.00     0.028 C 
BRANCH   6   7
ATOM      7  C   UNL     1      15.752 -25.066 -25.046  1.00  0.00    -0.028 C 
ATOM      8  C   UNL     1      14.935 -24.683 -24.039  1.00  0.00    -0.070 CG0
ATOM      9  C   UNL     1      13.464 -24.540 -24.341  1.00  0.00     0.039 C 
ATOM     10  G   UNL     1      15.426 -24.372 -22.638  1.00  0.00     0.000 G0
ENDBRANCH   6   7
ENDBRANCH   5   6
ENDBRANCH   3   5
ENDBRANCH   1   3
BRANCH   1  11
ATOM     11  C   UNL     1      16.734 -21.338 -24.082  1.00  0.00     0.087 C 
BRANCH  11  12
ATOM     12  C   UNL     1      16.972 -22.226 -22.832  1.00  0.00     0.066 C 
BRANCH  12  13
ATOM     13  C   UNL     1      15.675 -22.894 -22.395  1.00  0.00     0.140 C 
ATOM     14  O   UNL     1      14.836 -22.243 -21.790  1.00  0.00    -0.299 OA
BRANCH  13  15
ATOM     15  C   UNL     1      15.410 -24.362 -22.625  1.00  0.00     0.106 CG0
ATOM     16  G   UNL     1      14.946 -24.670 -24.036  1.00  0.00     0.000 G0
ENDBRANCH  13  15
ENDBRANCH  12  13
BRANCH  12  17
ATOM     17  C   UNL     1      17.640 -21.463 -21.642  1.00  0.00    -0.006 C 
ATOM     18  C   UNL     1      18.333 -22.435 -20.671  1.00  0.00     0.008 C 
ATOM     19  C   UNL     1      18.631 -20.366 -22.074  1.00  0.00     0.008 C 
ENDBRANCH  12  17
ENDBRANCH  11  12
ENDBRANCH   1  11
TORSDOF 1
ENDMDL
MODEL 4
REMARK VINA RESULT:    -3.626      2.874      4.859
REMARK INTER + INTRA:          -5.566
REMARK INTER:                  -5.118
REMARK INTRA:                  -0.449
REMARK UNBOUND:                -0.032
REMARK SMILES CC1=CCC[C@@H](C)C(=O)C[C@@H](C(C)C)C(=O)C1
REMARK SMILES IDX 8 1 9 2 6 3 7 4 5 5 4 6 3 7 2 8 1 9 10 11 11 12 15 13 16 14
REMARK SMILES IDX 17 15 12 17 13 18 14 19
REMARK H PARENT
REMARK Flexibility Score: 70.00
ROOT
ATOM      1  C   UNL     1      17.513 -21.632 -22.591  1.00  0.00     0.136 C 
ATOM      2  O   UNL     1      17.461 -20.530 -22.065  1.00  0.00    -0.299 OA
ENDROOT
BRANCH   1   3
ATOM      3  C   UNL     1      16.213 -22.361 -22.888  1.00  0.00     0.053 C 
ATOM      4  C   UNL     1      15.150 -21.364 -23.369  1.00  0.00     0.016 C 
BRANCH   3   5
ATOM      5  C   UNL     1      15.703 -23.175 -21.675  1.00  0.00     0.015 C 
BRANCH   5   6
ATOM      6  C   UNL     1      16.075 -24.675 -21.694  1.00  0.00     0.028 C 
BRANCH   6   7
ATOM      7  C   UNL     1      17.122 -25.095 -20.687  1.00  0.00    -0.028 C 
ATOM      8  C   UNL     1      18.345 -25.596 -20.974  1.00  0.00    -0.070 CG0
ATOM      9  C   UNL     1      19.266 -25.910 -19.821  1.00  0.00     0.039 C 
ATOM     10  G   UNL     1      18.839 -25.834 -22.389  1.00  0.00     0.000 G0
ENDBRANCH   6   7
ENDBRANCH   5   6
ENDBRANCH   3   5
ENDBRANCH   1   3
BRANCH   1  11
ATOM     11  C   UNL     1      18.871 -22.243 -22.861  1.00  0.00     0.087 C 
BRANCH  11  12
ATOM     12  C   UNL     1      18.771 -23.547 -23.696  1.00  0.00     0.066 C 
BRANCH  12  13
ATOM     13  C   UNL     1      19.541 -24.675 -23.023  1.00  0.00     0.140 C 
ATOM     14  O   UNL     1      20.764 -24.660 -23.036  1.00  0.00    -0.299 OA
BRANCH  13  15
ATOM     15  C   UNL     1      18.849 -25.857 -22.392  1.00  0.00     0.106 CG0
ATOM     16  G   UNL     1      18.347 -25.575 -20.988  1.00  0.00     0.000 G0
ENDBRANCH  13  15
ENDBRANCH  12  13
BRANCH  12  17
ATOM     17  C   UNL     1      19.216 -23.372 -25.184  1.00  0.00    -0.006 C 
ATOM     18  C   UNL     1      18.120 -23.839 -26.157  1.00  0.00     0.008 C 
ATOM     19  C   UNL     1      19.655 -21.940 -25.546  1.00  0.00     0.008 C 
ENDBRANCH  12  17
ENDBRANCH  11  12
ENDBRANCH   1  11
TORSDOF 1
ENDMDL
MODEL 5
REMARK VINA RESULT:    -3.593      2.080      4.217
REMARK INTER + INTRA:          -5.516
REMARK INTER:                  -5.197
REMARK INTRA:                  -0.319
REMARK UNBOUND:                -0.032
REMARK SMILES CC1=CCC[C@@H](C)C(=O)C[C@@H](C(C)C)C(=O)C1
REMARK SMILES IDX 8 1 9 2 6 3 7 4 5 5 4 6 3 7 2 8 1 9 10 11 11 12 15 13 16 14
REMARK SMILES IDX 17 15 12 17 13 18 14 19
REMARK H PARENT
REMARK Flexibility Score: 70.00
ROOT
ATOM      1  C   UNL     1      18.691 -22.487 -23.212  1.00  0.00     0.136 C 
ATOM      2  O   UNL     1      19.255 -22.497 -22.128  1.00  0.00    -0.299 OA
ENDROOT
BRANCH   1   3
ATOM      3  C   UNL     1      19.249 -23.348 -24.333  1.00  0.00     0.053 C 
ATOM      4  C   UNL     1      19.334 -22.532 -25.630  1.00  0.00     0.016 C 
BRANCH   3   5
ATOM      5  C   UNL     1      18.430 -24.644 -24.545  1.00  0.00     0.015 C 
BRANCH   5   6
ATOM      6  C   UNL     1      17.514 -24.639 -25.790  1.00  0.00     0.028 C 
BRANCH   6   7
ATOM      7  C   UNL     1      16.077 -25.037 -25.540  1.00  0.00    -0.028 C 
ATOM      8  C   UNL     1      15.045 -24.191 -25.321  1.00  0.00    -0.070 CG0
ATOM      9  C   UNL     1      13.671 -24.788 -25.141  1.00  0.00     0.039 C 
ATOM     10  G   UNL     1      15.197 -22.683 -25.272  1.00  0.00     0.000 G0
ENDBRANCH   6   7
ENDBRANCH   5   6
ENDBRANCH   3   5
ENDBRANCH   1   3
BRANCH   1  11
ATOM     11  C   UNL     1      17.502 -21.570 -23.403  1.00  0.00     0.087 C 
BRANCH  11  12
ATOM     12  C   UNL     1      16.188 -22.195 -22.863  1.00  0.00     0.066 C 
BRANCH  12  13
ATOM     13  C   UNL     1      15.076 -22.081 -23.897  1.00  0.00     0.140 C 
ATOM     14  O   UNL     1      14.020 -21.550 -23.590  1.00  0.00    -0.299 OA
BRANCH  13  15
ATOM     15  C   UNL     1      15.204 -22.665 -25.283  1.00  0.00     0.106 CG0
ATOM     16  G   UNL     1      15.031 -24.172 -25.312  1.00  0.00     0.000 G0
ENDBRANCH  13  15
ENDBRANCH  12  13
BRANCH  12  17
ATOM     17  C   UNL     1      15.736 -21.607 -21.486  1.00  0.00    -0.006 C 
ATOM     18  C   UNL     1      15.537 -22.718 -20.441  1.00  0.00     0.008 C 
ATOM     19  C   UNL     1      16.679 -20.528 -20.923  1.00  0.00     0.008 C 
ENDBRANCH  12  17
ENDBRANCH  11  12
ENDBRANCH   1  11
TORSDOF 1
ENDMDL
MODEL 6
REMARK VINA RESULT:    -3.514      2.473      4.634
REMARK INTER + INTRA:          -5.395
REMARK INTER:                  -5.023
REMARK INTRA:                  -0.372
REMARK UNBOUND:                -0.032
REMARK SMILES CC1=CCC[C@@H](C)C(=O)C[C@@H](C(C)C)C(=O)C1
REMARK SMILES IDX 8 1 9 2 6 3 7 4 5 5 4 6 3 7 2 8 1 9 10 11 11 12 15 13 16 14
REMARK SMILES IDX 17 15 12 17 13 18 14 19
REMARK H PARENT
REMARK Flexibility Score: 70.00
ROOT
ATOM      1  C   UNL     1      18.230 -22.504 -23.830  1.00  0.00     0.136 C 
ATOM      2  O   UNL     1      17.342 -21.673 -23.950  1.00  0.00    -0.299 OA
ENDROOT
BRANCH   1   3
ATOM      3  C   UNL     1      18.825 -23.122 -25.084  1.00  0.00     0.053 C 
ATOM      4  C   UNL     1      19.682 -22.088 -25.824  1.00  0.00     0.016 C 
BRANCH   3   5
ATOM      5  C   UNL     1      17.743 -23.718 -26.018  1.00  0.00     0.015 C 
BRANCH   5   6
ATOM      6  C   UNL     1      17.079 -25.014 -25.502  1.00  0.00     0.028 C 
BRANCH   6   7
ATOM      7  C   UNL     1      15.695 -24.845 -24.916  1.00  0.00    -0.028 C 
ATOM      8  C   UNL     1      15.321 -25.164 -23.656  1.00  0.00    -0.070 CG0
ATOM      9  C   UNL     1      13.898 -24.870 -23.248  1.00  0.00     0.039 C 
ATOM     10  G   UNL     1      16.261 -25.777 -22.636  1.00  0.00     0.000 G0
ENDBRANCH   6   7
ENDBRANCH   5   6
ENDBRANCH   3   5
ENDBRANCH   1   3
BRANCH   1  11
ATOM     11  C   UNL     1      18.648 -22.922 -22.436  1.00  0.00     0.087 C 
BRANCH  11  12
ATOM     12  C   UNL     1      18.493 -24.449 -22.212  1.00  0.00     0.066 C 
BRANCH  12  13
ATOM     13  C   UNL     1      17.057 -24.792 -21.839  1.00  0.00     0.140 C 
ATOM     14  O   UNL     1      16.556 -24.286 -20.846  1.00  0.00    -0.299 OA
BRANCH  13  15
ATOM     15  C   UNL     1      16.242 -25.795 -22.618  1.00  0.00     0.106 CG0
ATOM     16  G   UNL     1      15.338 -25.152 -23.653  1.00  0.00     0.000 G0
ENDBRANCH  13  15
ENDBRANCH  12  13
BRANCH  12  17
ATOM     17  C   UNL     1      19.500 -25.033 -21.168  1.00  0.00    -0.006 C 
ATOM     18  C   UNL     1      20.747 -25.615 -21.856  1.00  0.00     0.008 C 
ATOM     19  C   UNL     1      19.928 -24.032 -20.078  1.00  0.00     0.008 C 
ENDBRANCH  12  17
ENDBRANCH  11  12
ENDBRANCH   1  11
TORSDOF 1
ENDMDL
MODEL 7
REMARK VINA RESULT:    -3.411      2.332      3.160
REMARK INTER + INTRA:          -5.238
REMARK INTER:                  -4.757
REMARK INTRA:                  -0.481
REMARK UNBOUND:                -0.032
REMARK SMILES CC1=CCC[C@@H](C)C(=O)C[C@@H](C(C)C)C(=O)C1
REMARK SMILES IDX 8 1 9 2 6 3 7 4 5 5 4 6 3 7 2 8 1 9 10 11 11 12 15 13 16 14
REMARK SMILES IDX 17 15 12 17 13 18 14 19
REMARK H PARENT
REMARK Flexibility Score: 70.00
ROOT
ATOM      1  C   UNL     1      17.652 -23.981 -25.097  1.00  0.00     0.136 C 
ATOM      2  O   UNL     1      17.839 -24.418 -26.223  1.00  0.00    -0.299 OA
ENDROOT
BRANCH   1   3
ATOM      3  C   UNL     1      18.770 -23.207 -24.419  1.00  0.00     0.053 C 
ATOM      4  C   UNL     1      19.248 -22.068 -25.329  1.00  0.00     0.016 C 
BRANCH   3   5
ATOM      5  C   UNL     1      19.951 -24.119 -24.005  1.00  0.00     0.015 C 
BRANCH   5   6
ATOM      6  C   UNL     1      20.030 -24.436 -22.495  1.00  0.00     0.028 C 
BRANCH   6   7
ATOM      7  C   UNL     1      19.264 -25.661 -22.049  1.00  0.00    -0.028 C 
ATOM      8  C   UNL     1      18.063 -25.666 -21.427  1.00  0.00    -0.070 CG0
ATOM      9  C   UNL     1      17.439 -27.002 -21.107  1.00  0.00     0.039 C 
ATOM     10  G   UNL     1      17.309 -24.402 -21.058  1.00  0.00     0.000 G0
ENDBRANCH   6   7
ENDBRANCH   5   6
ENDBRANCH   3   5
ENDBRANCH   1   3
BRANCH   1  11
ATOM     11  C   UNL     1      16.338 -24.286 -24.409  1.00  0.00     0.087 C 
BRANCH  11  12
ATOM     12  C   UNL     1      16.090 -23.365 -23.186  1.00  0.00     0.066 C 
BRANCH  12  13
ATOM     13  C   UNL     1      16.057 -24.181 -21.900  1.00  0.00     0.140 C 
ATOM     14  O   UNL     1      14.993 -24.628 -21.497  1.00  0.00    -0.299 OA
BRANCH  13  15
ATOM     15  C   UNL     1      17.289 -24.406 -21.058  1.00  0.00     0.106 CG0
ATOM     16  G   UNL     1      18.048 -25.664 -21.437  1.00  0.00     0.000 G0
ENDBRANCH  13  15
ENDBRANCH  12  13
BRANCH  12  17
ATOM     17  C   UNL     1      14.811 -22.477 -23.321  1.00  0.00    -0.006 C 
ATOM     18  C   UNL     1      15.106 -21.010 -22.965  1.00  0.00     0.008 C 
ATOM     19  C   UNL     1      14.137 -22.550 -24.704  1.00  0.00     0.008 C 
ENDBRANCH  12  17
ENDBRANCH  11  12
ENDBRANCH   1  11
TORSDOF 1
ENDMDL
MODEL 8
REMARK VINA RESULT:    -3.365      2.870      4.585
REMARK INTER + INTRA:          -5.167
REMARK INTER:                  -5.001
REMARK INTRA:                  -0.166
REMARK UNBOUND:                -0.032
REMARK SMILES CC1=CCC[C@@H](C)C(=O)C[C@@H](C(C)C)C(=O)C1
REMARK SMILES IDX 8 1 9 2 6 3 7 4 5 5 4 6 3 7 2 8 1 9 10 11 11 12 15 13 16 14
REMARK SMILES IDX 17 15 12 17 13 18 14 19
REMARK H PARENT
REMARK Flexibility Score: 70.00
ROOT
ATOM      1  C   UNL     1      17.722 -23.108 -23.734  1.00  0.00     0.136 C 
ATOM      2  O   UNL     1      16.880 -22.724 -24.533  1.00  0.00    -0.299 OA
ENDROOT
BRANCH   1   3
ATOM      3  C   UNL     1      19.145 -23.325 -24.221  1.00  0.00     0.053 C 
ATOM      4  C   UNL     1      19.252 -22.966 -25.709  1.00  0.00     0.016 C 
BRANCH   3   5
ATOM      5  C   UNL     1      19.644 -24.767 -23.961  1.00  0.00     0.015 C 
BRANCH   5   6
ATOM      6  C   UNL     1      20.652 -24.907 -22.798  1.00  0.00     0.028 C 
BRANCH   6   7
ATOM      7  C   UNL     1      20.238 -25.851 -21.692  1.00  0.00    -0.028 C 
ATOM      8  C   UNL     1      19.861 -25.496 -20.442  1.00  0.00    -0.070 CG0
ATOM      9  C   UNL     1      19.436 -26.591 -19.496  1.00  0.00     0.039 C 
ATOM     10  G   UNL     1      19.826 -24.059 -19.958  1.00  0.00     0.000 G0
ENDBRANCH   6   7
ENDBRANCH   5   6
ENDBRANCH   3   5
ENDBRANCH   1   3
BRANCH   1  11
ATOM     11  C   UNL     1      17.292 -23.408 -22.315  1.00  0.00     0.087 C 
BRANCH  11  12
ATOM     12  C   UNL     1      18.073 -22.563 -21.274  1.00  0.00     0.066 C 
BRANCH  12  13
ATOM     13  C   UNL     1      18.464 -23.417 -20.075  1.00  0.00     0.140 C 
ATOM     14  O   UNL     1      17.676 -23.554 -19.151  1.00  0.00    -0.299 OA
BRANCH  13  15
ATOM     15  C   UNL     1      19.826 -24.054 -19.951  1.00  0.00     0.106 CG0
ATOM     16  G   UNL     1      19.861 -25.487 -20.448  1.00  0.00     0.000 G0
ENDBRANCH  13  15
ENDBRANCH  12  13
BRANCH  12  17
ATOM     17  C   UNL     1      17.316 -21.273 -20.822  1.00  0.00    -0.006 C 
ATOM     18  C   UNL     1      18.278 -20.081 -20.671  1.00  0.00     0.008 C 
ATOM     19  C   UNL     1      16.141 -20.878 -21.737  1.00  0.00     0.008 C 
ENDBRANCH  12  17
ENDBRANCH  11  12
ENDBRANCH   1  11
TORSDOF 1
ENDMDL
MODEL 9
REMARK VINA RESULT:    -3.295      2.080      4.509
REMARK INTER + INTRA:          -5.061
REMARK INTER:                  -4.672
REMARK INTRA:                  -0.390
REMARK UNBOUND:                -0.032
REMARK SMILES CC1=CCC[C@@H](C)C(=O)C[C@@H](C(C)C)C(=O)C1
REMARK SMILES IDX 8 1 9 2 6 3 7 4 5 5 4 6 3 7 2 8 1 9 10 11 11 12 15 13 16 14
REMARK SMILES IDX 17 15 12 17 13 18 14 19
REMARK H PARENT
REMARK Flexibility Score: 70.00
ROOT
ATOM      1  C   UNL     1      18.460 -22.381 -21.682  1.00  0.00     0.136 C 
ATOM      2  O   UNL     1      18.865 -23.047 -20.740  1.00  0.00    -0.299 OA
ENDROOT
BRANCH   1   3
ATOM      3  C   UNL     1      17.526 -21.215 -21.404  1.00  0.00     0.053 C 
ATOM      4  C   UNL     1      18.321 -20.022 -20.859  1.00  0.00     0.016 C 
BRANCH   3   5
ATOM      5  C   UNL     1      16.374 -21.600 -20.443  1.00  0.00     0.015 C 
BRANCH   5   6
ATOM      6  C   UNL     1      15.218 -22.389 -21.097  1.00  0.00     0.028 C 
BRANCH   6   7
ATOM      7  C   UNL     1      15.399 -23.890 -21.138  1.00  0.00    -0.028 C 
ATOM      8  C   UNL     1      15.547 -24.642 -22.252  1.00  0.00    -0.070 CG0
ATOM      9  C   UNL     1      15.766 -26.125 -22.077  1.00  0.00     0.039 C 
ATOM     10  G   UNL     1      15.526 -24.068 -23.656  1.00  0.00     0.000 G0
ENDBRANCH   6   7
ENDBRANCH   5   6
ENDBRANCH   3   5
ENDBRANCH   1   3
BRANCH   1  11
ATOM     11  C   UNL     1      18.860 -22.790 -23.084  1.00  0.00     0.087 C 
BRANCH  11  12
ATOM     12  C   UNL     1      17.701 -22.608 -24.099  1.00  0.00     0.066 C 
BRANCH  12  13
ATOM     13  C   UNL     1      16.913 -23.902 -24.250  1.00  0.00     0.140 C 
ATOM     14  O   UNL     1      17.379 -24.817 -24.912  1.00  0.00    -0.299 OA
BRANCH  13  15
ATOM     15  C   UNL     1      15.534 -24.078 -23.662  1.00  0.00     0.106 CG0
ATOM     16  G   UNL     1      15.554 -24.645 -22.255  1.00  0.00     0.000 G0
ENDBRANCH  13  15
ENDBRANCH  12  13
BRANCH  12  17
ATOM     17  C   UNL     1      18.167 -22.068 -25.490  1.00  0.00    -0.006 C 
ATOM     18  C   UNL     1      17.898 -20.560 -25.626  1.00  0.00     0.008 C 
ATOM     19  C   UNL     1      19.643 -22.364 -25.817  1.00  0.00     0.008 C 
ENDBRANCH  12  17
ENDBRANCH  11  12
ENDBRANCH   1  11
TORSDOF 1
ENDMDL
