MODEL 1
REMARK VINA RESULT:     0.696      0.000      0.000
REMARK INTER + INTRA:           0.611
REMARK INTER:                   0.737
REMARK INTRA:                  -0.126
REMARK UNBOUND:                -0.126
REMARK SMILES C=C(C)[C@@H]1CC=C(C)CC1
REMARK SMILES IDX 8 1 7 2 6 3 5 4 4 5 10 6 9 7 2 8 1 9 3 10
REMARK H PARENT
REMARK Flexibility Score: inf
ROOT
ATOM      1  C   UNL     1       0.730   6.490  -7.068  1.00  0.00     0.039 C 
ATOM      2  C   UNL     1       0.219   6.174  -8.448  1.00  0.00    -0.077 C 
ATOM      3  C   UNL     1       1.056   5.606  -9.342  1.00  0.00    -0.027 C 
ATOM      4  C   UNL     1       0.625   5.202 -10.730  1.00  0.00     0.035 C 
ATOM      5  C   UNL     1      -0.619   5.978 -11.201  1.00  0.00     0.018 C 
ATOM      6  C   UNL     1      -1.696   5.947 -10.106  1.00  0.00     0.013 C 
ATOM      7  C   UNL     1      -1.177   6.625  -8.832  1.00  0.00     0.031 C 
ENDROOT
BRANCH   5   8
ATOM      8  C   UNL     1      -1.146   5.442 -12.526  1.00  0.00    -0.077 C 
ATOM      9  C   UNL     1      -0.379   5.432 -13.630  1.00  0.00     0.008 C 
ATOM     10  C   UNL     1      -2.550   4.906 -12.619  1.00  0.00     0.039 C 
ENDBRANCH   5   8
TORSDOF 1
ENDMDL
MODEL 2
REMARK VINA RESULT:     1.262      0.390      1.621
REMARK INTER + INTRA:           1.210
REMARK INTER:                   1.338
REMARK INTRA:                  -0.127
REMARK UNBOUND:                -0.126
REMARK SMILES C=C(C)[C@@H]1CC=C(C)CC1
REMARK SMILES IDX 8 1 7 2 6 3 5 4 4 5 10 6 9 7 2 8 1 9 3 10
REMARK H PARENT
REMARK Flexibility Score: inf
ROOT
ATOM      1  C   UNL     1       0.439   6.589  -7.095  1.00  0.00     0.039 C 
ATOM      2  C   UNL     1       0.039   6.311  -8.519  1.00  0.00    -0.077 C 
ATOM      3  C   UNL     1      -1.265   6.384  -8.859  1.00  0.00    -0.027 C 
ATOM      4  C   UNL     1      -1.759   6.176 -10.269  1.00  0.00     0.035 C 
ATOM      5  C   UNL     1      -0.771   5.354 -11.117  1.00  0.00     0.018 C 
ATOM      6  C   UNL     1       0.648   5.922 -10.958  1.00  0.00     0.013 C 
ATOM      7  C   UNL     1       1.096   5.827  -9.494  1.00  0.00     0.031 C 
ENDROOT
BRANCH   5   8
ATOM      8  C   UNL     1      -1.196   5.298 -12.578  1.00  0.00    -0.077 C 
ATOM      9  C   UNL     1      -0.326   5.554 -13.570  1.00  0.00     0.008 C 
ATOM     10  C   UNL     1      -2.616   4.948 -12.938  1.00  0.00     0.039 C 
ENDBRANCH   5   8
TORSDOF 1
ENDMDL
MODEL 3
REMARK VINA RESULT:     2.511      1.035      4.558
REMARK INTER + INTRA:           2.532
REMARK INTER:                   2.658
REMARK INTRA:                  -0.126
REMARK UNBOUND:                -0.126
REMARK SMILES C=C(C)[C@@H]1CC=C(C)CC1
REMARK SMILES IDX 8 1 7 2 6 3 5 4 4 5 10 6 9 7 2 8 1 9 3 10
REMARK H PARENT
REMARK Flexibility Score: inf
ROOT
ATOM      1  C   UNL     1      -1.113   5.155 -13.581  1.00  0.00     0.039 C 
ATOM      2  C   UNL     1      -0.829   5.502 -12.144  1.00  0.00    -0.077 C 
ATOM      3  C   UNL     1      -1.864   5.656 -11.291  1.00  0.00    -0.027 C 
ATOM      4  C   UNL     1      -1.682   5.949  -9.823  1.00  0.00     0.035 C 
ATOM      5  C   UNL     1      -0.314   6.590  -9.523  1.00  0.00     0.018 C 
ATOM      6  C   UNL     1       0.799   5.784 -10.211  1.00  0.00     0.013 C 
ATOM      7  C   UNL     1       0.600   5.797 -11.731  1.00  0.00     0.031 C 
ENDROOT
BRANCH   5   8
ATOM      8  C   UNL     1      -0.073   6.721  -8.025  1.00  0.00    -0.077 C 
ATOM      9  C   UNL     1       0.774   5.902  -7.378  1.00  0.00     0.008 C 
ATOM     10  C   UNL     1      -0.787   7.787  -7.236  1.00  0.00     0.039 C 
ENDBRANCH   5   8
TORSDOF 1
ENDMDL
MODEL 4
REMARK VINA RESULT:     2.933      0.998      4.609
REMARK INTER + INTRA:           2.978
REMARK INTER:                   3.103
REMARK INTRA:                  -0.124
REMARK UNBOUND:                -0.126
REMARK SMILES C=C(C)[C@@H]1CC=C(C)CC1
REMARK SMILES IDX 8 1 7 2 6 3 5 4 4 5 10 6 9 7 2 8 1 9 3 10
REMARK H PARENT
REMARK Flexibility Score: inf
ROOT
ATOM      1  C   UNL     1      -1.050   5.129 -13.628  1.00  0.00     0.039 C 
ATOM      2  C   UNL     1      -0.821   5.487 -12.185  1.00  0.00    -0.077 C 
ATOM      3  C   UNL     1      -1.883   5.572 -11.354  1.00  0.00    -0.027 C 
ATOM      4  C   UNL     1      -1.752   5.871  -9.881  1.00  0.00     0.035 C 
ATOM      5  C   UNL     1      -0.435   6.597  -9.550  1.00  0.00     0.018 C 
ATOM      6  C   UNL     1       0.743   5.867 -10.215  1.00  0.00     0.013 C 
ATOM      7  C   UNL     1       0.577   5.872 -11.739  1.00  0.00     0.031 C 
ENDROOT
BRANCH   5   8
ATOM      8  C   UNL     1      -0.235   6.738  -8.047  1.00  0.00    -0.077 C 
ATOM      9  C   UNL     1      -1.059   7.493  -7.300  1.00  0.00     0.008 C 
ATOM     10  C   UNL     1       0.901   6.022  -7.365  1.00  0.00     0.039 C 
ENDBRANCH   5   8
TORSDOF 1
ENDMDL
MODEL 5
REMARK VINA RESULT:     3.503      0.989      4.287
REMARK INTER + INTRA:           3.583
REMARK INTER:                   3.708
REMARK INTRA:                  -0.125
REMARK UNBOUND:                -0.126
REMARK SMILES C=C(C)[C@@H]1CC=C(C)CC1
REMARK SMILES IDX 8 1 7 2 6 3 5 4 4 5 10 6 9 7 2 8 1 9 3 10
REMARK H PARENT
REMARK Flexibility Score: inf
ROOT
ATOM      1  C   UNL     1      -1.088   5.129 -13.606  1.00  0.00     0.039 C 
ATOM      2  C   UNL     1      -0.850   5.544 -12.180  1.00  0.00    -0.077 C 
ATOM      3  C   UNL     1       0.417   5.744 -11.759  1.00  0.00    -0.027 C 
ATOM      4  C   UNL     1       0.756   6.214 -10.365  1.00  0.00     0.035 C 
ATOM      5  C   UNL     1      -0.368   5.905  -9.359  1.00  0.00     0.018 C 
ATOM      6  C   UNL     1      -1.719   6.358  -9.932  1.00  0.00     0.013 C 
ATOM      7  C   UNL     1      -2.028   5.595 -11.226  1.00  0.00     0.031 C 
ENDROOT
BRANCH   5   8
ATOM      8  C   UNL     1      -0.091   6.534  -7.999  1.00  0.00    -0.077 C 
ATOM      9  C   UNL     1       0.994   6.198  -7.281  1.00  0.00     0.008 C 
ATOM     10  C   UNL     1      -1.041   7.558  -7.434  1.00  0.00     0.039 C 
ENDBRANCH   5   8
TORSDOF 1
ENDMDL
MODEL 6
REMARK VINA RESULT:     3.508      9.203     11.455
REMARK INTER + INTRA:           3.587
REMARK INTER:                   3.714
REMARK INTRA:                  -0.126
REMARK UNBOUND:                -0.126
REMARK SMILES C=C(C)[C@@H]1CC=C(C)CC1
REMARK SMILES IDX 8 1 7 2 6 3 5 4 4 5 10 6 9 7 2 8 1 9 3 10
REMARK H PARENT
REMARK Flexibility Score: inf
ROOT
ATOM      1  C   UNL     1       6.079   9.380  -6.232  1.00  0.00     0.039 C 
ATOM      2  C   UNL     1       7.490   8.887  -6.412  1.00  0.00    -0.077 C 
ATOM      3  C   UNL     1       8.376   9.663  -7.070  1.00  0.00    -0.027 C 
ATOM      4  C   UNL     1       9.825   9.283  -7.254  1.00  0.00     0.035 C 
ATOM      5  C   UNL     1      10.046   7.763  -7.136  1.00  0.00     0.018 C 
ATOM      6  C   UNL     1       9.346   7.233  -5.875  1.00  0.00     0.013 C 
ATOM      7  C   UNL     1       7.835   7.479  -5.964  1.00  0.00     0.031 C 
ENDROOT
BRANCH   5   8
ATOM      8  C   UNL     1      11.527   7.410  -7.150  1.00  0.00    -0.077 C 
ATOM      9  C   UNL     1      12.133   6.892  -6.068  1.00  0.00     0.008 C 
ATOM     10  C   UNL     1      12.345   7.636  -8.394  1.00  0.00     0.039 C 
ENDBRANCH   5   8
TORSDOF 1
ENDMDL
