MODEL 1
REMARK VINA RESULT:    -1.944      0.000      0.000
REMARK INTER + INTRA:          -2.976
REMARK INTER:                  -2.285
REMARK INTRA:                  -0.691
REMARK UNBOUND:                -0.691
REMARK SMILES C=CC(C)=CCC=C(C)C
REMARK SMILES IDX 5 1 3 2 4 3 6 4 7 5 9 6 8 7 10 8 2 9 1 10
REMARK H PARENT
REMARK Flexibility Score: inf
ROOT
ATOM      1  C   UNL     1     166.589 176.120 138.760  1.00  0.00    -0.020 C 
ATOM      2  C   UNL     1     165.906 175.750 139.863  1.00  0.00    -0.055 C 
ATOM      3  C   UNL     1     164.448 176.125 139.972  1.00  0.00     0.044 C 
ENDROOT
BRANCH   1   4
ATOM      4  C   UNL     1     168.052 175.830 138.543  1.00  0.00     0.055 C 
BRANCH   4   5
ATOM      5  C   UNL     1     168.249 174.553 137.765  1.00  0.00    -0.024 C 
ATOM      6  C   UNL     1     169.118 172.299 137.309  1.00  0.00     0.039 C 
ATOM      7  C   UNL     1     168.998 173.513 138.194  1.00  0.00    -0.080 C 
ATOM      8  C   UNL     1     169.704 173.536 139.530  1.00  0.00     0.039 C 
ENDBRANCH   4   5
ENDBRANCH   1   4
BRANCH   2   9
ATOM      9  C   UNL     1     166.568 175.006 140.973  1.00  0.00    -0.005 C 
ATOM     10  C   UNL     1     166.340 173.717 141.231  1.00  0.00     0.009 C 
ENDBRANCH   2   9
TORSDOF 3
ENDMDL
MODEL 2
REMARK VINA RESULT:    -1.926     15.119     17.193
REMARK INTER + INTRA:          -2.955
REMARK INTER:                  -2.276
REMARK INTRA:                  -0.679
REMARK UNBOUND:                -0.691
REMARK SMILES C=CC(C)=CCC=C(C)C
REMARK SMILES IDX 5 1 3 2 4 3 6 4 7 5 9 6 8 7 10 8 2 9 1 10
REMARK H PARENT
REMARK Flexibility Score: inf
ROOT
ATOM      1  C   UNL     1     165.887 158.178 138.652  1.00  0.00    -0.020 C 
ATOM      2  C   UNL     1     165.505 156.917 138.942  1.00  0.00    -0.055 C 
ATOM      3  C   UNL     1     166.455 156.031 139.710  1.00  0.00     0.044 C 
ENDROOT
BRANCH   1   4
ATOM      4  C   UNL     1     165.042 159.151 137.870  1.00  0.00     0.055 C 
BRANCH   4   5
ATOM      5  C   UNL     1     164.114 159.921 138.775  1.00  0.00    -0.024 C 
ATOM      6  C   UNL     1     161.970 160.836 139.558  1.00  0.00     0.039 C 
ATOM      7  C   UNL     1     162.780 160.024 138.581  1.00  0.00    -0.080 C 
ATOM      8  C   UNL     1     162.089 159.345 137.421  1.00  0.00     0.039 C 
ENDBRANCH   4   5
ENDBRANCH   1   4
BRANCH   2   9
ATOM      9  C   UNL     1     164.184 156.385 138.500  1.00  0.00    -0.005 C 
ATOM     10  C   UNL     1     163.142 156.236 139.318  1.00  0.00     0.009 C 
ENDBRANCH   2   9
TORSDOF 3
ENDMDL
MODEL 3
REMARK VINA RESULT:    -1.903      1.527      2.474
REMARK INTER + INTRA:          -2.928
REMARK INTER:                  -2.245
REMARK INTRA:                  -0.683
REMARK UNBOUND:                -0.691
REMARK SMILES C=CC(C)=CCC=C(C)C
REMARK SMILES IDX 5 1 3 2 4 3 6 4 7 5 9 6 8 7 10 8 2 9 1 10
REMARK H PARENT
REMARK Flexibility Score: inf
ROOT
ATOM      1  C   UNL     1     165.909 173.874 138.811  1.00  0.00    -0.020 C 
ATOM      2  C   UNL     1     166.297 175.143 139.057  1.00  0.00    -0.055 C 
ATOM      3  C   UNL     1     165.412 176.020 139.908  1.00  0.00     0.044 C 
ENDROOT
BRANCH   1   4
ATOM      4  C   UNL     1     166.690 172.909 137.957  1.00  0.00     0.055 C 
BRANCH   4   5
ATOM      5  C   UNL     1     167.703 172.148 138.775  1.00  0.00    -0.024 C 
ATOM      6  C   UNL     1     169.917 171.258 139.366  1.00  0.00     0.039 C 
ATOM      7  C   UNL     1     169.016 172.062 138.466  1.00  0.00    -0.080 C 
ATOM      8  C   UNL     1     169.595 172.753 137.253  1.00  0.00     0.039 C 
ENDBRANCH   4   5
ENDBRANCH   1   4
BRANCH   2   9
ATOM      9  C   UNL     1     167.561 175.692 138.487  1.00  0.00    -0.005 C 
ATOM     10  C   UNL     1     168.678 175.853 139.198  1.00  0.00     0.009 C 
ENDBRANCH   2   9
TORSDOF 3
ENDMDL
MODEL 4
REMARK VINA RESULT:    -1.895     16.539     18.129
REMARK INTER + INTRA:          -2.919
REMARK INTER:                  -2.251
REMARK INTRA:                  -0.667
REMARK UNBOUND:                -0.691
REMARK SMILES C=CC(C)=CCC=C(C)C
REMARK SMILES IDX 5 1 3 2 4 3 6 4 7 5 9 6 8 7 10 8 2 9 1 10
REMARK H PARENT
REMARK Flexibility Score: inf
ROOT
ATOM      1  C   UNL     1     165.966 155.879 139.129  1.00  0.00    -0.020 C 
ATOM      2  C   UNL     1     166.518 156.322 140.278  1.00  0.00    -0.055 C 
ATOM      3  C   UNL     1     168.016 156.247 140.438  1.00  0.00     0.044 C 
ENDROOT
BRANCH   1   4
ATOM      4  C   UNL     1     164.484 155.876 138.858  1.00  0.00     0.055 C 
BRANCH   4   5
ATOM      5  C   UNL     1     164.097 156.987 137.914  1.00  0.00    -0.024 C 
ATOM      6  C   UNL     1     162.921 159.019 137.182  1.00  0.00     0.039 C 
ATOM      7  C   UNL     1     163.227 157.975 138.224  1.00  0.00    -0.080 C 
ATOM      8  C   UNL     1     162.567 158.059 139.581  1.00  0.00     0.039 C 
ENDBRANCH   4   5
ENDBRANCH   1   4
BRANCH   2   9
ATOM      9  C   UNL     1     165.677 156.855 141.388  1.00  0.00    -0.005 C 
ATOM     10  C   UNL     1     165.623 158.148 141.712  1.00  0.00     0.009 C 
ENDBRANCH   2   9
TORSDOF 3
ENDMDL
MODEL 5
REMARK VINA RESULT:    -1.872      1.079      4.172
REMARK INTER + INTRA:          -2.891
REMARK INTER:                  -2.237
REMARK INTRA:                  -0.654
REMARK UNBOUND:                -0.691
REMARK SMILES C=CC(C)=CCC=C(C)C
REMARK SMILES IDX 5 1 3 2 4 3 6 4 7 5 9 6 8 7 10 8 2 9 1 10
REMARK H PARENT
REMARK Flexibility Score: inf
ROOT
ATOM      1  C   UNL     1     167.824 175.054 137.988  1.00  0.00    -0.020 C 
ATOM      2  C   UNL     1     168.610 174.054 138.439  1.00  0.00    -0.055 C 
ATOM      3  C   UNL     1     169.111 173.026 137.454  1.00  0.00     0.044 C 
ENDROOT
BRANCH   1   4
ATOM      4  C   UNL     1     167.239 176.125 138.872  1.00  0.00     0.055 C 
BRANCH   4   5
ATOM      5  C   UNL     1     165.769 175.894 139.115  1.00  0.00    -0.024 C 
ATOM      6  C   UNL     1     163.728 175.553 140.442  1.00  0.00     0.039 C 
ATOM      7  C   UNL     1     165.211 175.796 140.342  1.00  0.00    -0.080 C 
ATOM      8  C   UNL     1     166.032 175.930 141.604  1.00  0.00     0.039 C 
ENDBRANCH   4   5
ENDBRANCH   1   4
BRANCH   2   9
ATOM      9  C   UNL     1     168.965 173.938 139.882  1.00  0.00    -0.005 C 
ATOM     10  C   UNL     1     168.413 173.045 140.704  1.00  0.00     0.009 C 
ENDBRANCH   2   9
TORSDOF 3
ENDMDL
MODEL 6
REMARK VINA RESULT:    -1.725     15.992     17.195
REMARK INTER + INTRA:          -2.719
REMARK INTER:                  -2.146
REMARK INTRA:                  -0.573
REMARK UNBOUND:                -0.691
REMARK SMILES C=CC(C)=CCC=C(C)C
REMARK SMILES IDX 5 1 3 2 4 3 6 4 7 5 9 6 8 7 10 8 2 9 1 10
REMARK H PARENT
REMARK Flexibility Score: inf
ROOT
ATOM      1  C   UNL     1     163.781 158.022 137.404  1.00  0.00    -0.020 C 
ATOM      2  C   UNL     1     164.397 157.454 138.461  1.00  0.00    -0.055 C 
ATOM      3  C   UNL     1     164.741 155.986 138.397  1.00  0.00     0.044 C 
ENDROOT
BRANCH   1   4
ATOM      4  C   UNL     1     163.362 159.469 137.355  1.00  0.00     0.055 C 
BRANCH   4   5
ATOM      5  C   UNL     1     161.940 159.612 136.875  1.00  0.00    -0.024 C 
ATOM      6  C   UNL     1     159.494 159.766 137.078  1.00  0.00     0.039 C 
ATOM      7  C   UNL     1     160.863 159.626 137.692  1.00  0.00    -0.080 C 
ATOM      8  C   UNL     1     161.000 159.513 139.193  1.00  0.00     0.039 C 
ENDBRANCH   4   5
ENDBRANCH   1   4
BRANCH   2   9
ATOM      9  C   UNL     1     164.717 158.241 139.687  1.00  0.00    -0.005 C 
ATOM     10  C   UNL     1     164.082 158.079 140.849  1.00  0.00     0.009 C 
ENDBRANCH   2   9
TORSDOF 3
ENDMDL
MODEL 7
REMARK VINA RESULT:    -1.084     15.838     17.579
REMARK INTER + INTRA:          -1.965
REMARK INTER:                  -1.347
REMARK INTRA:                  -0.618
REMARK UNBOUND:                -0.691
REMARK SMILES C=CC(C)=CCC=C(C)C
REMARK SMILES IDX 5 1 3 2 4 3 6 4 7 5 9 6 8 7 10 8 2 9 1 10
REMARK H PARENT
REMARK Flexibility Score: inf
ROOT
ATOM      1  C   UNL     1     163.739 157.422 137.789  1.00  0.00    -0.020 C 
ATOM      2  C   UNL     1     163.145 158.543 138.248  1.00  0.00    -0.055 C 
ATOM      3  C   UNL     1     162.934 159.693 137.295  1.00  0.00     0.044 C 
ENDROOT
BRANCH   1   4
ATOM      4  C   UNL     1     164.029 156.216 138.645  1.00  0.00     0.055 C 
BRANCH   4   5
ATOM      5  C   UNL     1     165.512 155.960 138.749  1.00  0.00    -0.024 C 
ATOM      6  C   UNL     1     167.716 155.875 139.834  1.00  0.00     0.039 C 
ATOM      7  C   UNL     1     166.238 156.161 139.871  1.00  0.00    -0.080 C 
ATOM      8  C   UNL     1     165.605 156.654 141.152  1.00  0.00     0.039 C 
ENDBRANCH   4   5
ENDBRANCH   1   4
BRANCH   2   9
ATOM      9  C   UNL     1     162.722 158.669 139.673  1.00  0.00    -0.005 C 
ATOM     10  C   UNL     1     163.350 159.444 140.558  1.00  0.00     0.009 C 
ENDBRANCH   2   9
TORSDOF 3
ENDMDL
MODEL 8
REMARK VINA RESULT:    -0.280     16.362     17.520
REMARK INTER + INTRA:          -1.020
REMARK INTER:                  -0.331
REMARK INTRA:                  -0.689
REMARK UNBOUND:                -0.691
REMARK SMILES C=CC(C)=CCC=C(C)C
REMARK SMILES IDX 5 1 3 2 4 3 6 4 7 5 9 6 8 7 10 8 2 9 1 10
REMARK H PARENT
REMARK Flexibility Score: inf
ROOT
ATOM      1  C   UNL     1     165.242 158.625 138.354  1.00  0.00    -0.020 C 
ATOM      2  C   UNL     1     164.085 158.020 138.015  1.00  0.00    -0.055 C 
ATOM      3  C   UNL     1     163.059 158.803 137.233  1.00  0.00     0.044 C 
ENDROOT
BRANCH   1   4
ATOM      4  C   UNL     1     166.333 157.961 139.155  1.00  0.00     0.055 C 
BRANCH   4   5
ATOM      5  C   UNL     1     166.211 158.286 140.622  1.00  0.00    -0.024 C 
ATOM      6  C   UNL     1     165.989 157.819 143.026  1.00  0.00     0.039 C 
ATOM      7  C   UNL     1     166.116 157.355 141.598  1.00  0.00    -0.080 C 
ATOM      8  C   UNL     1     166.140 155.875 141.293  1.00  0.00     0.039 C 
ENDBRANCH   4   5
ENDBRANCH   1   4
BRANCH   2   9
ATOM      9  C   UNL     1     163.798 156.613 138.419  1.00  0.00    -0.005 C 
ATOM     10  C   UNL     1     163.000 156.290 139.437  1.00  0.00     0.009 C 
ENDBRANCH   2   9
TORSDOF 3
ENDMDL
