MODEL 1
REMARK VINA RESULT:    -4.591      0.000      0.000
REMARK INTER + INTRA:          -9.094
REMARK INTER:                  -8.349
REMARK INTRA:                  -0.745
REMARK UNBOUND:                -0.745
REMARK SMILES CCCCCCCCCCCCCC[C@@H](C)C(=O)[O-]
REMARK SMILES IDX 9 1 10 2 11 3 12 4 13 5 14 6 15 7 16 8 17 9 18 10 19 11 8 12
REMARK SMILES IDX 7 13 6 14 5 15 4 16 3 17 2 18 1 19
REMARK H PARENT
REMARK Flexibility Score: inf
ROOT
ATOM      1  C   UNL     1      -5.622 -13.040  -0.010  1.00  0.00     0.000 C 
ENDROOT
BRANCH   1   2
ATOM      2  C   UNL     1      -5.032 -11.655   0.311  1.00  0.00     0.000 C 
BRANCH   2   3
ATOM      3  C   UNL     1      -6.070 -10.578   0.681  1.00  0.00     0.000 C 
BRANCH   3   4
ATOM      4  C   UNL     1      -6.841  -9.971  -0.510  1.00  0.00     0.000 C 
BRANCH   4   5
ATOM      5  C   UNL     1      -7.487  -8.599  -0.242  1.00  0.00     0.001 C 
BRANCH   5   6
ATOM      6  C   UNL     1      -7.105  -8.015   1.130  1.00  0.00     0.009 C 
BRANCH   6   7
ATOM      7  C   UNL     1      -6.395  -6.648   1.019  1.00  0.00     0.032 C 
ATOM      8  C   UNL     1      -6.070  -6.273  -0.434  1.00  0.00     0.014 C 
BRANCH   7   9
ATOM      9  C   UNL     1      -7.248  -5.575   1.639  1.00  0.00     0.044 C 
ATOM     10  O   UNL     1      -6.780  -4.423   1.841  1.00  0.00    -0.550 OA
ATOM     11  O   UNL     1      -8.562  -5.853   1.995  1.00  0.00    -0.550 OA
ENDBRANCH   7   9
ENDBRANCH   6   7
ENDBRANCH   5   6
ENDBRANCH   4   5
ENDBRANCH   3   4
ENDBRANCH   2   3
ENDBRANCH   1   2
BRANCH   1  12
ATOM     12  C   UNL     1      -6.210 -13.738   1.225  1.00  0.00     0.000 C 
BRANCH  12  13
ATOM     13  C   UNL     1      -6.719 -15.142   0.872  1.00  0.00    -0.000 C 
BRANCH  13  14
ATOM     14  C   UNL     1      -5.591 -16.177   0.964  1.00  0.00    -0.000 C 
BRANCH  14  15
ATOM     15  C   UNL     1      -6.092 -17.481   1.601  1.00  0.00    -0.000 C 
BRANCH  15  16
ATOM     16  C   UNL     1      -6.612 -18.488   0.563  1.00  0.00    -0.000 C 
BRANCH  16  17
ATOM     17  C   UNL     1      -5.489 -19.060  -0.320  1.00  0.00    -0.000 C 
BRANCH  17  18
ATOM     18  C   UNL     1      -6.024 -19.969  -1.437  1.00  0.00    -0.003 C 
ATOM     19  C   UNL     1      -7.371 -20.604  -1.092  1.00  0.00     0.004 C 
ENDBRANCH  17  18
ENDBRANCH  16  17
ENDBRANCH  15  16
ENDBRANCH  14  15
ENDBRANCH  13  14
ENDBRANCH  12  13
ENDBRANCH   1  12
TORSDOF 14
ENDMDL
MODEL 2
REMARK VINA RESULT:    -4.491      5.243     10.785
REMARK INTER + INTRA:          -8.912
REMARK INTER:                  -8.059
REMARK INTRA:                  -0.853
REMARK UNBOUND:                -0.745
REMARK SMILES CCCCCCCCCCCCCC[C@@H](C)C(=O)[O-]
REMARK SMILES IDX 9 1 10 2 11 3 12 4 13 5 14 6 15 7 16 8 17 9 18 10 19 11 8 12
REMARK SMILES IDX 7 13 6 14 5 15 4 16 3 17 2 18 1 19
REMARK H PARENT
REMARK Flexibility Score: inf
ROOT
ATOM      1  C   UNL     1      -5.923 -13.116   0.336  1.00  0.00     0.000 C 
ENDROOT
BRANCH   1   2
ATOM      2  C   UNL     1      -5.604 -14.532   0.851  1.00  0.00     0.000 C 
BRANCH   2   3
ATOM      3  C   UNL     1      -6.797 -15.507   0.849  1.00  0.00     0.000 C 
BRANCH   3   4
ATOM      4  C   UNL     1      -6.441 -16.980   1.144  1.00  0.00     0.000 C 
BRANCH   4   5
ATOM      5  C   UNL     1      -5.231 -17.530   0.367  1.00  0.00     0.001 C 
BRANCH   5   6
ATOM      6  C   UNL     1      -5.334 -19.040   0.091  1.00  0.00     0.009 C 
BRANCH   6   7
ATOM      7  C   UNL     1      -6.751 -19.598   0.349  1.00  0.00     0.032 C 
ATOM      8  C   UNL     1      -7.362 -20.246  -0.901  1.00  0.00     0.014 C 
BRANCH   7   9
ATOM      9  C   UNL     1      -6.710 -20.602   1.470  1.00  0.00     0.044 C 
ATOM     10  O   UNL     1      -7.777 -21.036   1.979  1.00  0.00    -0.550 OA
ATOM     11  O   UNL     1      -5.488 -21.055   1.951  1.00  0.00    -0.550 OA
ENDBRANCH   7   9
ENDBRANCH   6   7
ENDBRANCH   5   6
ENDBRANCH   4   5
ENDBRANCH   3   4
ENDBRANCH   2   3
ENDBRANCH   1   2
BRANCH   1  12
ATOM     12  C   UNL     1      -5.594 -12.021   1.360  1.00  0.00     0.000 C 
BRANCH  12  13
ATOM     13  C   UNL     1      -5.551 -10.640   0.694  1.00  0.00    -0.000 C 
BRANCH  13  14
ATOM     14  C   UNL     1      -6.569 -10.547  -0.449  1.00  0.00    -0.000 C 
BRANCH  14  15
ATOM     15  C   UNL     1      -7.486  -9.328  -0.271  1.00  0.00    -0.000 C 
BRANCH  15  16
ATOM     16  C   UNL     1      -7.232  -8.580   1.047  1.00  0.00    -0.000 C 
BRANCH  16  17
ATOM     17  C   UNL     1      -7.283  -7.052   0.879  1.00  0.00    -0.000 C 
BRANCH  17  18
ATOM     18  C   UNL     1      -6.269  -6.539  -0.156  1.00  0.00    -0.003 C 
ATOM     19  C   UNL     1      -5.695  -5.169   0.205  1.00  0.00     0.004 C 
ENDBRANCH  17  18
ENDBRANCH  16  17
ENDBRANCH  15  16
ENDBRANCH  14  15
ENDBRANCH  13  14
ENDBRANCH  12  13
ENDBRANCH   1  12
TORSDOF 14
ENDMDL
MODEL 3
REMARK VINA RESULT:    -4.383      1.307      2.225
REMARK INTER + INTRA:          -8.715
REMARK INTER:                  -7.878
REMARK INTRA:                  -0.838
REMARK UNBOUND:                -0.745
REMARK SMILES CCCCCCCCCCCCCC[C@@H](C)C(=O)[O-]
REMARK SMILES IDX 9 1 10 2 11 3 12 4 13 5 14 6 15 7 16 8 17 9 18 10 19 11 8 12
REMARK SMILES IDX 7 13 6 14 5 15 4 16 3 17 2 18 1 19
REMARK H PARENT
REMARK Flexibility Score: inf
ROOT
ATOM      1  C   UNL     1      -6.249 -14.094   0.432  1.00  0.00     0.000 C 
ENDROOT
BRANCH   1   2
ATOM      2  C   UNL     1      -5.579 -13.320   1.582  1.00  0.00     0.000 C 
BRANCH   2   3
ATOM      3  C   UNL     1      -6.556 -12.647   2.567  1.00  0.00     0.000 C 
BRANCH   3   4
ATOM      4  C   UNL     1      -6.418 -11.115   2.685  1.00  0.00     0.000 C 
BRANCH   4   5
ATOM      5  C   UNL     1      -5.730 -10.425   1.493  1.00  0.00     0.001 C 
BRANCH   5   6
ATOM      6  C   UNL     1      -6.031  -8.918   1.418  1.00  0.00     0.009 C 
BRANCH   6   7
ATOM      7  C   UNL     1      -6.539  -8.480   0.026  1.00  0.00     0.032 C 
ATOM      8  C   UNL     1      -7.803  -9.238  -0.401  1.00  0.00     0.014 C 
BRANCH   7   9
ATOM      9  C   UNL     1      -6.811  -7.000   0.022  1.00  0.00     0.044 C 
ATOM     10  O   UNL     1      -6.006  -6.203  -0.529  1.00  0.00    -0.550 OA
ATOM     11  O   UNL     1      -7.958  -6.504   0.631  1.00  0.00    -0.550 OA
ENDBRANCH   7   9
ENDBRANCH   6   7
ENDBRANCH   5   6
ENDBRANCH   4   5
ENDBRANCH   3   4
ENDBRANCH   2   3
ENDBRANCH   1   2
BRANCH   1  12
ATOM     12  C   UNL     1      -6.720 -15.494   0.851  1.00  0.00     0.000 C 
BRANCH  12  13
ATOM     13  C   UNL     1      -5.538 -16.356   1.313  1.00  0.00    -0.000 C 
BRANCH  13  14
ATOM     14  C   UNL     1      -6.021 -17.702   1.869  1.00  0.00    -0.000 C 
BRANCH  14  15
ATOM     15  C   UNL     1      -5.335 -18.872   1.149  1.00  0.00    -0.000 C 
BRANCH  15  16
ATOM     16  C   UNL     1      -5.873 -19.092  -0.274  1.00  0.00    -0.000 C 
BRANCH  16  17
ATOM     17  C   UNL     1      -7.250 -19.777  -0.286  1.00  0.00    -0.000 C 
BRANCH  17  18
ATOM     18  C   UNL     1      -7.394 -20.787  -1.436  1.00  0.00    -0.003 C 
ATOM     19  C   UNL     1      -6.110 -20.949  -2.248  1.00  0.00     0.004 C 
ENDBRANCH  17  18
ENDBRANCH  16  17
ENDBRANCH  15  16
ENDBRANCH  14  15
ENDBRANCH  13  14
ENDBRANCH  12  13
ENDBRANCH   1  12
TORSDOF 14
ENDMDL
MODEL 4
REMARK VINA RESULT:    -4.332     20.616     22.942
REMARK INTER + INTRA:          -8.622
REMARK INTER:                  -6.126
REMARK INTRA:                  -2.497
REMARK UNBOUND:                -0.745
REMARK SMILES CCCCCCCCCCCCCC[C@@H](C)C(=O)[O-]
REMARK SMILES IDX 9 1 10 2 11 3 12 4 13 5 14 6 15 7 16 8 17 9 18 10 19 11 8 12
REMARK SMILES IDX 7 13 6 14 5 15 4 16 3 17 2 18 1 19
REMARK H PARENT
REMARK Flexibility Score: inf
ROOT
ATOM      1  C   UNL     1     -20.641  -5.511 -17.084  1.00  0.00     0.000 C 
ENDROOT
BRANCH   1   2
ATOM      2  C   UNL     1     -22.002  -6.225 -16.987  1.00  0.00     0.000 C 
BRANCH   2   3
ATOM      3  C   UNL     1     -23.192  -5.309 -16.637  1.00  0.00     0.000 C 
BRANCH   3   4
ATOM      4  C   UNL     1     -23.696  -5.414 -15.183  1.00  0.00     0.000 C 
BRANCH   4   5
ATOM      5  C   UNL     1     -24.555  -4.231 -14.700  1.00  0.00     0.001 C 
BRANCH   5   6
ATOM      6  C   UNL     1     -24.182  -3.759 -13.283  1.00  0.00     0.009 C 
BRANCH   6   7
ATOM      7  C   UNL     1     -22.998  -2.767 -13.278  1.00  0.00     0.032 C 
ATOM      8  C   UNL     1     -23.175  -1.639 -14.304  1.00  0.00     0.014 C 
BRANCH   7   9
ATOM      9  C   UNL     1     -22.829  -2.178 -11.903  1.00  0.00     0.044 C 
ATOM     10  O   UNL     1     -21.829  -2.476 -11.199  1.00  0.00    -0.550 OA
ATOM     11  O   UNL     1     -23.782  -1.299 -11.404  1.00  0.00    -0.550 OA
ENDBRANCH   7   9
ENDBRANCH   6   7
ENDBRANCH   5   6
ENDBRANCH   4   5
ENDBRANCH   3   4
ENDBRANCH   2   3
ENDBRANCH   1   2
BRANCH   1  12
ATOM     12  C   UNL     1     -20.749  -3.992 -16.891  1.00  0.00     0.000 C 
BRANCH  12  13
ATOM     13  C   UNL     1     -20.155  -3.566 -15.543  1.00  0.00    -0.000 C 
BRANCH  13  14
ATOM     14  C   UNL     1     -19.579  -4.770 -14.788  1.00  0.00    -0.000 C 
BRANCH  14  15
ATOM     15  C   UNL     1     -19.948  -4.712 -13.298  1.00  0.00    -0.000 C 
BRANCH  15  16
ATOM     16  C   UNL     1     -20.964  -5.793 -12.895  1.00  0.00    -0.000 C 
BRANCH  16  17
ATOM     17  C   UNL     1     -20.640  -7.166 -13.510  1.00  0.00    -0.000 C 
BRANCH  17  18
ATOM     18  C   UNL     1     -20.721  -8.305 -12.481  1.00  0.00    -0.003 C 
ATOM     19  C   UNL     1     -20.082  -9.601 -12.979  1.00  0.00     0.004 C 
ENDBRANCH  17  18
ENDBRANCH  16  17
ENDBRANCH  15  16
ENDBRANCH  14  15
ENDBRANCH  13  14
ENDBRANCH  12  13
ENDBRANCH   1  12
TORSDOF 14
ENDMDL
MODEL 5
REMARK VINA RESULT:    -4.281      5.133     10.714
REMARK INTER + INTRA:          -8.529
REMARK INTER:                  -7.723
REMARK INTRA:                  -0.806
REMARK UNBOUND:                -0.745
REMARK SMILES CCCCCCCCCCCCCC[C@@H](C)C(=O)[O-]
REMARK SMILES IDX 9 1 10 2 11 3 12 4 13 5 14 6 15 7 16 8 17 9 18 10 19 11 8 12
REMARK SMILES IDX 7 13 6 14 5 15 4 16 3 17 2 18 1 19
REMARK H PARENT
REMARK Flexibility Score: inf
ROOT
ATOM      1  C   UNL     1      -5.795 -13.371   0.717  1.00  0.00     0.000 C 
ENDROOT
BRANCH   1   2
ATOM      2  C   UNL     1      -6.488 -14.742   0.820  1.00  0.00     0.000 C 
BRANCH   2   3
ATOM      3  C   UNL     1      -5.532 -15.944   0.956  1.00  0.00     0.000 C 
BRANCH   3   4
ATOM      4  C   UNL     1      -5.701 -16.775   2.245  1.00  0.00     0.000 C 
BRANCH   4   5
ATOM      5  C   UNL     1      -6.310 -18.175   2.047  1.00  0.00     0.001 C 
BRANCH   5   6
ATOM      6  C   UNL     1      -6.526 -18.530   0.565  1.00  0.00     0.009 C 
BRANCH   6   7
ATOM      7  C   UNL     1      -6.402 -20.045   0.292  1.00  0.00     0.032 C 
ATOM      8  C   UNL     1      -7.451 -20.866   1.054  1.00  0.00     0.014 C 
BRANCH   7   9
ATOM      9  C   UNL     1      -6.526 -20.312  -1.184  1.00  0.00     0.044 C 
ATOM     10  O   UNL     1      -7.590 -20.789  -1.660  1.00  0.00    -0.550 OA
ATOM     11  O   UNL     1      -5.461 -20.032  -2.031  1.00  0.00    -0.550 OA
ENDBRANCH   7   9
ENDBRANCH   6   7
ENDBRANCH   5   6
ENDBRANCH   4   5
ENDBRANCH   3   4
ENDBRANCH   2   3
ENDBRANCH   1   2
BRANCH   1  12
ATOM     12  C   UNL     1      -6.053 -12.479   1.939  1.00  0.00     0.000 C 
BRANCH  12  13
ATOM     13  C   UNL     1      -6.340 -11.034   1.514  1.00  0.00    -0.000 C 
BRANCH  13  14
ATOM     14  C   UNL     1      -6.055 -10.831   0.021  1.00  0.00    -0.000 C 
BRANCH  14  15
ATOM     15  C   UNL     1      -7.102  -9.908  -0.619  1.00  0.00    -0.000 C 
BRANCH  15  16
ATOM     16  C   UNL     1      -7.464  -8.710   0.274  1.00  0.00    -0.000 C 
BRANCH  16  17
ATOM     17  C   UNL     1      -6.784  -7.407  -0.181  1.00  0.00    -0.000 C 
BRANCH  17  18
ATOM     18  C   UNL     1      -7.004  -6.252   0.809  1.00  0.00    -0.003 C 
ATOM     19  C   UNL     1      -7.643  -6.708   2.120  1.00  0.00     0.004 C 
ENDBRANCH  17  18
ENDBRANCH  16  17
ENDBRANCH  15  16
ENDBRANCH  14  15
ENDBRANCH  13  14
ENDBRANCH  12  13
ENDBRANCH   1  12
TORSDOF 14
ENDMDL
MODEL 6
REMARK VINA RESULT:    -4.239      4.691     10.798
REMARK INTER + INTRA:          -8.454
REMARK INTER:                  -7.891
REMARK INTRA:                  -0.563
REMARK UNBOUND:                -0.745
REMARK SMILES CCCCCCCCCCCCCC[C@@H](C)C(=O)[O-]
REMARK SMILES IDX 9 1 10 2 11 3 12 4 13 5 14 6 15 7 16 8 17 9 18 10 19 11 8 12
REMARK SMILES IDX 7 13 6 14 5 15 4 16 3 17 2 18 1 19
REMARK H PARENT
REMARK Flexibility Score: inf
ROOT
ATOM      1  C   UNL     1      -6.329 -10.934  -0.557  1.00  0.00     0.000 C 
ENDROOT
BRANCH   1   2
ATOM      2  C   UNL     1      -5.518 -12.049   0.129  1.00  0.00     0.000 C 
BRANCH   2   3
ATOM      3  C   UNL     1      -6.354 -13.238   0.642  1.00  0.00     0.000 C 
BRANCH   3   4
ATOM      4  C   UNL     1      -5.577 -14.559   0.821  1.00  0.00     0.000 C 
BRANCH   4   5
ATOM      5  C   UNL     1      -6.449 -15.824   0.917  1.00  0.00     0.001 C 
BRANCH   5   6
ATOM      6  C   UNL     1      -5.621 -17.121   0.945  1.00  0.00     0.009 C 
BRANCH   6   7
ATOM      7  C   UNL     1      -6.451 -18.366   0.560  1.00  0.00     0.032 C 
ATOM      8  C   UNL     1      -5.761 -19.220  -0.512  1.00  0.00     0.014 C 
BRANCH   7   9
ATOM      9  C   UNL     1      -6.715 -19.204   1.782  1.00  0.00     0.044 C 
ATOM     10  O   UNL     1      -7.114 -20.393   1.667  1.00  0.00    -0.550 OA
ATOM     11  O   UNL     1      -6.521 -18.665   3.047  1.00  0.00    -0.550 OA
ENDBRANCH   7   9
ENDBRANCH   6   7
ENDBRANCH   5   6
ENDBRANCH   4   5
ENDBRANCH   3   4
ENDBRANCH   2   3
ENDBRANCH   1   2
BRANCH   1  12
ATOM     12  C   UNL     1      -6.779  -9.838   0.418  1.00  0.00     0.000 C 
BRANCH  12  13
ATOM     13  C   UNL     1      -7.661  -8.801  -0.289  1.00  0.00    -0.000 C 
BRANCH  13  14
ATOM     14  C   UNL     1      -7.271  -7.375   0.117  1.00  0.00    -0.000 C 
BRANCH  14  15
ATOM     15  C   UNL     1      -6.829  -7.322   1.586  1.00  0.00    -0.000 C 
BRANCH  15  16
ATOM     16  C   UNL     1      -7.864  -6.641   2.495  1.00  0.00    -0.000 C 
BRANCH  16  17
ATOM     17  C   UNL     1      -8.407  -5.332   1.895  1.00  0.00    -0.000 C 
BRANCH  17  18
ATOM     18  C   UNL     1      -9.698  -4.861   2.583  1.00  0.00    -0.003 C 
ATOM     19  C   UNL     1     -10.854  -4.663   1.603  1.00  0.00     0.004 C 
ENDBRANCH  17  18
ENDBRANCH  16  17
ENDBRANCH  15  16
ENDBRANCH  14  15
ENDBRANCH  13  14
ENDBRANCH  12  13
ENDBRANCH   1  12
TORSDOF 14
ENDMDL
MODEL 7
REMARK VINA RESULT:    -3.998      4.954     10.679
REMARK INTER + INTRA:          -8.015
REMARK INTER:                  -7.321
REMARK INTRA:                  -0.693
REMARK UNBOUND:                -0.745
REMARK SMILES CCCCCCCCCCCCCC[C@@H](C)C(=O)[O-]
REMARK SMILES IDX 9 1 10 2 11 3 12 4 13 5 14 6 15 7 16 8 17 9 18 10 19 11 8 12
REMARK SMILES IDX 7 13 6 14 5 15 4 16 3 17 2 18 1 19
REMARK H PARENT
REMARK Flexibility Score: inf
ROOT
ATOM      1  C   UNL     1      -5.171 -12.102   0.006  1.00  0.00     0.000 C 
ENDROOT
BRANCH   1   2
ATOM      2  C   UNL     1      -6.301 -13.043   0.463  1.00  0.00     0.000 C 
BRANCH   2   3
ATOM      3  C   UNL     1      -5.890 -14.520   0.625  1.00  0.00     0.000 C 
BRANCH   3   4
ATOM      4  C   UNL     1      -6.045 -15.092   2.050  1.00  0.00     0.000 C 
BRANCH   4   5
ATOM      5  C   UNL     1      -5.933 -16.624   2.156  1.00  0.00     0.001 C 
BRANCH   5   6
ATOM      6  C   UNL     1      -6.052 -17.329   0.793  1.00  0.00     0.009 C 
BRANCH   6   7
ATOM      7  C   UNL     1      -5.899 -18.863   0.901  1.00  0.00     0.032 C 
ATOM      8  C   UNL     1      -6.663 -19.445   2.098  1.00  0.00     0.014 C 
BRANCH   7   9
ATOM      9  C   UNL     1      -6.374 -19.516  -0.369  1.00  0.00     0.044 C 
ATOM     10  O   UNL     1      -5.613 -19.596  -1.370  1.00  0.00    -0.550 OA
ATOM     11  O   UNL     1      -7.661 -20.033  -0.443  1.00  0.00    -0.550 OA
ENDBRANCH   7   9
ENDBRANCH   6   7
ENDBRANCH   5   6
ENDBRANCH   4   5
ENDBRANCH   3   4
ENDBRANCH   2   3
ENDBRANCH   1   2
BRANCH   1  12
ATOM     12  C   UNL     1      -5.492 -10.621   0.253  1.00  0.00     0.000 C 
BRANCH  12  13
ATOM     13  C   UNL     1      -6.895 -10.270  -0.257  1.00  0.00    -0.000 C 
BRANCH  13  14
ATOM     14  C   UNL     1      -7.434  -9.010   0.431  1.00  0.00    -0.000 C 
BRANCH  14  15
ATOM     15  C   UNL     1      -7.001  -7.744  -0.323  1.00  0.00    -0.000 C 
BRANCH  15  16
ATOM     16  C   UNL     1      -6.322  -6.711   0.590  1.00  0.00    -0.000 C 
BRANCH  16  17
ATOM     17  C   UNL     1      -7.094  -6.481   1.900  1.00  0.00    -0.000 C 
BRANCH  17  18
ATOM     18  C   UNL     1      -8.372  -5.653   1.693  1.00  0.00    -0.003 C 
ATOM     19  C   UNL     1      -8.961  -5.132   3.003  1.00  0.00     0.004 C 
ENDBRANCH  17  18
ENDBRANCH  16  17
ENDBRANCH  15  16
ENDBRANCH  14  15
ENDBRANCH  13  14
ENDBRANCH  12  13
ENDBRANCH   1  12
TORSDOF 14
ENDMDL
MODEL 8
REMARK VINA RESULT:    -3.930     20.671     22.957
REMARK INTER + INTRA:          -7.891
REMARK INTER:                  -5.743
REMARK INTRA:                  -2.148
REMARK UNBOUND:                -0.745
REMARK SMILES CCCCCCCCCCCCCC[C@@H](C)C(=O)[O-]
REMARK SMILES IDX 9 1 10 2 11 3 12 4 13 5 14 6 15 7 16 8 17 9 18 10 19 11 8 12
REMARK SMILES IDX 7 13 6 14 5 15 4 16 3 17 2 18 1 19
REMARK H PARENT
REMARK Flexibility Score: inf
ROOT
ATOM      1  C   UNL     1     -19.437  -3.823 -15.923  1.00  0.00     0.000 C 
ENDROOT
BRANCH   1   2
ATOM      2  C   UNL     1     -20.303  -3.073 -14.894  1.00  0.00     0.000 C 
BRANCH   2   3
ATOM      3  C   UNL     1     -20.472  -1.565 -15.164  1.00  0.00     0.000 C 
BRANCH   3   4
ATOM      4  C   UNL     1     -21.731  -1.178 -15.967  1.00  0.00     0.000 C 
BRANCH   4   5
ATOM      5  C   UNL     1     -23.064  -1.660 -15.368  1.00  0.00     0.001 C 
BRANCH   5   6
ATOM      6  C   UNL     1     -23.331  -1.090 -13.963  1.00  0.00     0.009 C 
BRANCH   6   7
ATOM      7  C   UNL     1     -23.717  -2.182 -12.941  1.00  0.00     0.032 C 
ATOM      8  C   UNL     1     -23.932  -3.551 -13.600  1.00  0.00     0.014 C 
BRANCH   7   9
ATOM      9  C   UNL     1     -22.652  -2.293 -11.883  1.00  0.00     0.044 C 
ATOM     10  O   UNL     1     -22.494  -1.373 -11.037  1.00  0.00    -0.550 OA
ATOM     11  O   UNL     1     -21.835  -3.415 -11.836  1.00  0.00    -0.550 OA
ENDBRANCH   7   9
ENDBRANCH   6   7
ENDBRANCH   5   6
ENDBRANCH   4   5
ENDBRANCH   3   4
ENDBRANCH   2   3
ENDBRANCH   1   2
BRANCH   1  12
ATOM     12  C   UNL     1     -20.262  -4.431 -17.066  1.00  0.00     0.000 C 
BRANCH  12  13
ATOM     13  C   UNL     1     -21.560  -5.052 -16.538  1.00  0.00    -0.000 C 
BRANCH  13  14
ATOM     14  C   UNL     1     -21.508  -6.583 -16.606  1.00  0.00    -0.000 C 
BRANCH  14  15
ATOM     15  C   UNL     1     -21.894  -7.207 -15.257  1.00  0.00    -0.000 C 
BRANCH  15  16
ATOM     16  C   UNL     1     -21.561  -6.297 -14.064  1.00  0.00    -0.000 C 
BRANCH  16  17
ATOM     17  C   UNL     1     -20.571  -6.948 -13.082  1.00  0.00    -0.000 C 
BRANCH  17  18
ATOM     18  C   UNL     1     -19.854  -8.164 -13.689  1.00  0.00    -0.003 C 
ATOM     19  C   UNL     1     -20.154  -9.464 -12.943  1.00  0.00     0.004 C 
ENDBRANCH  17  18
ENDBRANCH  16  17
ENDBRANCH  15  16
ENDBRANCH  14  15
ENDBRANCH  13  14
ENDBRANCH  12  13
ENDBRANCH   1  12
TORSDOF 14
ENDMDL
MODEL 9
REMARK VINA RESULT:    -3.846     21.119     23.657
REMARK INTER + INTRA:          -7.738
REMARK INTER:                  -5.076
REMARK INTRA:                  -2.662
REMARK UNBOUND:                -0.745
REMARK SMILES CCCCCCCCCCCCCC[C@@H](C)C(=O)[O-]
REMARK SMILES IDX 9 1 10 2 11 3 12 4 13 5 14 6 15 7 16 8 17 9 18 10 19 11 8 12
REMARK SMILES IDX 7 13 6 14 5 15 4 16 3 17 2 18 1 19
REMARK H PARENT
REMARK Flexibility Score: inf
ROOT
ATOM      1  C   UNL     1     -20.597  -6.572 -12.758  1.00  0.00     0.000 C 
ENDROOT
BRANCH   1   2
ATOM      2  C   UNL     1     -20.264  -5.094 -13.031  1.00  0.00     0.000 C 
BRANCH   2   3
ATOM      3  C   UNL     1     -21.401  -4.103 -12.713  1.00  0.00     0.000 C 
BRANCH   3   4
ATOM      4  C   UNL     1     -22.817  -4.716 -12.683  1.00  0.00     0.000 C 
BRANCH   4   5
ATOM      5  C   UNL     1     -23.867  -3.978 -13.533  1.00  0.00     0.001 C 
BRANCH   5   6
ATOM      6  C   UNL     1     -24.898  -3.215 -12.681  1.00  0.00     0.009 C 
BRANCH   6   7
ATOM      7  C   UNL     1     -24.607  -1.700 -12.611  1.00  0.00     0.032 C 
ATOM      8  C   UNL     1     -23.757  -1.322 -11.391  1.00  0.00     0.014 C 
BRANCH   7   9
ATOM      9  C   UNL     1     -23.912  -1.253 -13.870  1.00  0.00     0.044 C 
ATOM     10  O   UNL     1     -24.536  -1.208 -14.963  1.00  0.00    -0.550 OA
ATOM     11  O   UNL     1     -22.573  -0.887 -13.829  1.00  0.00    -0.550 OA
ENDBRANCH   7   9
ENDBRANCH   6   7
ENDBRANCH   5   6
ENDBRANCH   4   5
ENDBRANCH   3   4
ENDBRANCH   2   3
ENDBRANCH   1   2
BRANCH   1  12
ATOM     12  C   UNL     1     -20.297  -7.483 -13.957  1.00  0.00     0.000 C 
BRANCH  12  13
ATOM     13  C   UNL     1     -20.651  -6.787 -15.277  1.00  0.00    -0.000 C 
BRANCH  13  14
ATOM     14  C   UNL     1     -22.134  -6.975 -15.620  1.00  0.00    -0.000 C 
BRANCH  14  15
ATOM     15  C   UNL     1     -22.666  -5.785 -16.432  1.00  0.00    -0.000 C 
BRANCH  15  16
ATOM     16  C   UNL     1     -21.553  -4.821 -16.872  1.00  0.00    -0.000 C 
BRANCH  16  17
ATOM     17  C   UNL     1     -21.868  -3.356 -16.523  1.00  0.00    -0.000 C 
BRANCH  17  18
ATOM     18  C   UNL     1     -20.624  -2.580 -16.061  1.00  0.00    -0.003 C 
ATOM     19  C   UNL     1     -19.334  -3.386 -16.210  1.00  0.00     0.004 C 
ENDBRANCH  17  18
ENDBRANCH  16  17
ENDBRANCH  15  16
ENDBRANCH  14  15
ENDBRANCH  13  14
ENDBRANCH  12  13
ENDBRANCH   1  12
TORSDOF 14
ENDMDL
