MODEL 1
REMARK VINA RESULT:    -5.548      0.000      0.000
REMARK INTER + INTRA:          -6.035
REMARK INTER:                  -6.035
REMARK INTRA:                   0.000
REMARK UNBOUND:                 0.000
REMARK SMILES Cc1cc(O)c2c(c1)C(=O)c1cc(O)cc(O)c1C2=O
REMARK SMILES IDX 1 1 2 2 8 3 7 4 6 5 4 6 3 7 19 8 20 9 18 10 11 11 9 12 10 13
REMARK SMILES IDX 12 14 13 15 15 16 16 17 5 18 17 20 14 22
REMARK H PARENT 5 19 17 21 14 23
REMARK Flexibility Score: inf
ROOT
ATOM      1  C   UNL     1      19.743  -7.505 -32.611  1.00  0.00     0.044 C 
ATOM      2  C   UNL     1      18.814  -6.711 -31.740  1.00  0.00    -0.047 A 
ATOM      3  C   UNL     1      17.598  -7.263 -31.321  1.00  0.00     0.016 A 
ATOM      4  C   UNL     1      16.708  -6.518 -30.530  1.00  0.00     0.038 A 
ATOM      5  C   UNL     1      17.039  -5.198 -30.152  1.00  0.00     0.076 A 
ATOM      6  C   UNL     1      18.234  -4.615 -30.650  1.00  0.00     0.127 A 
ATOM      7  C   UNL     1      19.113  -5.383 -31.419  1.00  0.00     0.050 A 
ATOM      8  C   UNL     1      16.146  -4.495 -29.195  1.00  0.00     0.201 C 
ATOM      9  O   UNL     1      16.623  -3.634 -28.409  1.00  0.00    -0.288 OA
ATOM     10  C   UNL     1      14.737  -4.941 -29.038  1.00  0.00     0.076 A 
ATOM     11  C   UNL     1      14.408  -6.260 -29.420  1.00  0.00     0.041 A 
ATOM     12  C   UNL     1      15.419  -7.108 -30.096  1.00  0.00     0.194 C 
ATOM     13  O   UNL     1      15.173  -8.325 -30.325  1.00  0.00    -0.289 OA
ATOM     14  C   UNL     1      13.122  -6.764 -29.160  1.00  0.00     0.059 A 
ATOM     15  C   UNL     1      12.159  -5.962 -28.541  1.00  0.00     0.120 A 
ATOM     16  C   UNL     1      12.468  -4.646 -28.200  1.00  0.00     0.093 A 
ATOM     17  C   UNL     1      13.734  -4.115 -28.466  1.00  0.00     0.131 A 
ENDROOT
BRANCH   6  18
ATOM     18  O   UNL     1      18.565  -3.275 -30.437  1.00  0.00    -0.507 OA
ATOM     19  H   UNL     1      19.513  -2.947 -30.309  1.00  0.00     0.293 HD
ENDBRANCH   6  18
BRANCH  17  20
ATOM     20  O   UNL     1      13.939  -2.764 -28.179  1.00  0.00    -0.507 OA
ATOM     21  H   UNL     1      13.735  -2.345 -27.282  1.00  0.00     0.293 HD
ENDBRANCH  17  20
BRANCH  15  22
ATOM     22  O   UNL     1      10.886  -6.461 -28.271  1.00  0.00    -0.508 OA
ATOM     23  H   UNL     1      10.510  -7.256 -28.774  1.00  0.00     0.293 HD
ENDBRANCH  15  22
TORSDOF 3
ENDMDL
MODEL 2
REMARK VINA RESULT:    -5.420      3.859      5.801
REMARK INTER + INTRA:          -5.895
REMARK INTER:                  -5.895
REMARK INTRA:                   0.000
REMARK UNBOUND:                 0.000
REMARK SMILES Cc1cc(O)c2c(c1)C(=O)c1cc(O)cc(O)c1C2=O
REMARK SMILES IDX 1 1 2 2 8 3 7 4 6 5 4 6 3 7 19 8 20 9 18 10 11 11 9 12 10 13
REMARK SMILES IDX 12 14 13 15 15 16 16 17 5 18 17 20 14 22
REMARK H PARENT 5 19 17 21 14 23
REMARK Flexibility Score: inf
ROOT
ATOM      1  C   UNL     1      20.593  -5.591 -38.852  1.00  0.00     0.044 C 
ATOM      2  C   UNL     1      20.285  -6.012 -37.445  1.00  0.00    -0.047 A 
ATOM      3  C   UNL     1      18.960  -6.232 -37.050  1.00  0.00     0.016 A 
ATOM      4  C   UNL     1      18.659  -6.598 -35.728  1.00  0.00     0.038 A 
ATOM      5  C   UNL     1      19.700  -6.747 -34.784  1.00  0.00     0.076 A 
ATOM      6  C   UNL     1      21.031  -6.440 -35.169  1.00  0.00     0.127 A 
ATOM      7  C   UNL     1      21.309  -6.097 -36.496  1.00  0.00     0.050 A 
ATOM      8  C   UNL     1      19.359  -7.278 -33.439  1.00  0.00     0.201 C 
ATOM      9  O   UNL     1      20.210  -7.949 -32.796  1.00  0.00    -0.288 OA
ATOM     10  C   UNL     1      17.963  -7.180 -32.939  1.00  0.00     0.076 A 
ATOM     11  C   UNL     1      16.925  -7.028 -33.886  1.00  0.00     0.041 A 
ATOM     12  C   UNL     1      17.253  -6.823 -35.316  1.00  0.00     0.194 C 
ATOM     13  O   UNL     1      16.332  -6.813 -36.180  1.00  0.00    -0.289 OA
ATOM     14  C   UNL     1      15.584  -7.070 -33.465  1.00  0.00     0.059 A 
ATOM     15  C   UNL     1      15.270  -7.244 -32.114  1.00  0.00     0.120 A 
ATOM     16  C   UNL     1      16.293  -7.353 -31.173  1.00  0.00     0.093 A 
ATOM     17  C   UNL     1      17.634  -7.295 -31.563  1.00  0.00     0.131 A 
ENDROOT
BRANCH   6  18
ATOM     18  O   UNL     1      22.095  -6.428 -34.264  1.00  0.00    -0.507 OA
ATOM     19  H   UNL     1      22.271  -7.170 -33.600  1.00  0.00     0.293 HD
ENDBRANCH   6  18
BRANCH  17  20
ATOM     20  O   UNL     1      18.601  -7.319 -30.555  1.00  0.00    -0.507 OA
ATOM     21  H   UNL     1      19.398  -6.699 -30.530  1.00  0.00     0.293 HD
ENDBRANCH  17  20
BRANCH  15  22
ATOM     22  O   UNL     1      13.942  -7.298 -31.695  1.00  0.00    -0.508 OA
ATOM     23  H   UNL     1      13.643  -6.874 -30.825  1.00  0.00     0.293 HD
ENDBRANCH  15  22
TORSDOF 3
ENDMDL
MODEL 3
REMARK VINA RESULT:    -5.410      1.573      3.546
REMARK INTER + INTRA:          -5.885
REMARK INTER:                  -5.885
REMARK INTRA:                   0.000
REMARK UNBOUND:                 0.000
REMARK SMILES Cc1cc(O)c2c(c1)C(=O)c1cc(O)cc(O)c1C2=O
REMARK SMILES IDX 1 1 2 2 8 3 7 4 6 5 4 6 3 7 19 8 20 9 18 10 11 11 9 12 10 13
REMARK SMILES IDX 12 14 13 15 15 16 16 17 5 18 17 20 14 22
REMARK H PARENT 5 19 17 21 14 23
REMARK Flexibility Score: inf
ROOT
ATOM      1  C   UNL     1      19.501  -2.116 -30.591  1.00  0.00     0.044 C 
ATOM      2  C   UNL     1      18.727  -3.402 -30.597  1.00  0.00    -0.047 A 
ATOM      3  C   UNL     1      17.459  -3.464 -30.009  1.00  0.00     0.016 A 
ATOM      4  C   UNL     1      16.738  -4.669 -29.984  1.00  0.00     0.038 A 
ATOM      5  C   UNL     1      17.296  -5.834 -30.557  1.00  0.00     0.076 A 
ATOM      6  C   UNL     1      18.616  -5.785 -31.077  1.00  0.00     0.127 A 
ATOM      7  C   UNL     1      19.305  -4.568 -31.108  1.00  0.00     0.050 A 
ATOM      8  C   UNL     1      16.447  -7.050 -30.645  1.00  0.00     0.201 C 
ATOM      9  O   UNL     1      16.623  -7.870 -31.586  1.00  0.00    -0.288 OA
ATOM     10  C   UNL     1      15.278  -7.200 -29.741  1.00  0.00     0.076 A 
ATOM     11  C   UNL     1      14.725  -6.034 -29.167  1.00  0.00     0.041 A 
ATOM     12  C   UNL     1      15.399  -4.727 -29.352  1.00  0.00     0.194 C 
ATOM     13  O   UNL     1      14.844  -3.667 -28.950  1.00  0.00    -0.289 OA
ATOM     14  C   UNL     1      13.538  -6.119 -28.418  1.00  0.00     0.059 A 
ATOM     15  C   UNL     1      12.909  -7.352 -28.224  1.00  0.00     0.120 A 
ATOM     16  C   UNL     1      13.475  -8.510 -28.755  1.00  0.00     0.093 A 
ATOM     17  C   UNL     1      14.665  -8.455 -29.487  1.00  0.00     0.131 A 
ENDROOT
BRANCH   6  18
ATOM     18  O   UNL     1      19.290  -6.920 -31.535  1.00  0.00    -0.507 OA
ATOM     19  H   UNL     1      19.611  -7.032 -32.486  1.00  0.00     0.293 HD
ENDBRANCH   6  18
BRANCH  17  20
ATOM     20  O   UNL     1      15.219  -9.667 -29.908  1.00  0.00    -0.507 OA
ATOM     21  H   UNL     1      15.708  -9.782 -30.785  1.00  0.00     0.293 HD
ENDBRANCH  17  20
BRANCH  15  22
ATOM     22  O   UNL     1      11.726  -7.438 -27.492  1.00  0.00    -0.508 OA
ATOM     23  H   UNL     1      11.538  -6.820 -26.712  1.00  0.00     0.293 HD
ENDBRANCH  15  22
TORSDOF 3
ENDMDL
MODEL 4
REMARK VINA RESULT:    -5.407      4.029      8.120
REMARK INTER + INTRA:          -5.881
REMARK INTER:                  -5.881
REMARK INTRA:                   0.000
REMARK UNBOUND:                 0.000
REMARK SMILES Cc1cc(O)c2c(c1)C(=O)c1cc(O)cc(O)c1C2=O
REMARK SMILES IDX 1 1 2 2 8 3 7 4 6 5 4 6 3 7 19 8 20 9 18 10 11 11 9 12 10 13
REMARK SMILES IDX 12 14 13 15 15 16 16 17 5 18 17 20 14 22
REMARK H PARENT 5 19 17 21 14 23
REMARK Flexibility Score: inf
ROOT
ATOM      1  C   UNL     1      16.722  -7.519 -30.526  1.00  0.00     0.044 C 
ATOM      2  C   UNL     1      17.683  -6.683 -31.321  1.00  0.00    -0.047 A 
ATOM      3  C   UNL     1      18.225  -7.176 -32.514  1.00  0.00     0.016 A 
ATOM      4  C   UNL     1      19.147  -6.413 -33.250  1.00  0.00     0.038 A 
ATOM      5  C   UNL     1      19.533  -5.137 -32.786  1.00  0.00     0.076 A 
ATOM      6  C   UNL     1      19.045  -4.679 -31.534  1.00  0.00     0.127 A 
ATOM      7  C   UNL     1      18.113  -5.447 -30.830  1.00  0.00     0.050 A 
ATOM      8  C   UNL     1      20.392  -4.300 -33.663  1.00  0.00     0.201 C 
ATOM      9  O   UNL     1      20.303  -3.044 -33.614  1.00  0.00    -0.288 OA
ATOM     10  C   UNL     1      21.212  -4.942 -34.723  1.00  0.00     0.076 A 
ATOM     11  C   UNL     1      20.825  -6.221 -35.182  1.00  0.00     0.041 A 
ATOM     12  C   UNL     1      19.721  -6.946 -34.509  1.00  0.00     0.194 C 
ATOM     13  O   UNL     1      19.289  -8.029 -34.992  1.00  0.00    -0.289 OA
ATOM     14  C   UNL     1      21.489  -6.802 -36.276  1.00  0.00     0.059 A 
ATOM     15  C   UNL     1      22.544  -6.131 -36.902  1.00  0.00     0.120 A 
ATOM     16  C   UNL     1      22.955  -4.887 -36.425  1.00  0.00     0.093 A 
ATOM     17  C   UNL     1      22.322  -4.297 -35.327  1.00  0.00     0.131 A 
ENDROOT
BRANCH   6  18
ATOM     18  O   UNL     1      19.484  -3.493 -30.941  1.00  0.00    -0.507 OA
ATOM     19  H   UNL     1      20.041  -3.463 -30.098  1.00  0.00     0.293 HD
ENDBRANCH   6  18
BRANCH  17  20
ATOM     20  O   UNL     1      22.849  -3.094 -34.850  1.00  0.00    -0.507 OA
ATOM     21  H   UNL     1      22.311  -2.242 -34.766  1.00  0.00     0.293 HD
ENDBRANCH  17  20
BRANCH  15  22
ATOM     22  O   UNL     1      23.198  -6.698 -37.995  1.00  0.00    -0.508 OA
ATOM     23  H   UNL     1      24.205  -6.805 -38.012  1.00  0.00     0.293 HD
ENDBRANCH  15  22
TORSDOF 3
ENDMDL
MODEL 5
REMARK VINA RESULT:    -5.350      3.482      6.618
REMARK INTER + INTRA:          -5.819
REMARK INTER:                  -5.819
REMARK INTRA:                   0.000
REMARK UNBOUND:                 0.000
REMARK SMILES Cc1cc(O)c2c(c1)C(=O)c1cc(O)cc(O)c1C2=O
REMARK SMILES IDX 1 1 2 2 8 3 7 4 6 5 4 6 3 7 19 8 20 9 18 10 11 11 9 12 10 13
REMARK SMILES IDX 12 14 13 15 15 16 16 17 5 18 17 20 14 22
REMARK H PARENT 5 19 17 21 14 23
REMARK Flexibility Score: inf
ROOT
ATOM      1  C   UNL     1      11.484  -9.996 -32.375  1.00  0.00     0.044 C 
ATOM      2  C   UNL     1      12.822  -9.367 -32.112  1.00  0.00    -0.047 A 
ATOM      3  C   UNL     1      13.510  -8.719 -33.143  1.00  0.00     0.016 A 
ATOM      4  C   UNL     1      14.775  -8.153 -32.915  1.00  0.00     0.038 A 
ATOM      5  C   UNL     1      15.362  -8.236 -31.633  1.00  0.00     0.076 A 
ATOM      6  C   UNL     1      14.697  -8.968 -30.614  1.00  0.00     0.127 A 
ATOM      7  C   UNL     1      13.430  -9.505 -30.860  1.00  0.00     0.050 A 
ATOM      8  C   UNL     1      16.629  -7.500 -31.390  1.00  0.00     0.201 C 
ATOM      9  O   UNL     1      16.887  -7.060 -30.238  1.00  0.00    -0.288 OA
ATOM     10  C   UNL     1      17.494  -7.121 -32.538  1.00  0.00     0.076 A 
ATOM     11  C   UNL     1      16.904  -7.042 -33.819  1.00  0.00     0.041 A 
ATOM     12  C   UNL     1      15.500  -7.474 -34.015  1.00  0.00     0.194 C 
ATOM     13  O   UNL     1      14.931  -7.287 -35.126  1.00  0.00    -0.289 OA
ATOM     14  C   UNL     1      17.653  -6.555 -34.904  1.00  0.00     0.059 A 
ATOM     15  C   UNL     1      18.984  -6.165 -34.728  1.00  0.00     0.120 A 
ATOM     16  C   UNL     1      19.581  -6.281 -33.474  1.00  0.00     0.093 A 
ATOM     17  C   UNL     1      18.863  -6.780 -32.383  1.00  0.00     0.131 A 
ENDROOT
BRANCH   6  18
ATOM     18  O   UNL     1      15.271  -9.214 -29.364  1.00  0.00    -0.507 OA
ATOM     19  H   UNL     1      16.203  -8.920 -29.110  1.00  0.00     0.293 HD
ENDBRANCH   6  18
BRANCH  17  20
ATOM     20  O   UNL     1      19.554  -6.952 -31.181  1.00  0.00    -0.507 OA
ATOM     21  H   UNL     1      19.101  -7.009 -30.279  1.00  0.00     0.293 HD
ENDBRANCH  17  20
BRANCH  15  22
ATOM     22  O   UNL     1      19.727  -5.670 -35.799  1.00  0.00    -0.508 OA
ATOM     23  H   UNL     1      19.316  -5.544 -36.717  1.00  0.00     0.293 HD
ENDBRANCH  15  22
TORSDOF 3
ENDMDL
MODEL 6
REMARK VINA RESULT:    -5.298      3.062      6.874
REMARK INTER + INTRA:          -5.763
REMARK INTER:                  -5.763
REMARK INTRA:                   0.000
REMARK UNBOUND:                 0.000
REMARK SMILES Cc1cc(O)c2c(c1)C(=O)c1cc(O)cc(O)c1C2=O
REMARK SMILES IDX 1 1 2 2 8 3 7 4 6 5 4 6 3 7 19 8 20 9 18 10 11 11 9 12 10 13
REMARK SMILES IDX 12 14 13 15 15 16 16 17 5 18 17 20 14 22
REMARK H PARENT 5 19 17 21 14 23
REMARK Flexibility Score: inf
ROOT
ATOM      1  C   UNL     1      12.852  -6.369 -28.804  1.00  0.00     0.044 C 
ATOM      2  C   UNL     1      13.562  -6.586 -30.108  1.00  0.00    -0.047 A 
ATOM      3  C   UNL     1      14.947  -6.788 -30.131  1.00  0.00     0.016 A 
ATOM      4  C   UNL     1      15.625  -6.964 -31.349  1.00  0.00     0.038 A 
ATOM      5  C   UNL     1      14.906  -6.937 -32.565  1.00  0.00     0.076 A 
ATOM      6  C   UNL     1      13.517  -6.647 -32.540  1.00  0.00     0.127 A 
ATOM      7  C   UNL     1      12.861  -6.496 -31.315  1.00  0.00     0.050 A 
ATOM      8  C   UNL     1      15.630  -7.273 -33.817  1.00  0.00     0.201 C 
ATOM      9  O   UNL     1      15.011  -7.813 -34.773  1.00  0.00    -0.288 OA
ATOM     10  C   UNL     1      17.110  -7.148 -33.871  1.00  0.00     0.076 A 
ATOM     11  C   UNL     1      17.825  -7.173 -32.653  1.00  0.00     0.041 A 
ATOM     12  C   UNL     1      17.092  -7.171 -31.364  1.00  0.00     0.194 C 
ATOM     13  O   UNL     1      17.721  -7.320 -30.280  1.00  0.00    -0.289 OA
ATOM     14  C   UNL     1      19.230  -7.196 -32.668  1.00  0.00     0.059 A 
ATOM     15  C   UNL     1      19.927  -7.177 -33.880  1.00  0.00     0.120 A 
ATOM     16  C   UNL     1      19.224  -7.112 -35.082  1.00  0.00     0.093 A 
ATOM     17  C   UNL     1      17.826  -7.068 -35.093  1.00  0.00     0.131 A 
ENDROOT
BRANCH   6  18
ATOM     18  O   UNL     1      12.763  -6.466 -33.702  1.00  0.00    -0.507 OA
ATOM     19  H   UNL     1      11.797  -6.168 -33.701  1.00  0.00     0.293 HD
ENDBRANCH   6  18
BRANCH  17  20
ATOM     20  O   UNL     1      17.196  -6.911 -36.330  1.00  0.00    -0.507 OA
ATOM     21  H   UNL     1      17.624  -6.446 -37.120  1.00  0.00     0.293 HD
ENDBRANCH  17  20
BRANCH  15  22
ATOM     22  O   UNL     1      21.320  -7.212 -33.900  1.00  0.00    -0.508 OA
ATOM     23  H   UNL     1      21.828  -8.088 -33.926  1.00  0.00     0.293 HD
ENDBRANCH  15  22
TORSDOF 3
ENDMDL
MODEL 7
REMARK VINA RESULT:    -5.298      3.325      4.733
REMARK INTER + INTRA:          -5.762
REMARK INTER:                  -5.762
REMARK INTRA:                   0.000
REMARK UNBOUND:                 0.000
REMARK SMILES Cc1cc(O)c2c(c1)C(=O)c1cc(O)cc(O)c1C2=O
REMARK SMILES IDX 1 1 2 2 8 3 7 4 6 5 4 6 3 7 19 8 20 9 18 10 11 11 9 12 10 13
REMARK SMILES IDX 12 14 13 15 15 16 16 17 5 18 17 20 14 22
REMARK H PARENT 5 19 17 21 14 23
REMARK Flexibility Score: inf
ROOT
ATOM      1  C   UNL     1      21.118  -6.279 -34.625  1.00  0.00     0.044 C 
ATOM      2  C   UNL     1      19.664  -6.595 -34.430  1.00  0.00    -0.047 A 
ATOM      3  C   UNL     1      19.154  -6.801 -33.143  1.00  0.00     0.016 A 
ATOM      4  C   UNL     1      17.801  -7.125 -32.952  1.00  0.00     0.038 A 
ATOM      5  C   UNL     1      16.942  -7.246 -34.067  1.00  0.00     0.076 A 
ATOM      6  C   UNL     1      17.484  -7.119 -35.373  1.00  0.00     0.127 A 
ATOM      7  C   UNL     1      18.829  -6.776 -35.537  1.00  0.00     0.050 A 
ATOM      8  C   UNL     1      15.491  -7.443 -33.819  1.00  0.00     0.201 C 
ATOM      9  O   UNL     1      14.649  -7.002 -34.646  1.00  0.00    -0.288 OA
ATOM     10  C   UNL     1      15.032  -7.987 -32.515  1.00  0.00     0.076 A 
ATOM     11  C   UNL     1      15.895  -7.867 -31.402  1.00  0.00     0.041 A 
ATOM     12  C   UNL     1      17.271  -7.349 -31.586  1.00  0.00     0.194 C 
ATOM     13  O   UNL     1      18.000  -7.122 -30.581  1.00  0.00    -0.289 OA
ATOM     14  C   UNL     1      15.445  -8.244 -30.125  1.00  0.00     0.059 A 
ATOM     15  C   UNL     1      14.155  -8.752 -29.950  1.00  0.00     0.120 A 
ATOM     16  C   UNL     1      13.316  -8.909 -31.052  1.00  0.00     0.093 A 
ATOM     17  C   UNL     1      13.746  -8.560 -32.336  1.00  0.00     0.131 A 
ENDROOT
BRANCH   6  18
ATOM     18  O   UNL     1      16.734  -7.359 -36.527  1.00  0.00    -0.507 OA
ATOM     19  H   UNL     1      16.914  -6.909 -37.414  1.00  0.00     0.293 HD
ENDBRANCH   6  18
BRANCH  17  20
ATOM     20  O   UNL     1      12.884  -8.832 -33.401  1.00  0.00    -0.507 OA
ATOM     21  H   UNL     1      12.756  -8.210 -34.187  1.00  0.00     0.293 HD
ENDBRANCH  17  20
BRANCH  15  22
ATOM     22  O   UNL     1      13.700  -9.115 -28.683  1.00  0.00    -0.508 OA
ATOM     23  H   UNL     1      13.198  -9.981 -28.528  1.00  0.00     0.293 HD
ENDBRANCH  15  22
TORSDOF 3
ENDMDL
MODEL 8
REMARK VINA RESULT:    -5.250      5.680      8.884
REMARK INTER + INTRA:          -5.710
REMARK INTER:                  -5.710
REMARK INTRA:                   0.000
REMARK UNBOUND:                 0.000
REMARK SMILES Cc1cc(O)c2c(c1)C(=O)c1cc(O)cc(O)c1C2=O
REMARK SMILES IDX 1 1 2 2 8 3 7 4 6 5 4 6 3 7 19 8 20 9 18 10 11 11 9 12 10 13
REMARK SMILES IDX 12 14 13 15 15 16 16 17 5 18 17 20 14 22
REMARK H PARENT 5 19 17 21 14 23
REMARK Flexibility Score: inf
ROOT
ATOM      1  C   UNL     1      26.032  -3.267 -38.002  1.00  0.00     0.044 C 
ATOM      2  C   UNL     1      24.876  -4.032 -37.427  1.00  0.00    -0.047 A 
ATOM      3  C   UNL     1      23.999  -3.411 -36.530  1.00  0.00     0.016 A 
ATOM      4  C   UNL     1      22.930  -4.125 -35.964  1.00  0.00     0.038 A 
ATOM      5  C   UNL     1      22.735  -5.483 -36.299  1.00  0.00     0.076 A 
ATOM      6  C   UNL     1      23.677  -6.129 -37.143  1.00  0.00     0.127 A 
ATOM      7  C   UNL     1      24.720  -5.392 -37.710  1.00  0.00     0.050 A 
ATOM      8  C   UNL     1      21.512  -6.163 -35.799  1.00  0.00     0.201 C 
ATOM      9  O   UNL     1      20.994  -7.095 -36.470  1.00  0.00    -0.288 OA
ATOM     10  C   UNL     1      20.800  -5.621 -34.613  1.00  0.00     0.076 A 
ATOM     11  C   UNL     1      21.000  -4.263 -34.278  1.00  0.00     0.041 A 
ATOM     12  C   UNL     1      22.010  -3.462 -35.009  1.00  0.00     0.194 C 
ATOM     13  O   UNL     1      22.103  -2.220 -34.801  1.00  0.00    -0.289 OA
ATOM     14  C   UNL     1      20.242  -3.678 -33.249  1.00  0.00     0.059 A 
ATOM     15  C   UNL     1      19.302  -4.435 -32.543  1.00  0.00     0.120 A 
ATOM     16  C   UNL     1      19.132  -5.785 -32.844  1.00  0.00     0.093 A 
ATOM     17  C   UNL     1      19.888  -6.396 -33.850  1.00  0.00     0.131 A 
ENDROOT
BRANCH   6  18
ATOM     18  O   UNL     1      23.634  -7.499 -37.412  1.00  0.00    -0.507 OA
ATOM     19  H   UNL     1      24.195  -8.182 -36.922  1.00  0.00     0.293 HD
ENDBRANCH   6  18
BRANCH  17  20
ATOM     20  O   UNL     1      19.727  -7.771 -34.031  1.00  0.00    -0.507 OA
ATOM     21  H   UNL     1      20.464  -8.445 -33.874  1.00  0.00     0.293 HD
ENDBRANCH  17  20
BRANCH  15  22
ATOM     22  O   UNL     1      18.539  -3.855 -31.530  1.00  0.00    -0.508 OA
ATOM     23  H   UNL     1      18.949  -3.223 -30.854  1.00  0.00     0.293 HD
ENDBRANCH  15  22
TORSDOF 3
ENDMDL
MODEL 9
REMARK VINA RESULT:    -5.194      4.192      6.850
REMARK INTER + INTRA:          -5.650
REMARK INTER:                  -5.650
REMARK INTRA:                   0.000
REMARK UNBOUND:                 0.000
REMARK SMILES Cc1cc(O)c2c(c1)C(=O)c1cc(O)cc(O)c1C2=O
REMARK SMILES IDX 1 1 2 2 8 3 7 4 6 5 4 6 3 7 19 8 20 9 18 10 11 11 9 12 10 13
REMARK SMILES IDX 12 14 13 15 15 16 16 17 5 18 17 20 14 22
REMARK H PARENT 5 19 17 21 14 23
REMARK Flexibility Score: inf
ROOT
ATOM      1  C   UNL     1      10.898  -9.594 -36.548  1.00  0.00     0.044 C 
ATOM      2  C   UNL     1      11.643  -9.380 -35.262  1.00  0.00    -0.047 A 
ATOM      3  C   UNL     1      12.816  -8.616 -35.247  1.00  0.00     0.016 A 
ATOM      4  C   UNL     1      13.536  -8.434 -34.055  1.00  0.00     0.038 A 
ATOM      5  C   UNL     1      13.076  -9.025 -32.858  1.00  0.00     0.076 A 
ATOM      6  C   UNL     1      11.934  -9.867 -32.897  1.00  0.00     0.127 A 
ATOM      7  C   UNL     1      11.222 -10.017 -34.091  1.00  0.00     0.050 A 
ATOM      8  C   UNL     1      13.778  -8.689 -31.592  1.00  0.00     0.201 C 
ATOM      9  O   UNL     1      13.142  -8.684 -30.505  1.00  0.00    -0.288 OA
ATOM     10  C   UNL     1      15.174  -8.179 -31.636  1.00  0.00     0.076 A 
ATOM     11  C   UNL     1      15.632  -7.591 -32.837  1.00  0.00     0.041 A 
ATOM     12  C   UNL     1      14.781  -7.629 -34.050  1.00  0.00     0.194 C 
ATOM     13  O   UNL     1      15.130  -6.998 -35.086  1.00  0.00    -0.289 OA
ATOM     14  C   UNL     1      16.894  -6.975 -32.876  1.00  0.00     0.059 A 
ATOM     15  C   UNL     1      17.708  -6.954 -31.740  1.00  0.00     0.120 A 
ATOM     16  C   UNL     1      17.276  -7.569 -30.566  1.00  0.00     0.093 A 
ATOM     17  C   UNL     1      16.032  -8.205 -30.507  1.00  0.00     0.131 A 
ENDROOT
BRANCH   6  18
ATOM     18  O   UNL     1      11.496 -10.596 -31.789  1.00  0.00    -0.507 OA
ATOM     19  H   UNL     1      10.658 -11.161 -31.787  1.00  0.00     0.293 HD
ENDBRANCH   6  18
BRANCH  17  20
ATOM     20  O   UNL     1      15.708  -8.878 -29.326  1.00  0.00    -0.507 OA
ATOM     21  H   UNL     1      14.991  -9.587 -29.266  1.00  0.00     0.293 HD
ENDBRANCH  17  20
BRANCH  15  22
ATOM     22  O   UNL     1      18.956  -6.333 -31.771  1.00  0.00    -0.508 OA
ATOM     23  H   UNL     1      19.243  -5.759 -32.555  1.00  0.00     0.293 HD
ENDBRANCH  15  22
TORSDOF 3
ENDMDL
