MODEL 1
REMARK VINA RESULT:    -4.851      0.000      0.000
REMARK INTER + INTRA:          -5.610
REMARK INTER:                  -5.418
REMARK INTRA:                  -0.191
REMARK UNBOUND:                -0.191
REMARK SMILES CC(C)c1ccc(C=O)cc1
REMARK SMILES IDX 4 1 5 2 6 3 7 4 10 5 11 6 2 7 1 8 3 9 8 10 9 11
REMARK H PARENT
REMARK Flexibility Score: inf
ROOT
ATOM      1  C   UNL     1      45.816   8.003  19.586  1.00  0.00    -0.045 A 
ATOM      2  C   UNL     1      44.672   8.470  18.913  1.00  0.00     0.005 A 
ATOM      3  C   UNL     1      44.405   8.066  17.602  1.00  0.00     0.012 A 
ATOM      4  C   UNL     1      45.277   7.188  16.939  1.00  0.00     0.014 A 
ATOM      5  C   UNL     1      46.418   6.721  17.606  1.00  0.00     0.012 A 
ATOM      6  C   UNL     1      46.686   7.124  18.918  1.00  0.00     0.005 A 
ENDROOT
BRANCH   1   7
ATOM      7  C   UNL     1      46.118   8.432  21.009  1.00  0.00     0.013 C 
ATOM      8  C   UNL     1      47.168   7.518  21.653  1.00  0.00     0.012 C 
ATOM      9  C   UNL     1      44.839   8.484  21.854  1.00  0.00     0.012 C 
ENDBRANCH   1   7
BRANCH   4  10
ATOM     10  C   UNL     1      45.013   6.750  15.555  1.00  0.00     0.260 C 
ATOM     11  O   UNL     1      43.956   6.133  15.258  1.00  0.00    -0.298 OA
ENDBRANCH   4  10
TORSDOF 2
ENDMDL
MODEL 2
REMARK VINA RESULT:    -4.830      0.127      1.464
REMARK INTER + INTRA:          -5.587
REMARK INTER:                  -5.396
REMARK INTRA:                  -0.191
REMARK UNBOUND:                -0.191
REMARK SMILES CC(C)c1ccc(C=O)cc1
REMARK SMILES IDX 4 1 5 2 6 3 7 4 10 5 11 6 2 7 1 8 3 9 8 10 9 11
REMARK H PARENT
REMARK Flexibility Score: inf
ROOT
ATOM      1  C   UNL     1      45.926   7.953  19.590  1.00  0.00    -0.045 A 
ATOM      2  C   UNL     1      46.726   7.032  18.887  1.00  0.00     0.005 A 
ATOM      3  C   UNL     1      46.400   6.661  17.580  1.00  0.00     0.012 A 
ATOM      4  C   UNL     1      45.267   7.201  16.950  1.00  0.00     0.014 A 
ATOM      5  C   UNL     1      44.468   8.119  17.647  1.00  0.00     0.012 A 
ATOM      6  C   UNL     1      44.793   8.491  18.955  1.00  0.00     0.005 A 
ENDROOT
BRANCH   1   7
ATOM      7  C   UNL     1      46.269   8.367  21.008  1.00  0.00     0.013 C 
ATOM      8  C   UNL     1      47.277   7.399  21.638  1.00  0.00     0.012 C 
ATOM      9  C   UNL     1      45.005   8.485  21.870  1.00  0.00     0.012 C 
ENDBRANCH   1   7
BRANCH   4  10
ATOM     10  C   UNL     1      44.906   6.821  15.572  1.00  0.00     0.260 C 
ATOM     11  O   UNL     1      43.836   6.204  15.326  1.00  0.00    -0.298 OA
ENDBRANCH   4  10
TORSDOF 2
ENDMDL
MODEL 3
REMARK VINA RESULT:    -4.821      1.183      2.014
REMARK INTER + INTRA:          -5.576
REMARK INTER:                  -5.385
REMARK INTRA:                  -0.190
REMARK UNBOUND:                -0.191
REMARK SMILES CC(C)c1ccc(C=O)cc1
REMARK SMILES IDX 4 1 5 2 6 3 7 4 10 5 11 6 2 7 1 8 3 9 8 10 9 11
REMARK H PARENT
REMARK Flexibility Score: inf
ROOT
ATOM      1  C   UNL     1      46.220   7.961  21.039  1.00  0.00    -0.045 A 
ATOM      2  C   UNL     1      45.081   8.757  20.816  1.00  0.00     0.005 A 
ATOM      3  C   UNL     1      44.509   8.838  19.544  1.00  0.00     0.012 A 
ATOM      4  C   UNL     1      45.066   8.127  18.469  1.00  0.00     0.014 A 
ATOM      5  C   UNL     1      46.200   7.333  18.687  1.00  0.00     0.012 A 
ATOM      6  C   UNL     1      46.773   7.250  19.960  1.00  0.00     0.005 A 
ENDROOT
BRANCH   1   7
ATOM      7  C   UNL     1      46.851   7.862  22.415  1.00  0.00     0.013 C 
ATOM      8  C   UNL     1      47.194   9.250  22.967  1.00  0.00     0.012 C 
ATOM      9  C   UNL     1      48.088   6.955  22.392  1.00  0.00     0.012 C 
ENDBRANCH   1   7
BRANCH   4  10
ATOM     10  C   UNL     1      44.477   8.201  17.118  1.00  0.00     0.260 C 
ATOM     11  O   UNL     1      44.362   7.172  16.401  1.00  0.00    -0.298 OA
ENDBRANCH   4  10
TORSDOF 2
ENDMDL
MODEL 4
REMARK VINA RESULT:    -4.772      2.272      5.085
REMARK INTER + INTRA:          -5.521
REMARK INTER:                  -5.331
REMARK INTRA:                  -0.190
REMARK UNBOUND:                -0.191
REMARK SMILES CC(C)c1ccc(C=O)cc1
REMARK SMILES IDX 4 1 5 2 6 3 7 4 10 5 11 6 2 7 1 8 3 9 8 10 9 11
REMARK H PARENT
REMARK Flexibility Score: inf
ROOT
ATOM      1  C   UNL     1      45.352   6.840  16.302  1.00  0.00    -0.045 A 
ATOM      2  C   UNL     1      46.523   6.479  16.996  1.00  0.00     0.005 A 
ATOM      3  C   UNL     1      46.765   6.969  18.282  1.00  0.00     0.012 A 
ATOM      4  C   UNL     1      45.843   7.829  18.900  1.00  0.00     0.014 A 
ATOM      5  C   UNL     1      44.677   8.191  18.212  1.00  0.00     0.012 A 
ATOM      6  C   UNL     1      44.433   7.702  16.925  1.00  0.00     0.005 A 
ENDROOT
BRANCH   1   7
ATOM      7  C   UNL     1      45.075   6.316  14.906  1.00  0.00     0.013 C 
ATOM      8  C   UNL     1      46.201   6.700  13.938  1.00  0.00     0.012 C 
ATOM      9  C   UNL     1      43.715   6.804  14.392  1.00  0.00     0.012 C 
ENDBRANCH   1   7
BRANCH   4  10
ATOM     10  C   UNL     1      46.083   8.356  20.256  1.00  0.00     0.260 C 
ATOM     11  O   UNL     1      46.860   7.770  21.055  1.00  0.00    -0.298 OA
ENDBRANCH   4  10
TORSDOF 2
ENDMDL
MODEL 5
REMARK VINA RESULT:    -4.729      2.225      5.046
REMARK INTER + INTRA:          -5.473
REMARK INTER:                  -5.278
REMARK INTRA:                  -0.195
REMARK UNBOUND:                -0.191
REMARK SMILES CC(C)c1ccc(C=O)cc1
REMARK SMILES IDX 4 1 5 2 6 3 7 4 10 5 11 6 2 7 1 8 3 9 8 10 9 11
REMARK H PARENT
REMARK Flexibility Score: inf
ROOT
ATOM      1  C   UNL     1      45.278   7.050  15.920  1.00  0.00    -0.045 A 
ATOM      2  C   UNL     1      44.464   7.869  16.725  1.00  0.00     0.005 A 
ATOM      3  C   UNL     1      44.810   8.126  18.054  1.00  0.00     0.012 A 
ATOM      4  C   UNL     1      45.975   7.569  18.605  1.00  0.00     0.014 A 
ATOM      5  C   UNL     1      46.788   6.753  17.807  1.00  0.00     0.012 A 
ATOM      6  C   UNL     1      46.444   6.494  16.476  1.00  0.00     0.005 A 
ENDROOT
BRANCH   1   7
ATOM      7  C   UNL     1      44.916   6.763  14.475  1.00  0.00     0.013 C 
ATOM      8  C   UNL     1      43.397   6.662  14.295  1.00  0.00     0.012 C 
ATOM      9  C   UNL     1      45.617   5.494  13.972  1.00  0.00     0.012 C 
ENDBRANCH   1   7
BRANCH   4  10
ATOM     10  C   UNL     1      46.355   7.828  20.006  1.00  0.00     0.260 C 
ATOM     11  O   UNL     1      47.017   6.985  20.668  1.00  0.00    -0.298 OA
ENDBRANCH   4  10
TORSDOF 2
ENDMDL
MODEL 6
REMARK VINA RESULT:    -4.685      2.939      4.843
REMARK INTER + INTRA:          -5.424
REMARK INTER:                  -5.231
REMARK INTRA:                  -0.193
REMARK UNBOUND:                -0.191
REMARK SMILES CC(C)c1ccc(C=O)cc1
REMARK SMILES IDX 4 1 5 2 6 3 7 4 10 5 11 6 2 7 1 8 3 9 8 10 9 11
REMARK H PARENT
REMARK Flexibility Score: inf
ROOT
ATOM      1  C   UNL     1      44.829   9.090  23.758  1.00  0.00    -0.045 A 
ATOM      2  C   UNL     1      46.192   8.738  23.784  1.00  0.00     0.005 A 
ATOM      3  C   UNL     1      46.809   8.207  22.648  1.00  0.00     0.012 A 
ATOM      4  C   UNL     1      46.076   8.015  21.466  1.00  0.00     0.014 A 
ATOM      5  C   UNL     1      44.719   8.363  21.437  1.00  0.00     0.012 A 
ATOM      6  C   UNL     1      44.100   8.895  22.572  1.00  0.00     0.005 A 
ENDROOT
BRANCH   1   7
ATOM      7  C   UNL     1      44.145   9.669  24.982  1.00  0.00     0.013 C 
ATOM      8  C   UNL     1      44.620   8.972  26.262  1.00  0.00     0.012 C 
ATOM      9  C   UNL     1      42.619   9.598  24.848  1.00  0.00     0.012 C 
ENDBRANCH   1   7
BRANCH   4  10
ATOM     10  C   UNL     1      46.710   7.454  20.258  1.00  0.00     0.260 C 
ATOM     11  O   UNL     1      46.432   7.896  19.112  1.00  0.00    -0.298 OA
ENDBRANCH   4  10
TORSDOF 2
ENDMDL
MODEL 7
REMARK VINA RESULT:    -4.681      3.595      6.017
REMARK INTER + INTRA:          -5.419
REMARK INTER:                  -5.228
REMARK INTRA:                  -0.192
REMARK UNBOUND:                -0.191
REMARK SMILES CC(C)c1ccc(C=O)cc1
REMARK SMILES IDX 4 1 5 2 6 3 7 4 10 5 11 6 2 7 1 8 3 9 8 10 9 11
REMARK H PARENT
REMARK Flexibility Score: inf
ROOT
ATOM      1  C   UNL     1      45.697   8.410  20.968  1.00  0.00    -0.045 A 
ATOM      2  C   UNL     1      46.768   8.305  21.877  1.00  0.00     0.005 A 
ATOM      3  C   UNL     1      46.546   8.426  23.251  1.00  0.00     0.012 A 
ATOM      4  C   UNL     1      45.251   8.655  23.744  1.00  0.00     0.014 A 
ATOM      5  C   UNL     1      44.183   8.760  22.842  1.00  0.00     0.012 A 
ATOM      6  C   UNL     1      44.403   8.639  21.467  1.00  0.00     0.005 A 
ENDROOT
BRANCH   1   7
ATOM      7  C   UNL     1      45.923   8.279  19.474  1.00  0.00     0.013 C 
ATOM      8  C   UNL     1      44.603   8.402  18.703  1.00  0.00     0.012 C 
ATOM      9  C   UNL     1      46.640   6.966  19.136  1.00  0.00     0.012 C 
ENDBRANCH   1   7
BRANCH   4  10
ATOM     10  C   UNL     1      44.998   8.787  25.192  1.00  0.00     0.260 C 
ATOM     11  O   UNL     1      44.059   9.505  25.626  1.00  0.00    -0.298 OA
ENDBRANCH   4  10
TORSDOF 2
ENDMDL
MODEL 8
REMARK VINA RESULT:    -4.662      2.699      4.793
REMARK INTER + INTRA:          -5.398
REMARK INTER:                  -5.209
REMARK INTRA:                  -0.189
REMARK UNBOUND:                -0.191
REMARK SMILES CC(C)c1ccc(C=O)cc1
REMARK SMILES IDX 4 1 5 2 6 3 7 4 10 5 11 6 2 7 1 8 3 9 8 10 9 11
REMARK H PARENT
REMARK Flexibility Score: inf
ROOT
ATOM      1  C   UNL     1      45.889   7.692  18.375  1.00  0.00    -0.045 A 
ATOM      2  C   UNL     1      45.008   8.653  18.905  1.00  0.00     0.005 A 
ATOM      3  C   UNL     1      44.995   8.924  20.276  1.00  0.00     0.012 A 
ATOM      4  C   UNL     1      45.860   8.238  21.144  1.00  0.00     0.014 A 
ATOM      5  C   UNL     1      46.738   7.280  20.619  1.00  0.00     0.012 A 
ATOM      6  C   UNL     1      46.754   7.008  19.248  1.00  0.00     0.005 A 
ENDROOT
BRANCH   1   7
ATOM      7  C   UNL     1      45.916   7.388  16.889  1.00  0.00     0.013 C 
ATOM      8  C   UNL     1      44.514   7.052  16.368  1.00  0.00     0.012 C 
ATOM      9  C   UNL     1      46.907   6.261  16.573  1.00  0.00     0.012 C 
ENDBRANCH   1   7
BRANCH   4  10
ATOM     10  C   UNL     1      45.859   8.510  22.593  1.00  0.00     0.260 C 
ATOM     11  O   UNL     1      44.791   8.484  23.260  1.00  0.00    -0.298 OA
ENDBRANCH   4  10
TORSDOF 2
ENDMDL
MODEL 9
REMARK VINA RESULT:    -4.545      2.677      4.847
REMARK INTER + INTRA:          -5.268
REMARK INTER:                  -5.080
REMARK INTRA:                  -0.188
REMARK UNBOUND:                -0.191
REMARK SMILES CC(C)c1ccc(C=O)cc1
REMARK SMILES IDX 4 1 5 2 6 3 7 4 10 5 11 6 2 7 1 8 3 9 8 10 9 11
REMARK H PARENT
REMARK Flexibility Score: inf
ROOT
ATOM      1  C   UNL     1      44.930   8.257  18.749  1.00  0.00    -0.045 A 
ATOM      2  C   UNL     1      46.074   7.437  18.698  1.00  0.00     0.005 A 
ATOM      3  C   UNL     1      46.843   7.221  19.844  1.00  0.00     0.012 A 
ATOM      4  C   UNL     1      46.486   7.820  21.063  1.00  0.00     0.014 A 
ATOM      5  C   UNL     1      45.348   8.637  21.117  1.00  0.00     0.012 A 
ATOM      6  C   UNL     1      44.577   8.855  19.972  1.00  0.00     0.005 A 
ENDROOT
BRANCH   1   7
ATOM      7  C   UNL     1      44.085   8.501  17.514  1.00  0.00     0.013 C 
ATOM      8  C   UNL     1      44.434   7.507  16.400  1.00  0.00     0.012 C 
ATOM      9  C   UNL     1      44.223   9.948  17.026  1.00  0.00     0.012 C 
ENDBRANCH   1   7
BRANCH   4  10
ATOM     10  C   UNL     1      47.286   7.603  22.283  1.00  0.00     0.260 C 
ATOM     11  O   UNL     1      48.387   6.993  22.239  1.00  0.00    -0.298 OA
ENDBRANCH   4  10
TORSDOF 2
ENDMDL
