MODEL 1
REMARK VINA RESULT:    -4.360      0.000      0.000
REMARK INTER + INTRA:         -16.906
REMARK INTER:                 -10.986
REMARK INTRA:                  -5.920
REMARK UNBOUND:                -5.920
REMARK SMILES CCCCCCCCCCCCCCCCCCCCCCCCCCCC(=O)[O-]
REMARK SMILES IDX 15 1 16 2 17 3 18 4 19 5 20 6 21 7 22 8 23 9 24 10 25 11
REMARK SMILES IDX 26 12 27 13 28 14 29 15 30 16 14 17 13 18 12 19 11 20 10 21
REMARK SMILES IDX 9 22 8 23 7 24 6 25 5 26 4 27 3 28 2 29 1 30
REMARK H PARENT
REMARK Flexibility Score: inf
ROOT
ATOM      1  C   UNL     1      39.525  62.205   7.924  1.00  0.00     0.000 C 
ENDROOT
BRANCH   1   2
ATOM      2  C   UNL     1      40.186  60.890   8.361  1.00  0.00     0.000 C 
BRANCH   2   3
ATOM      3  C   UNL     1      41.672  60.809   7.970  1.00  0.00     0.000 C 
BRANCH   3   4
ATOM      4  C   UNL     1      42.240  59.380   7.871  1.00  0.00     0.000 C 
BRANCH   4   5
ATOM      5  C   UNL     1      41.332  58.301   8.496  1.00  0.00     0.000 C 
BRANCH   5   6
ATOM      6  C   UNL     1      41.618  56.897   7.932  1.00  0.00     0.000 C 
BRANCH   6   7
ATOM      7  C   UNL     1      42.644  56.929   6.780  1.00  0.00     0.000 C 
BRANCH   7   8
ATOM      8  C   UNL     1      42.681  55.636   5.948  1.00  0.00     0.000 C 
BRANCH   8   9
ATOM      9  C   UNL     1      43.094  55.883   4.488  1.00  0.00     0.000 C 
BRANCH   9  10
ATOM     10  C   UNL     1      41.930  55.721   3.493  1.00  0.00     0.000 C 
BRANCH  10  11
ATOM     11  C   UNL     1      40.593  55.271   4.111  1.00  0.00     0.000 C 
BRANCH  11  12
ATOM     12  C   UNL     1      39.383  55.561   3.207  1.00  0.00     0.006 C 
BRANCH  12  13
ATOM     13  C   UNL     1      39.703  56.604   2.127  1.00  0.00     0.053 C 
BRANCH  13  14
ATOM     14  C   UNL     1      38.658  57.675   2.051  1.00  0.00     0.041 C 
ATOM     15  O   UNL     1      38.844  58.694   1.332  1.00  0.00    -0.550 OA
ATOM     16  O   UNL     1      37.475  57.546   2.770  1.00  0.00    -0.550 OA
ENDBRANCH  13  14
ENDBRANCH  12  13
ENDBRANCH  11  12
ENDBRANCH  10  11
ENDBRANCH   9  10
ENDBRANCH   8   9
ENDBRANCH   7   8
ENDBRANCH   6   7
ENDBRANCH   5   6
ENDBRANCH   4   5
ENDBRANCH   3   4
ENDBRANCH   2   3
ENDBRANCH   1   2
BRANCH   1  17
ATOM     17  C   UNL     1      39.813  63.323   8.931  1.00  0.00     0.000 C 
BRANCH  17  18
ATOM     18  C   UNL     1      39.907  64.685   8.231  1.00  0.00     0.000 C 
BRANCH  18  19
ATOM     19  C   UNL     1      39.211  64.650   6.862  1.00  0.00     0.000 C 
BRANCH  19  20
ATOM     20  C   UNL     1      40.119  65.162   5.732  1.00  0.00     0.000 C 
BRANCH  20  21
ATOM     21  C   UNL     1      41.537  64.569   5.809  1.00  0.00     0.000 C 
BRANCH  21  22
ATOM     22  C   UNL     1      41.668  63.240   5.049  1.00  0.00    -0.000 C 
BRANCH  22  23
ATOM     23  C   UNL     1      43.088  62.657   5.110  1.00  0.00    -0.000 C 
BRANCH  23  24
ATOM     24  C   UNL     1      43.317  61.641   3.980  1.00  0.00    -0.000 C 
BRANCH  24  25
ATOM     25  C   UNL     1      43.068  60.190   4.443  1.00  0.00    -0.000 C 
BRANCH  25  26
ATOM     26  C   UNL     1      41.903  59.487   3.717  1.00  0.00    -0.000 C 
BRANCH  26  27
ATOM     27  C   UNL     1      40.742  59.038   4.625  1.00  0.00    -0.000 C 
BRANCH  27  28
ATOM     28  C   UNL     1      39.642  60.108   4.814  1.00  0.00    -0.000 C 
BRANCH  28  29
ATOM     29  C   UNL     1      38.353  59.560   5.449  1.00  0.00    -0.003 C 
ATOM     30  C   UNL     1      38.548  58.192   6.099  1.00  0.00     0.004 C 
ENDBRANCH  28  29
ENDBRANCH  27  28
ENDBRANCH  26  27
ENDBRANCH  25  26
ENDBRANCH  24  25
ENDBRANCH  23  24
ENDBRANCH  22  23
ENDBRANCH  21  22
ENDBRANCH  20  21
ENDBRANCH  19  20
ENDBRANCH  18  19
ENDBRANCH  17  18
ENDBRANCH   1  17
TORSDOF 26
ENDMDL
MODEL 2
REMARK VINA RESULT:    -4.359      1.597      3.390
REMARK INTER + INTRA:         -16.904
REMARK INTER:                 -11.673
REMARK INTRA:                  -5.231
REMARK UNBOUND:                -5.920
REMARK SMILES CCCCCCCCCCCCCCCCCCCCCCCCCCCC(=O)[O-]
REMARK SMILES IDX 15 1 16 2 17 3 18 4 19 5 20 6 21 7 22 8 23 9 24 10 25 11
REMARK SMILES IDX 26 12 27 13 28 14 29 15 30 16 14 17 13 18 12 19 11 20 10 21
REMARK SMILES IDX 9 22 8 23 7 24 6 25 5 26 4 27 3 28 2 29 1 30
REMARK H PARENT
REMARK Flexibility Score: inf
ROOT
ATOM      1  C   UNL     1      41.059  61.727   8.420  1.00  0.00     0.000 C 
ENDROOT
BRANCH   1   2
ATOM      2  C   UNL     1      39.731  61.077   8.006  1.00  0.00     0.000 C 
BRANCH   2   3
ATOM      3  C   UNL     1      39.859  59.565   7.752  1.00  0.00     0.000 C 
BRANCH   3   4
ATOM      4  C   UNL     1      41.192  58.941   8.212  1.00  0.00     0.000 C 
BRANCH   4   5
ATOM      5  C   UNL     1      41.552  57.629   7.486  1.00  0.00     0.000 C 
BRANCH   5   6
ATOM      6  C   UNL     1      43.027  57.589   7.045  1.00  0.00     0.000 C 
BRANCH   6   7
ATOM      7  C   UNL     1      43.194  57.027   5.618  1.00  0.00     0.000 C 
BRANCH   7   8
ATOM      8  C   UNL     1      42.377  55.750   5.356  1.00  0.00     0.000 C 
BRANCH   8   9
ATOM      9  C   UNL     1      41.286  55.953   4.292  1.00  0.00     0.000 C 
BRANCH   9  10
ATOM     10  C   UNL     1      39.866  55.676   4.820  1.00  0.00     0.000 C 
BRANCH  10  11
ATOM     11  C   UNL     1      38.945  56.908   4.907  1.00  0.00     0.000 C 
BRANCH  11  12
ATOM     12  C   UNL     1      39.568  58.170   4.288  1.00  0.00     0.006 C 
BRANCH  12  13
ATOM     13  C   UNL     1      38.566  59.330   4.206  1.00  0.00     0.053 C 
BRANCH  13  14
ATOM     14  C   UNL     1      38.331  59.772   2.794  1.00  0.00     0.041 C 
ATOM     15  O   UNL     1      37.352  59.320   2.142  1.00  0.00    -0.550 OA
ATOM     16  O   UNL     1      39.189  60.690   2.200  1.00  0.00    -0.550 OA
ENDBRANCH  13  14
ENDBRANCH  12  13
ENDBRANCH  11  12
ENDBRANCH  10  11
ENDBRANCH   9  10
ENDBRANCH   8   9
ENDBRANCH   7   8
ENDBRANCH   6   7
ENDBRANCH   5   6
ENDBRANCH   4   5
ENDBRANCH   3   4
ENDBRANCH   2   3
ENDBRANCH   1   2
BRANCH   1  17
ATOM     17  C   UNL     1      40.862  63.208   8.758  1.00  0.00     0.000 C 
BRANCH  17  18
ATOM     18  C   UNL     1      39.401  63.630   8.557  1.00  0.00     0.000 C 
BRANCH  18  19
ATOM     19  C   UNL     1      39.292  64.768   7.531  1.00  0.00     0.000 C 
BRANCH  19  20
ATOM     20  C   UNL     1      40.619  65.020   6.796  1.00  0.00     0.000 C 
BRANCH  20  21
ATOM     21  C   UNL     1      40.604  64.471   5.359  1.00  0.00     0.000 C 
BRANCH  21  22
ATOM     22  C   UNL     1      41.670  63.390   5.124  1.00  0.00    -0.000 C 
BRANCH  22  23
ATOM     23  C   UNL     1      41.070  62.044   4.693  1.00  0.00    -0.000 C 
BRANCH  23  24
ATOM     24  C   UNL     1      42.059  60.893   4.937  1.00  0.00    -0.000 C 
BRANCH  24  25
ATOM     25  C   UNL     1      43.350  61.375   5.632  1.00  0.00    -0.000 C 
BRANCH  25  26
ATOM     26  C   UNL     1      44.648  60.847   4.987  1.00  0.00    -0.000 C 
BRANCH  26  27
ATOM     27  C   UNL     1      45.643  61.933   4.535  1.00  0.00    -0.000 C 
BRANCH  27  28
ATOM     28  C   UNL     1      44.985  63.115   3.785  1.00  0.00    -0.000 C 
BRANCH  28  29
ATOM     29  C   UNL     1      45.585  64.483   4.146  1.00  0.00    -0.003 C 
ATOM     30  C   UNL     1      44.535  65.590   4.228  1.00  0.00     0.004 C 
ENDBRANCH  28  29
ENDBRANCH  27  28
ENDBRANCH  26  27
ENDBRANCH  25  26
ENDBRANCH  24  25
ENDBRANCH  23  24
ENDBRANCH  22  23
ENDBRANCH  21  22
ENDBRANCH  20  21
ENDBRANCH  19  20
ENDBRANCH  18  19
ENDBRANCH  17  18
ENDBRANCH   1  17
TORSDOF 26
ENDMDL
MODEL 3
REMARK VINA RESULT:    -4.355      2.055      5.092
REMARK INTER + INTRA:         -16.894
REMARK INTER:                 -11.169
REMARK INTRA:                  -5.726
REMARK UNBOUND:                -5.920
REMARK SMILES CCCCCCCCCCCCCCCCCCCCCCCCCCCC(=O)[O-]
REMARK SMILES IDX 15 1 16 2 17 3 18 4 19 5 20 6 21 7 22 8 23 9 24 10 25 11
REMARK SMILES IDX 26 12 27 13 28 14 29 15 30 16 14 17 13 18 12 19 11 20 10 21
REMARK SMILES IDX 9 22 8 23 7 24 6 25 5 26 4 27 3 28 2 29 1 30
REMARK H PARENT
REMARK Flexibility Score: inf
ROOT
ATOM      1  C   UNL     1      40.934  62.224   8.564  1.00  0.00     0.000 C 
ENDROOT
BRANCH   1   2
ATOM      2  C   UNL     1      41.175  63.736   8.436  1.00  0.00     0.000 C 
BRANCH   2   3
ATOM      3  C   UNL     1      40.213  64.411   7.443  1.00  0.00     0.000 C 
BRANCH   3   4
ATOM      4  C   UNL     1      40.890  65.038   6.208  1.00  0.00     0.000 C 
BRANCH   4   5
ATOM      5  C   UNL     1      41.882  64.096   5.494  1.00  0.00     0.000 C 
BRANCH   5   6
ATOM      6  C   UNL     1      41.169  63.083   4.578  1.00  0.00     0.000 C 
BRANCH   6   7
ATOM      7  C   UNL     1      41.529  61.624   4.932  1.00  0.00     0.000 C 
BRANCH   7   8
ATOM      8  C   UNL     1      42.890  61.476   5.634  1.00  0.00     0.000 C 
BRANCH   8   9
ATOM      9  C   UNL     1      43.863  60.578   4.854  1.00  0.00     0.000 C 
BRANCH   9  10
ATOM     10  C   UNL     1      43.461  60.383   3.380  1.00  0.00     0.000 C 
BRANCH  10  11
ATOM     11  C   UNL     1      43.372  58.920   2.910  1.00  0.00     0.000 C 
BRANCH  11  12
ATOM     12  C   UNL     1      42.286  58.694   1.845  1.00  0.00     0.006 C 
BRANCH  12  13
ATOM     13  C   UNL     1      42.168  59.880   0.877  1.00  0.00     0.053 C 
BRANCH  13  14
ATOM     14  C   UNL     1      43.101  59.751  -0.288  1.00  0.00     0.041 C 
ATOM     15  O   UNL     1      42.649  59.520  -1.442  1.00  0.00    -0.550 OA
ATOM     16  O   UNL     1      44.471  59.892  -0.102  1.00  0.00    -0.550 OA
ENDBRANCH  13  14
ENDBRANCH  12  13
ENDBRANCH  11  12
ENDBRANCH  10  11
ENDBRANCH   9  10
ENDBRANCH   8   9
ENDBRANCH   7   8
ENDBRANCH   6   7
ENDBRANCH   5   6
ENDBRANCH   4   5
ENDBRANCH   3   4
ENDBRANCH   2   3
ENDBRANCH   1   2
BRANCH   1  17
ATOM     17  C   UNL     1      39.597  61.827   7.929  1.00  0.00     0.000 C 
BRANCH  17  18
ATOM     18  C   UNL     1      39.421  60.303   7.923  1.00  0.00     0.000 C 
BRANCH  18  19
ATOM     19  C   UNL     1      40.757  59.593   8.190  1.00  0.00     0.000 C 
BRANCH  19  20
ATOM     20  C   UNL     1      40.562  58.173   8.747  1.00  0.00     0.000 C 
BRANCH  20  21
ATOM     21  C   UNL     1      41.556  57.167   8.142  1.00  0.00     0.000 C 
BRANCH  21  22
ATOM     22  C   UNL     1      42.649  57.843   7.301  1.00  0.00    -0.000 C 
BRANCH  22  23
ATOM     23  C   UNL     1      43.153  56.956   6.153  1.00  0.00    -0.000 C 
BRANCH  23  24
ATOM     24  C   UNL     1      42.132  55.859   5.813  1.00  0.00    -0.000 C 
BRANCH  24  25
ATOM     25  C   UNL     1      41.367  56.161   4.507  1.00  0.00    -0.000 C 
BRANCH  25  26
ATOM     26  C   UNL     1      40.000  56.843   4.721  1.00  0.00    -0.000 C 
BRANCH  26  27
ATOM     27  C   UNL     1      40.034  58.383   4.754  1.00  0.00    -0.000 C 
BRANCH  27  28
ATOM     28  C   UNL     1      38.724  59.051   4.273  1.00  0.00    -0.000 C 
BRANCH  28  29
ATOM     29  C   UNL     1      38.902  59.917   3.016  1.00  0.00    -0.003 C 
ATOM     30  C   UNL     1      37.918  59.559   1.903  1.00  0.00     0.004 C 
ENDBRANCH  28  29
ENDBRANCH  27  28
ENDBRANCH  26  27
ENDBRANCH  25  26
ENDBRANCH  24  25
ENDBRANCH  23  24
ENDBRANCH  22  23
ENDBRANCH  21  22
ENDBRANCH  20  21
ENDBRANCH  19  20
ENDBRANCH  18  19
ENDBRANCH  17  18
ENDBRANCH   1  17
TORSDOF 26
ENDMDL
MODEL 4
REMARK VINA RESULT:    -4.351      1.427      4.347
REMARK INTER + INTRA:         -16.883
REMARK INTER:                 -11.306
REMARK INTRA:                  -5.577
REMARK UNBOUND:                -5.920
REMARK SMILES CCCCCCCCCCCCCCCCCCCCCCCCCCCC(=O)[O-]
REMARK SMILES IDX 15 1 16 2 17 3 18 4 19 5 20 6 21 7 22 8 23 9 24 10 25 11
REMARK SMILES IDX 26 12 27 13 28 14 29 15 30 16 14 17 13 18 12 19 11 20 10 21
REMARK SMILES IDX 9 22 8 23 7 24 6 25 5 26 4 27 3 28 2 29 1 30
REMARK H PARENT
REMARK Flexibility Score: inf
ROOT
ATOM      1  C   UNL     1      40.326  64.551   6.294  1.00  0.00     0.000 C 
ENDROOT
BRANCH   1   2
ATOM      2  C   UNL     1      41.443  64.777   7.324  1.00  0.00     0.000 C 
BRANCH   2   3
ATOM      3  C   UNL     1      41.216  63.997   8.630  1.00  0.00     0.000 C 
BRANCH   3   4
ATOM      4  C   UNL     1      40.387  62.706   8.479  1.00  0.00     0.000 C 
BRANCH   4   5
ATOM      5  C   UNL     1      41.240  61.424   8.375  1.00  0.00     0.000 C 
BRANCH   5   6
ATOM      6  C   UNL     1      40.389  60.179   8.064  1.00  0.00     0.000 C 
BRANCH   6   7
ATOM      7  C   UNL     1      39.147  60.519   7.213  1.00  0.00     0.000 C 
BRANCH   7   8
ATOM      8  C   UNL     1      38.172  59.342   7.043  1.00  0.00     0.000 C 
BRANCH   8   9
ATOM      9  C   UNL     1      38.876  58.050   6.599  1.00  0.00     0.000 C 
BRANCH   9  10
ATOM     10  C   UNL     1      38.240  57.411   5.349  1.00  0.00     0.000 C 
BRANCH  10  11
ATOM     11  C   UNL     1      38.767  57.936   4.001  1.00  0.00     0.000 C 
BRANCH  11  12
ATOM     12  C   UNL     1      37.937  59.105   3.444  1.00  0.00     0.006 C 
BRANCH  12  13
ATOM     13  C   UNL     1      38.746  59.981   2.478  1.00  0.00     0.053 C 
BRANCH  13  14
ATOM     14  C   UNL     1      39.447  59.168   1.433  1.00  0.00     0.041 C 
ATOM     15  O   UNL     1      40.705  59.169   1.366  1.00  0.00    -0.550 OA
ATOM     16  O   UNL     1      38.710  58.402   0.537  1.00  0.00    -0.550 OA
ENDBRANCH  13  14
ENDBRANCH  12  13
ENDBRANCH  11  12
ENDBRANCH  10  11
ENDBRANCH   9  10
ENDBRANCH   8   9
ENDBRANCH   7   8
ENDBRANCH   6   7
ENDBRANCH   5   6
ENDBRANCH   4   5
ENDBRANCH   3   4
ENDBRANCH   2   3
ENDBRANCH   1   2
BRANCH   1  17
ATOM     17  C   UNL     1      40.886  63.940   5.005  1.00  0.00     0.000 C 
BRANCH  17  18
ATOM     18  C   UNL     1      42.402  63.725   5.111  1.00  0.00     0.000 C 
BRANCH  18  19
ATOM     19  C   UNL     1      42.750  62.229   5.079  1.00  0.00     0.000 C 
BRANCH  19  20
ATOM     20  C   UNL     1      41.574  61.367   4.591  1.00  0.00     0.000 C 
BRANCH  20  21
ATOM     21  C   UNL     1      41.878  59.862   4.678  1.00  0.00     0.000 C 
BRANCH  21  22
ATOM     22  C   UNL     1      43.083  59.549   5.578  1.00  0.00    -0.000 C 
BRANCH  22  23
ATOM     23  C   UNL     1      43.275  58.044   5.816  1.00  0.00    -0.000 C 
BRANCH  23  24
ATOM     24  C   UNL     1      42.793  57.640   7.218  1.00  0.00    -0.000 C 
BRANCH  24  25
ATOM     25  C   UNL     1      41.942  56.352   7.190  1.00  0.00    -0.000 C 
BRANCH  25  26
ATOM     26  C   UNL     1      42.306  55.380   6.050  1.00  0.00    -0.000 C 
BRANCH  26  27
ATOM     27  C   UNL     1      41.220  55.198   4.973  1.00  0.00    -0.000 C 
BRANCH  27  28
ATOM     28  C   UNL     1      41.589  55.806   3.599  1.00  0.00    -0.000 C 
BRANCH  28  29
ATOM     29  C   UNL     1      42.994  55.415   3.112  1.00  0.00    -0.003 C 
ATOM     30  C   UNL     1      43.731  56.570   2.438  1.00  0.00     0.004 C 
ENDBRANCH  28  29
ENDBRANCH  27  28
ENDBRANCH  26  27
ENDBRANCH  25  26
ENDBRANCH  24  25
ENDBRANCH  23  24
ENDBRANCH  22  23
ENDBRANCH  21  22
ENDBRANCH  20  21
ENDBRANCH  19  20
ENDBRANCH  18  19
ENDBRANCH  17  18
ENDBRANCH   1  17
TORSDOF 26
ENDMDL
MODEL 5
REMARK VINA RESULT:    -4.259      1.900      4.494
REMARK INTER + INTRA:         -16.653
REMARK INTER:                 -11.341
REMARK INTRA:                  -5.312
REMARK UNBOUND:                -5.920
REMARK SMILES CCCCCCCCCCCCCCCCCCCCCCCCCCCC(=O)[O-]
REMARK SMILES IDX 15 1 16 2 17 3 18 4 19 5 20 6 21 7 22 8 23 9 24 10 25 11
REMARK SMILES IDX 26 12 27 13 28 14 29 15 30 16 14 17 13 18 12 19 11 20 10 21
REMARK SMILES IDX 9 22 8 23 7 24 6 25 5 26 4 27 3 28 2 29 1 30
REMARK H PARENT
REMARK Flexibility Score: inf
ROOT
ATOM      1  C   UNL     1      41.383  64.868   7.313  1.00  0.00     0.000 C 
ENDROOT
BRANCH   1   2
ATOM      2  C   UNL     1      40.538  64.492   6.087  1.00  0.00     0.000 C 
BRANCH   2   3
ATOM      3  C   UNL     1      41.346  63.748   5.010  1.00  0.00     0.000 C 
BRANCH   3   4
ATOM      4  C   UNL     1      40.917  62.287   4.770  1.00  0.00     0.000 C 
BRANCH   4   5
ATOM      5  C   UNL     1      42.096  61.314   4.562  1.00  0.00     0.000 C 
BRANCH   5   6
ATOM      6  C   UNL     1      43.414  61.860   5.144  1.00  0.00     0.000 C 
BRANCH   6   7
ATOM      7  C   UNL     1      44.613  61.608   4.206  1.00  0.00     0.000 C 
BRANCH   7   8
ATOM      8  C   UNL     1      45.741  60.786   4.853  1.00  0.00     0.000 C 
BRANCH   8   9
ATOM      9  C   UNL     1      46.014  59.468   4.110  1.00  0.00     0.000 C 
BRANCH   9  10
ATOM     10  C   UNL     1      44.987  58.366   4.434  1.00  0.00     0.000 C 
BRANCH  10  11
ATOM     11  C   UNL     1      44.396  57.638   3.212  1.00  0.00     0.000 C 
BRANCH  11  12
ATOM     12  C   UNL     1      43.247  58.414   2.547  1.00  0.00     0.006 C 
BRANCH  12  13
ATOM     13  C   UNL     1      43.670  59.048   1.215  1.00  0.00     0.053 C 
BRANCH  13  14
ATOM     14  C   UNL     1      42.502  59.613   0.465  1.00  0.00     0.041 C 
ATOM     15  O   UNL     1      41.582  60.215   1.081  1.00  0.00    -0.550 OA
ATOM     16  O   UNL     1      42.433  59.482  -0.917  1.00  0.00    -0.550 OA
ENDBRANCH  13  14
ENDBRANCH  12  13
ENDBRANCH  11  12
ENDBRANCH  10  11
ENDBRANCH   9  10
ENDBRANCH   8   9
ENDBRANCH   7   8
ENDBRANCH   6   7
ENDBRANCH   5   6
ENDBRANCH   4   5
ENDBRANCH   3   4
ENDBRANCH   2   3
ENDBRANCH   1   2
BRANCH   1  17
ATOM     17  C   UNL     1      41.243  63.817   8.419  1.00  0.00     0.000 C 
BRANCH  17  18
ATOM     18  C   UNL     1      39.843  63.189   8.408  1.00  0.00     0.000 C 
BRANCH  18  19
ATOM     19  C   UNL     1      39.927  61.656   8.367  1.00  0.00     0.000 C 
BRANCH  19  20
ATOM     20  C   UNL     1      41.377  61.153   8.283  1.00  0.00     0.000 C 
BRANCH  20  21
ATOM     21  C   UNL     1      41.468  59.726   7.717  1.00  0.00     0.000 C 
BRANCH  21  22
ATOM     22  C   UNL     1      40.687  58.702   8.556  1.00  0.00    -0.000 C 
BRANCH  22  23
ATOM     23  C   UNL     1      41.269  57.284   8.460  1.00  0.00    -0.000 C 
BRANCH  23  24
ATOM     24  C   UNL     1      42.320  57.192   7.343  1.00  0.00    -0.000 C 
BRANCH  24  25
ATOM     25  C   UNL     1      42.236  55.856   6.575  1.00  0.00    -0.000 C 
BRANCH  25  26
ATOM     26  C   UNL     1      41.342  55.906   5.319  1.00  0.00    -0.000 C 
BRANCH  26  27
ATOM     27  C   UNL     1      40.886  57.316   4.896  1.00  0.00    -0.000 C 
BRANCH  27  28
ATOM     28  C   UNL     1      39.400  57.613   5.202  1.00  0.00    -0.000 C 
BRANCH  28  29
ATOM     29  C   UNL     1      38.912  58.956   4.634  1.00  0.00    -0.003 C 
ATOM     30  C   UNL     1      38.276  59.853   5.694  1.00  0.00     0.004 C 
ENDBRANCH  28  29
ENDBRANCH  27  28
ENDBRANCH  26  27
ENDBRANCH  25  26
ENDBRANCH  24  25
ENDBRANCH  23  24
ENDBRANCH  22  23
ENDBRANCH  21  22
ENDBRANCH  20  21
ENDBRANCH  19  20
ENDBRANCH  18  19
ENDBRANCH  17  18
ENDBRANCH   1  17
TORSDOF 26
ENDMDL
MODEL 6
REMARK VINA RESULT:    -4.256      1.902      3.902
REMARK INTER + INTRA:         -16.645
REMARK INTER:                 -10.963
REMARK INTRA:                  -5.682
REMARK UNBOUND:                -5.920
REMARK SMILES CCCCCCCCCCCCCCCCCCCCCCCCCCCC(=O)[O-]
REMARK SMILES IDX 15 1 16 2 17 3 18 4 19 5 20 6 21 7 22 8 23 9 24 10 25 11
REMARK SMILES IDX 26 12 27 13 28 14 29 15 30 16 14 17 13 18 12 19 11 20 10 21
REMARK SMILES IDX 9 22 8 23 7 24 6 25 5 26 4 27 3 28 2 29 1 30
REMARK H PARENT
REMARK Flexibility Score: inf
ROOT
ATOM      1  C   UNL     1      39.714  64.751   6.325  1.00  0.00     0.000 C 
ENDROOT
BRANCH   1   2
ATOM      2  C   UNL     1      39.224  64.904   7.772  1.00  0.00     0.000 C 
BRANCH   2   3
ATOM      3  C   UNL     1      39.856  63.879   8.728  1.00  0.00     0.000 C 
BRANCH   3   4
ATOM      4  C   UNL     1      39.633  62.404   8.338  1.00  0.00     0.000 C 
BRANCH   4   5
ATOM      5  C   UNL     1      40.896  61.527   8.462  1.00  0.00     0.000 C 
BRANCH   5   6
ATOM      6  C   UNL     1      40.616  60.049   8.133  1.00  0.00     0.000 C 
BRANCH   6   7
ATOM      7  C   UNL     1      39.167  59.822   7.655  1.00  0.00     0.000 C 
BRANCH   7   8
ATOM      8  C   UNL     1      38.919  58.419   7.074  1.00  0.00     0.000 C 
BRANCH   8   9
ATOM      9  C   UNL     1      38.755  58.432   5.546  1.00  0.00     0.000 C 
BRANCH   9  10
ATOM     10  C   UNL     1      38.928  59.833   4.929  1.00  0.00     0.000 C 
BRANCH  10  11
ATOM     11  C   UNL     1      38.795  59.898   3.396  1.00  0.00     0.000 C 
BRANCH  11  12
ATOM     12  C   UNL     1      39.946  59.190   2.661  1.00  0.00     0.006 C 
BRANCH  12  13
ATOM     13  C   UNL     1      40.620  60.102   1.627  1.00  0.00     0.053 C 
BRANCH  13  14
ATOM     14  C   UNL     1      41.461  59.328   0.658  1.00  0.00     0.041 C 
ATOM     15  O   UNL     1      41.993  58.239   1.007  1.00  0.00    -0.550 OA
ATOM     16  O   UNL     1      41.652  59.804  -0.634  1.00  0.00    -0.550 OA
ENDBRANCH  13  14
ENDBRANCH  12  13
ENDBRANCH  11  12
ENDBRANCH  10  11
ENDBRANCH   9  10
ENDBRANCH   8   9
ENDBRANCH   7   8
ENDBRANCH   6   7
ENDBRANCH   5   6
ENDBRANCH   4   5
ENDBRANCH   3   4
ENDBRANCH   2   3
ENDBRANCH   1   2
BRANCH   1  17
ATOM     17  C   UNL     1      41.170  65.206   6.189  1.00  0.00     0.000 C 
BRANCH  17  18
ATOM     18  C   UNL     1      42.046  64.087   5.609  1.00  0.00     0.000 C 
BRANCH  18  19
ATOM     19  C   UNL     1      41.186  63.015   4.923  1.00  0.00     0.000 C 
BRANCH  19  20
ATOM     20  C   UNL     1      41.926  61.673   4.789  1.00  0.00     0.000 C 
BRANCH  20  21
ATOM     21  C   UNL     1      43.211  61.627   5.632  1.00  0.00     0.000 C 
BRANCH  21  22
ATOM     22  C   UNL     1      44.417  61.087   4.850  1.00  0.00    -0.000 C 
BRANCH  22  23
ATOM     23  C   UNL     1      44.096  60.813   3.373  1.00  0.00    -0.000 C 
BRANCH  23  24
ATOM     24  C   UNL     1      44.771  59.520   2.890  1.00  0.00    -0.000 C 
BRANCH  24  25
ATOM     25  C   UNL     1      45.064  58.548   4.052  1.00  0.00    -0.000 C 
BRANCH  25  26
ATOM     26  C   UNL     1      44.206  57.266   4.034  1.00  0.00    -0.000 C 
BRANCH  26  27
ATOM     27  C   UNL     1      42.701  57.483   4.279  1.00  0.00    -0.000 C 
BRANCH  27  28
ATOM     28  C   UNL     1      42.372  58.102   5.657  1.00  0.00    -0.000 C 
BRANCH  28  29
ATOM     29  C   UNL     1      42.934  57.298   6.841  1.00  0.00    -0.003 C 
ATOM     30  C   UNL     1      41.966  56.230   7.346  1.00  0.00     0.004 C 
ENDBRANCH  28  29
ENDBRANCH  27  28
ENDBRANCH  26  27
ENDBRANCH  25  26
ENDBRANCH  24  25
ENDBRANCH  23  24
ENDBRANCH  22  23
ENDBRANCH  21  22
ENDBRANCH  20  21
ENDBRANCH  19  20
ENDBRANCH  18  19
ENDBRANCH  17  18
ENDBRANCH   1  17
TORSDOF 26
ENDMDL
MODEL 7
REMARK VINA RESULT:    -4.255      1.485      3.755
REMARK INTER + INTRA:         -16.642
REMARK INTER:                 -11.216
REMARK INTRA:                  -5.426
REMARK UNBOUND:                -5.920
REMARK SMILES CCCCCCCCCCCCCCCCCCCCCCCCCCCC(=O)[O-]
REMARK SMILES IDX 15 1 16 2 17 3 18 4 19 5 20 6 21 7 22 8 23 9 24 10 25 11
REMARK SMILES IDX 26 12 27 13 28 14 29 15 30 16 14 17 13 18 12 19 11 20 10 21
REMARK SMILES IDX 9 22 8 23 7 24 6 25 5 26 4 27 3 28 2 29 1 30
REMARK H PARENT
REMARK Flexibility Score: inf
ROOT
ATOM      1  C   UNL     1      40.968  60.078   8.360  1.00  0.00     0.000 C 
ENDROOT
BRANCH   1   2
ATOM      2  C   UNL     1      42.276  59.414   7.907  1.00  0.00     0.000 C 
BRANCH   2   3
ATOM      3  C   UNL     1      42.046  58.242   6.938  1.00  0.00     0.000 C 
BRANCH   3   4
ATOM      4  C   UNL     1      43.262  57.314   6.741  1.00  0.00     0.000 C 
BRANCH   4   5
ATOM      5  C   UNL     1      43.120  56.342   5.552  1.00  0.00     0.000 C 
BRANCH   5   6
ATOM      6  C   UNL     1      41.931  55.378   5.723  1.00  0.00     0.000 C 
BRANCH   6   7
ATOM      7  C   UNL     1      40.883  55.540   4.602  1.00  0.00     0.000 C 
BRANCH   7   8
ATOM      8  C   UNL     1      41.220  56.654   3.596  1.00  0.00     0.000 C 
BRANCH   8   9
ATOM      9  C   UNL     1      39.966  57.314   3.001  1.00  0.00     0.000 C 
BRANCH   9  10
ATOM     10  C   UNL     1      40.179  58.794   2.629  1.00  0.00     0.000 C 
BRANCH  10  11
ATOM     11  C   UNL     1      39.350  59.803   3.444  1.00  0.00     0.000 C 
BRANCH  11  12
ATOM     12  C   UNL     1      39.530  59.643   4.963  1.00  0.00     0.006 C 
BRANCH  12  13
ATOM     13  C   UNL     1      38.187  59.601   5.705  1.00  0.00     0.053 C 
BRANCH  13  14
ATOM     14  C   UNL     1      37.994  58.313   6.445  1.00  0.00     0.041 C 
ATOM     15  O   UNL     1      37.892  57.226   5.814  1.00  0.00    -0.550 OA
ATOM     16  O   UNL     1      37.933  58.310   7.834  1.00  0.00    -0.550 OA
ENDBRANCH  13  14
ENDBRANCH  12  13
ENDBRANCH  11  12
ENDBRANCH  10  11
ENDBRANCH   9  10
ENDBRANCH   8   9
ENDBRANCH   7   8
ENDBRANCH   6   7
ENDBRANCH   5   6
ENDBRANCH   4   5
ENDBRANCH   3   4
ENDBRANCH   2   3
ENDBRANCH   1   2
BRANCH   1  17
ATOM     17  C   UNL     1      41.066  61.604   8.264  1.00  0.00     0.000 C 
BRANCH  17  18
ATOM     18  C   UNL     1      39.713  62.221   7.889  1.00  0.00     0.000 C 
BRANCH  18  19
ATOM     19  C   UNL     1      39.353  63.377   8.834  1.00  0.00     0.000 C 
BRANCH  19  20
ATOM     20  C   UNL     1      39.679  64.751   8.226  1.00  0.00     0.000 C 
BRANCH  20  21
ATOM     21  C   UNL     1      39.005  64.959   6.859  1.00  0.00     0.000 C 
BRANCH  21  22
ATOM     22  C   UNL     1      40.014  65.237   5.735  1.00  0.00    -0.000 C 
BRANCH  22  23
ATOM     23  C   UNL     1      41.473  65.177   6.214  1.00  0.00    -0.000 C 
BRANCH  23  24
ATOM     24  C   UNL     1      42.296  64.200   5.360  1.00  0.00    -0.000 C 
BRANCH  24  25
ATOM     25  C   UNL     1      41.426  63.074   4.763  1.00  0.00    -0.000 C 
BRANCH  25  26
ATOM     26  C   UNL     1      42.194  61.766   4.483  1.00  0.00    -0.000 C 
BRANCH  26  27
ATOM     27  C   UNL     1      43.529  61.616   5.237  1.00  0.00    -0.000 C 
BRANCH  27  28
ATOM     28  C   UNL     1      44.376  60.406   4.779  1.00  0.00    -0.000 C 
BRANCH  28  29
ATOM     29  C   UNL     1      43.642  59.479   3.797  1.00  0.00    -0.003 C 
ATOM     30  C   UNL     1      44.156  59.605   2.364  1.00  0.00     0.004 C 
ENDBRANCH  28  29
ENDBRANCH  27  28
ENDBRANCH  26  27
ENDBRANCH  25  26
ENDBRANCH  24  25
ENDBRANCH  23  24
ENDBRANCH  22  23
ENDBRANCH  21  22
ENDBRANCH  20  21
ENDBRANCH  19  20
ENDBRANCH  18  19
ENDBRANCH  17  18
ENDBRANCH   1  17
TORSDOF 26
ENDMDL
MODEL 8
REMARK VINA RESULT:    -4.231      2.174      5.501
REMARK INTER + INTRA:         -16.582
REMARK INTER:                 -10.983
REMARK INTRA:                  -5.599
REMARK UNBOUND:                -5.920
REMARK SMILES CCCCCCCCCCCCCCCCCCCCCCCCCCCC(=O)[O-]
REMARK SMILES IDX 15 1 16 2 17 3 18 4 19 5 20 6 21 7 22 8 23 9 24 10 25 11
REMARK SMILES IDX 26 12 27 13 28 14 29 15 30 16 14 17 13 18 12 19 11 20 10 21
REMARK SMILES IDX 9 22 8 23 7 24 6 25 5 26 4 27 3 28 2 29 1 30
REMARK H PARENT
REMARK Flexibility Score: inf
ROOT
ATOM      1  C   UNL     1      39.683  61.754   7.317  1.00  0.00     0.000 C 
ENDROOT
BRANCH   1   2
ATOM      2  C   UNL     1      39.373  63.204   7.718  1.00  0.00     0.000 C 
BRANCH   2   3
ATOM      3  C   UNL     1      40.425  63.798   8.671  1.00  0.00     0.000 C 
BRANCH   3   4
ATOM      4  C   UNL     1      41.500  64.667   7.989  1.00  0.00     0.000 C 
BRANCH   4   5
ATOM      5  C   UNL     1      41.307  64.820   6.466  1.00  0.00     0.000 C 
BRANCH   5   6
ATOM      6  C   UNL     1      42.299  63.960   5.661  1.00  0.00     0.000 C 
BRANCH   6   7
ATOM      7  C   UNL     1      41.585  63.044   4.644  1.00  0.00     0.000 C 
BRANCH   7   8
ATOM      8  C   UNL     1      42.406  61.806   4.245  1.00  0.00     0.000 C 
BRANCH   8   9
ATOM      9  C   UNL     1      43.914  61.995   4.475  1.00  0.00     0.000 C 
BRANCH   9  10
ATOM     10  C   UNL     1      44.611  60.726   5.000  1.00  0.00     0.000 C 
BRANCH  10  11
ATOM     11  C   UNL     1      44.067  59.398   4.443  1.00  0.00     0.000 C 
BRANCH  11  12
ATOM     12  C   UNL     1      45.177  58.444   3.969  1.00  0.00     0.006 C 
BRANCH  12  13
ATOM     13  C   UNL     1      44.876  57.846   2.588  1.00  0.00     0.053 C 
BRANCH  13  14
ATOM     14  C   UNL     1      45.145  58.820   1.482  1.00  0.00     0.041 C 
ATOM     15  O   UNL     1      44.482  58.765   0.411  1.00  0.00    -0.550 OA
ATOM     16  O   UNL     1      46.125  59.794   1.635  1.00  0.00    -0.550 OA
ENDBRANCH  13  14
ENDBRANCH  12  13
ENDBRANCH  11  12
ENDBRANCH  10  11
ENDBRANCH   9  10
ENDBRANCH   8   9
ENDBRANCH   7   8
ENDBRANCH   6   7
ENDBRANCH   5   6
ENDBRANCH   4   5
ENDBRANCH   3   4
ENDBRANCH   2   3
ENDBRANCH   1   2
BRANCH   1  17
ATOM     17  C   UNL     1      40.558  61.069   8.373  1.00  0.00     0.000 C 
BRANCH  17  18
ATOM     18  C   UNL     1      41.984  60.854   7.851  1.00  0.00     0.000 C 
BRANCH  18  19
ATOM     19  C   UNL     1      42.228  59.378   7.505  1.00  0.00     0.000 C 
BRANCH  19  20
ATOM     20  C   UNL     1      41.385  58.429   8.373  1.00  0.00     0.000 C 
BRANCH  20  21
ATOM     21  C   UNL     1      41.619  56.951   8.018  1.00  0.00     0.000 C 
BRANCH  21  22
ATOM     22  C   UNL     1      42.627  56.766   6.874  1.00  0.00    -0.000 C 
BRANCH  22  23
ATOM     23  C   UNL     1      42.258  55.608   5.935  1.00  0.00    -0.000 C 
BRANCH  23  24
ATOM     24  C   UNL     1      42.285  56.057   4.465  1.00  0.00    -0.000 C 
BRANCH  24  25
ATOM     25  C   UNL     1      40.875  56.083   3.839  1.00  0.00    -0.000 C 
BRANCH  25  26
ATOM     26  C   UNL     1      40.401  57.488   3.412  1.00  0.00    -0.000 C 
BRANCH  26  27
ATOM     27  C   UNL     1      40.453  58.560   4.517  1.00  0.00    -0.000 C 
BRANCH  27  28
ATOM     28  C   UNL     1      39.071  58.913   5.115  1.00  0.00    -0.000 C 
BRANCH  28  29
ATOM     29  C   UNL     1      38.535  57.852   6.090  1.00  0.00    -0.003 C 
ATOM     30  C   UNL     1      37.877  58.461   7.327  1.00  0.00     0.004 C 
ENDBRANCH  28  29
ENDBRANCH  27  28
ENDBRANCH  26  27
ENDBRANCH  25  26
ENDBRANCH  24  25
ENDBRANCH  23  24
ENDBRANCH  22  23
ENDBRANCH  21  22
ENDBRANCH  20  21
ENDBRANCH  19  20
ENDBRANCH  18  19
ENDBRANCH  17  18
ENDBRANCH   1  17
TORSDOF 26
ENDMDL
MODEL 9
REMARK VINA RESULT:    -4.209      2.201      3.964
REMARK INTER + INTRA:         -16.525
REMARK INTER:                 -10.416
REMARK INTRA:                  -6.109
REMARK UNBOUND:                -5.920
REMARK SMILES CCCCCCCCCCCCCCCCCCCCCCCCCCCC(=O)[O-]
REMARK SMILES IDX 15 1 16 2 17 3 18 4 19 5 20 6 21 7 22 8 23 9 24 10 25 11
REMARK SMILES IDX 26 12 27 13 28 14 29 15 30 16 14 17 13 18 12 19 11 20 10 21
REMARK SMILES IDX 9 22 8 23 7 24 6 25 5 26 4 27 3 28 2 29 1 30
REMARK H PARENT
REMARK Flexibility Score: inf
ROOT
ATOM      1  C   UNL     1      42.751  63.710   5.013  1.00  0.00     0.000 C 
ENDROOT
BRANCH   1   2
ATOM      2  C   UNL     1      43.492  62.375   4.842  1.00  0.00     0.000 C 
BRANCH   2   3
ATOM      3  C   UNL     1      42.615  61.159   5.185  1.00  0.00     0.000 C 
BRANCH   3   4
ATOM      4  C   UNL     1      43.262  60.144   6.148  1.00  0.00     0.000 C 
BRANCH   4   5
ATOM      5  C   UNL     1      42.696  58.714   6.022  1.00  0.00     0.000 C 
BRANCH   5   6
ATOM      6  C   UNL     1      42.439  58.063   7.394  1.00  0.00     0.000 C 
BRANCH   6   7
ATOM      7  C   UNL     1      41.825  56.653   7.265  1.00  0.00     0.000 C 
BRANCH   7   8
ATOM      8  C   UNL     1      42.397  55.834   6.094  1.00  0.00     0.000 C 
BRANCH   8   9
ATOM      9  C   UNL     1      41.310  55.355   5.120  1.00  0.00     0.000 C 
BRANCH   9  10
ATOM     10  C   UNL     1      41.767  55.365   3.649  1.00  0.00     0.000 C 
BRANCH  10  11
ATOM     11  C   UNL     1      43.184  55.914   3.404  1.00  0.00     0.000 C 
BRANCH  11  12
ATOM     12  C   UNL     1      43.459  56.233   1.924  1.00  0.00     0.006 C 
BRANCH  12  13
ATOM     13  C   UNL     1      44.822  56.907   1.720  1.00  0.00     0.053 C 
BRANCH  13  14
ATOM     14  C   UNL     1      44.710  58.400   1.668  1.00  0.00     0.041 C 
ATOM     15  O   UNL     1      44.681  59.073   2.733  1.00  0.00    -0.550 OA
ATOM     16  O   UNL     1      44.644  59.051   0.441  1.00  0.00    -0.550 OA
ENDBRANCH  13  14
ENDBRANCH  12  13
ENDBRANCH  11  12
ENDBRANCH  10  11
ENDBRANCH   9  10
ENDBRANCH   8   9
ENDBRANCH   7   8
ENDBRANCH   6   7
ENDBRANCH   5   6
ENDBRANCH   4   5
ENDBRANCH   3   4
ENDBRANCH   2   3
ENDBRANCH   1   2
BRANCH   1  17
ATOM     17  C   UNL     1      41.234  63.507   4.949  1.00  0.00     0.000 C 
BRANCH  17  18
ATOM     18  C   UNL     1      40.521  64.330   6.030  1.00  0.00     0.000 C 
BRANCH  18  19
ATOM     19  C   UNL     1      41.271  64.249   7.368  1.00  0.00     0.000 C 
BRANCH  19  20
ATOM     20  C   UNL     1      40.567  63.326   8.376  1.00  0.00     0.000 C 
BRANCH  20  21
ATOM     21  C   UNL     1      41.254  61.955   8.492  1.00  0.00     0.000 C 
BRANCH  21  22
ATOM     22  C   UNL     1      40.271  60.783   8.349  1.00  0.00    -0.000 C 
BRANCH  22  23
ATOM     23  C   UNL     1      39.066  61.120   7.458  1.00  0.00    -0.000 C 
BRANCH  23  24
ATOM     24  C   UNL     1      39.215  60.490   6.065  1.00  0.00    -0.000 C 
BRANCH  24  25
ATOM     25  C   UNL     1      38.947  58.970   6.082  1.00  0.00    -0.000 C 
BRANCH  25  26
ATOM     26  C   UNL     1      39.228  58.265   4.740  1.00  0.00    -0.000 C 
BRANCH  26  27
ATOM     27  C   UNL     1      39.552  59.204   3.562  1.00  0.00    -0.000 C 
BRANCH  27  28
ATOM     28  C   UNL     1      40.860  58.850   2.817  1.00  0.00    -0.000 C 
BRANCH  28  29
ATOM     29  C   UNL     1      41.350  59.960   1.874  1.00  0.00    -0.003 C 
ATOM     30  C   UNL     1      40.602  61.278   2.069  1.00  0.00     0.004 C 
ENDBRANCH  28  29
ENDBRANCH  27  28
ENDBRANCH  26  27
ENDBRANCH  25  26
ENDBRANCH  24  25
ENDBRANCH  23  24
ENDBRANCH  22  23
ENDBRANCH  21  22
ENDBRANCH  20  21
ENDBRANCH  19  20
ENDBRANCH  18  19
ENDBRANCH  17  18
ENDBRANCH   1  17
TORSDOF 26
ENDMDL
