MODEL 1
REMARK VINA RESULT:    -3.834      0.000      0.000
REMARK INTER + INTRA:          -5.695
REMARK INTER:                  -5.179
REMARK INTRA:                  -0.515
REMARK UNBOUND:                -0.515
REMARK SMILES [NH3+]CCCC[C@@H]([NH3+])C(=O)[O-]
REMARK SMILES IDX 4 1 3 2 2 3 1 4 5 8 6 9 7 10 8 14 9 15 10 16
REMARK H PARENT 1 5 1 6 1 7 7 11 7 12 7 13
REMARK Flexibility Score: inf
ROOT
ATOM      1  C   UNL     1      75.718  61.294  70.827  1.00  0.00     0.012 C 
ENDROOT
BRANCH   1   2
ATOM      2  C   UNL     1      76.932  62.127  70.386  1.00  0.00     0.061 C 
BRANCH   2   3
ATOM      3  C   UNL     1      76.727  63.613  70.708  1.00  0.00     0.258 C 
BRANCH   3   4
ATOM      4  N   UNL     1      75.352  64.024  70.422  1.00  0.00    -0.358 N 
ATOM      5  H   UNL     1      74.923  64.461  71.269  1.00  0.00     0.344 HD
ATOM      6  H   UNL     1      75.339  64.705  69.627  1.00  0.00     0.344 HD
ATOM      7  H   UNL     1      74.792  63.183  70.155  1.00  0.00     0.344 HD
ENDBRANCH   3   4
ENDBRANCH   2   3
ENDBRANCH   1   2
BRANCH   1   8
ATOM      8  C   UNL     1      75.787  60.901  72.320  1.00  0.00     0.072 C 
BRANCH   8   9
ATOM      9  C   UNL     1      74.694  61.531  73.215  1.00  0.00     0.227 C 
BRANCH   9  10
ATOM     10  N   UNL     1      75.112  62.822  73.776  1.00  0.00    -0.350 N 
ATOM     11  H   UNL     1      74.826  62.881  74.781  1.00  0.00     0.345 HD
ATOM     12  H   UNL     1      76.147  62.951  73.701  1.00  0.00     0.345 HD
ATOM     13  H   UNL     1      74.639  63.597  73.258  1.00  0.00     0.345 HD
ENDBRANCH   9  10
BRANCH   9  14
ATOM     14  C   UNL     1      73.380  61.648  72.483  1.00  0.00     0.099 C 
ATOM     15  O   UNL     1      72.654  60.629  72.334  1.00  0.00    -0.544 OA
ATOM     16  O   UNL     1      72.975  62.858  71.932  1.00  0.00    -0.544 OA
ENDBRANCH   9  14
ENDBRANCH   8   9
ENDBRANCH   1   8
TORSDOF 7
ENDMDL
MODEL 2
REMARK VINA RESULT:    -3.763      2.226      4.032
REMARK INTER + INTRA:          -5.598
REMARK INTER:                  -5.184
REMARK INTRA:                  -0.414
REMARK UNBOUND:                -0.515
REMARK SMILES [NH3+]CCCC[C@@H]([NH3+])C(=O)[O-]
REMARK SMILES IDX 4 1 3 2 2 3 1 4 5 8 6 9 7 10 8 14 9 15 10 16
REMARK H PARENT 1 5 1 6 1 7 7 11 7 12 7 13
REMARK Flexibility Score: inf
ROOT
ATOM      1  C   UNL     1      73.754  62.483  71.382  1.00  0.00     0.012 C 
ENDROOT
BRANCH   1   2
ATOM      2  C   UNL     1      73.405  61.469  72.483  1.00  0.00     0.061 C 
BRANCH   2   3
ATOM      3  C   UNL     1      73.277  62.159  73.847  1.00  0.00     0.258 C 
BRANCH   3   4
ATOM      4  N   UNL     1      74.532  62.810  74.223  1.00  0.00    -0.358 N 
ATOM      5  H   UNL     1      74.455  63.212  75.184  1.00  0.00     0.344 HD
ATOM      6  H   UNL     1      75.318  62.120  74.190  1.00  0.00     0.344 HD
ATOM      7  H   UNL     1      74.733  63.583  73.547  1.00  0.00     0.344 HD
ENDBRANCH   3   4
ENDBRANCH   2   3
ENDBRANCH   1   2
BRANCH   1   8
ATOM      8  C   UNL     1      74.975  62.042  70.543  1.00  0.00     0.072 C 
BRANCH   8   9
ATOM      9  C   UNL     1      76.175  63.017  70.570  1.00  0.00     0.227 C 
BRANCH   9  10
ATOM     10  N   UNL     1      75.768  64.406  70.319  1.00  0.00    -0.350 N 
ATOM     11  H   UNL     1      75.279  64.789  71.160  1.00  0.00     0.345 HD
ATOM     12  H   UNL     1      76.592  65.007  70.092  1.00  0.00     0.345 HD
ATOM     13  H   UNL     1      75.101  64.433  69.514  1.00  0.00     0.345 HD
ENDBRANCH   9  10
BRANCH   9  14
ATOM     14  C   UNL     1      76.957  62.896  71.855  1.00  0.00     0.099 C 
ATOM     15  O   UNL     1      77.610  63.884  72.286  1.00  0.00    -0.544 OA
ATOM     16  O   UNL     1      77.003  61.695  72.552  1.00  0.00    -0.544 OA
ENDBRANCH   9  14
ENDBRANCH   8   9
ENDBRANCH   1   8
TORSDOF 7
ENDMDL
MODEL 3
REMARK VINA RESULT:    -3.740      2.683      3.704
REMARK INTER + INTRA:          -5.567
REMARK INTER:                  -5.270
REMARK INTRA:                  -0.297
REMARK UNBOUND:                -0.515
REMARK SMILES [NH3+]CCCC[C@@H]([NH3+])C(=O)[O-]
REMARK SMILES IDX 4 1 3 2 2 3 1 4 5 8 6 9 7 10 8 14 9 15 10 16
REMARK H PARENT 1 5 1 6 1 7 7 11 7 12 7 13
REMARK Flexibility Score: inf
ROOT
ATOM      1  C   UNL     1      74.307  61.167  72.154  1.00  0.00     0.012 C 
ENDROOT
BRANCH   1   2
ATOM      2  C   UNL     1      73.388  62.372  72.411  1.00  0.00     0.061 C 
BRANCH   2   3
ATOM      3  C   UNL     1      72.854  62.948  71.093  1.00  0.00     0.258 C 
BRANCH   3   4
ATOM      4  N   UNL     1      72.420  64.334  71.267  1.00  0.00    -0.358 N 
ATOM      5  H   UNL     1      72.354  64.565  72.284  1.00  0.00     0.344 HD
ATOM      6  H   UNL     1      73.094  64.983  70.799  1.00  0.00     0.344 HD
ATOM      7  H   UNL     1      71.477  64.455  70.831  1.00  0.00     0.344 HD
ENDBRANCH   3   4
ENDBRANCH   2   3
ENDBRANCH   1   2
BRANCH   1   8
ATOM      8  C   UNL     1      75.796  61.501  72.405  1.00  0.00     0.072 C 
BRANCH   8   9
ATOM      9  C   UNL     1      76.578  61.982  71.160  1.00  0.00     0.227 C 
BRANCH   9  10
ATOM     10  N   UNL     1      75.970  61.514  69.907  1.00  0.00    -0.350 N 
ATOM     11  H   UNL     1      74.956  61.308  70.061  1.00  0.00     0.345 HD
ATOM     12  H   UNL     1      76.069  62.226  69.148  1.00  0.00     0.345 HD
ATOM     13  H   UNL     1      76.438  60.630  69.602  1.00  0.00     0.345 HD
ENDBRANCH   9  10
BRANCH   9  14
ATOM     14  C   UNL     1      76.752  63.480  71.161  1.00  0.00     0.099 C 
ATOM     15  O   UNL     1      77.452  64.028  72.054  1.00  0.00    -0.544 OA
ATOM     16  O   UNL     1      76.117  64.274  70.213  1.00  0.00    -0.544 OA
ENDBRANCH   9  14
ENDBRANCH   8   9
ENDBRANCH   1   8
TORSDOF 7
ENDMDL
MODEL 4
REMARK VINA RESULT:    -3.702      2.038      3.847
REMARK INTER + INTRA:          -5.517
REMARK INTER:                  -5.105
REMARK INTRA:                  -0.411
REMARK UNBOUND:                -0.515
REMARK SMILES [NH3+]CCCC[C@@H]([NH3+])C(=O)[O-]
REMARK SMILES IDX 4 1 3 2 2 3 1 4 5 8 6 9 7 10 8 14 9 15 10 16
REMARK H PARENT 1 5 1 6 1 7 7 11 7 12 7 13
REMARK Flexibility Score: inf
ROOT
ATOM      1  C   UNL     1      73.300  61.041  72.422  1.00  0.00     0.012 C 
ENDROOT
BRANCH   1   2
ATOM      2  C   UNL     1      73.342  61.201  73.950  1.00  0.00     0.061 C 
BRANCH   2   3
ATOM      3  C   UNL     1      73.488  62.676  74.345  1.00  0.00     0.258 C 
BRANCH   3   4
ATOM      4  N   UNL     1      74.874  62.989  74.694  1.00  0.00    -0.358 N 
ATOM      5  H   UNL     1      75.068  62.711  75.683  1.00  0.00     0.344 HD
ATOM      6  H   UNL     1      75.529  62.486  74.050  1.00  0.00     0.344 HD
ATOM      7  H   UNL     1      75.029  64.018  74.595  1.00  0.00     0.344 HD
ENDBRANCH   3   4
ENDBRANCH   2   3
ENDBRANCH   1   2
BRANCH   1   8
ATOM      8  C   UNL     1      73.438  62.393  71.686  1.00  0.00     0.072 C 
BRANCH   8   9
ATOM      9  C   UNL     1      74.664  62.508  70.750  1.00  0.00     0.227 C 
BRANCH   9  10
ATOM     10  N   UNL     1      75.060  63.904  70.521  1.00  0.00    -0.350 N 
ATOM     11  H   UNL     1      74.385  64.360  69.865  1.00  0.00     0.345 HD
ATOM     12  H   UNL     1      75.090  64.440  71.418  1.00  0.00     0.345 HD
ATOM     13  H   UNL     1      76.008  63.929  70.082  1.00  0.00     0.345 HD
ENDBRANCH   9  10
BRANCH   9  14
ATOM     14  C   UNL     1      75.822  61.682  71.253  1.00  0.00     0.099 C 
ATOM     15  O   UNL     1      76.498  62.086  72.236  1.00  0.00    -0.544 OA
ATOM     16  O   UNL     1      76.183  60.499  70.621  1.00  0.00    -0.544 OA
ENDBRANCH   9  14
ENDBRANCH   8   9
ENDBRANCH   1   8
TORSDOF 7
ENDMDL
MODEL 5
REMARK VINA RESULT:    -3.682      1.624      2.898
REMARK INTER + INTRA:          -5.489
REMARK INTER:                  -4.970
REMARK INTRA:                  -0.520
REMARK UNBOUND:                -0.515
REMARK SMILES [NH3+]CCCC[C@@H]([NH3+])C(=O)[O-]
REMARK SMILES IDX 4 1 3 2 2 3 1 4 5 8 6 9 7 10 8 14 9 15 10 16
REMARK H PARENT 1 5 1 6 1 7 7 11 7 12 7 13
REMARK Flexibility Score: inf
ROOT
ATOM      1  C   UNL     1      76.780  60.704  70.360  1.00  0.00     0.012 C 
ENDROOT
BRANCH   1   2
ATOM      2  C   UNL     1      76.323  59.486  71.178  1.00  0.00     0.061 C 
BRANCH   2   3
ATOM      3  C   UNL     1      76.860  59.554  72.614  1.00  0.00     0.258 C 
BRANCH   3   4
ATOM      4  N   UNL     1      75.826  60.022  73.537  1.00  0.00    -0.358 N 
ATOM      5  H   UNL     1      75.225  60.739  73.070  1.00  0.00     0.344 HD
ATOM      6  H   UNL     1      75.236  59.218  73.854  1.00  0.00     0.344 HD
ATOM      7  H   UNL     1      76.283  60.456  74.371  1.00  0.00     0.344 HD
ENDBRANCH   3   4
ENDBRANCH   2   3
ENDBRANCH   1   2
BRANCH   1   8
ATOM      8  C   UNL     1      75.598  61.610  69.946  1.00  0.00     0.072 C 
BRANCH   8   9
ATOM      9  C   UNL     1      75.156  62.639  71.013  1.00  0.00     0.227 C 
BRANCH   9  10
ATOM     10  N   UNL     1      75.313  64.023  70.548  1.00  0.00    -0.350 N 
ATOM     11  H   UNL     1      76.300  64.337  70.697  1.00  0.00     0.345 HD
ATOM     12  H   UNL     1      75.068  64.113  69.536  1.00  0.00     0.345 HD
ATOM     13  H   UNL     1      74.686  64.650  71.103  1.00  0.00     0.345 HD
ENDBRANCH   9  10
BRANCH   9  14
ATOM     14  C   UNL     1      73.749  62.373  71.487  1.00  0.00     0.099 C 
ATOM     15  O   UNL     1      73.514  61.380  72.226  1.00  0.00    -0.544 OA
ATOM     16  O   UNL     1      72.696  63.187  71.087  1.00  0.00    -0.544 OA
ENDBRANCH   9  14
ENDBRANCH   8   9
ENDBRANCH   1   8
TORSDOF 7
ENDMDL
MODEL 6
REMARK VINA RESULT:    -3.675      1.625      2.474
REMARK INTER + INTRA:          -5.480
REMARK INTER:                  -4.985
REMARK INTRA:                  -0.494
REMARK UNBOUND:                -0.515
REMARK SMILES [NH3+]CCCC[C@@H]([NH3+])C(=O)[O-]
REMARK SMILES IDX 4 1 3 2 2 3 1 4 5 8 6 9 7 10 8 14 9 15 10 16
REMARK H PARENT 1 5 1 6 1 7 7 11 7 12 7 13
REMARK Flexibility Score: inf
ROOT
ATOM      1  C   UNL     1      76.714  62.326  70.731  1.00  0.00     0.012 C 
ENDROOT
BRANCH   1   2
ATOM      2  C   UNL     1      76.988  63.445  71.750  1.00  0.00     0.061 C 
BRANCH   2   3
ATOM      3  C   UNL     1      77.599  62.879  73.038  1.00  0.00     0.258 C 
BRANCH   3   4
ATOM      4  N   UNL     1      76.611  62.853  74.117  1.00  0.00    -0.358 N 
ATOM      5  H   UNL     1      77.033  63.218  75.001  1.00  0.00     0.344 HD
ATOM      6  H   UNL     1      75.779  63.432  73.856  1.00  0.00     0.344 HD
ATOM      7  H   UNL     1      76.300  61.866  74.273  1.00  0.00     0.344 HD
ENDBRANCH   3   4
ENDBRANCH   2   3
ENDBRANCH   1   2
BRANCH   1   8
ATOM      8  C   UNL     1      75.218  62.226  70.357  1.00  0.00     0.072 C 
BRANCH   8   9
ATOM      9  C   UNL     1      74.232  62.556  71.502  1.00  0.00     0.227 C 
BRANCH   9  10
ATOM     10  N   UNL     1      73.031  63.250  71.019  1.00  0.00    -0.350 N 
ATOM     11  H   UNL     1      72.661  62.767  70.169  1.00  0.00     0.345 HD
ATOM     12  H   UNL     1      72.288  63.279  71.754  1.00  0.00     0.345 HD
ATOM     13  H   UNL     1      73.279  64.231  70.754  1.00  0.00     0.345 HD
ENDBRANCH   9  10
BRANCH   9  14
ATOM     14  C   UNL     1      73.874  61.324  72.296  1.00  0.00     0.099 C 
ATOM     15  O   UNL     1      72.692  60.889  72.277  1.00  0.00    -0.544 OA
ATOM     16  O   UNL     1      74.823  60.682  73.083  1.00  0.00    -0.544 OA
ENDBRANCH   9  14
ENDBRANCH   8   9
ENDBRANCH   1   8
TORSDOF 7
ENDMDL
MODEL 7
REMARK VINA RESULT:    -3.645      2.039      2.830
REMARK INTER + INTRA:          -5.440
REMARK INTER:                  -4.956
REMARK INTRA:                  -0.484
REMARK UNBOUND:                -0.515
REMARK SMILES [NH3+]CCCC[C@@H]([NH3+])C(=O)[O-]
REMARK SMILES IDX 4 1 3 2 2 3 1 4 5 8 6 9 7 10 8 14 9 15 10 16
REMARK H PARENT 1 5 1 6 1 7 7 11 7 12 7 13
REMARK Flexibility Score: inf
ROOT
ATOM      1  C   UNL     1      76.619  61.803  70.487  1.00  0.00     0.012 C 
ENDROOT
BRANCH   1   2
ATOM      2  C   UNL     1      77.087  60.435  69.964  1.00  0.00     0.061 C 
BRANCH   2   3
ATOM      3  C   UNL     1      76.816  59.330  70.993  1.00  0.00     0.258 C 
BRANCH   3   4
ATOM      4  N   UNL     1      77.383  59.680  72.296  1.00  0.00    -0.358 N 
ATOM      5  H   UNL     1      77.904  58.865  72.692  1.00  0.00     0.344 HD
ATOM      6  H   UNL     1      78.027  60.499  72.199  1.00  0.00     0.344 HD
ATOM      7  H   UNL     1      76.608  59.935  72.949  1.00  0.00     0.344 HD
ENDBRANCH   3   4
ENDBRANCH   2   3
ENDBRANCH   1   2
BRANCH   1   8
ATOM      8  C   UNL     1      75.108  62.034  70.255  1.00  0.00     0.072 C 
BRANCH   8   9
ATOM      9  C   UNL     1      74.321  62.519  71.495  1.00  0.00     0.227 C 
BRANCH   9  10
ATOM     10  N   UNL     1      73.149  63.325  71.129  1.00  0.00    -0.350 N 
ATOM     11  H   UNL     1      72.555  62.798  70.448  1.00  0.00     0.345 HD
ATOM     12  H   UNL     1      72.579  63.569  71.971  1.00  0.00     0.345 HD
ATOM     13  H   UNL     1      73.464  64.209  70.669  1.00  0.00     0.345 HD
ENDBRANCH   9  10
BRANCH   9  14
ATOM     14  C   UNL     1      73.940  61.368  72.393  1.00  0.00     0.099 C 
ATOM     15  O   UNL     1      72.804  60.834  72.278  1.00  0.00    -0.544 OA
ATOM     16  O   UNL     1      74.810  60.911  73.376  1.00  0.00    -0.544 OA
ENDBRANCH   9  14
ENDBRANCH   8   9
ENDBRANCH   1   8
TORSDOF 7
ENDMDL
MODEL 8
REMARK VINA RESULT:    -3.640     15.078     16.358
REMARK INTER + INTRA:          -5.432
REMARK INTER:                  -5.362
REMARK INTRA:                  -0.070
REMARK UNBOUND:                -0.515
REMARK SMILES [NH3+]CCCC[C@@H]([NH3+])C(=O)[O-]
REMARK SMILES IDX 4 1 3 2 2 3 1 4 5 8 6 9 7 10 8 14 9 15 10 16
REMARK H PARENT 1 5 1 6 1 7 7 11 7 12 7 13
REMARK Flexibility Score: inf
ROOT
ATOM      1  C   UNL     1      76.454  63.821  87.376  1.00  0.00     0.012 C 
ENDROOT
BRANCH   1   2
ATOM      2  C   UNL     1      76.031  64.657  88.594  1.00  0.00     0.061 C 
BRANCH   2   3
ATOM      3  C   UNL     1      75.746  66.111  88.192  1.00  0.00     0.258 C 
BRANCH   3   4
ATOM      4  N   UNL     1      76.080  67.029  89.281  1.00  0.00    -0.358 N 
ATOM      5  H   UNL     1      75.227  67.243  89.846  1.00  0.00     0.344 HD
ATOM      6  H   UNL     1      76.814  66.605  89.895  1.00  0.00     0.344 HD
ATOM      7  H   UNL     1      76.450  67.919  88.876  1.00  0.00     0.344 HD
ENDBRANCH   3   4
ENDBRANCH   2   3
ENDBRANCH   1   2
BRANCH   1   8
ATOM      8  C   UNL     1      77.477  62.723  87.745  1.00  0.00     0.072 C 
BRANCH   8   9
ATOM      9  C   UNL     1      78.086  61.965  86.542  1.00  0.00     0.227 C 
BRANCH   9  10
ATOM     10  N   UNL     1      78.280  62.837  85.376  1.00  0.00    -0.350 N 
ATOM     11  H   UNL     1      78.404  62.255  84.516  1.00  0.00     0.345 HD
ATOM     12  H   UNL     1      77.468  63.482  85.246  1.00  0.00     0.345 HD
ATOM     13  H   UNL     1      79.145  63.409  85.509  1.00  0.00     0.345 HD
ENDBRANCH   9  10
BRANCH   9  14
ATOM     14  C   UNL     1      79.366  61.261  86.922  1.00  0.00     0.099 C 
ATOM     15  O   UNL     1      79.756  60.267  86.254  1.00  0.00    -0.544 OA
ATOM     16  O   UNL     1      80.103  61.669  88.028  1.00  0.00    -0.544 OA
ENDBRANCH   9  14
ENDBRANCH   8   9
ENDBRANCH   1   8
TORSDOF 7
ENDMDL
MODEL 9
REMARK VINA RESULT:    -3.555     16.917     17.750
REMARK INTER + INTRA:          -5.317
REMARK INTER:                  -5.235
REMARK INTRA:                  -0.082
REMARK UNBOUND:                -0.515
REMARK SMILES [NH3+]CCCC[C@@H]([NH3+])C(=O)[O-]
REMARK SMILES IDX 4 1 3 2 2 3 1 4 5 8 6 9 7 10 8 14 9 15 10 16
REMARK H PARENT 1 5 1 6 1 7 7 11 7 12 7 13
REMARK Flexibility Score: inf
ROOT
ATOM      1  C   UNL     1      77.435  62.561  88.082  1.00  0.00     0.012 C 
ENDROOT
BRANCH   1   2
ATOM      2  C   UNL     1      76.681  63.606  88.919  1.00  0.00     0.061 C 
BRANCH   2   3
ATOM      3  C   UNL     1      76.318  64.833  88.071  1.00  0.00     0.258 C 
BRANCH   3   4
ATOM      4  N   UNL     1      75.926  65.957  88.921  1.00  0.00    -0.358 N 
ATOM      5  H   UNL     1      75.586  65.608  89.845  1.00  0.00     0.344 HD
ATOM      6  H   UNL     1      76.738  66.601  89.062  1.00  0.00     0.344 HD
ATOM      7  H   UNL     1      75.153  66.486  88.454  1.00  0.00     0.344 HD
ENDBRANCH   3   4
ENDBRANCH   2   3
ENDBRANCH   1   2
BRANCH   1   8
ATOM      8  C   UNL     1      77.930  61.371  88.935  1.00  0.00     0.072 C 
BRANCH   8   9
ATOM      9  C   UNL     1      79.466  61.199  88.992  1.00  0.00     0.227 C 
BRANCH   9  10
ATOM     10  N   UNL     1      80.066  61.928  90.117  1.00  0.00    -0.350 N 
ATOM     11  H   UNL     1      80.761  62.623  89.760  1.00  0.00     0.345 HD
ATOM     12  H   UNL     1      79.337  62.422  90.680  1.00  0.00     0.345 HD
ATOM     13  H   UNL     1      80.570  61.254  90.739  1.00  0.00     0.345 HD
ENDBRANCH   9  10
BRANCH   9  14
ATOM     14  C   UNL     1      79.859  59.743  89.006  1.00  0.00     0.099 C 
ATOM     15  O   UNL     1      80.112  59.173  90.101  1.00  0.00    -0.544 OA
ATOM     16  O   UNL     1      79.988  59.027  87.822  1.00  0.00    -0.544 OA
ENDBRANCH   9  14
ENDBRANCH   8   9
ENDBRANCH   1   8
TORSDOF 7
ENDMDL
