MODEL 1
REMARK VINA RESULT:    -4.486      0.000      0.000
REMARK INTER + INTRA:          -7.661
REMARK INTER:                  -6.847
REMARK INTRA:                  -0.814
REMARK UNBOUND:                -0.814
REMARK SMILES CCCCCCCCCC=CC(=O)[O-]
REMARK SMILES IDX 7 1 8 2 9 3 10 4 11 5 12 6 13 7 14 8 6 9 5 10 4 11 3 12 2 13
REMARK SMILES IDX 1 14
REMARK H PARENT
REMARK Flexibility Score: inf
ROOT
ATOM      1  C   UNL     1      31.584   8.618  49.064  1.00  0.00     0.000 C 
ENDROOT
BRANCH   1   2
ATOM      2  C   UNL     1      30.390   7.785  48.558  1.00  0.00     0.004 C 
BRANCH   2   3
ATOM      3  C   UNL     1      30.738   6.335  48.179  1.00  0.00     0.027 C 
BRANCH   3   4
ATOM      4  C   UNL     1      31.877   6.250  47.203  1.00  0.00    -0.025 C 
ATOM      5  C   UNL     1      33.052   5.711  47.544  1.00  0.00     0.020 C 
BRANCH   5   6
ATOM      6  C   UNL     1      34.179   5.614  46.603  1.00  0.00     0.064 C 
ATOM      7  O   UNL     1      34.181   6.260  45.521  1.00  0.00    -0.545 OA
ATOM      8  O   UNL     1      35.259   4.797  46.912  1.00  0.00    -0.545 OA
ENDBRANCH   5   6
ENDBRANCH   3   4
ENDBRANCH   2   3
ENDBRANCH   1   2
BRANCH   1   9
ATOM      9  C   UNL     1      31.779   9.972  48.357  1.00  0.00     0.000 C 
BRANCH   9  10
ATOM     10  C   UNL     1      33.254  10.281  48.055  1.00  0.00     0.000 C 
BRANCH  10  11
ATOM     11  C   UNL     1      33.764   9.431  46.885  1.00  0.00    -0.000 C 
BRANCH  11  12
ATOM     12  C   UNL     1      34.757  10.224  46.022  1.00  0.00    -0.000 C 
BRANCH  12  13
ATOM     13  C   UNL     1      34.878   9.664  44.596  1.00  0.00    -0.003 C 
ATOM     14  C   UNL     1      33.829  10.239  43.645  1.00  0.00     0.004 C 
ENDBRANCH  12  13
ENDBRANCH  11  12
ENDBRANCH  10  11
ENDBRANCH   9  10
ENDBRANCH   1   9
TORSDOF 9
ENDMDL
MODEL 2
REMARK VINA RESULT:    -4.251      1.889      4.175
REMARK INTER + INTRA:          -7.301
REMARK INTER:                  -5.875
REMARK INTRA:                  -1.426
REMARK UNBOUND:                -0.814
REMARK SMILES CCCCCCCCCC=CC(=O)[O-]
REMARK SMILES IDX 7 1 8 2 9 3 10 4 11 5 12 6 13 7 14 8 6 9 5 10 4 11 3 12 2 13
REMARK SMILES IDX 1 14
REMARK H PARENT
REMARK Flexibility Score: inf
ROOT
ATOM      1  C   UNL     1      30.999   9.011  48.750  1.00  0.00     0.000 C 
ENDROOT
BRANCH   1   2
ATOM      2  C   UNL     1      32.250   9.865  49.038  1.00  0.00     0.004 C 
BRANCH   2   3
ATOM      3  C   UNL     1      33.584   9.111  48.894  1.00  0.00     0.027 C 
BRANCH   3   4
ATOM      4  C   UNL     1      34.418   9.622  47.754  1.00  0.00    -0.025 C 
ATOM      5  C   UNL     1      33.985   9.564  46.490  1.00  0.00     0.020 C 
BRANCH   5   6
ATOM      6  C   UNL     1      34.784  10.063  45.359  1.00  0.00     0.064 C 
ATOM      7  O   UNL     1      35.449  11.130  45.453  1.00  0.00    -0.545 OA
ATOM      8  O   UNL     1      34.805   9.347  44.170  1.00  0.00    -0.545 OA
ENDBRANCH   5   6
ENDBRANCH   3   4
ENDBRANCH   2   3
ENDBRANCH   1   2
BRANCH   1   9
ATOM      9  C   UNL     1      31.165   7.503  49.013  1.00  0.00     0.000 C 
BRANCH   9  10
ATOM     10  C   UNL     1      30.629   6.634  47.866  1.00  0.00     0.000 C 
BRANCH  10  11
ATOM     11  C   UNL     1      31.755   6.240  46.903  1.00  0.00    -0.000 C 
BRANCH  11  12
ATOM     12  C   UNL     1      32.963   5.678  47.670  1.00  0.00    -0.000 C 
BRANCH  12  13
ATOM     13  C   UNL     1      34.262   5.740  46.853  1.00  0.00    -0.003 C 
ATOM     14  C   UNL     1      34.025   6.143  45.397  1.00  0.00     0.004 C 
ENDBRANCH  12  13
ENDBRANCH  11  12
ENDBRANCH  10  11
ENDBRANCH   9  10
ENDBRANCH   1   9
TORSDOF 9
ENDMDL
MODEL 3
REMARK VINA RESULT:    -4.199      2.648      4.058
REMARK INTER + INTRA:          -7.223
REMARK INTER:                  -6.513
REMARK INTRA:                  -0.710
REMARK UNBOUND:                -0.814
REMARK SMILES CCCCCCCCCC=CC(=O)[O-]
REMARK SMILES IDX 7 1 8 2 9 3 10 4 11 5 12 6 13 7 14 8 6 9 5 10 4 11 3 12 2 13
REMARK SMILES IDX 1 14
REMARK H PARENT
REMARK Flexibility Score: inf
ROOT
ATOM      1  C   UNL     1      33.872   7.495  45.658  1.00  0.00     0.000 C 
ENDROOT
BRANCH   1   2
ATOM      2  C   UNL     1      33.941   6.011  46.067  1.00  0.00     0.004 C 
BRANCH   2   3
ATOM      3  C   UNL     1      33.643   5.743  47.553  1.00  0.00     0.027 C 
BRANCH   3   4
ATOM      4  C   UNL     1      32.371   6.396  48.015  1.00  0.00    -0.025 C 
ATOM      5  C   UNL     1      31.173   5.901  47.689  1.00  0.00     0.020 C 
BRANCH   5   6
ATOM      6  C   UNL     1      29.915   6.521  48.134  1.00  0.00     0.064 C 
ATOM      7  O   UNL     1      29.901   7.680  48.631  1.00  0.00    -0.545 OA
ATOM      8  O   UNL     1      28.724   5.820  48.004  1.00  0.00    -0.545 OA
ENDBRANCH   5   6
ENDBRANCH   3   4
ENDBRANCH   2   3
ENDBRANCH   1   2
BRANCH   1   9
ATOM      9  C   UNL     1      34.250   7.785  44.194  1.00  0.00     0.000 C 
BRANCH   9  10
ATOM     10  C   UNL     1      34.549   9.270  43.937  1.00  0.00     0.000 C 
BRANCH  10  11
ATOM     11  C   UNL     1      34.334  10.102  45.207  1.00  0.00    -0.000 C 
BRANCH  11  12
ATOM     12  C   UNL     1      35.578  10.946  45.528  1.00  0.00    -0.000 C 
BRANCH  12  13
ATOM     13  C   UNL     1      35.841  11.058  47.037  1.00  0.00    -0.003 C 
ATOM     14  C   UNL     1      34.662  10.573  47.880  1.00  0.00     0.004 C 
ENDBRANCH  12  13
ENDBRANCH  11  12
ENDBRANCH  10  11
ENDBRANCH   9  10
ENDBRANCH   1   9
TORSDOF 9
ENDMDL
MODEL 4
REMARK VINA RESULT:    -4.183     16.642     18.034
REMARK INTER + INTRA:          -7.198
REMARK INTER:                  -6.280
REMARK INTRA:                  -0.918
REMARK UNBOUND:                -0.814
REMARK SMILES CCCCCCCCCC=CC(=O)[O-]
REMARK SMILES IDX 7 1 8 2 9 3 10 4 11 5 12 6 13 7 14 8 6 9 5 10 4 11 3 12 2 13
REMARK SMILES IDX 1 14
REMARK H PARENT
REMARK Flexibility Score: inf
ROOT
ATOM      1  C   UNL     1      21.877  10.086  35.844  1.00  0.00     0.000 C 
ENDROOT
BRANCH   1   2
ATOM      2  C   UNL     1      20.371   9.839  35.626  1.00  0.00     0.004 C 
BRANCH   2   3
ATOM      3  C   UNL     1      19.812   8.612  36.368  1.00  0.00     0.027 C 
BRANCH   3   4
ATOM      4  C   UNL     1      19.800   7.375  35.515  1.00  0.00    -0.025 C 
ATOM      5  C   UNL     1      19.805   7.447  34.180  1.00  0.00     0.020 C 
BRANCH   5   6
ATOM      6  C   UNL     1      19.798   6.249  33.326  1.00  0.00     0.064 C 
ATOM      7  O   UNL     1      20.859   5.823  32.793  1.00  0.00    -0.545 OA
ATOM      8  O   UNL     1      18.605   5.575  33.103  1.00  0.00    -0.545 OA
ENDBRANCH   5   6
ENDBRANCH   3   4
ENDBRANCH   2   3
ENDBRANCH   1   2
BRANCH   1   9
ATOM      9  C   UNL     1      22.408  11.413  35.270  1.00  0.00     0.000 C 
BRANCH   9  10
ATOM     10  C   UNL     1      22.162  11.553  33.760  1.00  0.00     0.000 C 
BRANCH  10  11
ATOM     11  C   UNL     1      21.362  12.824  33.450  1.00  0.00    -0.000 C 
BRANCH  11  12
ATOM     12  C   UNL     1      20.769  13.427  34.733  1.00  0.00    -0.000 C 
BRANCH  12  13
ATOM     13  C   UNL     1      19.242  13.273  34.806  1.00  0.00    -0.003 C 
ATOM     14  C   UNL     1      18.739  13.043  36.231  1.00  0.00     0.004 C 
ENDBRANCH  12  13
ENDBRANCH  11  12
ENDBRANCH  10  11
ENDBRANCH   9  10
ENDBRANCH   1   9
TORSDOF 9
ENDMDL
MODEL 5
REMARK VINA RESULT:    -4.143     16.969     18.853
REMARK INTER + INTRA:          -7.138
REMARK INTER:                  -6.392
REMARK INTRA:                  -0.746
REMARK UNBOUND:                -0.814
REMARK SMILES CCCCCCCCCC=CC(=O)[O-]
REMARK SMILES IDX 7 1 8 2 9 3 10 4 11 5 12 6 13 7 14 8 6 9 5 10 4 11 3 12 2 13
REMARK SMILES IDX 1 14
REMARK H PARENT
REMARK Flexibility Score: inf
ROOT
ATOM      1  C   UNL     1      22.037  10.197  35.616  1.00  0.00     0.000 C 
ENDROOT
BRANCH   1   2
ATOM      2  C   UNL     1      22.161  11.733  35.583  1.00  0.00     0.004 C 
BRANCH   2   3
ATOM      3  C   UNL     1      20.818  12.482  35.627  1.00  0.00     0.027 C 
BRANCH   3   4
ATOM      4  C   UNL     1      20.540  13.246  34.363  1.00  0.00    -0.025 C 
ATOM      5  C   UNL     1      21.289  13.082  33.268  1.00  0.00     0.020 C 
BRANCH   5   6
ATOM      6  C   UNL     1      21.032  13.816  32.019  1.00  0.00     0.064 C 
ATOM      7  O   UNL     1      19.905  13.770  31.457  1.00  0.00    -0.545 OA
ATOM      8  O   UNL     1      22.048  14.573  31.449  1.00  0.00    -0.545 OA
ENDBRANCH   5   6
ENDBRANCH   3   4
ENDBRANCH   2   3
ENDBRANCH   1   2
BRANCH   1   9
ATOM      9  C   UNL     1      20.594   9.660  35.621  1.00  0.00     0.000 C 
BRANCH   9  10
ATOM     10  C   UNL     1      20.268   8.812  34.381  1.00  0.00     0.000 C 
BRANCH  10  11
ATOM     11  C   UNL     1      20.380   7.315  34.694  1.00  0.00    -0.000 C 
BRANCH  11  12
ATOM     12  C   UNL     1      19.017   6.620  34.552  1.00  0.00    -0.000 C 
BRANCH  12  13
ATOM     13  C   UNL     1      18.361   6.326  35.910  1.00  0.00    -0.003 C 
ATOM     14  C   UNL     1      19.375   6.243  37.051  1.00  0.00     0.004 C 
ENDBRANCH  12  13
ENDBRANCH  11  12
ENDBRANCH  10  11
ENDBRANCH   9  10
ENDBRANCH   1   9
TORSDOF 9
ENDMDL
MODEL 6
REMARK VINA RESULT:    -4.083     16.745     18.558
REMARK INTER + INTRA:          -7.045
REMARK INTER:                  -6.103
REMARK INTRA:                  -0.942
REMARK UNBOUND:                -0.814
REMARK SMILES CCCCCCCCCC=CC(=O)[O-]
REMARK SMILES IDX 7 1 8 2 9 3 10 4 11 5 12 6 13 7 14 8 6 9 5 10 4 11 3 12 2 13
REMARK SMILES IDX 1 14
REMARK H PARENT
REMARK Flexibility Score: inf
ROOT
ATOM      1  C   UNL     1      22.502  11.732  35.496  1.00  0.00     0.000 C 
ENDROOT
BRANCH   1   2
ATOM      2  C   UNL     1      21.224  12.594  35.533  1.00  0.00     0.004 C 
BRANCH   2   3
ATOM      3  C   UNL     1      20.920  13.342  34.223  1.00  0.00     0.027 C 
BRANCH   3   4
ATOM      4  C   UNL     1      21.522  12.671  33.020  1.00  0.00    -0.025 C 
ATOM      5  C   UNL     1      20.797  11.872  32.230  1.00  0.00     0.020 C 
BRANCH   5   6
ATOM      6  C   UNL     1      21.365  11.209  31.045  1.00  0.00     0.064 C 
ATOM      7  O   UNL     1      22.271  11.759  30.363  1.00  0.00    -0.545 OA
ATOM      8  O   UNL     1      20.896   9.957  30.672  1.00  0.00    -0.545 OA
ENDBRANCH   5   6
ENDBRANCH   3   4
ENDBRANCH   2   3
ENDBRANCH   1   2
BRANCH   1   9
ATOM      9  C   UNL     1      22.273  10.220  35.672  1.00  0.00     0.000 C 
BRANCH   9  10
ATOM     10  C   UNL     1      20.787   9.832  35.633  1.00  0.00     0.000 C 
BRANCH  10  11
ATOM     11  C   UNL     1      20.499   8.883  34.464  1.00  0.00    -0.000 C 
BRANCH  11  12
ATOM     12  C   UNL     1      20.133   7.480  34.972  1.00  0.00    -0.000 C 
BRANCH  12  13
ATOM     13  C   UNL     1      19.330   7.517  36.281  1.00  0.00    -0.003 C 
ATOM     14  C   UNL     1      19.372   6.190  37.039  1.00  0.00     0.004 C 
ENDBRANCH  12  13
ENDBRANCH  11  12
ENDBRANCH  10  11
ENDBRANCH   9  10
ENDBRANCH   1   9
TORSDOF 9
ENDMDL
MODEL 7
REMARK VINA RESULT:    -4.079     16.543     18.058
REMARK INTER + INTRA:          -7.040
REMARK INTER:                  -5.513
REMARK INTRA:                  -1.527
REMARK UNBOUND:                -0.814
REMARK SMILES CCCCCCCCCC=CC(=O)[O-]
REMARK SMILES IDX 7 1 8 2 9 3 10 4 11 5 12 6 13 7 14 8 6 9 5 10 4 11 3 12 2 13
REMARK SMILES IDX 1 14
REMARK H PARENT
REMARK Flexibility Score: inf
ROOT
ATOM      1  C   UNL     1      21.148  10.800  32.203  1.00  0.00     0.000 C 
ENDROOT
BRANCH   1   2
ATOM      2  C   UNL     1      19.897  10.040  32.688  1.00  0.00     0.004 C 
BRANCH   2   3
ATOM      3  C   UNL     1      20.165   8.594  33.142  1.00  0.00     0.027 C 
BRANCH   3   4
ATOM      4  C   UNL     1      19.452   8.247  34.418  1.00  0.00    -0.025 C 
ATOM      5  C   UNL     1      20.081   7.633  35.426  1.00  0.00     0.020 C 
BRANCH   5   6
ATOM      6  C   UNL     1      19.403   7.288  36.685  1.00  0.00     0.064 C 
ATOM      7  O   UNL     1      18.859   6.162  36.845  1.00  0.00    -0.545 OA
ATOM      8  O   UNL     1      19.361   8.218  37.716  1.00  0.00    -0.545 OA
ENDBRANCH   5   6
ENDBRANCH   3   4
ENDBRANCH   2   3
ENDBRANCH   1   2
BRANCH   1   9
ATOM      9  C   UNL     1      21.708  11.832  33.199  1.00  0.00     0.000 C 
BRANCH   9  10
ATOM     10  C   UNL     1      22.631  11.205  34.255  1.00  0.00     0.000 C 
BRANCH  10  11
ATOM     11  C   UNL     1      21.894  11.023  35.588  1.00  0.00    -0.000 C 
BRANCH  11  12
ATOM     12  C   UNL     1      20.874  12.149  35.811  1.00  0.00    -0.000 C 
BRANCH  12  13
ATOM     13  C   UNL     1      19.457  11.618  36.077  1.00  0.00    -0.003 C 
ATOM     14  C   UNL     1      18.390  12.343  35.257  1.00  0.00     0.004 C 
ENDBRANCH  12  13
ENDBRANCH  11  12
ENDBRANCH  10  11
ENDBRANCH   9  10
ENDBRANCH   1   9
TORSDOF 9
ENDMDL
MODEL 8
REMARK VINA RESULT:    -4.028     16.859     18.335
REMARK INTER + INTRA:          -6.961
REMARK INTER:                  -5.423
REMARK INTRA:                  -1.538
REMARK UNBOUND:                -0.814
REMARK SMILES CCCCCCCCCC=CC(=O)[O-]
REMARK SMILES IDX 7 1 8 2 9 3 10 4 11 5 12 6 13 7 14 8 6 9 5 10 4 11 3 12 2 13
REMARK SMILES IDX 1 14
REMARK H PARENT
REMARK Flexibility Score: inf
ROOT
ATOM      1  C   UNL     1      22.098  11.530  35.338  1.00  0.00     0.000 C 
ENDROOT
BRANCH   1   2
ATOM      2  C   UNL     1      21.707  10.065  35.617  1.00  0.00     0.004 C 
BRANCH   2   3
ATOM      3  C   UNL     1      20.200   9.834  35.820  1.00  0.00     0.027 C 
BRANCH   3   4
ATOM      4  C   UNL     1      19.719   8.559  35.186  1.00  0.00    -0.025 C 
ATOM      5  C   UNL     1      20.492   7.860  34.348  1.00  0.00     0.020 C 
BRANCH   5   6
ATOM      6  C   UNL     1      20.043   6.608  33.720  1.00  0.00     0.064 C 
ATOM      7  O   UNL     1      20.833   5.905  33.032  1.00  0.00    -0.545 OA
ATOM      8  O   UNL     1      18.729   6.192  33.887  1.00  0.00    -0.545 OA
ENDBRANCH   5   6
ENDBRANCH   3   4
ENDBRANCH   2   3
ENDBRANCH   1   2
BRANCH   1   9
ATOM      9  C   UNL     1      20.995  12.564  35.628  1.00  0.00     0.000 C 
BRANCH   9  10
ATOM     10  C   UNL     1      20.883  13.641  34.538  1.00  0.00     0.000 C 
BRANCH  10  11
ATOM     11  C   UNL     1      20.684  13.006  33.157  1.00  0.00    -0.000 C 
BRANCH  11  12
ATOM     12  C   UNL     1      19.332  12.281  33.075  1.00  0.00    -0.000 C 
BRANCH  12  13
ATOM     13  C   UNL     1      19.398  11.004  32.223  1.00  0.00    -0.003 C 
ATOM     14  C   UNL     1      20.831  10.570  31.920  1.00  0.00     0.004 C 
ENDBRANCH  12  13
ENDBRANCH  11  12
ENDBRANCH  10  11
ENDBRANCH   9  10
ENDBRANCH   1   9
TORSDOF 9
ENDMDL
MODEL 9
REMARK VINA RESULT:    -4.023     16.607     18.324
REMARK INTER + INTRA:          -6.954
REMARK INTER:                  -5.658
REMARK INTRA:                  -1.296
REMARK UNBOUND:                -0.814
REMARK SMILES CCCCCCCCCC=CC(=O)[O-]
REMARK SMILES IDX 7 1 8 2 9 3 10 4 11 5 12 6 13 7 14 8 6 9 5 10 4 11 3 12 2 13
REMARK SMILES IDX 1 14
REMARK H PARENT
REMARK Flexibility Score: inf
ROOT
ATOM      1  C   UNL     1      20.350  12.864  31.963  1.00  0.00     0.000 C 
ENDROOT
BRANCH   1   2
ATOM      2  C   UNL     1      20.668  11.377  31.705  1.00  0.00     0.004 C 
BRANCH   2   3
ATOM      3  C   UNL     1      19.702  10.391  32.384  1.00  0.00     0.027 C 
BRANCH   3   4
ATOM      4  C   UNL     1      20.353   9.077  32.713  1.00  0.00    -0.025 C 
ATOM      5  C   UNL     1      19.824   8.241  33.613  1.00  0.00     0.020 C 
BRANCH   5   6
ATOM      6  C   UNL     1      20.443   6.948  33.947  1.00  0.00     0.064 C 
ATOM      7  O   UNL     1      20.583   6.049  33.074  1.00  0.00    -0.545 OA
ATOM      8  O   UNL     1      20.880   6.715  35.244  1.00  0.00    -0.545 OA
ENDBRANCH   5   6
ENDBRANCH   3   4
ENDBRANCH   2   3
ENDBRANCH   1   2
BRANCH   1   9
ATOM      9  C   UNL     1      21.209  13.534  33.050  1.00  0.00     0.000 C 
BRANCH   9  10
ATOM     10  C   UNL     1      20.580  13.447  34.449  1.00  0.00     0.000 C 
BRANCH  10  11
ATOM     11  C   UNL     1      21.513  12.723  35.427  1.00  0.00    -0.000 C 
BRANCH  11  12
ATOM     12  C   UNL     1      21.032  11.286  35.684  1.00  0.00    -0.000 C 
BRANCH  12  13
ATOM     13  C   UNL     1      22.178  10.264  35.643  1.00  0.00    -0.003 C 
ATOM     14  C   UNL     1      23.523  10.898  35.290  1.00  0.00     0.004 C 
ENDBRANCH  12  13
ENDBRANCH  11  12
ENDBRANCH  10  11
ENDBRANCH   9  10
ENDBRANCH   1   9
TORSDOF 9
ENDMDL
