MODEL 1
REMARK VINA RESULT:    -6.790      0.000      0.000
REMARK INTER + INTRA:         -10.471
REMARK INTER:                  -8.973
REMARK INTRA:                  -1.498
REMARK UNBOUND:                -1.498
REMARK SMILES CC[C@@H](C=C[C@H](C)[C@H]1CC[C@@H]2C3=CC[C@H]4C[C@@H](O)CC[C@]4(C)[C@@H]3CC[C@]21C)C(C)C
REMARK SMILES IDX 6 1 7 2 5 3 4 4 3 5 2 6 1 7 28 8 29 9 30 10 8 11 9 12 26 13
REMARK SMILES IDX 10 14 11 15 25 16 27 17 12 18 24 19 23 20 13 21 21 22 14 23
REMARK SMILES IDX 15 24 20 25 22 26 16 27 19 28 17 29 18 30
REMARK H PARENT 18 31
REMARK Flexibility Score: inf
ROOT
ATOM      1  C   UNL     1      55.517 -42.843 -28.566  1.00  0.00     0.012 C 
ATOM      2  C   UNL     1      56.524 -44.000 -28.741  1.00  0.00     0.012 C 
ENDROOT
BRANCH   1   3
ATOM      3  C   UNL     1      54.401 -43.013 -29.577  1.00  0.00    -0.028 C 
ATOM      4  C   UNL     1      53.111 -42.853 -29.237  1.00  0.00    -0.027 C 
BRANCH   4   5
ATOM      5  C   UNL     1      52.000 -43.033 -30.253  1.00  0.00     0.014 C 
BRANCH   5   6
ATOM      6  C   UNL     1      51.762 -41.755 -31.112  1.00  0.00     0.004 C 
ATOM      7  C   UNL     1      51.859 -40.422 -30.357  1.00  0.00     0.004 C 
ENDBRANCH   5   6
BRANCH   5   8
ATOM      8  C   UNL     1      50.716 -43.632 -29.594  1.00  0.00    -0.011 C 
ATOM      9  C   UNL     1      49.449 -43.323 -30.408  1.00  0.00     0.008 C 
ATOM     10  C   UNL     1      50.513 -43.221 -28.129  1.00  0.00     0.008 C 
ENDBRANCH   5   8
ENDBRANCH   4   5
ENDBRANCH   1   3
BRANCH   1  11
ATOM     11  C   UNL     1      54.910 -42.670 -27.127  1.00  0.00     0.002 C 
ATOM     12  C   UNL     1      55.617 -43.535 -26.044  1.00  0.00     0.005 C 
ATOM     13  C   UNL     1      54.867 -41.235 -26.513  1.00  0.00    -0.023 C 
ATOM     14  C   UNL     1      56.230 -42.572 -25.011  1.00  0.00     0.009 C 
ATOM     15  C   UNL     1      56.150 -41.201 -25.679  1.00  0.00     0.021 C 
ATOM     16  C   UNL     1      54.868 -40.024 -27.491  1.00  0.00     0.008 C 
ATOM     17  C   UNL     1      53.589 -41.139 -25.615  1.00  0.00     0.012 C 
ATOM     18  C   UNL     1      56.224 -39.911 -24.891  1.00  0.00    -0.067 C 
ATOM     19  C   UNL     1      55.054 -38.670 -26.750  1.00  0.00     0.009 C 
ATOM     20  C   UNL     1      56.278 -38.662 -25.779  1.00  0.00     0.021 C 
ATOM     21  C   UNL     1      55.990 -39.856 -23.559  1.00  0.00    -0.027 C 
ATOM     22  C   UNL     1      56.490 -37.334 -24.951  1.00  0.00    -0.023 C 
ATOM     23  C   UNL     1      55.893 -38.568 -22.790  1.00  0.00     0.031 C 
ATOM     24  C   UNL     1      55.563 -37.370 -23.695  1.00  0.00     0.002 C 
ATOM     25  C   UNL     1      56.148 -36.063 -25.790  1.00  0.00     0.010 C 
ATOM     26  C   UNL     1      57.998 -37.274 -24.553  1.00  0.00     0.012 C 
ATOM     27  C   UNL     1      55.596 -36.056 -22.881  1.00  0.00     0.036 C 
ATOM     28  C   UNL     1      56.218 -34.768 -24.969  1.00  0.00     0.032 C 
ATOM     29  C   UNL     1      55.276 -34.834 -23.760  1.00  0.00     0.114 C 
BRANCH  29  30
ATOM     30  O   UNL     1      55.412 -33.657 -23.009  1.00  0.00    -0.393 OA
ATOM     31  H   UNL     1      55.983 -33.043 -23.539  1.00  0.00     0.210 HD
ENDBRANCH  29  30
ENDBRANCH   1  11
TORSDOF 6
ENDMDL
MODEL 2
REMARK VINA RESULT:    -6.584      3.373      6.655
REMARK INTER + INTRA:         -10.199
REMARK INTER:                  -8.904
REMARK INTRA:                  -1.295
REMARK UNBOUND:                -1.498
REMARK SMILES CC[C@@H](C=C[C@H](C)[C@H]1CC[C@@H]2C3=CC[C@H]4C[C@@H](O)CC[C@]4(C)[C@@H]3CC[C@]21C)C(C)C
REMARK SMILES IDX 6 1 7 2 5 3 4 4 3 5 2 6 1 7 28 8 29 9 30 10 8 11 9 12 26 13
REMARK SMILES IDX 10 14 11 15 25 16 27 17 12 18 24 19 23 20 13 21 21 22 14 23
REMARK SMILES IDX 15 24 20 25 22 26 16 27 19 28 17 29 18 30
REMARK H PARENT 18 31
REMARK Flexibility Score: inf
ROOT
ATOM      1  C   UNL     1      53.961 -39.317 -23.321  1.00  0.00     0.012 C 
ATOM      2  C   UNL     1      52.858 -38.253 -23.518  1.00  0.00     0.012 C 
ENDROOT
BRANCH   1   3
ATOM      3  C   UNL     1      53.352 -40.690 -23.523  1.00  0.00    -0.028 C 
ATOM      4  C   UNL     1      52.059 -40.846 -23.854  1.00  0.00    -0.027 C 
BRANCH   4   5
ATOM      5  C   UNL     1      51.455 -42.223 -24.047  1.00  0.00     0.014 C 
BRANCH   5   6
ATOM      6  C   UNL     1      51.394 -42.645 -25.545  1.00  0.00     0.004 C 
ATOM      7  C   UNL     1      52.614 -43.417 -26.066  1.00  0.00     0.004 C 
ENDBRANCH   5   6
BRANCH   5   8
ATOM      8  C   UNL     1      50.110 -42.371 -23.265  1.00  0.00    -0.011 C 
ATOM      9  C   UNL     1      50.218 -41.840 -21.826  1.00  0.00     0.008 C 
ATOM     10  C   UNL     1      49.541 -43.796 -23.258  1.00  0.00     0.008 C 
ENDBRANCH   5   8
ENDBRANCH   4   5
ENDBRANCH   1   3
BRANCH   1  11
ATOM     11  C   UNL     1      55.236 -39.160 -24.225  1.00  0.00     0.002 C 
ATOM     12  C   UNL     1      56.383 -40.145 -23.862  1.00  0.00     0.005 C 
ATOM     13  C   UNL     1      55.066 -39.311 -25.770  1.00  0.00    -0.023 C 
ATOM     14  C   UNL     1      56.629 -41.042 -25.088  1.00  0.00     0.009 C 
ATOM     15  C   UNL     1      55.425 -40.782 -25.993  1.00  0.00     0.021 C 
ATOM     16  C   UNL     1      53.661 -39.037 -26.379  1.00  0.00     0.008 C 
ATOM     17  C   UNL     1      56.095 -38.353 -26.458  1.00  0.00     0.012 C 
ATOM     18  C   UNL     1      55.442 -41.095 -27.473  1.00  0.00    -0.067 C 
ATOM     19  C   UNL     1      53.579 -39.443 -27.877  1.00  0.00     0.009 C 
ATOM     20  C   UNL     1      54.080 -40.898 -28.149  1.00  0.00     0.021 C 
ATOM     21  C   UNL     1      56.590 -41.262 -28.169  1.00  0.00    -0.027 C 
ATOM     22  C   UNL     1      54.078 -41.355 -29.660  1.00  0.00    -0.023 C 
ATOM     23  C   UNL     1      56.636 -41.407 -29.666  1.00  0.00     0.031 C 
ATOM     24  C   UNL     1      55.381 -40.837 -30.346  1.00  0.00     0.002 C 
ATOM     25  C   UNL     1      52.846 -40.793 -30.437  1.00  0.00     0.010 C 
ATOM     26  C   UNL     1      54.002 -42.914 -29.671  1.00  0.00     0.012 C 
ATOM     27  C   UNL     1      55.418 -41.118 -31.866  1.00  0.00     0.036 C 
ATOM     28  C   UNL     1      52.889 -41.113 -31.938  1.00  0.00     0.032 C 
ATOM     29  C   UNL     1      54.172 -40.566 -32.578  1.00  0.00     0.114 C 
BRANCH  29  30
ATOM     30  O   UNL     1      54.197 -40.926 -33.933  1.00  0.00    -0.393 OA
ATOM     31  H   UNL     1      54.848 -40.323 -34.378  1.00  0.00     0.210 HD
ENDBRANCH  29  30
ENDBRANCH   1  11
TORSDOF 6
ENDMDL
MODEL 3
REMARK VINA RESULT:    -6.414      1.747      3.406
REMARK INTER + INTRA:          -9.974
REMARK INTER:                  -8.668
REMARK INTRA:                  -1.306
REMARK UNBOUND:                -1.498
REMARK SMILES CC[C@@H](C=C[C@H](C)[C@H]1CC[C@@H]2C3=CC[C@H]4C[C@@H](O)CC[C@]4(C)[C@@H]3CC[C@]21C)C(C)C
REMARK SMILES IDX 6 1 7 2 5 3 4 4 3 5 2 6 1 7 28 8 29 9 30 10 8 11 9 12 26 13
REMARK SMILES IDX 10 14 11 15 25 16 27 17 12 18 24 19 23 20 13 21 21 22 14 23
REMARK SMILES IDX 15 24 20 25 22 26 16 27 19 28 17 29 18 30
REMARK H PARENT 18 31
REMARK Flexibility Score: inf
ROOT
ATOM      1  C   UNL     1      55.466 -43.732 -27.501  1.00  0.00     0.012 C 
ATOM      2  C   UNL     1      56.040 -44.120 -26.121  1.00  0.00     0.012 C 
ENDROOT
BRANCH   1   3
ATOM      3  C   UNL     1      53.975 -44.001 -27.499  1.00  0.00    -0.028 C 
ATOM      4  C   UNL     1      53.230 -43.836 -26.393  1.00  0.00    -0.027 C 
BRANCH   4   5
ATOM      5  C   UNL     1      51.739 -44.114 -26.397  1.00  0.00     0.014 C 
BRANCH   5   6
ATOM      6  C   UNL     1      51.129 -44.088 -27.830  1.00  0.00     0.004 C 
ATOM      7  C   UNL     1      50.658 -42.713 -28.323  1.00  0.00     0.004 C 
ENDBRANCH   5   6
BRANCH   5   8
ATOM      8  C   UNL     1      50.992 -43.232 -25.346  1.00  0.00    -0.011 C 
ATOM      9  C   UNL     1      51.932 -42.219 -24.669  1.00  0.00     0.008 C 
ATOM     10  C   UNL     1      50.229 -44.033 -24.282  1.00  0.00     0.008 C 
ENDBRANCH   5   8
ENDBRANCH   4   5
ENDBRANCH   1   3
BRANCH   1  11
ATOM     11  C   UNL     1      55.741 -42.258 -27.971  1.00  0.00     0.002 C 
ATOM     12  C   UNL     1      54.711 -41.731 -29.010  1.00  0.00     0.005 C 
ATOM     13  C   UNL     1      55.807 -41.139 -26.884  1.00  0.00    -0.023 C 
ATOM     14  C   UNL     1      53.992 -40.526 -28.378  1.00  0.00     0.009 C 
ATOM     15  C   UNL     1      54.379 -40.587 -26.902  1.00  0.00     0.021 C 
ATOM     16  C   UNL     1      56.168 -41.557 -25.429  1.00  0.00     0.008 C 
ATOM     17  C   UNL     1      56.847 -40.072 -27.361  1.00  0.00     0.012 C 
ATOM     18  C   UNL     1      54.275 -39.386 -25.987  1.00  0.00    -0.067 C 
ATOM     19  C   UNL     1      55.974 -40.393 -24.417  1.00  0.00     0.009 C 
ATOM     20  C   UNL     1      54.569 -39.717 -24.518  1.00  0.00     0.021 C 
ATOM     21  C   UNL     1      54.201 -38.118 -26.454  1.00  0.00    -0.027 C 
ATOM     22  C   UNL     1      54.326 -38.488 -23.557  1.00  0.00    -0.023 C 
ATOM     23  C   UNL     1      54.266 -36.905 -25.566  1.00  0.00     0.031 C 
ATOM     24  C   UNL     1      54.929 -37.207 -24.213  1.00  0.00     0.002 C 
ATOM     25  C   UNL     1      54.994 -38.699 -22.162  1.00  0.00     0.010 C 
ATOM     26  C   UNL     1      52.784 -38.360 -23.352  1.00  0.00     0.012 C 
ATOM     27  C   UNL     1      54.862 -35.966 -23.293  1.00  0.00     0.036 C 
ATOM     28  C   UNL     1      54.886 -37.465 -21.254  1.00  0.00     0.032 C 
ATOM     29  C   UNL     1      55.512 -36.236 -21.925  1.00  0.00     0.114 C 
BRANCH  29  30
ATOM     30  O   UNL     1      55.343 -35.122 -21.089  1.00  0.00    -0.393 OA
ATOM     31  H   UNL     1      54.911 -34.416 -21.635  1.00  0.00     0.210 HD
ENDBRANCH  29  30
ENDBRANCH   1  11
TORSDOF 6
ENDMDL
MODEL 4
REMARK VINA RESULT:    -6.411      2.660      4.300
REMARK INTER + INTRA:          -9.971
REMARK INTER:                  -8.740
REMARK INTRA:                  -1.231
REMARK UNBOUND:                -1.498
REMARK SMILES CC[C@@H](C=C[C@H](C)[C@H]1CC[C@@H]2C3=CC[C@H]4C[C@@H](O)CC[C@]4(C)[C@@H]3CC[C@]21C)C(C)C
REMARK SMILES IDX 6 1 7 2 5 3 4 4 3 5 2 6 1 7 28 8 29 9 30 10 8 11 9 12 26 13
REMARK SMILES IDX 10 14 11 15 25 16 27 17 12 18 24 19 23 20 13 21 21 22 14 23
REMARK SMILES IDX 15 24 20 25 22 26 16 27 19 28 17 29 18 30
REMARK H PARENT 18 31
REMARK Flexibility Score: inf
ROOT
ATOM      1  C   UNL     1      55.672 -42.058 -26.715  1.00  0.00     0.012 C 
ATOM      2  C   UNL     1      56.114 -43.292 -25.898  1.00  0.00     0.012 C 
ENDROOT
BRANCH   1   3
ATOM      3  C   UNL     1      54.161 -41.956 -26.660  1.00  0.00    -0.028 C 
ATOM      4  C   UNL     1      53.407 -42.934 -26.131  1.00  0.00    -0.027 C 
BRANCH   4   5
ATOM      5  C   UNL     1      51.895 -42.828 -26.086  1.00  0.00     0.014 C 
BRANCH   5   6
ATOM      6  C   UNL     1      51.358 -41.593 -26.870  1.00  0.00     0.004 C 
ATOM      7  C   UNL     1      50.071 -41.827 -27.673  1.00  0.00     0.004 C 
ENDBRANCH   5   6
BRANCH   5   8
ATOM      8  C   UNL     1      51.357 -42.967 -24.626  1.00  0.00    -0.011 C 
ATOM      9  C   UNL     1      50.110 -43.864 -24.552  1.00  0.00     0.008 C 
ATOM     10  C   UNL     1      51.084 -41.628 -23.927  1.00  0.00     0.008 C 
ENDBRANCH   5   8
ENDBRANCH   4   5
ENDBRANCH   1   3
BRANCH   1  11
ATOM     11  C   UNL     1      56.315 -40.688 -26.293  1.00  0.00     0.002 C 
ATOM     12  C   UNL     1      56.212 -39.587 -27.387  1.00  0.00     0.005 C 
ATOM     13  C   UNL     1      55.791 -39.997 -24.995  1.00  0.00    -0.023 C 
ATOM     14  C   UNL     1      55.371 -38.436 -26.807  1.00  0.00     0.009 C 
ATOM     15  C   UNL     1      54.746 -39.024 -25.544  1.00  0.00     0.021 C 
ATOM     16  C   UNL     1      55.126 -40.894 -23.910  1.00  0.00     0.008 C 
ATOM     17  C   UNL     1      56.995 -39.244 -24.337  1.00  0.00     0.012 C 
ATOM     18  C   UNL     1      54.205 -38.157 -24.428  1.00  0.00    -0.067 C 
ATOM     19  C   UNL     1      54.452 -40.057 -22.787  1.00  0.00     0.009 C 
ATOM     20  C   UNL     1      53.487 -38.957 -23.334  1.00  0.00     0.021 C 
ATOM     21  C   UNL     1      54.556 -36.859 -24.279  1.00  0.00    -0.027 C 
ATOM     22  C   UNL     1      52.813 -38.031 -22.247  1.00  0.00    -0.023 C 
ATOM     23  C   UNL     1      54.165 -36.028 -23.087  1.00  0.00     0.031 C 
ATOM     24  C   UNL     1      53.809 -36.892 -21.866  1.00  0.00     0.002 C 
ATOM     25  C   UNL     1      52.442 -38.825 -20.955  1.00  0.00     0.010 C 
ATOM     26  C   UNL     1      51.500 -37.465 -22.873  1.00  0.00     0.012 C 
ATOM     27  C   UNL     1      53.297 -36.001 -20.710  1.00  0.00     0.036 C 
ATOM     28  C   UNL     1      51.907 -37.925 -19.832  1.00  0.00     0.032 C 
ATOM     29  C   UNL     1      52.924 -36.835 -19.472  1.00  0.00     0.114 C 
BRANCH  29  30
ATOM     30  O   UNL     1      52.375 -36.004 -18.485  1.00  0.00    -0.393 OA
ATOM     31  H   UNL     1      52.538 -36.448 -17.612  1.00  0.00     0.210 HD
ENDBRANCH  29  30
ENDBRANCH   1  11
TORSDOF 6
ENDMDL
MODEL 5
REMARK VINA RESULT:    -6.295      1.756      3.098
REMARK INTER + INTRA:          -9.818
REMARK INTER:                  -8.708
REMARK INTRA:                  -1.110
REMARK UNBOUND:                -1.498
REMARK SMILES CC[C@@H](C=C[C@H](C)[C@H]1CC[C@@H]2C3=CC[C@H]4C[C@@H](O)CC[C@]4(C)[C@@H]3CC[C@]21C)C(C)C
REMARK SMILES IDX 6 1 7 2 5 3 4 4 3 5 2 6 1 7 28 8 29 9 30 10 8 11 9 12 26 13
REMARK SMILES IDX 10 14 11 15 25 16 27 17 12 18 24 19 23 20 13 21 21 22 14 23
REMARK SMILES IDX 15 24 20 25 22 26 16 27 19 28 17 29 18 30
REMARK H PARENT 18 31
REMARK Flexibility Score: inf
ROOT
ATOM      1  C   UNL     1      52.918 -43.186 -28.517  1.00  0.00     0.012 C 
ATOM      2  C   UNL     1      51.411 -43.286 -28.839  1.00  0.00     0.012 C 
ENDROOT
BRANCH   1   3
ATOM      3  C   UNL     1      53.504 -42.026 -29.295  1.00  0.00    -0.028 C 
ATOM      4  C   UNL     1      54.405 -42.217 -30.274  1.00  0.00    -0.027 C 
BRANCH   4   5
ATOM      5  C   UNL     1      54.992 -41.049 -31.044  1.00  0.00     0.014 C 
BRANCH   5   6
ATOM      6  C   UNL     1      54.666 -41.110 -32.566  1.00  0.00     0.004 C 
ATOM      7  C   UNL     1      54.980 -39.835 -33.361  1.00  0.00     0.004 C 
ENDBRANCH   5   6
BRANCH   5   8
ATOM      8  C   UNL     1      56.503 -40.844 -30.702  1.00  0.00    -0.011 C 
ATOM      9  C   UNL     1      57.061 -41.989 -29.839  1.00  0.00     0.008 C 
ATOM     10  C   UNL     1      56.821 -39.492 -30.049  1.00  0.00     0.008 C 
ENDBRANCH   5   8
ENDBRANCH   4   5
ENDBRANCH   1   3
BRANCH   1  11
ATOM     11  C   UNL     1      53.289 -43.051 -26.997  1.00  0.00     0.002 C 
ATOM     12  C   UNL     1      54.398 -44.039 -26.535  1.00  0.00     0.005 C 
ATOM     13  C   UNL     1      53.766 -41.659 -26.476  1.00  0.00    -0.023 C 
ATOM     14  C   UNL     1      55.597 -43.199 -26.059  1.00  0.00     0.009 C 
ATOM     15  C   UNL     1      55.289 -41.787 -26.554  1.00  0.00     0.021 C 
ATOM     16  C   UNL     1      53.324 -40.394 -27.269  1.00  0.00     0.008 C 
ATOM     17  C   UNL     1      53.272 -41.508 -24.998  1.00  0.00     0.012 C 
ATOM     18  C   UNL     1      55.946 -40.560 -25.961  1.00  0.00    -0.067 C 
ATOM     19  C   UNL     1      54.051 -39.110 -26.779  1.00  0.00     0.009 C 
ATOM     20  C   UNL     1      55.604 -39.268 -26.713  1.00  0.00     0.021 C 
ATOM     21  C   UNL     1      56.541 -40.567 -24.746  1.00  0.00    -0.027 C 
ATOM     22  C   UNL     1      56.399 -38.018 -26.168  1.00  0.00    -0.023 C 
ATOM     23  C   UNL     1      57.050 -39.326 -24.067  1.00  0.00     0.031 C 
ATOM     24  C   UNL     1      56.383 -38.050 -24.608  1.00  0.00     0.002 C 
ATOM     25  C   UNL     1      55.769 -36.672 -26.647  1.00  0.00     0.010 C 
ATOM     26  C   UNL     1      57.851 -38.113 -26.732  1.00  0.00     0.012 C 
ATOM     27  C   UNL     1      57.025 -36.796 -23.969  1.00  0.00     0.036 C 
ATOM     28  C   UNL     1      56.444 -35.441 -26.025  1.00  0.00     0.032 C 
ATOM     29  C   UNL     1      56.384 -35.500 -24.493  1.00  0.00     0.114 C 
BRANCH  29  30
ATOM     30  O   UNL     1      57.058 -34.388 -23.966  1.00  0.00    -0.393 OA
ATOM     31  H   UNL     1      57.287 -34.611 -23.026  1.00  0.00     0.210 HD
ENDBRANCH  29  30
ENDBRANCH   1  11
TORSDOF 6
ENDMDL
MODEL 6
REMARK VINA RESULT:    -6.231      3.045      5.196
REMARK INTER + INTRA:          -9.732
REMARK INTER:                  -8.274
REMARK INTRA:                  -1.458
REMARK UNBOUND:                -1.498
REMARK SMILES CC[C@@H](C=C[C@H](C)[C@H]1CC[C@@H]2C3=CC[C@H]4C[C@@H](O)CC[C@]4(C)[C@@H]3CC[C@]21C)C(C)C
REMARK SMILES IDX 6 1 7 2 5 3 4 4 3 5 2 6 1 7 28 8 29 9 30 10 8 11 9 12 26 13
REMARK SMILES IDX 10 14 11 15 25 16 27 17 12 18 24 19 23 20 13 21 21 22 14 23
REMARK SMILES IDX 15 24 20 25 22 26 16 27 19 28 17 29 18 30
REMARK H PARENT 18 31
REMARK Flexibility Score: inf
ROOT
ATOM      1  C   UNL     1      56.192 -38.503 -27.299  1.00  0.00     0.012 C 
ATOM      2  C   UNL     1      57.005 -37.575 -28.227  1.00  0.00     0.012 C 
ENDROOT
BRANCH   1   3
ATOM      3  C   UNL     1      56.063 -39.860 -27.961  1.00  0.00    -0.028 C 
ATOM      4  C   UNL     1      56.488 -40.982 -27.357  1.00  0.00    -0.027 C 
BRANCH   4   5
ATOM      5  C   UNL     1      56.363 -42.336 -28.030  1.00  0.00     0.014 C 
BRANCH   5   6
ATOM      6  C   UNL     1      55.977 -42.223 -29.535  1.00  0.00     0.004 C 
ATOM      7  C   UNL     1      55.134 -43.379 -30.090  1.00  0.00     0.004 C 
ENDBRANCH   5   6
BRANCH   5   8
ATOM      8  C   UNL     1      55.471 -43.308 -27.192  1.00  0.00    -0.011 C 
ATOM      9  C   UNL     1      54.292 -42.580 -26.525  1.00  0.00     0.008 C 
ATOM     10  C   UNL     1      56.244 -44.125 -26.147  1.00  0.00     0.008 C 
ENDBRANCH   5   8
ENDBRANCH   4   5
ENDBRANCH   1   3
BRANCH   1  11
ATOM     11  C   UNL     1      56.747 -38.673 -25.839  1.00  0.00     0.002 C 
ATOM     12  C   UNL     1      57.754 -37.564 -25.421  1.00  0.00     0.005 C 
ATOM     13  C   UNL     1      55.721 -38.731 -24.663  1.00  0.00    -0.023 C 
ATOM     14  C   UNL     1      57.144 -36.812 -24.224  1.00  0.00     0.009 C 
ATOM     15  C   UNL     1      55.689 -37.277 -24.189  1.00  0.00     0.021 C 
ATOM     16  C   UNL     1      54.268 -39.189 -24.986  1.00  0.00     0.008 C 
ATOM     17  C   UNL     1      56.304 -39.686 -23.569  1.00  0.00     0.012 C 
ATOM     18  C   UNL     1      54.829 -37.153 -22.949  1.00  0.00    -0.067 C 
ATOM     19  C   UNL     1      53.306 -38.982 -23.783  1.00  0.00     0.009 C 
ATOM     20  C   UNL     1      53.364 -37.539 -23.188  1.00  0.00     0.021 C 
ATOM     21  C   UNL     1      55.353 -36.986 -21.713  1.00  0.00    -0.027 C 
ATOM     22  C   UNL     1      52.452 -37.277 -21.926  1.00  0.00    -0.023 C 
ATOM     23  C   UNL     1      54.531 -37.028 -20.454  1.00  0.00     0.031 C 
ATOM     24  C   UNL     1      53.201 -37.775 -20.650  1.00  0.00     0.002 C 
ATOM     25  C   UNL     1      51.087 -38.027 -22.029  1.00  0.00     0.010 C 
ATOM     26  C   UNL     1      52.172 -35.743 -21.868  1.00  0.00     0.012 C 
ATOM     27  C   UNL     1      52.341 -37.686 -19.369  1.00  0.00     0.036 C 
ATOM     28  C   UNL     1      50.236 -37.897 -20.757  1.00  0.00     0.032 C 
ATOM     29  C   UNL     1      50.998 -38.419 -19.533  1.00  0.00     0.114 C 
BRANCH  29  30
ATOM     30  O   UNL     1      50.209 -38.231 -18.388  1.00  0.00    -0.393 OA
ATOM     31  H   UNL     1      50.822 -38.268 -17.608  1.00  0.00     0.210 HD
ENDBRANCH  29  30
ENDBRANCH   1  11
TORSDOF 6
ENDMDL
MODEL 7
REMARK VINA RESULT:    -6.215      1.688      3.015
REMARK INTER + INTRA:          -9.712
REMARK INTER:                  -9.207
REMARK INTRA:                  -0.504
REMARK UNBOUND:                -1.498
REMARK SMILES CC[C@@H](C=C[C@H](C)[C@H]1CC[C@@H]2C3=CC[C@H]4C[C@@H](O)CC[C@]4(C)[C@@H]3CC[C@]21C)C(C)C
REMARK SMILES IDX 6 1 7 2 5 3 4 4 3 5 2 6 1 7 28 8 29 9 30 10 8 11 9 12 26 13
REMARK SMILES IDX 10 14 11 15 25 16 27 17 12 18 24 19 23 20 13 21 21 22 14 23
REMARK SMILES IDX 15 24 20 25 22 26 16 27 19 28 17 29 18 30
REMARK H PARENT 18 31
REMARK Flexibility Score: inf
ROOT
ATOM      1  C   UNL     1      54.111 -43.557 -27.465  1.00  0.00     0.012 C 
ATOM      2  C   UNL     1      52.920 -43.983 -26.579  1.00  0.00     0.012 C 
ENDROOT
BRANCH   1   3
ATOM      3  C   UNL     1      53.644 -42.475 -28.419  1.00  0.00    -0.028 C 
ATOM      4  C   UNL     1      54.045 -42.445 -29.701  1.00  0.00    -0.027 C 
BRANCH   4   5
ATOM      5  C   UNL     1      53.578 -41.356 -30.647  1.00  0.00     0.014 C 
BRANCH   5   6
ATOM      6  C   UNL     1      52.106 -41.559 -31.116  1.00  0.00     0.004 C 
ATOM      7  C   UNL     1      51.047 -40.775 -30.329  1.00  0.00     0.004 C 
ENDBRANCH   5   6
BRANCH   5   8
ATOM      8  C   UNL     1      54.610 -41.121 -31.797  1.00  0.00    -0.011 C 
ATOM      9  C   UNL     1      55.899 -40.452 -31.290  1.00  0.00     0.008 C 
ATOM     10  C   UNL     1      54.049 -40.340 -32.994  1.00  0.00     0.008 C 
ENDBRANCH   5   8
ENDBRANCH   4   5
ENDBRANCH   1   3
BRANCH   1  11
ATOM     11  C   UNL     1      55.398 -43.076 -26.703  1.00  0.00     0.002 C 
ATOM     12  C   UNL     1      56.574 -42.692 -27.644  1.00  0.00     0.005 C 
ATOM     13  C   UNL     1      55.266 -41.864 -25.728  1.00  0.00    -0.023 C 
ATOM     14  C   UNL     1      56.879 -41.200 -27.419  1.00  0.00     0.009 C 
ATOM     15  C   UNL     1      55.686 -40.689 -26.614  1.00  0.00     0.021 C 
ATOM     16  C   UNL     1      53.864 -41.565 -25.123  1.00  0.00     0.008 C 
ATOM     17  C   UNL     1      56.271 -42.089 -24.549  1.00  0.00     0.012 C 
ATOM     18  C   UNL     1      55.746 -39.416 -25.796  1.00  0.00    -0.067 C 
ATOM     19  C   UNL     1      53.829 -40.210 -24.361  1.00  0.00     0.009 C 
ATOM     20  C   UNL     1      54.391 -39.017 -25.199  1.00  0.00     0.021 C 
ATOM     21  C   UNL     1      56.913 -38.852 -25.412  1.00  0.00    -0.027 C 
ATOM     22  C   UNL     1      54.438 -37.621 -24.463  1.00  0.00    -0.023 C 
ATOM     23  C   UNL     1      56.996 -37.687 -24.464  1.00  0.00     0.031 C 
ATOM     24  C   UNL     1      55.734 -37.551 -23.596  1.00  0.00     0.002 C 
ATOM     25  C   UNL     1      53.201 -37.411 -23.533  1.00  0.00     0.010 C 
ATOM     26  C   UNL     1      54.421 -36.517 -25.566  1.00  0.00     0.012 C 
ATOM     27  C   UNL     1      55.814 -36.274 -22.728  1.00  0.00     0.036 C 
ATOM     28  C   UNL     1      53.288 -36.120 -22.706  1.00  0.00     0.032 C 
ATOM     29  C   UNL     1      54.562 -36.103 -21.851  1.00  0.00     0.114 C 
BRANCH  29  30
ATOM     30  O   UNL     1      54.629 -34.886 -21.155  1.00  0.00    -0.393 OA
ATOM     31  H   UNL     1      53.822 -34.840 -20.579  1.00  0.00     0.210 HD
ENDBRANCH  29  30
ENDBRANCH   1  11
TORSDOF 6
ENDMDL
MODEL 8
REMARK VINA RESULT:    -6.172      1.524      2.693
REMARK INTER + INTRA:          -9.654
REMARK INTER:                  -9.163
REMARK INTRA:                  -0.491
REMARK UNBOUND:                -1.498
REMARK SMILES CC[C@@H](C=C[C@H](C)[C@H]1CC[C@@H]2C3=CC[C@H]4C[C@@H](O)CC[C@]4(C)[C@@H]3CC[C@]21C)C(C)C
REMARK SMILES IDX 6 1 7 2 5 3 4 4 3 5 2 6 1 7 28 8 29 9 30 10 8 11 9 12 26 13
REMARK SMILES IDX 10 14 11 15 25 16 27 17 12 18 24 19 23 20 13 21 21 22 14 23
REMARK SMILES IDX 15 24 20 25 22 26 16 27 19 28 17 29 18 30
REMARK H PARENT 18 31
REMARK Flexibility Score: inf
ROOT
ATOM      1  C   UNL     1      53.031 -43.561 -26.787  1.00  0.00     0.012 C 
ATOM      2  C   UNL     1      51.943 -43.088 -25.799  1.00  0.00     0.012 C 
ENDROOT
BRANCH   1   3
ATOM      3  C   UNL     1      52.590 -43.216 -28.195  1.00  0.00    -0.028 C 
ATOM      4  C   UNL     1      51.652 -42.283 -28.431  1.00  0.00    -0.027 C 
BRANCH   4   5
ATOM      5  C   UNL     1      51.211 -41.948 -29.843  1.00  0.00     0.014 C 
BRANCH   5   6
ATOM      6  C   UNL     1      51.834 -40.619 -30.366  1.00  0.00     0.004 C 
ATOM      7  C   UNL     1      52.955 -40.778 -31.402  1.00  0.00     0.004 C 
ENDBRANCH   5   6
BRANCH   5   8
ATOM      8  C   UNL     1      49.659 -42.052 -29.994  1.00  0.00    -0.011 C 
ATOM      9  C   UNL     1      48.919 -41.477 -28.775  1.00  0.00     0.008 C 
ATOM     10  C   UNL     1      49.151 -43.469 -30.297  1.00  0.00     0.008 C 
ENDBRANCH   5   8
ENDBRANCH   4   5
ENDBRANCH   1   3
BRANCH   1  11
ATOM     11  C   UNL     1      54.479 -43.010 -26.532  1.00  0.00     0.002 C 
ATOM     12  C   UNL     1      55.234 -42.610 -27.831  1.00  0.00     0.005 C 
ATOM     13  C   UNL     1      54.641 -41.774 -25.591  1.00  0.00    -0.023 C 
ATOM     14  C   UNL     1      55.529 -41.101 -27.750  1.00  0.00     0.009 C 
ATOM     15  C   UNL     1      54.670 -40.611 -26.585  1.00  0.00     0.021 C 
ATOM     16  C   UNL     1      53.526 -41.510 -24.537  1.00  0.00     0.008 C 
ATOM     17  C   UNL     1      56.004 -41.925 -24.836  1.00  0.00     0.012 C 
ATOM     18  C   UNL     1      54.953 -39.313 -25.860  1.00  0.00    -0.067 C 
ATOM     19  C   UNL     1      53.698 -40.135 -23.832  1.00  0.00     0.009 C 
ATOM     20  C   UNL     1      53.875 -38.948 -24.832  1.00  0.00     0.021 C 
ATOM     21  C   UNL     1      56.154 -38.693 -25.918  1.00  0.00    -0.027 C 
ATOM     22  C   UNL     1      54.112 -37.529 -24.180  1.00  0.00    -0.023 C 
ATOM     23  C   UNL     1      56.509 -37.499 -25.076  1.00  0.00     0.031 C 
ATOM     24  C   UNL     1      55.624 -37.384 -23.823  1.00  0.00     0.002 C 
ATOM     25  C   UNL     1      53.270 -37.338 -22.880  1.00  0.00     0.010 C 
ATOM     26  C   UNL     1      53.661 -36.461 -25.224  1.00  0.00     0.012 C 
ATOM     27  C   UNL     1      55.944 -36.079 -23.058  1.00  0.00     0.036 C 
ATOM     28  C   UNL     1      53.581 -36.020 -22.155  1.00  0.00     0.032 C 
ATOM     29  C   UNL     1      55.070 -35.929 -21.801  1.00  0.00     0.114 C 
BRANCH  29  30
ATOM     30  O   UNL     1      55.321 -34.690 -21.191  1.00  0.00    -0.393 OA
ATOM     31  H   UNL     1      55.903 -34.178 -21.811  1.00  0.00     0.210 HD
ENDBRANCH  29  30
ENDBRANCH   1  11
TORSDOF 6
ENDMDL
MODEL 9
REMARK VINA RESULT:    -6.076      3.232      5.550
REMARK INTER + INTRA:          -9.528
REMARK INTER:                  -8.106
REMARK INTRA:                  -1.422
REMARK UNBOUND:                -1.498
REMARK SMILES CC[C@@H](C=C[C@H](C)[C@H]1CC[C@@H]2C3=CC[C@H]4C[C@@H](O)CC[C@]4(C)[C@@H]3CC[C@]21C)C(C)C
REMARK SMILES IDX 6 1 7 2 5 3 4 4 3 5 2 6 1 7 28 8 29 9 30 10 8 11 9 12 26 13
REMARK SMILES IDX 10 14 11 15 25 16 27 17 12 18 24 19 23 20 13 21 21 22 14 23
REMARK SMILES IDX 15 24 20 25 22 26 16 27 19 28 17 29 18 30
REMARK H PARENT 18 31
REMARK Flexibility Score: inf
ROOT
ATOM      1  C   UNL     1      56.073 -38.002 -27.100  1.00  0.00     0.012 C 
ATOM      2  C   UNL     1      56.765 -36.795 -27.769  1.00  0.00     0.012 C 
ENDROOT
BRANCH   1   3
ATOM      3  C   UNL     1      56.189 -39.200 -28.021  1.00  0.00    -0.028 C 
ATOM      4  C   UNL     1      55.485 -40.324 -27.807  1.00  0.00    -0.027 C 
BRANCH   4   5
ATOM      5  C   UNL     1      55.612 -41.522 -28.729  1.00  0.00     0.014 C 
BRANCH   5   6
ATOM      6  C   UNL     1      55.880 -42.847 -27.956  1.00  0.00     0.004 C 
ATOM      7  C   UNL     1      56.089 -42.699 -26.442  1.00  0.00     0.004 C 
ENDBRANCH   5   6
BRANCH   5   8
ATOM      8  C   UNL     1      56.601 -41.233 -29.904  1.00  0.00    -0.011 C 
ATOM      9  C   UNL     1      55.870 -41.058 -31.245  1.00  0.00     0.008 C 
ATOM     10  C   UNL     1      57.723 -42.270 -30.049  1.00  0.00     0.008 C 
ENDBRANCH   5   8
ENDBRANCH   4   5
ENDBRANCH   1   3
BRANCH   1  11
ATOM     11  C   UNL     1      56.587 -38.381 -25.664  1.00  0.00     0.002 C 
ATOM     12  C   UNL     1      57.676 -37.416 -25.117  1.00  0.00     0.005 C 
ATOM     13  C   UNL     1      55.540 -38.482 -24.510  1.00  0.00    -0.023 C 
ATOM     14  C   UNL     1      57.112 -36.752 -23.848  1.00  0.00     0.009 C 
ATOM     15  C   UNL     1      55.623 -37.092 -23.875  1.00  0.00     0.021 C 
ATOM     16  C   UNL     1      54.060 -38.775 -24.893  1.00  0.00     0.008 C 
ATOM     17  C   UNL     1      56.022 -39.599 -23.526  1.00  0.00     0.012 C 
ATOM     18  C   UNL     1      54.756 -37.034 -22.636  1.00  0.00    -0.067 C 
ATOM     19  C   UNL     1      53.098 -38.622 -23.681  1.00  0.00     0.009 C 
ATOM     20  C   UNL     1      53.268 -37.264 -22.928  1.00  0.00     0.021 C 
ATOM     21  C   UNL     1      55.271 -37.051 -21.385  1.00  0.00    -0.027 C 
ATOM     22  C   UNL     1      52.360 -37.068 -21.650  1.00  0.00    -0.023 C 
ATOM     23  C   UNL     1      54.427 -37.163 -20.145  1.00  0.00     0.031 C 
ATOM     24  C   UNL     1      53.043 -37.767 -20.434  1.00  0.00     0.002 C 
ATOM     25  C   UNL     1      50.938 -37.682 -21.847  1.00  0.00     0.010 C 
ATOM     26  C   UNL     1      52.209 -35.532 -21.422  1.00  0.00     0.012 C 
ATOM     27  C   UNL     1      52.171 -37.748 -19.156  1.00  0.00     0.036 C 
ATOM     28  C   UNL     1      50.080 -37.622 -20.575  1.00  0.00     0.032 C 
ATOM     29  C   UNL     1      50.775 -38.341 -19.412  1.00  0.00     0.114 C 
BRANCH  29  30
ATOM     30  O   UNL     1      49.986 -38.215 -18.259  1.00  0.00    -0.393 OA
ATOM     31  H   UNL     1      49.511 -39.079 -18.141  1.00  0.00     0.210 HD
ENDBRANCH  29  30
ENDBRANCH   1  11
TORSDOF 6
ENDMDL
