MODEL 1
REMARK VINA RESULT:    -6.493      0.000      0.000
REMARK INTER + INTRA:          -6.493
REMARK INTER:                  -6.493
REMARK INTRA:                   0.000
REMARK UNBOUND:                 0.000
REMARK SMILES O=c1ccc2ccccc2o1
REMARK SMILES IDX 7 1 8 2 9 3 10 4 5 5 6 6 4 7 3 8 2 9 1 10 11 11
REMARK H PARENT
REMARK Flexibility Score: inf
ROOT
ATOM      1  C   UNL     1     -21.614 -18.789 -12.635  1.00  0.00     0.001 A 
ATOM      2  C   UNL     1     -22.795 -18.206 -13.106  1.00  0.00     0.004 A 
ATOM      3  C   UNL     1     -23.858 -19.010 -13.529  1.00  0.00     0.048 A 
ATOM      4  C   UNL     1     -23.744 -20.404 -13.481  1.00  0.00     0.138 A 
ATOM      5  C   UNL     1     -22.552 -20.994 -13.004  1.00  0.00     0.018 A 
ATOM      6  C   UNL     1     -21.489 -20.181 -12.583  1.00  0.00     0.012 A 
ATOM      7  C   UNL     1     -22.466 -22.390 -12.969  1.00  0.00     0.019 A 
ATOM      8  C   UNL     1     -23.551 -23.151 -13.401  1.00  0.00     0.094 A 
ATOM      9  C   UNL     1     -24.700 -22.498 -13.859  1.00  0.00     0.336 A 
ATOM     10  O   UNL     1     -25.689 -23.170 -14.253  1.00  0.00    -0.246 OA
ATOM     11  O   UNL     1     -24.755 -21.169 -13.883  1.00  0.00    -0.423 OA
ENDROOT
TORSDOF 0
ENDMDL
MODEL 2
REMARK VINA RESULT:    -6.327      1.649      3.849
REMARK INTER + INTRA:          -6.327
REMARK INTER:                  -6.327
REMARK INTRA:                   0.000
REMARK UNBOUND:                 0.000
REMARK SMILES O=c1ccc2ccccc2o1
REMARK SMILES IDX 7 1 8 2 9 3 10 4 5 5 6 6 4 7 3 8 2 9 1 10 11 11
REMARK H PARENT
REMARK Flexibility Score: inf
ROOT
ATOM      1  C   UNL     1     -23.778 -23.079 -13.361  1.00  0.00     0.001 A 
ATOM      2  C   UNL     1     -24.847 -22.425 -13.982  1.00  0.00     0.004 A 
ATOM      3  C   UNL     1     -24.837 -21.033 -14.119  1.00  0.00     0.048 A 
ATOM      4  C   UNL     1     -23.756 -20.289 -13.634  1.00  0.00     0.138 A 
ATOM      5  C   UNL     1     -22.675 -20.949 -13.007  1.00  0.00     0.018 A 
ATOM      6  C   UNL     1     -22.692 -22.345 -12.872  1.00  0.00     0.012 A 
ATOM      7  C   UNL     1     -21.609 -20.179 -12.531  1.00  0.00     0.019 A 
ATOM      8  C   UNL     1     -21.642 -18.795 -12.689  1.00  0.00     0.094 A 
ATOM      9  C   UNL     1     -22.745 -18.209 -13.321  1.00  0.00     0.336 A 
ATOM     10  O   UNL     1     -22.792 -16.961 -13.472  1.00  0.00    -0.246 OA
ATOM     11  O   UNL     1     -23.747 -18.965 -13.764  1.00  0.00    -0.423 OA
ENDROOT
TORSDOF 0
ENDMDL
MODEL 3
REMARK VINA RESULT:    -5.422      0.887      1.130
REMARK INTER + INTRA:          -5.422
REMARK INTER:                  -5.422
REMARK INTRA:                   0.000
REMARK UNBOUND:                 0.000
REMARK SMILES O=c1ccc2ccccc2o1
REMARK SMILES IDX 7 1 8 2 9 3 10 4 5 5 6 6 4 7 3 8 2 9 1 10 11 11
REMARK H PARENT
REMARK Flexibility Score: inf
ROOT
ATOM      1  C   UNL     1     -21.724 -17.472 -12.968  1.00  0.00     0.001 A 
ATOM      2  C   UNL     1     -22.943 -17.117 -13.556  1.00  0.00     0.004 A 
ATOM      3  C   UNL     1     -23.895 -18.098 -13.849  1.00  0.00     0.048 A 
ATOM      4  C   UNL     1     -23.632 -19.441 -13.554  1.00  0.00     0.138 A 
ATOM      5  C   UNL     1     -22.402 -19.800 -12.960  1.00  0.00     0.018 A 
ATOM      6  C   UNL     1     -21.450 -18.811 -12.669  1.00  0.00     0.012 A 
ATOM      7  C   UNL     1     -22.166 -21.149 -12.677  1.00  0.00     0.019 A 
ATOM      8  C   UNL     1     -23.145 -22.093 -12.987  1.00  0.00     0.094 A 
ATOM      9  C   UNL     1     -24.340 -21.664 -13.574  1.00  0.00     0.336 A 
ATOM     10  O   UNL     1     -25.235 -22.501 -13.860  1.00  0.00    -0.246 OA
ATOM     11  O   UNL     1     -24.539 -20.373 -13.833  1.00  0.00    -0.423 OA
ENDROOT
TORSDOF 0
ENDMDL
MODEL 4
REMARK VINA RESULT:    -5.234      1.194      2.135
REMARK INTER + INTRA:          -5.234
REMARK INTER:                  -5.234
REMARK INTRA:                   0.000
REMARK UNBOUND:                 0.000
REMARK SMILES O=c1ccc2ccccc2o1
REMARK SMILES IDX 7 1 8 2 9 3 10 4 5 5 6 6 4 7 3 8 2 9 1 10 11 11
REMARK H PARENT
REMARK Flexibility Score: inf
ROOT
ATOM      1  C   UNL     1     -22.451 -17.972 -13.009  1.00  0.00     0.001 A 
ATOM      2  C   UNL     1     -21.320 -18.685 -12.597  1.00  0.00     0.004 A 
ATOM      3  C   UNL     1     -21.323 -20.083 -12.617  1.00  0.00     0.048 A 
ATOM      4  C   UNL     1     -22.459 -20.775 -13.050  1.00  0.00     0.138 A 
ATOM      5  C   UNL     1     -23.602 -20.056 -13.468  1.00  0.00     0.018 A 
ATOM      6  C   UNL     1     -23.593 -18.653 -13.444  1.00  0.00     0.012 A 
ATOM      7  C   UNL     1     -24.723 -20.775 -13.895  1.00  0.00     0.019 A 
ATOM      8  C   UNL     1     -24.681 -22.168 -13.898  1.00  0.00     0.094 A 
ATOM      9  C   UNL     1     -23.514 -22.813 -13.472  1.00  0.00     0.336 A 
ATOM     10  O   UNL     1     -23.458 -24.070 -13.468  1.00  0.00    -0.246 OA
ATOM     11  O   UNL     1     -22.462 -22.106 -13.070  1.00  0.00    -0.423 OA
ENDROOT
TORSDOF 0
ENDMDL
MODEL 5
REMARK VINA RESULT:    -5.197      2.105      2.792
REMARK INTER + INTRA:          -5.197
REMARK INTER:                  -5.197
REMARK INTRA:                   0.000
REMARK UNBOUND:                 0.000
REMARK SMILES O=c1ccc2ccccc2o1
REMARK SMILES IDX 7 1 8 2 9 3 10 4 5 5 6 6 4 7 3 8 2 9 1 10 11 11
REMARK H PARENT
REMARK Flexibility Score: inf
ROOT
ATOM      1  C   UNL     1     -21.648 -19.942 -12.615  1.00  0.00     0.001 A 
ATOM      2  C   UNL     1     -21.564 -21.235 -13.142  1.00  0.00     0.004 A 
ATOM      3  C   UNL     1     -22.637 -22.122 -13.005  1.00  0.00     0.048 A 
ATOM      4  C   UNL     1     -23.800 -21.718 -12.339  1.00  0.00     0.138 A 
ATOM      5  C   UNL     1     -23.885 -20.411 -11.808  1.00  0.00     0.018 A 
ATOM      6  C   UNL     1     -22.805 -19.527 -11.948  1.00  0.00     0.012 A 
ATOM      7  C   UNL     1     -25.060 -20.035 -11.147  1.00  0.00     0.019 A 
ATOM      8  C   UNL     1     -26.103 -20.953 -11.035  1.00  0.00     0.094 A 
ATOM      9  C   UNL     1     -25.948 -22.229 -11.587  1.00  0.00     0.336 A 
ATOM     10  O   UNL     1     -26.879 -23.070 -11.495  1.00  0.00    -0.246 OA
ATOM     11  O   UNL     1     -24.820 -22.561 -12.210  1.00  0.00    -0.423 OA
ENDROOT
TORSDOF 0
ENDMDL
MODEL 6
REMARK VINA RESULT:    -5.192      2.401      3.952
REMARK INTER + INTRA:          -5.192
REMARK INTER:                  -5.192
REMARK INTRA:                   0.000
REMARK UNBOUND:                 0.000
REMARK SMILES O=c1ccc2ccccc2o1
REMARK SMILES IDX 7 1 8 2 9 3 10 4 5 5 6 6 4 7 3 8 2 9 1 10 11 11
REMARK H PARENT
REMARK Flexibility Score: inf
ROOT
ATOM      1  C   UNL     1     -25.606 -22.610 -11.603  1.00  0.00     0.001 A 
ATOM      2  C   UNL     1     -26.067 -21.391 -11.094  1.00  0.00     0.004 A 
ATOM      3  C   UNL     1     -25.287 -20.237 -11.216  1.00  0.00     0.048 A 
ATOM      4  C   UNL     1     -24.040 -20.298 -11.850  1.00  0.00     0.138 A 
ATOM      5  C   UNL     1     -23.574 -21.528 -12.365  1.00  0.00     0.018 A 
ATOM      6  C   UNL     1     -24.362 -22.682 -12.238  1.00  0.00     0.012 A 
ATOM      7  C   UNL     1     -22.325 -21.558 -12.993  1.00  0.00     0.019 A 
ATOM      8  C   UNL     1     -21.582 -20.383 -13.091  1.00  0.00     0.094 A 
ATOM      9  C   UNL     1     -22.107 -19.200 -12.559  1.00  0.00     0.336 A 
ATOM     10  O   UNL     1     -21.451 -18.130 -12.639  1.00  0.00    -0.246 OA
ATOM     11  O   UNL     1     -23.299 -19.199 -11.967  1.00  0.00    -0.423 OA
ENDROOT
TORSDOF 0
ENDMDL
MODEL 7
REMARK VINA RESULT:    -5.061     10.484     11.327
REMARK INTER + INTRA:          -5.061
REMARK INTER:                  -5.061
REMARK INTRA:                   0.000
REMARK UNBOUND:                 0.000
REMARK SMILES O=c1ccc2ccccc2o1
REMARK SMILES IDX 7 1 8 2 9 3 10 4 5 5 6 6 4 7 3 8 2 9 1 10 11 11
REMARK H PARENT
REMARK Flexibility Score: inf
ROOT
ATOM      1  C   UNL     1     -28.317 -29.429 -16.741  1.00  0.00     0.001 A 
ATOM      2  C   UNL     1     -27.759 -30.711 -16.800  1.00  0.00     0.004 A 
ATOM      3  C   UNL     1     -27.657 -31.488 -15.643  1.00  0.00     0.048 A 
ATOM      4  C   UNL     1     -28.113 -30.986 -14.418  1.00  0.00     0.138 A 
ATOM      5  C   UNL     1     -28.677 -29.692 -14.357  1.00  0.00     0.018 A 
ATOM      6  C   UNL     1     -28.776 -28.917 -15.523  1.00  0.00     0.012 A 
ATOM      7  C   UNL     1     -29.124 -29.216 -13.120  1.00  0.00     0.019 A 
ATOM      8  C   UNL     1     -29.001 -30.027 -11.993  1.00  0.00     0.094 A 
ATOM      9  C   UNL     1     -28.434 -31.298 -12.129  1.00  0.00     0.336 A 
ATOM     10  O   UNL     1     -28.316 -32.044 -11.121  1.00  0.00    -0.246 OA
ATOM     11  O   UNL     1     -28.016 -31.727 -13.317  1.00  0.00    -0.423 OA
ENDROOT
TORSDOF 0
ENDMDL
MODEL 8
REMARK VINA RESULT:    -4.982      2.101      4.385
REMARK INTER + INTRA:          -4.982
REMARK INTER:                  -4.982
REMARK INTRA:                   0.000
REMARK UNBOUND:                 0.000
REMARK SMILES O=c1ccc2ccccc2o1
REMARK SMILES IDX 7 1 8 2 9 3 10 4 5 5 6 6 4 7 3 8 2 9 1 10 11 11
REMARK H PARENT
REMARK Flexibility Score: inf
ROOT
ATOM      1  C   UNL     1     -24.389 -22.618 -13.379  1.00  0.00     0.001 A 
ATOM      2  C   UNL     1     -23.063 -22.857 -13.003  1.00  0.00     0.004 A 
ATOM      3  C   UNL     1     -22.169 -21.791 -12.864  1.00  0.00     0.048 A 
ATOM      4  C   UNL     1     -22.597 -20.480 -13.102  1.00  0.00     0.138 A 
ATOM      5  C   UNL     1     -23.936 -20.238 -13.481  1.00  0.00     0.018 A 
ATOM      6  C   UNL     1     -24.829 -21.312 -13.619  1.00  0.00     0.012 A 
ATOM      7  C   UNL     1     -24.336 -18.918 -13.712  1.00  0.00     0.019 A 
ATOM      8  C   UNL     1     -23.409 -17.888 -13.562  1.00  0.00     0.094 A 
ATOM      9  C   UNL     1     -22.100 -18.202 -13.183  1.00  0.00     0.336 A 
ATOM     10  O   UNL     1     -21.250 -17.285 -13.042  1.00  0.00    -0.246 OA
ATOM     11  O   UNL     1     -21.745 -19.467 -12.969  1.00  0.00    -0.423 OA
ENDROOT
TORSDOF 0
ENDMDL
