MODEL 1
REMARK VINA RESULT:    -3.513      0.000      0.000
REMARK INTER + INTRA:          -5.359
REMARK INTER:                  -4.745
REMARK INTRA:                  -0.614
REMARK UNBOUND:                -0.614
REMARK SMILES CCCCCCC=CC(=O)[O-]
REMARK SMILES IDX 5 1 6 2 7 3 8 4 9 5 10 6 11 7 4 8 3 9 2 10 1 11
REMARK H PARENT
REMARK Flexibility Score: inf
ROOT
ATOM      1  C   UNL     1      16.344  -1.161 -12.057  1.00  0.00     0.004 C 
ENDROOT
BRANCH   1   2
ATOM      2  C   UNL     1      15.621   0.118 -11.610  1.00  0.00     0.027 C 
BRANCH   2   3
ATOM      3  C   UNL     1      14.149   0.055 -11.905  1.00  0.00    -0.025 C 
ATOM      4  C   UNL     1      13.669  -0.640 -12.942  1.00  0.00     0.020 C 
BRANCH   4   5
ATOM      5  C   UNL     1      12.233  -0.690 -13.259  1.00  0.00     0.064 C 
ATOM      6  O   UNL     1      11.818  -1.217 -14.325  1.00  0.00    -0.545 OA
ATOM      7  O   UNL     1      11.318  -0.147 -12.366  1.00  0.00    -0.545 OA
ENDBRANCH   4   5
ENDBRANCH   2   3
ENDBRANCH   1   2
BRANCH   1   8
ATOM      8  C   UNL     1      17.270  -0.979 -13.276  1.00  0.00     0.000 C 
BRANCH   8   9
ATOM      9  C   UNL     1      17.373   0.464 -13.806  1.00  0.00    -0.000 C 
BRANCH   9  10
ATOM     10  C   UNL     1      17.242   0.550 -15.333  1.00  0.00    -0.003 C 
ATOM     11  C   UNL     1      15.879   0.046 -15.796  1.00  0.00     0.004 C 
ENDBRANCH   9  10
ENDBRANCH   8   9
ENDBRANCH   1   8
TORSDOF 6
ENDMDL
MODEL 2
REMARK VINA RESULT:    -3.498     19.113     20.854
REMARK INTER + INTRA:          -5.339
REMARK INTER:                  -4.604
REMARK INTRA:                  -0.736
REMARK UNBOUND:                -0.614
REMARK SMILES CCCCCCC=CC(=O)[O-]
REMARK SMILES IDX 5 1 6 2 7 3 8 4 9 5 10 6 11 7 4 8 3 9 2 10 1 11
REMARK H PARENT
REMARK Flexibility Score: inf
ROOT
ATOM      1  C   UNL     1      30.776  12.530 -18.085  1.00  0.00     0.004 C 
ENDROOT
BRANCH   1   2
ATOM      2  C   UNL     1      29.471  13.302 -18.334  1.00  0.00     0.027 C 
BRANCH   2   3
ATOM      3  C   UNL     1      29.115  14.180 -17.168  1.00  0.00    -0.025 C 
ATOM      4  C   UNL     1      30.054  14.736 -16.393  1.00  0.00     0.020 C 
BRANCH   4   5
ATOM      5  C   UNL     1      29.720  15.576 -15.233  1.00  0.00     0.064 C 
ATOM      6  O   UNL     1      29.265  15.072 -14.172  1.00  0.00    -0.545 OA
ATOM      7  O   UNL     1      29.910  16.949 -15.308  1.00  0.00    -0.545 OA
ENDBRANCH   4   5
ENDBRANCH   2   3
ENDBRANCH   1   2
BRANCH   1   8
ATOM      8  C   UNL     1      30.604  11.001 -17.991  1.00  0.00     0.000 C 
BRANCH   8   9
ATOM      9  C   UNL     1      30.613  10.430 -16.562  1.00  0.00    -0.000 C 
BRANCH   9  10
ATOM     10  C   UNL     1      29.248  10.536 -15.866  1.00  0.00    -0.003 C 
ATOM     11  C   UNL     1      29.320  11.459 -14.654  1.00  0.00     0.004 C 
ENDBRANCH   9  10
ENDBRANCH   8   9
ENDBRANCH   1   8
TORSDOF 6
ENDMDL
MODEL 3
REMARK VINA RESULT:    -3.492     19.143     20.508
REMARK INTER + INTRA:          -5.330
REMARK INTER:                  -4.720
REMARK INTRA:                  -0.611
REMARK UNBOUND:                -0.614
REMARK SMILES CCCCCCC=CC(=O)[O-]
REMARK SMILES IDX 5 1 6 2 7 3 8 4 9 5 10 6 11 7 4 8 3 9 2 10 1 11
REMARK H PARENT
REMARK Flexibility Score: inf
ROOT
ATOM      1  C   UNL     1      28.404  12.436 -16.016  1.00  0.00     0.004 C 
ENDROOT
BRANCH   1   2
ATOM      2  C   UNL     1      28.994  12.635 -14.611  1.00  0.00     0.027 C 
BRANCH   2   3
ATOM      3  C   UNL     1      28.092  13.469 -13.745  1.00  0.00    -0.025 C 
ATOM      4  C   UNL     1      28.493  14.639 -13.235  1.00  0.00     0.020 C 
BRANCH   4   5
ATOM      5  C   UNL     1      27.631  15.454 -12.364  1.00  0.00     0.064 C 
ATOM      6  O   UNL     1      27.068  14.956 -11.353  1.00  0.00    -0.545 OA
ATOM      7  O   UNL     1      27.435  16.796 -12.662  1.00  0.00    -0.545 OA
ENDBRANCH   4   5
ENDBRANCH   2   3
ENDBRANCH   1   2
BRANCH   1   8
ATOM      8  C   UNL     1      29.324  12.896 -17.164  1.00  0.00     0.000 C 
BRANCH   8   9
ATOM      9  C   UNL     1      29.253  14.398 -17.495  1.00  0.00    -0.000 C 
BRANCH   9  10
ATOM     10  C   UNL     1      30.423  15.196 -16.902  1.00  0.00    -0.003 C 
ATOM     11  C   UNL     1      29.919  16.379 -16.080  1.00  0.00     0.004 C 
ENDBRANCH   9  10
ENDBRANCH   8   9
ENDBRANCH   1   8
TORSDOF 6
ENDMDL
MODEL 4
REMARK VINA RESULT:    -3.447     18.906     20.084
REMARK INTER + INTRA:          -5.270
REMARK INTER:                  -4.597
REMARK INTRA:                  -0.674
REMARK UNBOUND:                -0.614
REMARK SMILES CCCCCCC=CC(=O)[O-]
REMARK SMILES IDX 5 1 6 2 7 3 8 4 9 5 10 6 11 7 4 8 3 9 2 10 1 11
REMARK H PARENT
REMARK Flexibility Score: inf
ROOT
ATOM      1  C   UNL     1      28.478  12.404 -16.111  1.00  0.00     0.004 C 
ENDROOT
BRANCH   1   2
ATOM      2  C   UNL     1      29.612  12.185 -15.099  1.00  0.00     0.027 C 
BRANCH   2   3
ATOM      3  C   UNL     1      29.158  12.455 -13.692  1.00  0.00    -0.025 C 
ATOM      4  C   UNL     1      28.196  13.345 -13.422  1.00  0.00     0.020 C 
BRANCH   4   5
ATOM      5  C   UNL     1      27.759  13.639 -12.048  1.00  0.00     0.064 C 
ATOM      6  O   UNL     1      27.535  14.821 -11.674  1.00  0.00    -0.545 OA
ATOM      7  O   UNL     1      27.592  12.596 -11.147  1.00  0.00    -0.545 OA
ENDBRANCH   4   5
ENDBRANCH   2   3
ENDBRANCH   1   2
BRANCH   1   8
ATOM      8  C   UNL     1      28.828  13.366 -17.264  1.00  0.00     0.000 C 
BRANCH   8   9
ATOM      9  C   UNL     1      30.146  14.143 -17.086  1.00  0.00    -0.000 C 
BRANCH   9  10
ATOM     10  C   UNL     1      29.928  15.649 -16.882  1.00  0.00    -0.003 C 
ATOM     11  C   UNL     1      29.906  16.004 -15.398  1.00  0.00     0.004 C 
ENDBRANCH   9  10
ENDBRANCH   8   9
ENDBRANCH   1   8
TORSDOF 6
ENDMDL
MODEL 5
REMARK VINA RESULT:    -3.427     17.945     18.453
REMARK INTER + INTRA:          -5.243
REMARK INTER:                  -5.023
REMARK INTRA:                  -0.220
REMARK UNBOUND:                -0.614
REMARK SMILES CCCCCCC=CC(=O)[O-]
REMARK SMILES IDX 5 1 6 2 7 3 8 4 9 5 10 6 11 7 4 8 3 9 2 10 1 11
REMARK H PARENT
REMARK Flexibility Score: inf
ROOT
ATOM      1  C   UNL     1      27.217  13.334 -11.957  1.00  0.00     0.004 C 
ENDROOT
BRANCH   1   2
ATOM      2  C   UNL     1      26.193  13.401 -10.814  1.00  0.00     0.027 C 
BRANCH   2   3
ATOM      3  C   UNL     1      25.067  14.344 -11.134  1.00  0.00    -0.025 C 
ATOM      4  C   UNL     1      25.031  15.033 -12.281  1.00  0.00     0.020 C 
BRANCH   4   5
ATOM      5  C   UNL     1      23.950  15.979 -12.598  1.00  0.00     0.064 C 
ATOM      6  O   UNL     1      24.119  16.907 -13.432  1.00  0.00    -0.545 OA
ATOM      7  O   UNL     1      22.721  15.846 -11.964  1.00  0.00    -0.545 OA
ENDBRANCH   4   5
ENDBRANCH   2   3
ENDBRANCH   1   2
BRANCH   1   8
ATOM      8  C   UNL     1      28.557  12.673 -11.574  1.00  0.00     0.000 C 
BRANCH   8   9
ATOM      9  C   UNL     1      28.432  11.379 -10.748  1.00  0.00    -0.000 C 
BRANCH   9  10
ATOM     10  C   UNL     1      29.290  10.232 -11.300  1.00  0.00    -0.003 C 
ATOM     11  C   UNL     1      30.105   9.573 -10.191  1.00  0.00     0.004 C 
ENDBRANCH   9  10
ENDBRANCH   8   9
ENDBRANCH   1   8
TORSDOF 6
ENDMDL
MODEL 6
REMARK VINA RESULT:    -3.421     18.366     19.429
REMARK INTER + INTRA:          -5.235
REMARK INTER:                  -4.937
REMARK INTRA:                  -0.298
REMARK UNBOUND:                -0.614
REMARK SMILES CCCCCCC=CC(=O)[O-]
REMARK SMILES IDX 5 1 6 2 7 3 8 4 9 5 10 6 11 7 4 8 3 9 2 10 1 11
REMARK H PARENT
REMARK Flexibility Score: inf
ROOT
ATOM      1  C   UNL     1      29.809  13.618 -14.843  1.00  0.00     0.004 C 
ENDROOT
BRANCH   1   2
ATOM      2  C   UNL     1      28.933  14.533 -13.974  1.00  0.00     0.027 C 
BRANCH   2   3
ATOM      3  C   UNL     1      28.061  13.741 -13.040  1.00  0.00    -0.025 C 
ATOM      4  C   UNL     1      27.362  14.330 -12.062  1.00  0.00     0.020 C 
BRANCH   4   5
ATOM      5  C   UNL     1      26.525  13.566 -11.124  1.00  0.00     0.064 C 
ATOM      6  O   UNL     1      25.536  14.097 -10.551  1.00  0.00    -0.545 OA
ATOM      7  O   UNL     1      26.831  12.237 -10.864  1.00  0.00    -0.545 OA
ENDBRANCH   4   5
ENDBRANCH   2   3
ENDBRANCH   1   2
BRANCH   1   8
ATOM      8  C   UNL     1      29.020  12.661 -15.759  1.00  0.00     0.000 C 
BRANCH   8   9
ATOM      9  C   UNL     1      28.516  13.285 -17.073  1.00  0.00    -0.000 C 
BRANCH   9  10
ATOM     10  C   UNL     1      29.603  13.362 -18.154  1.00  0.00    -0.003 C 
ATOM     11  C   UNL     1      30.368  12.046 -18.257  1.00  0.00     0.004 C 
ENDBRANCH   9  10
ENDBRANCH   8   9
ENDBRANCH   1   8
TORSDOF 6
ENDMDL
MODEL 7
REMARK VINA RESULT:    -3.417     19.225     19.996
REMARK INTER + INTRA:          -5.229
REMARK INTER:                  -4.937
REMARK INTRA:                  -0.292
REMARK UNBOUND:                -0.614
REMARK SMILES CCCCCCC=CC(=O)[O-]
REMARK SMILES IDX 5 1 6 2 7 3 8 4 9 5 10 6 11 7 4 8 3 9 2 10 1 11
REMARK H PARENT
REMARK Flexibility Score: inf
ROOT
ATOM      1  C   UNL     1      28.892  12.809 -15.916  1.00  0.00     0.004 C 
ENDROOT
BRANCH   1   2
ATOM      2  C   UNL     1      29.714  13.318 -14.722  1.00  0.00     0.027 C 
BRANCH   2   3
ATOM      3  C   UNL     1      28.926  14.278 -13.875  1.00  0.00    -0.025 C 
ATOM      4  C   UNL     1      27.902  13.869 -13.117  1.00  0.00     0.020 C 
BRANCH   4   5
ATOM      5  C   UNL     1      27.105  14.801 -12.304  1.00  0.00     0.064 C 
ATOM      6  O   UNL     1      27.591  15.889 -11.895  1.00  0.00    -0.545 OA
ATOM      7  O   UNL     1      25.795  14.474 -11.979  1.00  0.00    -0.545 OA
ENDBRANCH   4   5
ENDBRANCH   2   3
ENDBRANCH   1   2
BRANCH   1   8
ATOM      8  C   UNL     1      28.965  13.706 -17.168  1.00  0.00     0.000 C 
BRANCH   8   9
ATOM      9  C   UNL     1      29.678  13.077 -18.379  1.00  0.00    -0.000 C 
BRANCH   9  10
ATOM     10  C   UNL     1      30.856  12.178 -17.979  1.00  0.00    -0.003 C 
ATOM     11  C   UNL     1      30.861  10.886 -18.792  1.00  0.00     0.004 C 
ENDBRANCH   9  10
ENDBRANCH   8   9
ENDBRANCH   1   8
TORSDOF 6
ENDMDL
MODEL 8
REMARK VINA RESULT:    -3.369     19.985     21.406
REMARK INTER + INTRA:          -5.164
REMARK INTER:                  -4.508
REMARK INTRA:                  -0.656
REMARK UNBOUND:                -0.614
REMARK SMILES CCCCCCC=CC(=O)[O-]
REMARK SMILES IDX 5 1 6 2 7 3 8 4 9 5 10 6 11 7 4 8 3 9 2 10 1 11
REMARK H PARENT
REMARK Flexibility Score: inf
ROOT
ATOM      1  C   UNL     1      28.740  12.926 -14.635  1.00  0.00     0.004 C 
ENDROOT
BRANCH   1   2
ATOM      2  C   UNL     1      30.203  13.270 -14.318  1.00  0.00     0.027 C 
BRANCH   2   3
ATOM      3  C   UNL     1      30.609  14.580 -14.931  1.00  0.00    -0.025 C 
ATOM      4  C   UNL     1      29.750  15.601 -15.042  1.00  0.00     0.020 C 
BRANCH   4   5
ATOM      5  C   UNL     1      30.126  16.881 -15.663  1.00  0.00     0.064 C 
ATOM      6  O   UNL     1      31.036  16.941 -16.532  1.00  0.00    -0.545 OA
ATOM      7  O   UNL     1      29.465  18.042 -15.286  1.00  0.00    -0.545 OA
ENDBRANCH   4   5
ENDBRANCH   2   3
ENDBRANCH   1   2
BRANCH   1   8
ATOM      8  C   UNL     1      28.523  12.272 -16.014  1.00  0.00     0.000 C 
BRANCH   8   9
ATOM      9  C   UNL     1      29.677  11.375 -16.499  1.00  0.00    -0.000 C 
BRANCH   9  10
ATOM     10  C   UNL     1      30.372  11.921 -17.755  1.00  0.00    -0.003 C 
ATOM     11  C   UNL     1      29.669  13.175 -18.269  1.00  0.00     0.004 C 
ENDBRANCH   9  10
ENDBRANCH   8   9
ENDBRANCH   1   8
TORSDOF 6
ENDMDL
MODEL 9
REMARK VINA RESULT:    -3.364     18.038     19.539
REMARK INTER + INTRA:          -5.158
REMARK INTER:                  -4.452
REMARK INTRA:                  -0.706
REMARK UNBOUND:                -0.614
REMARK SMILES CCCCCCC=CC(=O)[O-]
REMARK SMILES IDX 5 1 6 2 7 3 8 4 9 5 10 6 11 7 4 8 3 9 2 10 1 11
REMARK H PARENT
REMARK Flexibility Score: inf
ROOT
ATOM      1  C   UNL     1      30.767  10.978 -18.786  1.00  0.00     0.004 C 
ENDROOT
BRANCH   1   2
ATOM      2  C   UNL     1      30.527   9.713 -17.948  1.00  0.00     0.027 C 
BRANCH   2   3
ATOM      3  C   UNL     1      30.637   9.995 -16.476  1.00  0.00    -0.025 C 
ATOM      4  C   UNL     1      29.659   9.669 -15.623  1.00  0.00     0.020 C 
BRANCH   4   5
ATOM      5  C   UNL     1      29.740   9.962 -14.183  1.00  0.00     0.064 C 
ATOM      6  O   UNL     1      30.470  10.892 -13.747  1.00  0.00    -0.545 OA
ATOM      7  O   UNL     1      29.000   9.199 -13.289  1.00  0.00    -0.545 OA
ENDBRANCH   4   5
ENDBRANCH   2   3
ENDBRANCH   1   2
BRANCH   1   8
ATOM      8  C   UNL     1      30.816  12.285 -17.969  1.00  0.00     0.000 C 
BRANCH   8   9
ATOM      9  C   UNL     1      29.688  13.287 -18.274  1.00  0.00    -0.000 C 
BRANCH   9  10
ATOM     10  C   UNL     1      28.584  13.287 -17.206  1.00  0.00    -0.003 C 
ATOM     11  C   UNL     1      29.177  13.411 -15.805  1.00  0.00     0.004 C 
ENDBRANCH   9  10
ENDBRANCH   8   9
ENDBRANCH   1   8
TORSDOF 6
ENDMDL
