MODEL 1
REMARK VINA RESULT:    -4.246      0.000      0.000
REMARK INTER + INTRA:         -10.026
REMARK INTER:                  -7.969
REMARK INTRA:                  -2.057
REMARK UNBOUND:                -2.057
REMARK SMILES CCCCCCCCC=CCCCCCCCC(=O)[O-]
REMARK SMILES IDX 10 1 9 2 11 3 12 4 13 5 14 6 15 7 16 8 17 9 18 10 19 11
REMARK SMILES IDX 20 12 8 13 7 14 6 15 5 16 4 17 3 18 2 19 1 20
REMARK H PARENT
REMARK Flexibility Score: inf
ROOT
ATOM      1  C   UNL     1       8.266  16.971  21.283  1.00  0.00    -0.031 C 
ATOM      2  C   UNL     1       9.091  17.040  20.227  1.00  0.00    -0.031 C 
ENDROOT
BRANCH   1   3
ATOM      3  C   UNL     1       7.594  15.685  21.681  1.00  0.00     0.027 C 
BRANCH   3   4
ATOM      4  C   UNL     1       8.258  14.472  21.017  1.00  0.00     0.004 C 
BRANCH   4   5
ATOM      5  C   UNL     1       7.415  13.195  21.171  1.00  0.00     0.000 C 
BRANCH   5   6
ATOM      6  C   UNL     1       5.927  13.430  20.867  1.00  0.00     0.000 C 
BRANCH   6   7
ATOM      7  C   UNL     1       5.007  12.947  22.002  1.00  0.00     0.000 C 
BRANCH   7   8
ATOM      8  C   UNL     1       5.747  12.106  23.059  1.00  0.00     0.006 C 
BRANCH   8   9
ATOM      9  C   UNL     1       5.489  12.559  24.507  1.00  0.00     0.053 C 
BRANCH   9  10
ATOM     10  C   UNL     1       6.120  13.884  24.815  1.00  0.00     0.041 C 
ATOM     11  O   UNL     1       7.368  14.026  24.722  1.00  0.00    -0.550 OA
ATOM     12  O   UNL     1       5.338  14.950  25.239  1.00  0.00    -0.550 OA
ENDBRANCH   9  10
ENDBRANCH   8   9
ENDBRANCH   7   8
ENDBRANCH   6   7
ENDBRANCH   5   6
ENDBRANCH   4   5
ENDBRANCH   3   4
ENDBRANCH   1   3
BRANCH   2  13
ATOM     13  C   UNL     1       9.727  18.337  19.805  1.00  0.00     0.027 C 
BRANCH  13  14
ATOM     14  C   UNL     1       8.808  19.172  18.900  1.00  0.00     0.004 C 
BRANCH  14  15
ATOM     15  C   UNL     1       8.522  20.563  19.492  1.00  0.00     0.000 C 
BRANCH  15  16
ATOM     16  C   UNL     1       7.540  20.513  20.674  1.00  0.00     0.000 C 
BRANCH  16  17
ATOM     17  C   UNL     1       8.065  21.252  21.914  1.00  0.00    -0.000 C 
BRANCH  17  18
ATOM     18  C   UNL     1       8.840  20.296  22.833  1.00  0.00    -0.000 C 
BRANCH  18  19
ATOM     19  C   UNL     1      10.362  20.443  22.690  1.00  0.00    -0.003 C 
ATOM     20  C   UNL     1      10.785  21.858  22.296  1.00  0.00     0.004 C 
ENDBRANCH  18  19
ENDBRANCH  17  18
ENDBRANCH  16  17
ENDBRANCH  15  16
ENDBRANCH  14  15
ENDBRANCH  13  14
ENDBRANCH   2  13
TORSDOF 15
ENDMDL
MODEL 2
REMARK VINA RESULT:    -4.210      0.960      1.824
REMARK INTER + INTRA:          -9.958
REMARK INTER:                  -7.794
REMARK INTRA:                  -2.164
REMARK UNBOUND:                -2.057
REMARK SMILES CCCCCCCCC=CCCCCCCCC(=O)[O-]
REMARK SMILES IDX 10 1 9 2 11 3 12 4 13 5 14 6 15 7 16 8 17 9 18 10 19 11
REMARK SMILES IDX 20 12 8 13 7 14 6 15 5 16 4 17 3 18 2 19 1 20
REMARK H PARENT
REMARK Flexibility Score: inf
ROOT
ATOM      1  C   UNL     1       8.728  17.198  20.544  1.00  0.00    -0.031 C 
ATOM      2  C   UNL     1       8.132  18.150  19.810  1.00  0.00    -0.031 C 
ENDROOT
BRANCH   1   3
ATOM      3  C   UNL     1       7.936  16.235  21.386  1.00  0.00     0.027 C 
BRANCH   3   4
ATOM      4  C   UNL     1       8.642  14.880  21.510  1.00  0.00     0.004 C 
BRANCH   4   5
ATOM      5  C   UNL     1       7.760  13.719  21.021  1.00  0.00     0.000 C 
BRANCH   5   6
ATOM      6  C   UNL     1       6.291  14.133  20.835  1.00  0.00     0.000 C 
BRANCH   6   7
ATOM      7  C   UNL     1       5.353  13.462  21.854  1.00  0.00     0.000 C 
BRANCH   7   8
ATOM      8  C   UNL     1       6.041  12.344  22.660  1.00  0.00     0.006 C 
BRANCH   8   9
ATOM      9  C   UNL     1       5.841  12.460  24.181  1.00  0.00     0.053 C 
BRANCH   9  10
ATOM     10  C   UNL     1       6.324  13.771  24.725  1.00  0.00     0.041 C 
ATOM     11  O   UNL     1       5.499  14.612  25.172  1.00  0.00    -0.550 OA
ATOM     12  O   UNL     1       7.678  14.080  24.708  1.00  0.00    -0.550 OA
ENDBRANCH   9  10
ENDBRANCH   8   9
ENDBRANCH   7   8
ENDBRANCH   6   7
ENDBRANCH   5   6
ENDBRANCH   4   5
ENDBRANCH   3   4
ENDBRANCH   1   3
BRANCH   2  13
ATOM     13  C   UNL     1       8.930  19.140  19.004  1.00  0.00     0.027 C 
BRANCH  13  14
ATOM     14  C   UNL     1       8.553  20.594  19.326  1.00  0.00     0.004 C 
BRANCH  14  15
ATOM     15  C   UNL     1       9.741  21.385  19.902  1.00  0.00     0.000 C 
BRANCH  15  16
ATOM     16  C   UNL     1      10.397  20.678  21.099  1.00  0.00     0.000 C 
BRANCH  16  17
ATOM     17  C   UNL     1       9.847  21.163  22.449  1.00  0.00    -0.000 C 
BRANCH  17  18
ATOM     18  C   UNL     1       8.843  20.154  23.025  1.00  0.00    -0.000 C 
BRANCH  18  19
ATOM     19  C   UNL     1       7.447  20.760  23.230  1.00  0.00    -0.003 C 
ATOM     20  C   UNL     1       6.384  20.109  22.344  1.00  0.00     0.004 C 
ENDBRANCH  18  19
ENDBRANCH  17  18
ENDBRANCH  16  17
ENDBRANCH  15  16
ENDBRANCH  14  15
ENDBRANCH  13  14
ENDBRANCH   2  13
TORSDOF 15
ENDMDL
MODEL 3
REMARK VINA RESULT:    -4.200      1.432      2.556
REMARK INTER + INTRA:          -9.940
REMARK INTER:                  -7.512
REMARK INTRA:                  -2.429
REMARK UNBOUND:                -2.057
REMARK SMILES CCCCCCCCC=CCCCCCCCC(=O)[O-]
REMARK SMILES IDX 10 1 9 2 11 3 12 4 13 5 14 6 15 7 16 8 17 9 18 10 19 11
REMARK SMILES IDX 20 12 8 13 7 14 6 15 5 16 4 17 3 18 2 19 1 20
REMARK H PARENT
REMARK Flexibility Score: inf
ROOT
ATOM      1  C   UNL     1       9.028  16.927  20.286  1.00  0.00    -0.031 C 
ATOM      2  C   UNL     1       9.258  17.528  19.109  1.00  0.00    -0.031 C 
ENDROOT
BRANCH   1   3
ATOM      3  C   UNL     1       9.245  15.451  20.477  1.00  0.00     0.027 C 
BRANCH   3   4
ATOM      4  C   UNL     1       8.368  14.892  21.604  1.00  0.00     0.004 C 
BRANCH   4   5
ATOM      5  C   UNL     1       7.519  13.697  21.140  1.00  0.00     0.000 C 
BRANCH   5   6
ATOM      6  C   UNL     1       6.010  13.981  21.214  1.00  0.00     0.000 C 
BRANCH   6   7
ATOM      7  C   UNL     1       5.226  12.841  21.887  1.00  0.00     0.000 C 
BRANCH   7   8
ATOM      8  C   UNL     1       6.020  12.144  23.008  1.00  0.00     0.006 C 
BRANCH   8   9
ATOM      9  C   UNL     1       5.569  12.534  24.426  1.00  0.00     0.053 C 
BRANCH   9  10
ATOM     10  C   UNL     1       6.054  13.893  24.829  1.00  0.00     0.041 C 
ATOM     11  O   UNL     1       7.289  14.138  24.869  1.00  0.00    -0.550 OA
ATOM     12  O   UNL     1       5.147  14.880  25.195  1.00  0.00    -0.550 OA
ENDBRANCH   9  10
ENDBRANCH   8   9
ENDBRANCH   7   8
ENDBRANCH   6   7
ENDBRANCH   5   6
ENDBRANCH   4   5
ENDBRANCH   3   4
ENDBRANCH   1   3
BRANCH   2  13
ATOM     13  C   UNL     1       8.998  18.998  18.909  1.00  0.00     0.027 C 
BRANCH  13  14
ATOM     14  C   UNL     1       9.379  19.831  20.142  1.00  0.00     0.004 C 
BRANCH  14  15
ATOM     15  C   UNL     1       8.171  20.588  20.723  1.00  0.00     0.000 C 
BRANCH  15  16
ATOM     16  C   UNL     1       7.489  19.823  21.869  1.00  0.00     0.000 C 
BRANCH  16  17
ATOM     17  C   UNL     1       6.020  19.489  21.567  1.00  0.00    -0.000 C 
BRANCH  17  18
ATOM     18  C   UNL     1       5.815  17.970  21.464  1.00  0.00    -0.000 C 
BRANCH  18  19
ATOM     19  C   UNL     1       5.496  17.512  20.033  1.00  0.00    -0.003 C 
ATOM     20  C   UNL     1       5.255  18.682  19.078  1.00  0.00     0.004 C 
ENDBRANCH  18  19
ENDBRANCH  17  18
ENDBRANCH  16  17
ENDBRANCH  15  16
ENDBRANCH  14  15
ENDBRANCH  13  14
ENDBRANCH   2  13
TORSDOF 15
ENDMDL
MODEL 4
REMARK VINA RESULT:    -4.115      1.285      2.147
REMARK INTER + INTRA:          -9.781
REMARK INTER:                  -7.053
REMARK INTRA:                  -2.728
REMARK UNBOUND:                -2.057
REMARK SMILES CCCCCCCCC=CCCCCCCCC(=O)[O-]
REMARK SMILES IDX 10 1 9 2 11 3 12 4 13 5 14 6 15 7 16 8 17 9 18 10 19 11
REMARK SMILES IDX 20 12 8 13 7 14 6 15 5 16 4 17 3 18 2 19 1 20
REMARK H PARENT
REMARK Flexibility Score: inf
ROOT
ATOM      1  C   UNL     1       7.709  16.418  21.860  1.00  0.00    -0.031 C 
ATOM      2  C   UNL     1       6.623  16.901  21.239  1.00  0.00    -0.031 C 
ENDROOT
BRANCH   1   3
ATOM      3  C   UNL     1       8.544  15.320  21.258  1.00  0.00     0.027 C 
BRANCH   3   4
ATOM      4  C   UNL     1       8.243  15.136  19.766  1.00  0.00     0.004 C 
BRANCH   4   5
ATOM      5  C   UNL     1       7.450  13.848  19.489  1.00  0.00     0.000 C 
BRANCH   5   6
ATOM      6  C   UNL     1       7.081  13.094  20.776  1.00  0.00     0.000 C 
BRANCH   6   7
ATOM      7  C   UNL     1       5.574  13.141  21.079  1.00  0.00     0.000 C 
BRANCH   7   8
ATOM      8  C   UNL     1       5.263  13.571  22.525  1.00  0.00     0.006 C 
BRANCH   8   9
ATOM      9  C   UNL     1       6.242  13.003  23.567  1.00  0.00     0.053 C 
BRANCH   9  10
ATOM     10  C   UNL     1       6.662  14.028  24.577  1.00  0.00     0.041 C 
ATOM     11  O   UNL     1       7.885  14.230  24.801  1.00  0.00    -0.550 OA
ATOM     12  O   UNL     1       5.707  14.734  25.297  1.00  0.00    -0.550 OA
ENDBRANCH   9  10
ENDBRANCH   8   9
ENDBRANCH   7   8
ENDBRANCH   6   7
ENDBRANCH   5   6
ENDBRANCH   4   5
ENDBRANCH   3   4
ENDBRANCH   1   3
BRANCH   2  13
ATOM     13  C   UNL     1       5.765  17.968  21.865  1.00  0.00     0.027 C 
BRANCH  13  14
ATOM     14  C   UNL     1       6.086  19.369  21.321  1.00  0.00     0.004 C 
BRANCH  14  15
ATOM     15  C   UNL     1       6.650  19.318  19.890  1.00  0.00     0.000 C 
BRANCH  15  16
ATOM     16  C   UNL     1       7.394  20.606  19.501  1.00  0.00     0.000 C 
BRANCH  16  17
ATOM     17  C   UNL     1       8.886  20.369  19.223  1.00  0.00    -0.000 C 
BRANCH  17  18
ATOM     18  C   UNL     1       9.352  19.041  19.837  1.00  0.00    -0.000 C 
BRANCH  18  19
ATOM     19  C   UNL     1      10.316  19.240  21.017  1.00  0.00    -0.003 C 
ATOM     20  C   UNL     1       9.607  19.709  22.287  1.00  0.00     0.004 C 
ENDBRANCH  18  19
ENDBRANCH  17  18
ENDBRANCH  16  17
ENDBRANCH  15  16
ENDBRANCH  14  15
ENDBRANCH  13  14
ENDBRANCH   2  13
TORSDOF 15
ENDMDL
MODEL 5
REMARK VINA RESULT:    -4.108      2.640      7.339
REMARK INTER + INTRA:          -9.768
REMARK INTER:                  -8.095
REMARK INTRA:                  -1.673
REMARK UNBOUND:                -2.057
REMARK SMILES CCCCCCCCC=CCCCCCCCC(=O)[O-]
REMARK SMILES IDX 10 1 9 2 11 3 12 4 13 5 14 6 15 7 16 8 17 9 18 10 19 11
REMARK SMILES IDX 20 12 8 13 7 14 6 15 5 16 4 17 3 18 2 19 1 20
REMARK H PARENT
REMARK Flexibility Score: inf
ROOT
ATOM      1  C   UNL     1       8.078  16.816  21.016  1.00  0.00    -0.031 C 
ATOM      2  C   UNL     1       8.137  15.614  20.424  1.00  0.00    -0.031 C 
ENDROOT
BRANCH   1   3
ATOM      3  C   UNL     1       7.806  18.072  20.232  1.00  0.00     0.027 C 
BRANCH   3   4
ATOM      4  C   UNL     1       9.077  18.604  19.558  1.00  0.00     0.004 C 
BRANCH   4   5
ATOM      5  C   UNL     1       9.009  20.120  19.309  1.00  0.00     0.000 C 
BRANCH   5   6
ATOM      6  C   UNL     1       9.745  20.929  20.390  1.00  0.00     0.000 C 
BRANCH   6   7
ATOM      7  C   UNL     1      10.478  20.033  21.403  1.00  0.00     0.000 C 
BRANCH   7   8
ATOM      8  C   UNL     1       9.884  20.117  22.822  1.00  0.00     0.006 C 
BRANCH   8   9
ATOM      9  C   UNL     1       8.455  20.685  22.865  1.00  0.00     0.053 C 
BRANCH   9  10
ATOM     10  C   UNL     1       8.255  21.653  23.992  1.00  0.00     0.041 C 
ATOM     11  O   UNL     1       7.547  21.331  24.984  1.00  0.00    -0.550 OA
ATOM     12  O   UNL     1       8.820  22.921  23.935  1.00  0.00    -0.550 OA
ENDBRANCH   9  10
ENDBRANCH   8   9
ENDBRANCH   7   8
ENDBRANCH   6   7
ENDBRANCH   5   6
ENDBRANCH   4   5
ENDBRANCH   3   4
ENDBRANCH   1   3
BRANCH   2  13
ATOM     13  C   UNL     1       8.454  14.366  21.204  1.00  0.00     0.027 C 
BRANCH  13  14
ATOM     14  C   UNL     1       7.463  13.228  20.913  1.00  0.00     0.004 C 
BRANCH  14  15
ATOM     15  C   UNL     1       6.001  13.688  21.046  1.00  0.00     0.000 C 
BRANCH  15  16
ATOM     16  C   UNL     1       5.163  12.747  21.928  1.00  0.00     0.000 C 
BRANCH  16  17
ATOM     17  C   UNL     1       5.973  12.136  23.082  1.00  0.00    -0.000 C 
BRANCH  17  18
ATOM     18  C   UNL     1       5.470  12.653  24.438  1.00  0.00    -0.000 C 
BRANCH  18  19
ATOM     19  C   UNL     1       6.060  14.023  24.805  1.00  0.00    -0.003 C 
ATOM     20  C   UNL     1       7.577  14.080  24.624  1.00  0.00     0.004 C 
ENDBRANCH  18  19
ENDBRANCH  17  18
ENDBRANCH  16  17
ENDBRANCH  15  16
ENDBRANCH  14  15
ENDBRANCH  13  14
ENDBRANCH   2  13
TORSDOF 15
ENDMDL
MODEL 6
REMARK VINA RESULT:    -4.031      1.355      2.130
REMARK INTER + INTRA:          -9.624
REMARK INTER:                  -7.306
REMARK INTRA:                  -2.317
REMARK UNBOUND:                -2.057
REMARK SMILES CCCCCCCCC=CCCCCCCCC(=O)[O-]
REMARK SMILES IDX 10 1 9 2 11 3 12 4 13 5 14 6 15 7 16 8 17 9 18 10 19 11
REMARK SMILES IDX 20 12 8 13 7 14 6 15 5 16 4 17 3 18 2 19 1 20
REMARK H PARENT
REMARK Flexibility Score: inf
ROOT
ATOM      1  C   UNL     1       7.892  17.491  20.240  1.00  0.00    -0.031 C 
ATOM      2  C   UNL     1       7.445  18.524  19.510  1.00  0.00    -0.031 C 
ENDROOT
BRANCH   1   3
ATOM      3  C   UNL     1       8.486  16.266  19.598  1.00  0.00     0.027 C 
BRANCH   3   4
ATOM      4  C   UNL     1       9.402  15.509  20.567  1.00  0.00     0.004 C 
BRANCH   4   5
ATOM      5  C   UNL     1       8.608  14.616  21.536  1.00  0.00     0.000 C 
BRANCH   5   6
ATOM      6  C   UNL     1       7.617  13.692  20.810  1.00  0.00     0.000 C 
BRANCH   6   7
ATOM      7  C   UNL     1       6.228  13.675  21.472  1.00  0.00     0.000 C 
BRANCH   7   8
ATOM      8  C   UNL     1       5.930  14.954  22.277  1.00  0.00     0.006 C 
BRANCH   8   9
ATOM      9  C   UNL     1       5.355  14.687  23.678  1.00  0.00     0.053 C 
BRANCH   9  10
ATOM     10  C   UNL     1       6.176  13.706  24.460  1.00  0.00     0.041 C 
ATOM     11  O   UNL     1       7.339  14.013  24.835  1.00  0.00    -0.550 OA
ATOM     12  O   UNL     1       5.674  12.443  24.744  1.00  0.00    -0.550 OA
ENDBRANCH   9  10
ENDBRANCH   8   9
ENDBRANCH   7   8
ENDBRANCH   6   7
ENDBRANCH   5   6
ENDBRANCH   4   5
ENDBRANCH   3   4
ENDBRANCH   1   3
BRANCH   2  13
ATOM     13  C   UNL     1       6.811  19.728  20.153  1.00  0.00     0.027 C 
BRANCH  13  14
ATOM     14  C   UNL     1       7.520  21.036  19.770  1.00  0.00     0.004 C 
BRANCH  14  15
ATOM     15  C   UNL     1       8.996  20.807  19.403  1.00  0.00     0.000 C 
BRANCH  15  16
ATOM     16  C   UNL     1       9.952  21.146  20.558  1.00  0.00     0.000 C 
BRANCH  16  17
ATOM     17  C   UNL     1      10.414  19.900  21.331  1.00  0.00    -0.000 C 
BRANCH  17  18
ATOM     18  C   UNL     1       9.817  19.883  22.747  1.00  0.00    -0.000 C 
BRANCH  18  19
ATOM     19  C   UNL     1       9.126  21.205  23.113  1.00  0.00    -0.003 C 
ATOM     20  C   UNL     1       7.700  21.004  23.627  1.00  0.00     0.004 C 
ENDBRANCH  18  19
ENDBRANCH  17  18
ENDBRANCH  16  17
ENDBRANCH  15  16
ENDBRANCH  14  15
ENDBRANCH  13  14
ENDBRANCH   2  13
TORSDOF 15
ENDMDL
MODEL 7
REMARK VINA RESULT:    -4.031      3.229      7.560
REMARK INTER + INTRA:          -9.622
REMARK INTER:                  -8.148
REMARK INTRA:                  -1.475
REMARK UNBOUND:                -2.057
REMARK SMILES CCCCCCCCC=CCCCCCCCC(=O)[O-]
REMARK SMILES IDX 10 1 9 2 11 3 12 4 13 5 14 6 15 7 16 8 17 9 18 10 19 11
REMARK SMILES IDX 20 12 8 13 7 14 6 15 5 16 4 17 3 18 2 19 1 20
REMARK H PARENT
REMARK Flexibility Score: inf
ROOT
ATOM      1  C   UNL     1       9.428  15.852  19.912  1.00  0.00    -0.031 C 
ATOM      2  C   UNL     1       8.788  15.295  20.950  1.00  0.00    -0.031 C 
ENDROOT
BRANCH   1   3
ATOM      3  C   UNL     1      10.084  17.202  20.017  1.00  0.00     0.027 C 
BRANCH   3   4
ATOM      4  C   UNL     1       9.261  18.286  19.310  1.00  0.00     0.004 C 
BRANCH   4   5
ATOM      5  C   UNL     1       7.952  18.598  20.053  1.00  0.00     0.000 C 
BRANCH   5   6
ATOM      6  C   UNL     1       7.969  19.979  20.726  1.00  0.00     0.000 C 
BRANCH   6   7
ATOM      7  C   UNL     1       8.199  19.895  22.245  1.00  0.00     0.000 C 
BRANCH   7   8
ATOM      8  C   UNL     1       9.684  20.014  22.637  1.00  0.00     0.006 C 
BRANCH   8   9
ATOM      9  C   UNL     1      10.512  20.887  21.679  1.00  0.00     0.053 C 
BRANCH   9  10
ATOM     10  C   UNL     1      10.789  22.250  22.238  1.00  0.00     0.041 C 
ATOM     11  O   UNL     1      11.622  23.007  21.673  1.00  0.00    -0.550 OA
ATOM     12  O   UNL     1      10.157  22.672  23.400  1.00  0.00    -0.550 OA
ENDBRANCH   9  10
ENDBRANCH   8   9
ENDBRANCH   7   8
ENDBRANCH   6   7
ENDBRANCH   5   6
ENDBRANCH   4   5
ENDBRANCH   3   4
ENDBRANCH   1   3
BRANCH   2  13
ATOM     13  C   UNL     1       8.095  13.964  20.829  1.00  0.00     0.027 C 
BRANCH  13  14
ATOM     14  C   UNL     1       6.694  14.089  20.210  1.00  0.00     0.004 C 
BRANCH  14  15
ATOM     15  C   UNL     1       5.601  13.532  21.138  1.00  0.00     0.000 C 
BRANCH  15  16
ATOM     16  C   UNL     1       6.111  12.396  22.039  1.00  0.00     0.000 C 
BRANCH  16  17
ATOM     17  C   UNL     1       5.134  12.054  23.174  1.00  0.00    -0.000 C 
BRANCH  17  18
ATOM     18  C   UNL     1       5.743  12.401  24.542  1.00  0.00    -0.000 C 
BRANCH  18  19
ATOM     19  C   UNL     1       6.159  13.875  24.647  1.00  0.00    -0.003 C 
ATOM     20  C   UNL     1       7.675  14.066  24.603  1.00  0.00     0.004 C 
ENDBRANCH  18  19
ENDBRANCH  17  18
ENDBRANCH  16  17
ENDBRANCH  15  16
ENDBRANCH  14  15
ENDBRANCH  13  14
ENDBRANCH   2  13
TORSDOF 15
ENDMDL
MODEL 8
REMARK VINA RESULT:    -3.964      1.606      2.809
REMARK INTER + INTRA:          -9.497
REMARK INTER:                  -7.829
REMARK INTRA:                  -1.668
REMARK UNBOUND:                -2.057
REMARK SMILES CCCCCCCCC=CCCCCCCCC(=O)[O-]
REMARK SMILES IDX 10 1 9 2 11 3 12 4 13 5 14 6 15 7 16 8 17 9 18 10 19 11
REMARK SMILES IDX 20 12 8 13 7 14 6 15 5 16 4 17 3 18 2 19 1 20
REMARK H PARENT
REMARK Flexibility Score: inf
ROOT
ATOM      1  C   UNL     1      10.068  17.479  20.158  1.00  0.00    -0.031 C 
ATOM      2  C   UNL     1       9.139  18.343  19.724  1.00  0.00    -0.031 C 
ENDROOT
BRANCH   1   3
ATOM      3  C   UNL     1       9.951  15.999  19.910  1.00  0.00     0.027 C 
BRANCH   3   4
ATOM      4  C   UNL     1       8.552  15.620  19.409  1.00  0.00     0.004 C 
BRANCH   4   5
ATOM      5  C   UNL     1       7.832  14.661  20.373  1.00  0.00     0.000 C 
BRANCH   5   6
ATOM      6  C   UNL     1       8.642  14.391  21.651  1.00  0.00     0.000 C 
BRANCH   6   7
ATOM      7  C   UNL     1       8.070  15.121  22.879  1.00  0.00     0.000 C 
BRANCH   7   8
ATOM      8  C   UNL     1       7.836  14.186  24.080  1.00  0.00     0.006 C 
BRANCH   8   9
ATOM      9  C   UNL     1       6.382  14.172  24.584  1.00  0.00     0.053 C 
BRANCH   9  10
ATOM     10  C   UNL     1       5.572  13.070  23.970  1.00  0.00     0.041 C 
ATOM     11  O   UNL     1       5.452  11.967  24.566  1.00  0.00    -0.550 OA
ATOM     12  O   UNL     1       4.980  13.247  22.726  1.00  0.00    -0.550 OA
ENDBRANCH   9  10
ENDBRANCH   8   9
ENDBRANCH   7   8
ENDBRANCH   6   7
ENDBRANCH   5   6
ENDBRANCH   4   5
ENDBRANCH   3   4
ENDBRANCH   1   3
BRANCH   2  13
ATOM     13  C   UNL     1       9.237  19.817  20.012  1.00  0.00     0.027 C 
BRANCH  13  14
ATOM     14  C   UNL     1       8.363  20.239  21.203  1.00  0.00     0.004 C 
BRANCH  14  15
ATOM     15  C   UNL     1       9.108  20.101  22.543  1.00  0.00     0.000 C 
BRANCH  15  16
ATOM     16  C   UNL     1      10.585  20.514  22.444  1.00  0.00     0.000 C 
BRANCH  16  17
ATOM     17  C   UNL     1      10.801  22.013  22.701  1.00  0.00    -0.000 C 
BRANCH  17  18
ATOM     18  C   UNL     1      11.205  22.738  21.409  1.00  0.00    -0.000 C 
BRANCH  18  19
ATOM     19  C   UNL     1      10.139  23.738  20.934  1.00  0.00    -0.003 C 
ATOM     20  C   UNL     1       9.726  23.516  19.479  1.00  0.00     0.004 C 
ENDBRANCH  18  19
ENDBRANCH  17  18
ENDBRANCH  16  17
ENDBRANCH  15  16
ENDBRANCH  14  15
ENDBRANCH  13  14
ENDBRANCH   2  13
TORSDOF 15
ENDMDL
MODEL 9
REMARK VINA RESULT:    -3.957      2.281      7.092
REMARK INTER + INTRA:          -9.485
REMARK INTER:                  -7.774
REMARK INTRA:                  -1.711
REMARK UNBOUND:                -2.057
REMARK SMILES CCCCCCCCC=CCCCCCCCC(=O)[O-]
REMARK SMILES IDX 10 1 9 2 11 3 12 4 13 5 14 6 15 7 16 8 17 9 18 10 19 11
REMARK SMILES IDX 20 12 8 13 7 14 6 15 5 16 4 17 3 18 2 19 1 20
REMARK H PARENT
REMARK Flexibility Score: inf
ROOT
ATOM      1  C   UNL     1       8.220  15.718  21.152  1.00  0.00    -0.031 C 
ATOM      2  C   UNL     1       7.117  15.234  20.563  1.00  0.00    -0.031 C 
ENDROOT
BRANCH   1   3
ATOM      3  C   UNL     1       9.525  15.835  20.413  1.00  0.00     0.027 C 
BRANCH   3   4
ATOM      4  C   UNL     1       9.399  16.743  19.184  1.00  0.00     0.004 C 
BRANCH   4   5
ATOM      5  C   UNL     1       9.177  18.214  19.570  1.00  0.00     0.000 C 
BRANCH   5   6
ATOM      6  C   UNL     1      10.255  18.742  20.531  1.00  0.00     0.000 C 
BRANCH   6   7
ATOM      7  C   UNL     1       9.811  20.009  21.281  1.00  0.00     0.000 C 
BRANCH   7   8
ATOM      8  C   UNL     1       9.412  19.735  22.743  1.00  0.00     0.006 C 
BRANCH   8   9
ATOM      9  C   UNL     1       8.334  20.690  23.284  1.00  0.00     0.053 C 
BRANCH   9  10
ATOM     10  C   UNL     1       7.027  20.546  22.564  1.00  0.00     0.041 C 
ATOM     11  O   UNL     1       6.293  21.554  22.380  1.00  0.00    -0.550 OA
ATOM     12  O   UNL     1       6.601  19.298  22.128  1.00  0.00    -0.550 OA
ENDBRANCH   9  10
ENDBRANCH   8   9
ENDBRANCH   7   8
ENDBRANCH   6   7
ENDBRANCH   5   6
ENDBRANCH   4   5
ENDBRANCH   3   4
ENDBRANCH   1   3
BRANCH   2  13
ATOM     13  C   UNL     1       5.823  15.077  21.317  1.00  0.00     0.027 C 
BRANCH  13  14
ATOM     14  C   UNL     1       5.146  13.725  21.042  1.00  0.00     0.004 C 
BRANCH  14  15
ATOM     15  C   UNL     1       5.823  12.574  21.806  1.00  0.00     0.000 C 
BRANCH  15  16
ATOM     16  C   UNL     1       4.905  11.950  22.870  1.00  0.00     0.000 C 
BRANCH  16  17
ATOM     17  C   UNL     1       5.449  12.120  24.297  1.00  0.00    -0.000 C 
BRANCH  17  18
ATOM     18  C   UNL     1       4.893  13.396  24.946  1.00  0.00    -0.000 C 
BRANCH  18  19
ATOM     19  C   UNL     1       5.933  14.524  25.019  1.00  0.00    -0.003 C 
ATOM     20  C   UNL     1       7.343  14.052  24.661  1.00  0.00     0.004 C 
ENDBRANCH  18  19
ENDBRANCH  17  18
ENDBRANCH  16  17
ENDBRANCH  15  16
ENDBRANCH  14  15
ENDBRANCH  13  14
ENDBRANCH   2  13
TORSDOF 15
ENDMDL
