MODEL 1
REMARK VINA RESULT:    -5.909      0.000      0.000
REMARK INTER + INTRA:          -6.428
REMARK INTER:                  -6.428
REMARK INTRA:                   0.000
REMARK UNBOUND:                 0.000
REMARK SMILES Cc1cc(O)c2c(c1)C(=O)c1cc(O)cc(O)c1C2=O
REMARK SMILES IDX 1 1 2 2 8 3 7 4 6 5 4 6 3 7 19 8 20 9 18 10 11 11 9 12 10 13
REMARK SMILES IDX 12 14 13 15 15 16 16 17 5 18 17 20 14 22
REMARK H PARENT 5 19 17 21 14 23
REMARK Flexibility Score: inf
ROOT
ATOM      1  C   UNL     1      13.503  -9.751 717.336  1.00  0.00     0.044 C 
ATOM      2  C   UNL     1      13.892  -9.159 716.012  1.00  0.00    -0.047 A 
ATOM      3  C   UNL     1      15.069  -8.413 715.893  1.00  0.00     0.016 A 
ATOM      4  C   UNL     1      15.456  -7.879 714.653  1.00  0.00     0.038 A 
ATOM      5  C   UNL     1      14.652  -8.096 713.512  1.00  0.00     0.076 A 
ATOM      6  C   UNL     1      13.505  -8.924 713.621  1.00  0.00     0.127 A 
ATOM      7  C   UNL     1      13.130  -9.427 714.871  1.00  0.00     0.050 A 
ATOM      8  C   UNL     1      15.013  -7.394 712.253  1.00  0.00     0.201 C 
ATOM      9  O   UNL     1      14.112  -7.075 711.432  1.00  0.00    -0.288 OA
ATOM     10  C   UNL     1      16.402  -6.904 712.054  1.00  0.00     0.076 A 
ATOM     11  C   UNL     1      17.205  -6.690 713.197  1.00  0.00     0.041 A 
ATOM     12  C   UNL     1      16.709  -7.095 714.535  1.00  0.00     0.194 C 
ATOM     13  O   UNL     1      17.365  -6.793 715.569  1.00  0.00    -0.289 OA
ATOM     14  C   UNL     1      18.473  -6.100 713.061  1.00  0.00     0.059 A 
ATOM     15  C   UNL     1      18.954  -5.736 711.804  1.00  0.00     0.120 A 
ATOM     16  C   UNL     1      18.181  -5.982 710.666  1.00  0.00     0.093 A 
ATOM     17  C   UNL     1      16.925  -6.586 710.773  1.00  0.00     0.131 A 
ENDROOT
BRANCH   6  18
ATOM     18  O   UNL     1      12.737  -9.300 712.517  1.00  0.00    -0.507 OA
ATOM     19  H   UNL     1      12.066  -8.690 712.070  1.00  0.00     0.293 HD
ENDBRANCH   6  18
BRANCH  17  20
ATOM     20  O   UNL     1      16.249  -6.884 709.587  1.00  0.00    -0.507 OA
ATOM     21  H   UNL     1      15.369  -6.464 709.324  1.00  0.00     0.293 HD
ENDBRANCH  17  20
BRANCH  15  22
ATOM     22  O   UNL     1      20.208  -5.140 711.694  1.00  0.00    -0.508 OA
ATOM     23  H   UNL     1      20.364  -4.338 711.093  1.00  0.00     0.293 HD
ENDBRANCH  15  22
TORSDOF 3
ENDMDL
MODEL 2
REMARK VINA RESULT:    -5.582      1.334      6.292
REMARK INTER + INTRA:          -6.072
REMARK INTER:                  -6.072
REMARK INTRA:                   0.000
REMARK UNBOUND:                 0.000
REMARK SMILES Cc1cc(O)c2c(c1)C(=O)c1cc(O)cc(O)c1C2=O
REMARK SMILES IDX 1 1 2 2 8 3 7 4 6 5 4 6 3 7 19 8 20 9 18 10 11 11 9 12 10 13
REMARK SMILES IDX 12 14 13 15 15 16 16 17 5 18 17 20 14 22
REMARK H PARENT 5 19 17 21 14 23
REMARK Flexibility Score: inf
ROOT
ATOM      1  C   UNL     1      18.585  -5.248 709.936  1.00  0.00     0.044 C 
ATOM      2  C   UNL     1      17.992  -5.841 711.181  1.00  0.00    -0.047 A 
ATOM      3  C   UNL     1      16.685  -6.341 711.169  1.00  0.00     0.016 A 
ATOM      4  C   UNL     1      16.131  -6.923 712.321  1.00  0.00     0.038 A 
ATOM      5  C   UNL     1      16.897  -7.007 713.505  1.00  0.00     0.076 A 
ATOM      6  C   UNL     1      18.249  -6.576 713.486  1.00  0.00     0.127 A 
ATOM      7  C   UNL     1      18.771  -5.981 712.334  1.00  0.00     0.050 A 
ATOM      8  C   UNL     1      16.230  -7.491 714.741  1.00  0.00     0.201 C 
ATOM      9  O   UNL     1      16.616  -7.075 715.866  1.00  0.00    -0.288 OA
ATOM     10  C   UNL     1      14.997  -8.314 714.640  1.00  0.00     0.076 A 
ATOM     11  C   UNL     1      14.234  -8.230 713.454  1.00  0.00     0.041 A 
ATOM     12  C   UNL     1      14.748  -7.457 712.298  1.00  0.00     0.194 C 
ATOM     13  O   UNL     1      14.017  -7.274 711.286  1.00  0.00    -0.289 OA
ATOM     14  C   UNL     1      12.993  -8.884 713.372  1.00  0.00     0.059 A 
ATOM     15  C   UNL     1      12.512  -9.630 714.448  1.00  0.00     0.120 A 
ATOM     16  C   UNL     1      13.282  -9.749 715.609  1.00  0.00     0.093 A 
ATOM     17  C   UNL     1      14.528  -9.125 715.707  1.00  0.00     0.131 A 
ENDROOT
BRANCH   6  18
ATOM     18  O   UNL     1      19.112  -6.751 714.570  1.00  0.00    -0.507 OA
ATOM     19  H   UNL     1      19.524  -7.640 714.818  1.00  0.00     0.293 HD
ENDBRANCH   6  18
BRANCH  17  20
ATOM     20  O   UNL     1      15.280  -9.364 716.860  1.00  0.00    -0.507 OA
ATOM     21  H   UNL     1      15.641 -10.272 717.114  1.00  0.00     0.293 HD
ENDBRANCH  17  20
BRANCH  15  22
ATOM     22  O   UNL     1      11.274 -10.259 714.350  1.00  0.00    -0.508 OA
ATOM     23  H   UNL     1      10.744 -10.521 715.174  1.00  0.00     0.293 HD
ENDBRANCH  15  22
TORSDOF 3
ENDMDL
MODEL 3
REMARK VINA RESULT:    -5.498      1.676      2.549
REMARK INTER + INTRA:          -5.980
REMARK INTER:                  -5.980
REMARK INTRA:                   0.000
REMARK UNBOUND:                 0.000
REMARK SMILES Cc1cc(O)c2c(c1)C(=O)c1cc(O)cc(O)c1C2=O
REMARK SMILES IDX 1 1 2 2 8 3 7 4 6 5 4 6 3 7 19 8 20 9 18 10 11 11 9 12 10 13
REMARK SMILES IDX 12 14 13 15 15 16 16 17 5 18 17 20 14 22
REMARK H PARENT 5 19 17 21 14 23
REMARK Flexibility Score: inf
ROOT
ATOM      1  C   UNL     1      10.875 -10.846 713.864  1.00  0.00     0.044 C 
ATOM      2  C   UNL     1      11.901  -9.847 713.415  1.00  0.00    -0.047 A 
ATOM      3  C   UNL     1      12.913  -9.435 714.288  1.00  0.00     0.016 A 
ATOM      4  C   UNL     1      13.894  -8.522 713.868  1.00  0.00     0.038 A 
ATOM      5  C   UNL     1      13.862  -8.013 712.550  1.00  0.00     0.076 A 
ATOM      6  C   UNL     1      12.885  -8.500 711.644  1.00  0.00     0.127 A 
ATOM      7  C   UNL     1      11.907  -9.393 712.092  1.00  0.00     0.050 A 
ATOM      8  C   UNL     1      14.825  -6.941 712.187  1.00  0.00     0.201 C 
ATOM      9  O   UNL     1      14.512  -6.086 711.317  1.00  0.00    -0.288 OA
ATOM     10  C   UNL     1      16.069  -6.767 712.981  1.00  0.00     0.076 A 
ATOM     11  C   UNL     1      16.098  -7.279 714.298  1.00  0.00     0.041 A 
ATOM     12  C   UNL     1      14.967  -8.096 714.798  1.00  0.00     0.194 C 
ATOM     13  O   UNL     1      14.930  -8.448 716.009  1.00  0.00    -0.289 OA
ATOM     14  C   UNL     1      17.202  -7.016 715.126  1.00  0.00     0.059 A 
ATOM     15  C   UNL     1      18.279  -6.265 714.656  1.00  0.00     0.120 A 
ATOM     16  C   UNL     1      18.273  -5.791 713.342  1.00  0.00     0.093 A 
ATOM     17  C   UNL     1      17.196  -6.056 712.491  1.00  0.00     0.131 A 
ENDROOT
BRANCH   6  18
ATOM     18  O   UNL     1      12.871  -8.153 710.291  1.00  0.00    -0.507 OA
ATOM     19  H   UNL     1      12.396  -8.693 709.581  1.00  0.00     0.293 HD
ENDBRANCH   6  18
BRANCH  17  20
ATOM     20  O   UNL     1      17.300  -5.629 711.165  1.00  0.00    -0.507 OA
ATOM     21  H   UNL     1      16.696  -4.932 710.753  1.00  0.00     0.293 HD
ENDBRANCH  17  20
BRANCH  15  22
ATOM     22  O   UNL     1      19.357  -6.006 715.499  1.00  0.00    -0.508 OA
ATOM     23  H   UNL     1      19.439  -5.130 716.002  1.00  0.00     0.293 HD
ENDBRANCH  15  22
TORSDOF 3
ENDMDL
MODEL 4
REMARK VINA RESULT:    -5.377      1.835      5.377
REMARK INTER + INTRA:          -5.849
REMARK INTER:                  -5.849
REMARK INTRA:                   0.000
REMARK UNBOUND:                 0.000
REMARK SMILES Cc1cc(O)c2c(c1)C(=O)c1cc(O)cc(O)c1C2=O
REMARK SMILES IDX 1 1 2 2 8 3 7 4 6 5 4 6 3 7 19 8 20 9 18 10 11 11 9 12 10 13
REMARK SMILES IDX 12 14 13 15 15 16 16 17 5 18 17 20 14 22
REMARK H PARENT 5 19 17 21 14 23
REMARK Flexibility Score: inf
ROOT
ATOM      1  C   UNL     1      18.753  -4.940 715.499  1.00  0.00     0.044 C 
ATOM      2  C   UNL     1      17.724  -5.588 714.619  1.00  0.00    -0.047 A 
ATOM      3  C   UNL     1      16.893  -6.592 715.129  1.00  0.00     0.016 A 
ATOM      4  C   UNL     1      15.909  -7.185 714.323  1.00  0.00     0.038 A 
ATOM      5  C   UNL     1      15.751  -6.766 712.982  1.00  0.00     0.076 A 
ATOM      6  C   UNL     1      16.538  -5.690 712.497  1.00  0.00     0.127 A 
ATOM      7  C   UNL     1      17.526  -5.130 713.313  1.00  0.00     0.050 A 
ATOM      8  C   UNL     1      14.803  -7.517 712.118  1.00  0.00     0.201 C 
ATOM      9  O   UNL     1      15.016  -7.599 710.880  1.00  0.00    -0.288 OA
ATOM     10  C   UNL     1      13.717  -8.320 712.738  1.00  0.00     0.076 A 
ATOM     11  C   UNL     1      13.877  -8.736 714.080  1.00  0.00     0.041 A 
ATOM     12  C   UNL     1      15.028  -8.243 714.874  1.00  0.00     0.194 C 
ATOM     13  O   UNL     1      15.244  -8.708 716.026  1.00  0.00    -0.289 OA
ATOM     14  C   UNL     1      12.940  -9.609 714.657  1.00  0.00     0.059 A 
ATOM     15  C   UNL     1      11.844 -10.060 713.923  1.00  0.00     0.120 A 
ATOM     16  C   UNL     1      11.660  -9.620 712.609  1.00  0.00     0.093 A 
ATOM     17  C   UNL     1      12.566  -8.735 712.018  1.00  0.00     0.131 A 
ENDROOT
BRANCH   6  18
ATOM     18  O   UNL     1      16.349  -5.127 711.233  1.00  0.00    -0.507 OA
ATOM     19  H   UNL     1      16.656  -5.564 710.375  1.00  0.00     0.293 HD
ENDBRANCH   6  18
BRANCH  17  20
ATOM     20  O   UNL     1      12.270  -8.268 710.736  1.00  0.00    -0.507 OA
ATOM     21  H   UNL     1      11.885  -7.353 710.549  1.00  0.00     0.293 HD
ENDBRANCH  17  20
BRANCH  15  22
ATOM     22  O   UNL     1      10.935 -10.936 714.512  1.00  0.00    -0.508 OA
ATOM     23  H   UNL     1      10.683 -10.860 715.491  1.00  0.00     0.293 HD
ENDBRANCH  15  22
TORSDOF 3
ENDMDL
MODEL 5
REMARK VINA RESULT:    -5.342      1.723      5.538
REMARK INTER + INTRA:          -5.811
REMARK INTER:                  -5.811
REMARK INTRA:                   0.000
REMARK UNBOUND:                 0.000
REMARK SMILES Cc1cc(O)c2c(c1)C(=O)c1cc(O)cc(O)c1C2=O
REMARK SMILES IDX 1 1 2 2 8 3 7 4 6 5 4 6 3 7 19 8 20 9 18 10 11 11 9 12 10 13
REMARK SMILES IDX 12 14 13 15 15 16 16 17 5 18 17 20 14 22
REMARK H PARENT 5 19 17 21 14 23
REMARK Flexibility Score: inf
ROOT
ATOM      1  C   UNL     1      17.851  -4.113 711.461  1.00  0.00     0.044 C 
ATOM      2  C   UNL     1      16.868  -5.160 711.897  1.00  0.00    -0.047 A 
ATOM      3  C   UNL     1      17.037  -5.819 713.119  1.00  0.00     0.016 A 
ATOM      4  C   UNL     1      16.108  -6.781 713.549  1.00  0.00     0.038 A 
ATOM      5  C   UNL     1      14.989  -7.088 712.742  1.00  0.00     0.076 A 
ATOM      6  C   UNL     1      14.778  -6.355 711.545  1.00  0.00     0.127 A 
ATOM      7  C   UNL     1      15.728  -5.418 711.129  1.00  0.00     0.050 A 
ATOM      8  C   UNL     1      14.111  -8.212 713.157  1.00  0.00     0.201 C 
ATOM      9  O   UNL     1      13.501  -8.886 712.285  1.00  0.00    -0.288 OA
ATOM     10  C   UNL     1      14.100  -8.655 714.575  1.00  0.00     0.076 A 
ATOM     11  C   UNL     1      15.220  -8.345 715.380  1.00  0.00     0.041 A 
ATOM     12  C   UNL     1      16.292  -7.469 714.849  1.00  0.00     0.194 C 
ATOM     13  O   UNL     1      17.349  -7.292 715.513  1.00  0.00    -0.289 OA
ATOM     14  C   UNL     1      15.309  -8.863 716.683  1.00  0.00     0.059 A 
ATOM     15  C   UNL     1      14.295  -9.670 717.197  1.00  0.00     0.120 A 
ATOM     16  C   UNL     1      13.167  -9.947 716.419  1.00  0.00     0.093 A 
ATOM     17  C   UNL     1      13.044  -9.427 715.127  1.00  0.00     0.131 A 
ENDROOT
BRANCH   6  18
ATOM     18  O   UNL     1      13.628  -6.501 710.765  1.00  0.00    -0.507 OA
ATOM     19  H   UNL     1      12.940  -7.225 710.915  1.00  0.00     0.293 HD
ENDBRANCH   6  18
BRANCH  17  20
ATOM     20  O   UNL     1      11.850  -9.670 714.445  1.00  0.00    -0.507 OA
ATOM     21  H   UNL     1      11.760 -10.346 713.699  1.00  0.00     0.293 HD
ENDBRANCH  17  20
BRANCH  15  22
ATOM     22  O   UNL     1      14.411 -10.184 718.486  1.00  0.00    -0.508 OA
ATOM     23  H   UNL     1      15.306 -10.230 718.960  1.00  0.00     0.293 HD
ENDBRANCH  15  22
TORSDOF 3
ENDMDL
MODEL 6
REMARK VINA RESULT:    -5.338      3.348      6.357
REMARK INTER + INTRA:          -5.806
REMARK INTER:                  -5.806
REMARK INTRA:                   0.000
REMARK UNBOUND:                 0.000
REMARK SMILES Cc1cc(O)c2c(c1)C(=O)c1cc(O)cc(O)c1C2=O
REMARK SMILES IDX 1 1 2 2 8 3 7 4 6 5 4 6 3 7 19 8 20 9 18 10 11 11 9 12 10 13
REMARK SMILES IDX 12 14 13 15 15 16 16 17 5 18 17 20 14 22
REMARK H PARENT 5 19 17 21 14 23
REMARK Flexibility Score: inf
ROOT
ATOM      1  C   UNL     1      18.912  -6.832 712.471  1.00  0.00     0.044 C 
ATOM      2  C   UNL     1      17.624  -6.339 713.064  1.00  0.00    -0.047 A 
ATOM      3  C   UNL     1      16.918  -7.133 713.973  1.00  0.00     0.016 A 
ATOM      4  C   UNL     1      15.727  -6.670 714.555  1.00  0.00     0.038 A 
ATOM      5  C   UNL     1      15.234  -5.388 714.221  1.00  0.00     0.076 A 
ATOM      6  C   UNL     1      15.998  -4.554 713.366  1.00  0.00     0.127 A 
ATOM      7  C   UNL     1      17.170  -5.047 712.783  1.00  0.00     0.050 A 
ATOM      8  C   UNL     1      13.899  -4.992 714.739  1.00  0.00     0.201 C 
ATOM      9  O   UNL     1      13.179  -4.199 714.077  1.00  0.00    -0.288 OA
ATOM     10  C   UNL     1      13.340  -5.673 715.937  1.00  0.00     0.076 A 
ATOM     11  C   UNL     1      13.836  -6.954 716.269  1.00  0.00     0.041 A 
ATOM     12  C   UNL     1      14.988  -7.516 715.523  1.00  0.00     0.194 C 
ATOM     13  O   UNL     1      15.354  -8.705 715.729  1.00  0.00    -0.289 OA
ATOM     14  C   UNL     1      13.240  -7.688 717.308  1.00  0.00     0.059 A 
ATOM     15  C   UNL     1      12.170  -7.157 718.027  1.00  0.00     0.120 A 
ATOM     16  C   UNL     1      11.701  -5.875 717.729  1.00  0.00     0.093 A 
ATOM     17  C   UNL     1      12.290  -5.116 716.713  1.00  0.00     0.131 A 
ENDROOT
BRANCH   6  18
ATOM     18  O   UNL     1      15.652  -3.228 713.098  1.00  0.00    -0.507 OA
ATOM     19  H   UNL     1      15.516  -2.864 712.165  1.00  0.00     0.293 HD
ENDBRANCH   6  18
BRANCH  17  20
ATOM     20  O   UNL     1      11.830  -3.810 716.533  1.00  0.00    -0.507 OA
ATOM     21  H   UNL     1      11.076  -3.564 715.907  1.00  0.00     0.293 HD
ENDBRANCH  17  20
BRANCH  15  22
ATOM     22  O   UNL     1      11.586  -7.907 719.045  1.00  0.00    -0.508 OA
ATOM     23  H   UNL     1      11.264  -7.477 719.904  1.00  0.00     0.293 HD
ENDBRANCH  15  22
TORSDOF 3
ENDMDL
MODEL 7
REMARK VINA RESULT:    -5.061      2.180      4.159
REMARK INTER + INTRA:          -5.505
REMARK INTER:                  -5.505
REMARK INTRA:                   0.000
REMARK UNBOUND:                 0.000
REMARK SMILES Cc1cc(O)c2c(c1)C(=O)c1cc(O)cc(O)c1C2=O
REMARK SMILES IDX 1 1 2 2 8 3 7 4 6 5 4 6 3 7 19 8 20 9 18 10 11 11 9 12 10 13
REMARK SMILES IDX 12 14 13 15 15 16 16 17 5 18 17 20 14 22
REMARK H PARENT 5 19 17 21 14 23
REMARK Flexibility Score: inf
ROOT
ATOM      1  C   UNL     1      13.374  -6.490 714.793  1.00  0.00     0.044 C 
ATOM      2  C   UNL     1      14.742  -6.539 714.176  1.00  0.00    -0.047 A 
ATOM      3  C   UNL     1      14.930  -6.145 712.848  1.00  0.00     0.016 A 
ATOM      4  C   UNL     1      16.210  -6.160 712.270  1.00  0.00     0.038 A 
ATOM      5  C   UNL     1      17.322  -6.575 713.037  1.00  0.00     0.076 A 
ATOM      6  C   UNL     1      17.138  -6.891 714.407  1.00  0.00     0.127 A 
ATOM      7  C   UNL     1      15.851  -6.889 714.953  1.00  0.00     0.050 A 
ATOM      8  C   UNL     1      18.633  -6.720 712.352  1.00  0.00     0.201 C 
ATOM      9  O   UNL     1      19.463  -7.574 712.762  1.00  0.00    -0.288 OA
ATOM     10  C   UNL     1      18.885  -5.994 711.079  1.00  0.00     0.076 A 
ATOM     11  C   UNL     1      17.770  -5.578 710.316  1.00  0.00     0.041 A 
ATOM     12  C   UNL     1      16.401  -5.734 710.863  1.00  0.00     0.194 C 
ATOM     13  O   UNL     1      15.400  -5.483 710.138  1.00  0.00    -0.289 OA
ATOM     14  C   UNL     1      17.965  -5.013 709.045  1.00  0.00     0.059 A 
ATOM     15  C   UNL     1      19.251  -4.844 708.533  1.00  0.00     0.120 A 
ATOM     16  C   UNL     1      20.358  -5.217 709.301  1.00  0.00     0.093 A 
ATOM     17  C   UNL     1      20.192  -5.763 710.577  1.00  0.00     0.131 A 
ENDROOT
BRANCH   6  18
ATOM     18  O   UNL     1      18.203  -7.176 715.266  1.00  0.00    -0.507 OA
ATOM     19  H   UNL     1      18.106  -7.252 716.269  1.00  0.00     0.293 HD
ENDBRANCH   6  18
BRANCH  17  20
ATOM     20  O   UNL     1      21.344  -6.027 711.321  1.00  0.00    -0.507 OA
ATOM     21  H   UNL     1      21.740  -6.950 711.431  1.00  0.00     0.293 HD
ENDBRANCH  17  20
BRANCH  15  22
ATOM     22  O   UNL     1      19.420  -4.294 707.265  1.00  0.00    -0.508 OA
ATOM     23  H   UNL     1      20.043  -4.712 706.583  1.00  0.00     0.293 HD
ENDBRANCH  15  22
TORSDOF 3
ENDMDL
MODEL 8
REMARK VINA RESULT:    -5.021      2.271      5.374
REMARK INTER + INTRA:          -5.462
REMARK INTER:                  -5.462
REMARK INTRA:                   0.000
REMARK UNBOUND:                 0.000
REMARK SMILES Cc1cc(O)c2c(c1)C(=O)c1cc(O)cc(O)c1C2=O
REMARK SMILES IDX 1 1 2 2 8 3 7 4 6 5 4 6 3 7 19 8 20 9 18 10 11 11 9 12 10 13
REMARK SMILES IDX 12 14 13 15 15 16 16 17 5 18 17 20 14 22
REMARK H PARENT 5 19 17 21 14 23
REMARK Flexibility Score: inf
ROOT
ATOM      1  C   UNL     1      18.512  -6.199 714.727  1.00  0.00     0.044 C 
ATOM      2  C   UNL     1      17.155  -6.794 714.485  1.00  0.00    -0.047 A 
ATOM      3  C   UNL     1      16.570  -6.722 713.217  1.00  0.00     0.016 A 
ATOM      4  C   UNL     1      15.313  -7.300 712.974  1.00  0.00     0.038 A 
ATOM      5  C   UNL     1      14.631  -7.963 714.019  1.00  0.00     0.076 A 
ATOM      6  C   UNL     1      15.267  -8.107 715.278  1.00  0.00     0.127 A 
ATOM      7  C   UNL     1      16.508  -7.505 715.501  1.00  0.00     0.050 A 
ATOM      8  C   UNL     1      13.243  -8.431 713.765  1.00  0.00     0.201 C 
ATOM      9  O   UNL     1      12.417  -8.487 714.715  1.00  0.00    -0.288 OA
ATOM     10  C   UNL     1      12.782  -8.652 712.369  1.00  0.00     0.076 A 
ATOM     11  C   UNL     1      13.468  -7.989 711.327  1.00  0.00     0.041 A 
ATOM     12  C   UNL     1      14.704  -7.224 711.625  1.00  0.00     0.194 C 
ATOM     13  O   UNL     1      15.248  -6.529 710.724  1.00  0.00    -0.289 OA
ATOM     14  C   UNL     1      12.981  -8.061 710.012  1.00  0.00     0.059 A 
ATOM     15  C   UNL     1      11.831  -8.795 709.721  1.00  0.00     0.120 A 
ATOM     16  C   UNL     1      11.172  -9.486 710.741  1.00  0.00     0.093 A 
ATOM     17  C   UNL     1      11.648  -9.446 712.055  1.00  0.00     0.131 A 
ENDROOT
BRANCH   6  18
ATOM     18  O   UNL     1      14.721  -8.865 716.317  1.00  0.00    -0.507 OA
ATOM     19  H   UNL     1      14.975  -8.747 717.288  1.00  0.00     0.293 HD
ENDBRANCH   6  18
BRANCH  17  20
ATOM     20  O   UNL     1      10.992 -10.233 713.004  1.00  0.00    -0.507 OA
ATOM     21  H   UNL     1      10.832 -11.224 712.894  1.00  0.00     0.293 HD
ENDBRANCH  17  20
BRANCH  15  22
ATOM     22  O   UNL     1      11.358  -8.843 708.412  1.00  0.00    -0.508 OA
ATOM     23  H   UNL     1      10.375  -8.983 708.207  1.00  0.00     0.293 HD
ENDBRANCH  15  22
TORSDOF 3
ENDMDL
MODEL 9
REMARK VINA RESULT:    -5.003      2.448      5.909
REMARK INTER + INTRA:          -5.441
REMARK INTER:                  -5.441
REMARK INTRA:                   0.000
REMARK UNBOUND:                 0.000
REMARK SMILES Cc1cc(O)c2c(c1)C(=O)c1cc(O)cc(O)c1C2=O
REMARK SMILES IDX 1 1 2 2 8 3 7 4 6 5 4 6 3 7 19 8 20 9 18 10 11 11 9 12 10 13
REMARK SMILES IDX 12 14 13 15 15 16 16 17 5 18 17 20 14 22
REMARK H PARENT 5 19 17 21 14 23
REMARK Flexibility Score: inf
ROOT
ATOM      1  C   UNL     1      11.561  -8.911 708.470  1.00  0.00     0.044 C 
ATOM      2  C   UNL     1      12.390  -8.572 709.675  1.00  0.00    -0.047 A 
ATOM      3  C   UNL     1      12.002  -9.013 710.944  1.00  0.00     0.016 A 
ATOM      4  C   UNL     1      12.786  -8.725 712.073  1.00  0.00     0.038 A 
ATOM      5  C   UNL     1      13.980  -7.984 711.930  1.00  0.00     0.076 A 
ATOM      6  C   UNL     1      14.412  -7.614 710.631  1.00  0.00     0.127 A 
ATOM      7  C   UNL     1      13.604  -7.894 709.525  1.00  0.00     0.050 A 
ATOM      8  C   UNL     1      14.704  -7.572 713.161  1.00  0.00     0.201 C 
ATOM      9  O   UNL     1      15.377  -6.508 713.166  1.00  0.00    -0.288 OA
ATOM     10  C   UNL     1      14.481  -8.313 714.430  1.00  0.00     0.076 A 
ATOM     11  C   UNL     1      13.287  -9.055 714.570  1.00  0.00     0.041 A 
ATOM     12  C   UNL     1      12.369  -9.202 713.414  1.00  0.00     0.194 C 
ATOM     13  O   UNL     1      11.246  -9.754 713.567  1.00  0.00    -0.289 OA
ATOM     14  C   UNL     1      12.976  -9.654 715.801  1.00  0.00     0.059 A 
ATOM     15  C   UNL     1      13.844  -9.537 716.887  1.00  0.00     0.120 A 
ATOM     16  C   UNL     1      15.045  -8.838 716.742  1.00  0.00     0.093 A 
ATOM     17  C   UNL     1      15.387  -8.249 715.521  1.00  0.00     0.131 A 
ENDROOT
BRANCH   6  18
ATOM     18  O   UNL     1      15.646  -7.003 710.391  1.00  0.00    -0.507 OA
ATOM     19  H   UNL     1      15.747  -6.120 709.911  1.00  0.00     0.293 HD
ENDBRANCH   6  18
BRANCH  17  20
ATOM     20  O   UNL     1      16.643  -7.647 715.425  1.00  0.00    -0.507 OA
ATOM     21  H   UNL     1      17.445  -8.090 714.999  1.00  0.00     0.293 HD
ENDBRANCH  17  20
BRANCH  15  22
ATOM     22  O   UNL     1      13.508 -10.129 718.102  1.00  0.00    -0.508 OA
ATOM     23  H   UNL     1      13.452 -11.136 718.205  1.00  0.00     0.293 HD
ENDBRANCH  15  22
TORSDOF 3
ENDMDL
