MODEL 1
REMARK VINA RESULT:    -3.297      0.000      0.000
REMARK INTER + INTRA:          -4.030
REMARK INTER:                  -3.875
REMARK INTRA:                  -0.155
REMARK UNBOUND:                -0.155
REMARK SMILES COc1ccc(C=CC(=O)[O-])cc1
REMARK SMILES IDX 6 1 5 2 12 3 4 4 13 5 3 6 7 7 8 8 9 9 10 10 11 11 2 12 1 13
REMARK H PARENT
REMARK Flexibility Score: inf
ROOT
ATOM      1  C   UNL     1      -8.307   8.726   0.397  1.00  0.00    -0.025 A 
ATOM      2  C   UNL     1      -9.494   9.379   0.766  1.00  0.00     0.012 A 
ATOM      3  C   UNL     1      -7.706   7.843   1.315  1.00  0.00     0.012 A 
ATOM      4  C   UNL     1     -10.083   9.137   2.010  1.00  0.00     0.047 A 
ATOM      5  C   UNL     1      -8.295   7.603   2.559  1.00  0.00     0.047 A 
ATOM      6  C   UNL     1      -9.494   8.249   2.915  1.00  0.00     0.118 A 
ENDROOT
BRANCH   1   7
ATOM      7  C   UNL     1      -7.716   9.024  -0.931  1.00  0.00     0.010 C 
ATOM      8  C   UNL     1      -6.457   9.449  -1.108  1.00  0.00     0.025 C 
BRANCH   8   9
ATOM      9  C   UNL     1      -5.908   9.722  -2.445  1.00  0.00     0.064 C 
ATOM     10  O   UNL     1      -4.665   9.658  -2.632  1.00  0.00    -0.545 OA
ATOM     11  O   UNL     1      -6.742  10.052  -3.509  1.00  0.00    -0.545 OA
ENDBRANCH   8   9
ENDBRANCH   1   7
BRANCH   6  12
ATOM     12  O   UNL     1     -10.125   8.039   4.150  1.00  0.00    -0.497 OA
ATOM     13  C   UNL     1      -9.623   8.507   5.399  1.00  0.00     0.278 C 
ENDBRANCH   6  12
TORSDOF 3
ENDMDL
MODEL 2
REMARK VINA RESULT:    -3.190     20.078     21.959
REMARK INTER + INTRA:          -3.905
REMARK INTER:                  -3.740
REMARK INTRA:                  -0.165
REMARK UNBOUND:                -0.155
REMARK SMILES COc1ccc(C=CC(=O)[O-])cc1
REMARK SMILES IDX 6 1 5 2 12 3 4 4 13 5 3 6 7 7 8 8 9 9 10 10 11 11 2 12 1 13
REMARK H PARENT
REMARK Flexibility Score: inf
ROOT
ATOM      1  C   UNL     1       0.947  -8.418   8.498  1.00  0.00    -0.025 A 
ATOM      2  C   UNL     1       1.369  -9.615   9.098  1.00  0.00     0.012 A 
ATOM      3  C   UNL     1       1.848  -7.723   7.667  1.00  0.00     0.012 A 
ATOM      4  C   UNL     1       2.649 -10.122   8.855  1.00  0.00     0.047 A 
ATOM      5  C   UNL     1       3.128  -8.230   7.427  1.00  0.00     0.047 A 
ATOM      6  C   UNL     1       3.537  -9.439   8.019  1.00  0.00     0.118 A 
ENDROOT
BRANCH   1   7
ATOM      7  C   UNL     1      -0.417  -7.917   8.794  1.00  0.00     0.010 C 
ATOM      8  C   UNL     1      -1.530  -8.649   8.642  1.00  0.00     0.025 C 
BRANCH   8   9
ATOM      9  C   UNL     1      -2.863  -8.115   8.960  1.00  0.00     0.064 C 
ATOM     10  O   UNL     1      -3.819  -8.314   8.166  1.00  0.00    -0.545 OA
ATOM     11  O   UNL     1      -3.085  -7.389  10.125  1.00  0.00    -0.545 OA
ENDBRANCH   8   9
ENDBRANCH   1   7
BRANCH   6  12
ATOM     12  O   UNL     1       4.810  -9.990   7.807  1.00  0.00    -0.497 OA
ATOM     13  C   UNL     1       6.002  -9.225   7.662  1.00  0.00     0.278 C 
ENDBRANCH   6  12
TORSDOF 3
ENDMDL
MODEL 3
REMARK VINA RESULT:    -3.165     17.176     17.687
REMARK INTER + INTRA:          -3.875
REMARK INTER:                  -3.709
REMARK INTRA:                  -0.165
REMARK UNBOUND:                -0.155
REMARK SMILES COc1ccc(C=CC(=O)[O-])cc1
REMARK SMILES IDX 6 1 5 2 12 3 4 4 13 5 3 6 7 7 8 8 9 9 10 10 11 11 2 12 1 13
REMARK H PARENT
REMARK Flexibility Score: inf
ROOT
ATOM      1  C   UNL     1      -9.059  -8.727  -0.764  1.00  0.00    -0.025 A 
ATOM      2  C   UNL     1      -7.794  -9.026  -0.233  1.00  0.00     0.012 A 
ATOM      3  C   UNL     1     -10.120  -8.459   0.124  1.00  0.00     0.012 A 
ATOM      4  C   UNL     1      -7.583  -9.032   1.149  1.00  0.00     0.047 A 
ATOM      5  C   UNL     1      -9.908  -8.467   1.506  1.00  0.00     0.047 A 
ATOM      6  C   UNL     1      -8.633  -8.752   2.029  1.00  0.00     0.118 A 
ENDROOT
BRANCH   1   7
ATOM      7  C   UNL     1      -9.233  -8.743  -2.237  1.00  0.00     0.010 C 
ATOM      8  C   UNL     1      -9.922  -7.815  -2.916  1.00  0.00     0.025 C 
BRANCH   8   9
ATOM      9  C   UNL     1     -10.060  -7.863  -4.379  1.00  0.00     0.064 C 
ATOM     10  O   UNL     1     -10.123  -8.977  -4.962  1.00  0.00    -0.545 OA
ATOM     11  O   UNL     1     -10.120  -6.696  -5.133  1.00  0.00    -0.545 OA
ENDBRANCH   8   9
ENDBRANCH   1   7
BRANCH   6  12
ATOM     12  O   UNL     1      -8.370  -8.770   3.407  1.00  0.00    -0.497 OA
ATOM     13  C   UNL     1      -7.249  -9.413   4.003  1.00  0.00     0.278 C 
ENDBRANCH   6  12
TORSDOF 3
ENDMDL
MODEL 4
REMARK VINA RESULT:    -3.153     17.205     18.582
REMARK INTER + INTRA:          -3.861
REMARK INTER:                  -3.698
REMARK INTRA:                  -0.163
REMARK UNBOUND:                -0.155
REMARK SMILES COc1ccc(C=CC(=O)[O-])cc1
REMARK SMILES IDX 6 1 5 2 12 3 4 4 13 5 3 6 7 7 8 8 9 9 10 10 11 11 2 12 1 13
REMARK H PARENT
REMARK Flexibility Score: inf
ROOT
ATOM      1  C   UNL     1      -8.709  -8.651  -1.157  1.00  0.00    -0.025 A 
ATOM      2  C   UNL     1      -8.056  -7.663  -1.911  1.00  0.00     0.012 A 
ATOM      3  C   UNL     1      -9.749  -9.386  -1.758  1.00  0.00     0.012 A 
ATOM      4  C   UNL     1      -8.412  -7.430  -3.242  1.00  0.00     0.047 A 
ATOM      5  C   UNL     1     -10.106  -9.151  -3.089  1.00  0.00     0.047 A 
ATOM      6  C   UNL     1      -9.435  -8.170  -3.844  1.00  0.00     0.118 A 
ENDROOT
BRANCH   1   7
ATOM      7  C   UNL     1      -8.300  -8.852   0.255  1.00  0.00     0.010 C 
ATOM      8  C   UNL     1      -7.096  -9.312   0.625  1.00  0.00     0.025 C 
BRANCH   8   9
ATOM      9  C   UNL     1      -6.729  -9.486   2.039  1.00  0.00     0.064 C 
ATOM     10  O   UNL     1      -5.515  -9.522   2.366  1.00  0.00    -0.545 OA
ATOM     11  O   UNL     1      -7.704  -9.614   3.022  1.00  0.00    -0.545 OA
ENDBRANCH   8   9
ENDBRANCH   1   7
BRANCH   6  12
ATOM     12  O   UNL     1      -9.755  -7.900  -5.182  1.00  0.00    -0.497 OA
ATOM     13  C   UNL     1      -8.817  -7.926  -6.254  1.00  0.00     0.278 C 
ENDBRANCH   6  12
TORSDOF 3
ENDMDL
MODEL 5
REMARK VINA RESULT:    -3.115      1.593      6.305
REMARK INTER + INTRA:          -3.816
REMARK INTER:                  -3.653
REMARK INTRA:                  -0.163
REMARK UNBOUND:                -0.155
REMARK SMILES COc1ccc(C=CC(=O)[O-])cc1
REMARK SMILES IDX 6 1 5 2 12 3 4 4 13 5 3 6 7 7 8 8 9 9 10 10 11 11 2 12 1 13
REMARK H PARENT
REMARK Flexibility Score: inf
ROOT
ATOM      1  C   UNL     1      -9.243   8.588   0.016  1.00  0.00    -0.025 A 
ATOM      2  C   UNL     1      -7.929   8.973  -0.292  1.00  0.00     0.012 A 
ATOM      3  C   UNL     1     -10.117   8.257  -1.039  1.00  0.00     0.012 A 
ATOM      4  C   UNL     1      -7.486   9.002  -1.618  1.00  0.00     0.047 A 
ATOM      5  C   UNL     1      -9.673   8.287  -2.364  1.00  0.00     0.047 A 
ATOM      6  C   UNL     1      -8.349   8.659  -2.663  1.00  0.00     0.118 A 
ENDROOT
BRANCH   1   7
ATOM      7  C   UNL     1      -9.668   8.583   1.437  1.00  0.00     0.010 C 
ATOM      8  C   UNL     1      -9.120   7.799   2.376  1.00  0.00     0.025 C 
BRANCH   8   9
ATOM      9  C   UNL     1      -9.565   7.835   3.778  1.00  0.00     0.064 C 
ATOM     10  O   UNL     1      -9.440   6.810   4.497  1.00  0.00    -0.545 OA
ATOM     11  O   UNL     1     -10.125   8.986   4.323  1.00  0.00    -0.545 OA
ENDBRANCH   8   9
ENDBRANCH   1   7
BRANCH   6  12
ATOM     12  O   UNL     1      -7.857   8.702  -3.975  1.00  0.00    -0.497 OA
ATOM     13  C   UNL     1      -7.289   9.859  -4.583  1.00  0.00     0.278 C 
ENDBRANCH   6  12
TORSDOF 3
ENDMDL
MODEL 6
REMARK VINA RESULT:    -3.113      9.996     11.133
REMARK INTER + INTRA:          -3.814
REMARK INTER:                  -3.656
REMARK INTRA:                  -0.158
REMARK UNBOUND:                -0.155
REMARK SMILES COc1ccc(C=CC(=O)[O-])cc1
REMARK SMILES IDX 6 1 5 2 12 3 4 4 13 5 3 6 7 7 8 8 9 9 10 10 11 11 2 12 1 13
REMARK H PARENT
REMARK Flexibility Score: inf
ROOT
ATOM      1  C   UNL     1      -8.358   1.201   8.146  1.00  0.00    -0.025 A 
ATOM      2  C   UNL     1      -8.990   1.500   9.363  1.00  0.00     0.012 A 
ATOM      3  C   UNL     1      -7.506   2.164   7.570  1.00  0.00     0.012 A 
ATOM      4  C   UNL     1      -8.759   2.720  10.006  1.00  0.00     0.047 A 
ATOM      5  C   UNL     1      -7.277   3.384   8.213  1.00  0.00     0.047 A 
ATOM      6  C   UNL     1      -7.902   3.670   9.441  1.00  0.00     0.118 A 
ENDROOT
BRANCH   1   7
ATOM      7  C   UNL     1      -8.644  -0.103   7.499  1.00  0.00     0.010 C 
ATOM      8  C   UNL     1      -9.304  -0.232   6.340  1.00  0.00     0.025 C 
BRANCH   8   9
ATOM      9  C   UNL     1      -9.555  -1.545   5.728  1.00  0.00     0.064 C 
ATOM     10  O   UNL     1      -9.727  -2.552   6.464  1.00  0.00    -0.545 OA
ATOM     11  O   UNL     1      -9.603  -1.695   4.346  1.00  0.00    -0.545 OA
ENDBRANCH   8   9
ENDBRANCH   1   7
BRANCH   6  12
ATOM     12  O   UNL     1      -7.703   4.878  10.125  1.00  0.00    -0.497 OA
ATOM     13  C   UNL     1      -7.508   6.138   9.491  1.00  0.00     0.278 C 
ENDBRANCH   6  12
TORSDOF 3
ENDMDL
MODEL 7
REMARK VINA RESULT:    -3.060     19.744     21.063
REMARK INTER + INTRA:          -3.752
REMARK INTER:                  -3.593
REMARK INTRA:                  -0.159
REMARK UNBOUND:                -0.155
REMARK SMILES COc1ccc(C=CC(=O)[O-])cc1
REMARK SMILES IDX 6 1 5 2 12 3 4 4 13 5 3 6 7 7 8 8 9 9 10 10 11 11 2 12 1 13
REMARK H PARENT
REMARK Flexibility Score: inf
ROOT
ATOM      1  C   UNL     1       0.498  -8.751   8.643  1.00  0.00    -0.025 A 
ATOM      2  C   UNL     1      -0.665  -9.493   8.386  1.00  0.00     0.012 A 
ATOM      3  C   UNL     1       0.370  -7.395   9.005  1.00  0.00     0.012 A 
ATOM      4  C   UNL     1      -1.928  -8.907   8.511  1.00  0.00     0.047 A 
ATOM      5  C   UNL     1      -0.893  -6.809   9.128  1.00  0.00     0.047 A 
ATOM      6  C   UNL     1      -2.054  -7.565   8.884  1.00  0.00     0.118 A 
ENDROOT
BRANCH   1   7
ATOM      7  C   UNL     1       1.815  -9.416   8.487  1.00  0.00     0.010 C 
ATOM      8  C   UNL     1       2.751  -9.020   7.614  1.00  0.00     0.025 C 
BRANCH   8   9
ATOM      9  C   UNL     1       4.049  -9.702   7.500  1.00  0.00     0.064 C 
ATOM     10  O   UNL     1       4.623 -10.125   8.537  1.00  0.00    -0.545 OA
ATOM     11  O   UNL     1       4.656  -9.887   6.262  1.00  0.00    -0.545 OA
ENDBRANCH   8   9
ENDBRANCH   1   7
BRANCH   6  12
ATOM     12  O   UNL     1      -3.343  -7.023   8.997  1.00  0.00    -0.497 OA
ATOM     13  C   UNL     1      -3.727  -6.059   9.973  1.00  0.00     0.278 C 
ENDBRANCH   6  12
TORSDOF 3
ENDMDL
MODEL 8
REMARK VINA RESULT:    -3.026     19.392     20.750
REMARK INTER + INTRA:          -3.712
REMARK INTER:                  -3.539
REMARK INTRA:                  -0.173
REMARK UNBOUND:                -0.155
REMARK SMILES COc1ccc(C=CC(=O)[O-])cc1
REMARK SMILES IDX 6 1 5 2 12 3 4 4 13 5 3 6 7 7 8 8 9 9 10 10 11 11 2 12 1 13
REMARK H PARENT
REMARK Flexibility Score: inf
ROOT
ATOM      1  C   UNL     1       0.273  -8.412   8.601  1.00  0.00    -0.025 A 
ATOM      2  C   UNL     1       0.505  -7.116   9.086  1.00  0.00     0.012 A 
ATOM      3  C   UNL     1      -1.056  -8.870   8.498  1.00  0.00     0.012 A 
ATOM      4  C   UNL     1      -0.562  -6.284   9.436  1.00  0.00     0.047 A 
ATOM      5  C   UNL     1      -2.122  -8.037   8.850  1.00  0.00     0.047 A 
ATOM      6  C   UNL     1      -1.881  -6.733   9.320  1.00  0.00     0.118 A 
ENDROOT
BRANCH   1   7
ATOM      7  C   UNL     1       1.439  -9.260   8.252  1.00  0.00     0.010 C 
ATOM      8  C   UNL     1       2.619  -8.774   7.843  1.00  0.00     0.025 C 
BRANCH   8   9
ATOM      9  C   UNL     1       3.754  -9.652   7.519  1.00  0.00     0.064 C 
ATOM     10  O   UNL     1       3.962  -9.983   6.323  1.00  0.00    -0.545 OA
ATOM     11  O   UNL     1       4.602 -10.124   8.515  1.00  0.00    -0.545 OA
ENDBRANCH   8   9
ENDBRANCH   1   7
BRANCH   6  12
ATOM     12  O   UNL     1      -2.917  -5.859   9.683  1.00  0.00    -0.497 OA
ATOM     13  C   UNL     1      -4.284  -6.041   9.327  1.00  0.00     0.278 C 
ENDBRANCH   6  12
TORSDOF 3
ENDMDL
MODEL 9
REMARK VINA RESULT:    -2.974     10.429     12.180
REMARK INTER + INTRA:          -3.651
REMARK INTER:                  -3.495
REMARK INTRA:                  -0.156
REMARK UNBOUND:                -0.155
REMARK SMILES COc1ccc(C=CC(=O)[O-])cc1
REMARK SMILES IDX 6 1 5 2 12 3 4 4 13 5 3 6 7 7 8 8 9 9 10 10 11 11 2 12 1 13
REMARK H PARENT
REMARK Flexibility Score: inf
ROOT
ATOM      1  C   UNL     1      -8.316   0.983   9.053  1.00  0.00    -0.025 A 
ATOM      2  C   UNL     1      -8.088  -0.157   9.840  1.00  0.00     0.012 A 
ATOM      3  C   UNL     1      -8.643   0.814   7.693  1.00  0.00     0.012 A 
ATOM      4  C   UNL     1      -8.210  -1.437   9.292  1.00  0.00     0.047 A 
ATOM      5  C   UNL     1      -8.763  -0.467   7.146  1.00  0.00     0.047 A 
ATOM      6  C   UNL     1      -8.550  -1.605   7.946  1.00  0.00     0.118 A 
ENDROOT
BRANCH   1   7
ATOM      7  C   UNL     1      -8.164   2.320   9.679  1.00  0.00     0.010 C 
ATOM      8  C   UNL     1      -7.617   3.375   9.060  1.00  0.00     0.025 C 
BRANCH   8   9
ATOM      9  C   UNL     1      -7.498   4.687   9.715  1.00  0.00     0.064 C 
ATOM     10  O   UNL     1      -6.358   5.183   9.910  1.00  0.00    -0.545 OA
ATOM     11  O   UNL     1      -8.626   5.389  10.125  1.00  0.00    -0.545 OA
ENDBRANCH   8   9
ENDBRANCH   1   7
BRANCH   6  12
ATOM     12  O   UNL     1      -8.661  -2.910   7.444  1.00  0.00    -0.497 OA
ATOM     13  C   UNL     1      -9.892  -3.605   7.277  1.00  0.00     0.278 C 
ENDBRANCH   6  12
TORSDOF 3
ENDMDL
