MODEL 1
REMARK VINA RESULT:    -4.070      0.000      0.000
REMARK INTER + INTRA:          -4.628
REMARK INTER:                  -4.427
REMARK INTRA:                  -0.201
REMARK UNBOUND:                -0.201
REMARK SMILES C=C(C)[C@@H]1CC[C@H](C)C[C@H]1O
REMARK SMILES IDX 8 1 7 2 6 3 5 4 4 5 10 6 9 7 11 8 2 10 1 11 3 12
REMARK H PARENT 11 9
REMARK Flexibility Score: inf
ROOT
ATOM      1  C   UNL     1     136.126 135.205 143.979  1.00  0.00     0.008 C 
ATOM      2  C   UNL     1     136.109 136.516 143.177  1.00  0.00    -0.012 C 
ATOM      3  C   UNL     1     136.749 137.682 143.958  1.00  0.00     0.004 C 
ATOM      4  C   UNL     1     138.279 137.573 144.028  1.00  0.00     0.011 C 
ATOM      5  C   UNL     1     138.892 137.449 142.620  1.00  0.00     0.043 C 
ATOM      6  C   UNL     1     138.297 136.246 141.854  1.00  0.00     0.121 C 
ATOM      7  C   UNL     1     136.760 136.356 141.787  1.00  0.00     0.035 C 
ENDROOT
BRANCH   6   8
ATOM      8  O   UNL     1     138.820 136.221 140.551  1.00  0.00    -0.392 OA
ATOM      9  H   UNL     1     138.177 136.711 139.974  1.00  0.00     0.210 HD
ENDBRANCH   6   8
BRANCH   5  10
ATOM     10  C   UNL     1     140.411 137.378 142.690  1.00  0.00    -0.075 C 
ATOM     11  C   UNL     1     141.182 138.347 142.165  1.00  0.00     0.008 C 
ATOM     12  C   UNL     1     141.047 136.193 143.367  1.00  0.00     0.039 C 
ENDBRANCH   5  10
TORSDOF 2
ENDMDL
MODEL 2
REMARK VINA RESULT:    -3.730      1.795      4.524
REMARK INTER + INTRA:          -4.259
REMARK INTER:                  -4.065
REMARK INTRA:                  -0.193
REMARK UNBOUND:                -0.201
REMARK SMILES C=C(C)[C@@H]1CC[C@H](C)C[C@H]1O
REMARK SMILES IDX 8 1 7 2 6 3 5 4 4 5 10 6 9 7 11 8 2 10 1 11 3 12
REMARK H PARENT 11 9
REMARK Flexibility Score: inf
ROOT
ATOM      1  C   UNL     1     142.776 136.112 141.282  1.00  0.00     0.008 C 
ATOM      2  C   UNL     1     142.657 136.830 142.636  1.00  0.00    -0.012 C 
ATOM      3  C   UNL     1     142.011 138.224 142.498  1.00  0.00     0.004 C 
ATOM      4  C   UNL     1     140.499 138.147 142.239  1.00  0.00     0.011 C 
ATOM      5  C   UNL     1     139.791 137.315 143.326  1.00  0.00     0.043 C 
ATOM      6  C   UNL     1     140.397 135.897 143.427  1.00  0.00     0.121 C 
ATOM      7  C   UNL     1     141.916 135.975 143.685  1.00  0.00     0.035 C 
ENDROOT
BRANCH   6   8
ATOM      8  O   UNL     1     139.781 135.204 144.482  1.00  0.00    -0.392 OA
ATOM      9  H   UNL     1     140.170 134.291 144.493  1.00  0.00     0.210 HD
ENDBRANCH   6   8
BRANCH   5  10
ATOM     10  C   UNL     1     138.288 137.271 143.088  1.00  0.00    -0.075 C 
ATOM     11  C   UNL     1     137.432 137.920 143.897  1.00  0.00     0.008 C 
ATOM     12  C   UNL     1     137.766 136.483 141.915  1.00  0.00     0.039 C 
ENDBRANCH   5  10
TORSDOF 2
ENDMDL
MODEL 3
REMARK VINA RESULT:    -3.706     12.288     13.730
REMARK INTER + INTRA:          -4.232
REMARK INTER:                  -4.082
REMARK INTRA:                  -0.150
REMARK UNBOUND:                -0.201
REMARK SMILES C=C(C)[C@@H]1CC[C@H](C)C[C@H]1O
REMARK SMILES IDX 8 1 7 2 6 3 5 4 4 5 10 6 9 7 11 8 2 10 1 11 3 12
REMARK H PARENT 11 9
REMARK Flexibility Score: inf
ROOT
ATOM      1  C   UNL     1     125.611 140.077 148.812  1.00  0.00     0.008 C 
ATOM      2  C   UNL     1     126.704 139.016 149.018  1.00  0.00    -0.012 C 
ATOM      3  C   UNL     1     126.153 137.737 149.680  1.00  0.00     0.004 C 
ATOM      4  C   UNL     1     125.309 136.893 148.714  1.00  0.00     0.011 C 
ATOM      5  C   UNL     1     126.100 136.556 147.435  1.00  0.00     0.043 C 
ATOM      6  C   UNL     1     126.605 137.839 146.736  1.00  0.00     0.121 C 
ATOM      7  C   UNL     1     127.450 138.687 147.708  1.00  0.00     0.035 C 
ENDROOT
BRANCH   6   8
ATOM      8  O   UNL     1     127.389 137.484 145.626  1.00  0.00    -0.392 OA
ATOM      9  H   UNL     1     128.063 138.203 145.508  1.00  0.00     0.210 HD
ENDBRANCH   6   8
BRANCH   5  10
ATOM     10  C   UNL     1     125.276 135.688 146.496  1.00  0.00    -0.075 C 
ATOM     11  C   UNL     1     125.479 134.362 146.408  1.00  0.00     0.008 C 
ATOM     12  C   UNL     1     124.212 136.343 145.655  1.00  0.00     0.039 C 
ENDBRANCH   5  10
TORSDOF 2
ENDMDL
MODEL 4
REMARK VINA RESULT:    -3.641     11.279     12.982
REMARK INTER + INTRA:          -4.161
REMARK INTER:                  -3.986
REMARK INTRA:                  -0.176
REMARK UNBOUND:                -0.201
REMARK SMILES C=C(C)[C@@H]1CC[C@H](C)C[C@H]1O
REMARK SMILES IDX 8 1 7 2 6 3 5 4 4 5 10 6 9 7 11 8 2 10 1 11 3 12
REMARK H PARENT 11 9
REMARK Flexibility Score: inf
ROOT
ATOM      1  C   UNL     1     126.696 133.620 147.082  1.00  0.00     0.008 C 
ATOM      2  C   UNL     1     125.421 134.479 147.066  1.00  0.00    -0.012 C 
ATOM      3  C   UNL     1     125.248 135.283 148.371  1.00  0.00     0.004 C 
ATOM      4  C   UNL     1     126.221 136.466 148.465  1.00  0.00     0.011 C 
ATOM      5  C   UNL     1     126.103 137.383 147.232  1.00  0.00     0.043 C 
ATOM      6  C   UNL     1     126.335 136.593 145.924  1.00  0.00     0.121 C 
ATOM      7  C   UNL     1     125.358 135.403 145.832  1.00  0.00     0.035 C 
ENDROOT
BRANCH   6   8
ATOM      8  O   UNL     1     126.135 137.445 144.826  1.00  0.00    -0.392 OA
ATOM      9  H   UNL     1     126.331 138.367 145.138  1.00  0.00     0.210 HD
ENDBRANCH   6   8
BRANCH   5  10
ATOM     10  C   UNL     1     127.042 138.575 147.345  1.00  0.00    -0.075 C 
ATOM     11  C   UNL     1     126.581 139.806 147.628  1.00  0.00     0.008 C 
ATOM     12  C   UNL     1     128.518 138.354 147.136  1.00  0.00     0.039 C 
ENDBRANCH   5  10
TORSDOF 2
ENDMDL
MODEL 5
REMARK VINA RESULT:    -3.634      1.717      2.605
REMARK INTER + INTRA:          -4.154
REMARK INTER:                  -3.959
REMARK INTRA:                  -0.195
REMARK UNBOUND:                -0.201
REMARK SMILES C=C(C)[C@@H]1CC[C@H](C)C[C@H]1O
REMARK SMILES IDX 8 1 7 2 6 3 5 4 4 5 10 6 9 7 11 8 2 10 1 11 3 12
REMARK H PARENT 11 9
REMARK Flexibility Score: inf
ROOT
ATOM      1  C   UNL     1     135.899 136.890 141.956  1.00  0.00     0.008 C 
ATOM      2  C   UNL     1     136.563 135.800 142.813  1.00  0.00    -0.012 C 
ATOM      3  C   UNL     1     137.600 134.985 142.014  1.00  0.00     0.004 C 
ATOM      4  C   UNL     1     138.892 135.773 141.753  1.00  0.00     0.011 C 
ATOM      5  C   UNL     1     139.497 136.299 143.070  1.00  0.00     0.043 C 
ATOM      6  C   UNL     1     138.480 137.165 143.847  1.00  0.00     0.121 C 
ATOM      7  C   UNL     1     137.183 136.373 144.105  1.00  0.00     0.035 C 
ENDROOT
BRANCH   6   8
ATOM      8  O   UNL     1     139.043 137.552 145.074  1.00  0.00    -0.392 OA
ATOM      9  H   UNL     1     139.250 136.718 145.571  1.00  0.00     0.210 HD
ENDBRANCH   6   8
BRANCH   5  10
ATOM     10  C   UNL     1     140.798 137.047 142.812  1.00  0.00    -0.075 C 
ATOM     11  C   UNL     1     141.983 136.547 143.201  1.00  0.00     0.008 C 
ATOM     12  C   UNL     1     140.737 138.375 142.103  1.00  0.00     0.039 C 
ENDBRANCH   5  10
TORSDOF 2
ENDMDL
MODEL 6
REMARK VINA RESULT:    -3.598      2.496      4.173
REMARK INTER + INTRA:          -4.115
REMARK INTER:                  -3.916
REMARK INTRA:                  -0.198
REMARK UNBOUND:                -0.201
REMARK SMILES C=C(C)[C@@H]1CC[C@H](C)C[C@H]1O
REMARK SMILES IDX 8 1 7 2 6 3 5 4 4 5 10 6 9 7 11 8 2 10 1 11 3 12
REMARK H PARENT 11 9
REMARK Flexibility Score: inf
ROOT
ATOM      1  C   UNL     1     138.773 135.580 145.160  1.00  0.00     0.008 C 
ATOM      2  C   UNL     1     137.793 136.762 145.211  1.00  0.00    -0.012 C 
ATOM      3  C   UNL     1     138.055 137.783 144.085  1.00  0.00     0.004 C 
ATOM      4  C   UNL     1     137.597 137.272 142.711  1.00  0.00     0.011 C 
ATOM      5  C   UNL     1     136.114 136.851 142.741  1.00  0.00     0.043 C 
ATOM      6  C   UNL     1     135.858 135.785 143.830  1.00  0.00     0.121 C 
ATOM      7  C   UNL     1     136.321 136.298 145.209  1.00  0.00     0.035 C 
ENDROOT
BRANCH   6   8
ATOM      8  O   UNL     1     134.485 135.493 143.879  1.00  0.00    -0.392 OA
ATOM      9  H   UNL     1     134.029 136.155 143.296  1.00  0.00     0.210 HD
ENDBRANCH   6   8
BRANCH   5  10
ATOM     10  C   UNL     1     135.652 136.381 141.369  1.00  0.00    -0.075 C 
ATOM     11  C   UNL     1     136.245 135.347 140.747  1.00  0.00     0.008 C 
ATOM     12  C   UNL     1     134.504 137.099 140.710  1.00  0.00     0.039 C 
ENDBRANCH   5  10
TORSDOF 2
ENDMDL
MODEL 7
REMARK VINA RESULT:    -3.573     10.351     12.144
REMARK INTER + INTRA:          -4.087
REMARK INTER:                  -3.886
REMARK INTRA:                  -0.201
REMARK UNBOUND:                -0.201
REMARK SMILES C=C(C)[C@@H]1CC[C@H](C)C[C@H]1O
REMARK SMILES IDX 8 1 7 2 6 3 5 4 4 5 10 6 9 7 11 8 2 10 1 11 3 12
REMARK H PARENT 11 9
REMARK Flexibility Score: inf
ROOT
ATOM      1  C   UNL     1     124.759 136.487 148.879  1.00  0.00     0.008 C 
ATOM      2  C   UNL     1     124.823 137.459 147.690  1.00  0.00    -0.012 C 
ATOM      3  C   UNL     1     125.587 138.753 148.038  1.00  0.00     0.004 C 
ATOM      4  C   UNL     1     127.104 138.533 148.130  1.00  0.00     0.011 C 
ATOM      5  C   UNL     1     127.652 137.898 146.837  1.00  0.00     0.043 C 
ATOM      6  C   UNL     1     126.929 136.571 146.515  1.00  0.00     0.121 C 
ATOM      7  C   UNL     1     125.406 136.793 146.426  1.00  0.00     0.035 C 
ENDROOT
BRANCH   6   8
ATOM      8  O   UNL     1     127.400 136.072 145.289  1.00  0.00    -0.392 OA
ATOM      9  H   UNL     1     127.436 136.840 144.661  1.00  0.00     0.210 HD
ENDBRANCH   6   8
BRANCH   5  10
ATOM     10  C   UNL     1     129.161 137.716 146.915  1.00  0.00    -0.075 C 
ATOM     11  C   UNL     1     129.991 138.386 146.097  1.00  0.00     0.008 C 
ATOM     12  C   UNL     1     129.720 136.762 147.938  1.00  0.00     0.039 C 
ENDBRANCH   5  10
TORSDOF 2
ENDMDL
MODEL 8
REMARK VINA RESULT:    -3.556      2.066      4.253
REMARK INTER + INTRA:          -4.069
REMARK INTER:                  -3.924
REMARK INTRA:                  -0.145
REMARK UNBOUND:                -0.201
REMARK SMILES C=C(C)[C@@H]1CC[C@H](C)C[C@H]1O
REMARK SMILES IDX 8 1 7 2 6 3 5 4 4 5 10 6 9 7 11 8 2 10 1 11 3 12
REMARK H PARENT 11 9
REMARK Flexibility Score: inf
ROOT
ATOM      1  C   UNL     1     139.776 135.740 144.305  1.00  0.00     0.008 C 
ATOM      2  C   UNL     1     139.162 137.130 144.071  1.00  0.00    -0.012 C 
ATOM      3  C   UNL     1     139.073 137.480 142.571  1.00  0.00     0.004 C 
ATOM      4  C   UNL     1     137.959 136.704 141.853  1.00  0.00     0.011 C 
ATOM      5  C   UNL     1     136.600 136.910 142.551  1.00  0.00     0.043 C 
ATOM      6  C   UNL     1     136.669 136.505 144.041  1.00  0.00     0.121 C 
ATOM      7  C   UNL     1     137.790 137.283 144.760  1.00  0.00     0.035 C 
ENDROOT
BRANCH   6   8
ATOM      8  O   UNL     1     135.438 136.787 144.655  1.00  0.00    -0.392 OA
ATOM      9  H   UNL     1     135.180 135.977 145.167  1.00  0.00     0.210 HD
ENDBRANCH   6   8
BRANCH   5  10
ATOM     10  C   UNL     1     135.491 136.171 141.815  1.00  0.00    -0.075 C 
ATOM     11  C   UNL     1     134.649 136.815 140.988  1.00  0.00     0.008 C 
ATOM     12  C   UNL     1     135.350 134.687 142.028  1.00  0.00     0.039 C 
ENDBRANCH   5  10
TORSDOF 2
ENDMDL
MODEL 9
REMARK VINA RESULT:    -3.489      9.390     11.102
REMARK INTER + INTRA:          -3.996
REMARK INTER:                  -3.842
REMARK INTRA:                  -0.154
REMARK UNBOUND:                -0.201
REMARK SMILES C=C(C)[C@@H]1CC[C@H](C)C[C@H]1O
REMARK SMILES IDX 8 1 7 2 6 3 5 4 4 5 10 6 9 7 11 8 2 10 1 11 3 12
REMARK H PARENT 11 9
REMARK Flexibility Score: inf
ROOT
ATOM      1  C   UNL     1     139.345 130.987 133.058  1.00  0.00     0.008 C 
ATOM      2  C   UNL     1     137.914 130.718 132.564  1.00  0.00    -0.012 C 
ATOM      3  C   UNL     1     137.426 129.305 132.942  1.00  0.00     0.004 C 
ATOM      4  C   UNL     1     137.092 129.178 134.435  1.00  0.00     0.011 C 
ATOM      5  C   UNL     1     136.071 130.249 134.868  1.00  0.00     0.043 C 
ATOM      6  C   UNL     1     136.582 131.672 134.544  1.00  0.00     0.121 C 
ATOM      7  C   UNL     1     136.920 131.796 133.045  1.00  0.00     0.035 C 
ENDROOT
BRANCH   6   8
ATOM      8  O   UNL     1     135.589 132.607 134.877  1.00  0.00    -0.392 OA
ATOM      9  H   UNL     1     135.140 132.864 134.029  1.00  0.00     0.210 HD
ENDBRANCH   6   8
BRANCH   5  10
ATOM     10  C   UNL     1     135.712 130.098 136.339  1.00  0.00    -0.075 C 
ATOM     11  C   UNL     1     134.557 129.529 136.724  1.00  0.00     0.008 C 
ATOM     12  C   UNL     1     136.685 130.602 137.374  1.00  0.00     0.039 C 
ENDBRANCH   5  10
TORSDOF 2
ENDMDL
