MODEL 1
REMARK VINA RESULT:    -2.748      0.000      0.000
REMARK INTER + INTRA:          -2.748
REMARK INTER:                  -2.748
REMARK INTRA:                   0.000
REMARK UNBOUND:                 0.000
REMARK SMILES CC(=O)[O-]
REMARK SMILES IDX 1 1 2 2 3 3 4 4
REMARK H PARENT
REMARK Flexibility Score: inf
ROOT
ATOM      1  C   UNL     1      -1.666   9.717  20.675  1.00  0.00     0.063 C 
ATOM      2  C   UNL     1      -2.222  10.237  19.394  1.00  0.00     0.038 C 
ATOM      3  O   UNL     1      -1.496  10.917  18.622  1.00  0.00    -0.550 OA
ATOM      4  O   UNL     1      -3.523   9.927  19.022  1.00  0.00    -0.550 OA
ENDROOT
TORSDOF 0
ENDMDL
MODEL 2
REMARK VINA RESULT:    -2.681     12.597     12.764
REMARK INTER + INTRA:          -2.681
REMARK INTER:                  -2.681
REMARK INTRA:                   0.000
REMARK UNBOUND:                 0.000
REMARK SMILES CC(=O)[O-]
REMARK SMILES IDX 1 1 2 2 3 3 4 4
REMARK H PARENT
REMARK Flexibility Score: inf
ROOT
ATOM      1  C   UNL     1      -1.394  20.725  26.362  1.00  0.00     0.063 C 
ATOM      2  C   UNL     1      -2.524  20.205  27.183  1.00  0.00     0.038 C 
ATOM      3  O   UNL     1      -3.553  20.909  27.358  1.00  0.00    -0.550 OA
ATOM      4  O   UNL     1      -2.469  18.923  27.712  1.00  0.00    -0.550 OA
ENDROOT
TORSDOF 0
ENDMDL
MODEL 3
REMARK VINA RESULT:    -2.652      1.674      2.266
REMARK INTER + INTRA:          -2.652
REMARK INTER:                  -2.652
REMARK INTRA:                   0.000
REMARK UNBOUND:                 0.000
REMARK SMILES CC(=O)[O-]
REMARK SMILES IDX 1 1 2 2 3 3 4 4
REMARK H PARENT
REMARK Flexibility Score: inf
ROOT
ATOM      1  C   UNL     1      -3.083   9.822  19.805  1.00  0.00     0.063 C 
ATOM      2  C   UNL     1      -1.711  10.210  20.243  1.00  0.00     0.038 C 
ATOM      3  O   UNL     1      -1.219   9.711  21.289  1.00  0.00    -0.550 OA
ATOM      4  O   UNL     1      -0.953  11.081  19.472  1.00  0.00    -0.550 OA
ENDROOT
TORSDOF 0
ENDMDL
MODEL 4
REMARK VINA RESULT:    -2.581      1.703      2.315
REMARK INTER + INTRA:          -2.581
REMARK INTER:                  -2.581
REMARK INTRA:                   0.000
REMARK UNBOUND:                 0.000
REMARK SMILES CC(=O)[O-]
REMARK SMILES IDX 1 1 2 2 3 3 4 4
REMARK H PARENT
REMARK Flexibility Score: inf
ROOT
ATOM      1  C   UNL     1      -1.348  10.770  19.036  1.00  0.00     0.063 C 
ATOM      2  C   UNL     1      -1.990  10.035  20.163  1.00  0.00     0.038 C 
ATOM      3  O   UNL     1      -3.210   9.729  20.102  1.00  0.00    -0.550 OA
ATOM      4  O   UNL     1      -1.234   9.639  21.258  1.00  0.00    -0.550 OA
ENDROOT
TORSDOF 0
ENDMDL
MODEL 5
REMARK VINA RESULT:    -2.567     12.735     12.915
REMARK INTER + INTRA:          -2.567
REMARK INTER:                  -2.567
REMARK INTRA:                   0.000
REMARK UNBOUND:                 0.000
REMARK SMILES CC(=O)[O-]
REMARK SMILES IDX 1 1 2 2 3 3 4 4
REMARK H PARENT
REMARK Flexibility Score: inf
ROOT
ATOM      1  C   UNL     1      -3.418  20.495  27.589  1.00  0.00     0.063 C 
ATOM      2  C   UNL     1      -2.011  20.004  27.617  1.00  0.00     0.038 C 
ATOM      3  O   UNL     1      -1.184  20.408  26.757  1.00  0.00    -0.550 OA
ATOM      4  O   UNL     1      -1.593  19.141  28.621  1.00  0.00    -0.550 OA
ENDROOT
TORSDOF 0
ENDMDL
MODEL 6
REMARK VINA RESULT:    -2.558     11.604     11.763
REMARK INTER + INTRA:          -2.558
REMARK INTER:                  -2.558
REMARK INTRA:                   0.000
REMARK UNBOUND:                 0.000
REMARK SMILES CC(=O)[O-]
REMARK SMILES IDX 1 1 2 2 3 3 4 4
REMARK H PARENT
REMARK Flexibility Score: inf
ROOT
ATOM      1  C   UNL     1      -3.483  18.952  26.931  1.00  0.00     0.063 C 
ATOM      2  C   UNL     1      -2.719  18.136  27.918  1.00  0.00     0.038 C 
ATOM      3  O   UNL     1      -2.009  18.704  28.789  1.00  0.00    -0.550 OA
ATOM      4  O   UNL     1      -2.832  16.753  27.915  1.00  0.00    -0.550 OA
ENDROOT
TORSDOF 0
ENDMDL
MODEL 7
REMARK VINA RESULT:    -2.529     12.348     12.508
REMARK INTER + INTRA:          -2.529
REMARK INTER:                  -2.529
REMARK INTRA:                   0.000
REMARK UNBOUND:                 0.000
REMARK SMILES CC(=O)[O-]
REMARK SMILES IDX 1 1 2 2 3 3 4 4
REMARK H PARENT
REMARK Flexibility Score: inf
ROOT
ATOM      1  C   UNL     1      -2.036  19.144  28.484  1.00  0.00     0.063 C 
ATOM      2  C   UNL     1      -3.158  19.508  27.573  1.00  0.00     0.038 C 
ATOM      3  O   UNL     1      -3.519  18.712  26.668  1.00  0.00    -0.550 OA
ATOM      4  O   UNL     1      -3.843  20.702  27.754  1.00  0.00    -0.550 OA
ENDROOT
TORSDOF 0
ENDMDL
MODEL 8
REMARK VINA RESULT:    -2.447     12.186     12.803
REMARK INTER + INTRA:          -2.447
REMARK INTER:                  -2.447
REMARK INTRA:                   0.000
REMARK UNBOUND:                 0.000
REMARK SMILES CC(=O)[O-]
REMARK SMILES IDX 1 1 2 2 3 3 4 4
REMARK H PARENT
REMARK Flexibility Score: inf
ROOT
ATOM      1  C   UNL     1       9.511  14.998  23.461  1.00  0.00     0.063 C 
ATOM      2  C   UNL     1       8.548  14.572  24.517  1.00  0.00     0.038 C 
ATOM      3  O   UNL     1       8.970  14.219  25.650  1.00  0.00    -0.550 OA
ATOM      4  O   UNL     1       7.182  14.615  24.273  1.00  0.00    -0.550 OA
ENDROOT
TORSDOF 0
ENDMDL
MODEL 9
REMARK VINA RESULT:    -2.419     12.310     12.729
REMARK INTER + INTRA:          -2.419
REMARK INTER:                  -2.419
REMARK INTRA:                   0.000
REMARK UNBOUND:                 0.000
REMARK SMILES CC(=O)[O-]
REMARK SMILES IDX 1 1 2 2 3 3 4 4
REMARK H PARENT
REMARK Flexibility Score: inf
ROOT
ATOM      1  C   UNL     1       6.925  14.632  24.282  1.00  0.00     0.063 C 
ATOM      2  C   UNL     1       8.396  14.687  24.522  1.00  0.00     0.038 C 
ATOM      3  O   UNL     1       8.874  14.261  25.606  1.00  0.00    -0.550 OA
ATOM      4  O   UNL     1       9.247  15.157  23.531  1.00  0.00    -0.550 OA
ENDROOT
TORSDOF 0
ENDMDL
