MODEL 1
REMARK VINA RESULT:    -6.327      0.000      0.000
REMARK INTER + INTRA:          -6.976
REMARK INTER:                  -6.881
REMARK INTRA:                  -0.094
REMARK UNBOUND:                -0.094
REMARK SMILES C=C(C)[C@@H]1CC=C(C)[C@H](O)C1
REMARK SMILES IDX 8 1 7 2 6 3 5 4 4 5 11 6 9 7 10 8 2 10 1 11 3 12
REMARK H PARENT 10 9
REMARK Flexibility Score: inf
ROOT
ATOM      1  C   UNL     1     135.460 121.157 141.275  1.00  0.00     0.042 C 
ATOM      2  C   UNL     1     136.124 120.298 140.231  1.00  0.00    -0.049 C 
ATOM      3  C   UNL     1     135.364 119.787 139.237  1.00  0.00    -0.025 C 
ATOM      4  C   UNL     1     135.923 118.918 138.139  1.00  0.00     0.035 C 
ATOM      5  C   UNL     1     137.218 118.210 138.570  1.00  0.00     0.021 C 
ATOM      6  C   UNL     1     138.196 119.237 139.159  1.00  0.00     0.044 C 
ATOM      7  C   UNL     1     137.587 119.902 140.409  1.00  0.00     0.140 C 
ENDROOT
BRANCH   7   8
ATOM      8  O   UNL     1     138.366 121.010 140.786  1.00  0.00    -0.389 OA
ATOM      9  H   UNL     1     137.991 121.809 140.330  1.00  0.00     0.211 HD
ENDBRANCH   7   8
BRANCH   5  10
ATOM     10  C   UNL     1     137.840 117.429 137.422  1.00  0.00    -0.077 C 
ATOM     11  C   UNL     1     138.328 116.188 137.597  1.00  0.00     0.008 C 
ATOM     12  C   UNL     1     137.893 118.072 136.061  1.00  0.00     0.039 C 
ENDBRANCH   5  10
TORSDOF 2
ENDMDL
MODEL 2
REMARK VINA RESULT:    -6.034      1.314      4.286
REMARK INTER + INTRA:          -6.658
REMARK INTER:                  -6.561
REMARK INTRA:                  -0.098
REMARK UNBOUND:                -0.094
REMARK SMILES C=C(C)[C@@H]1CC=C(C)[C@H](O)C1
REMARK SMILES IDX 8 1 7 2 6 3 5 4 4 5 11 6 9 7 10 8 2 10 1 11 3 12
REMARK H PARENT 10 9
REMARK Flexibility Score: inf
ROOT
ATOM      1  C   UNL     1     138.034 116.986 137.855  1.00  0.00     0.042 C 
ATOM      2  C   UNL     1     137.236 118.073 138.527  1.00  0.00    -0.049 C 
ATOM      3  C   UNL     1     135.889 117.963 138.553  1.00  0.00    -0.025 C 
ATOM      4  C   UNL     1     134.992 118.988 139.199  1.00  0.00     0.035 C 
ATOM      5  C   UNL     1     135.660 120.371 139.270  1.00  0.00     0.021 C 
ATOM      6  C   UNL     1     137.059 120.238 139.888  1.00  0.00     0.044 C 
ATOM      7  C   UNL     1     137.948 119.332 139.013  1.00  0.00     0.140 C 
ENDROOT
BRANCH   7   8
ATOM      8  O   UNL     1     139.127 119.007 139.707  1.00  0.00    -0.389 OA
ATOM      9  H   UNL     1     139.886 119.119 139.076  1.00  0.00     0.211 HD
ENDBRANCH   7   8
BRANCH   5  10
ATOM     10  C   UNL     1     134.800 121.372 140.027  1.00  0.00    -0.077 C 
ATOM     11  C   UNL     1     133.539 121.081 140.393  1.00  0.00     0.008 C 
ATOM     12  C   UNL     1     135.394 122.711 140.376  1.00  0.00     0.039 C 
ENDBRANCH   5  10
TORSDOF 2
ENDMDL
MODEL 3
REMARK VINA RESULT:    -5.975      1.626      2.353
REMARK INTER + INTRA:          -6.593
REMARK INTER:                  -6.493
REMARK INTRA:                  -0.101
REMARK UNBOUND:                -0.094
REMARK SMILES C=C(C)[C@@H]1CC=C(C)[C@H](O)C1
REMARK SMILES IDX 8 1 7 2 6 3 5 4 4 5 11 6 9 7 10 8 2 10 1 11 3 12
REMARK H PARENT 10 9
REMARK Flexibility Score: inf
ROOT
ATOM      1  C   UNL     1     136.883 121.873 141.065  1.00  0.00     0.042 C 
ATOM      2  C   UNL     1     136.791 120.706 140.115  1.00  0.00    -0.049 C 
ATOM      3  C   UNL     1     137.927 120.056 139.778  1.00  0.00    -0.025 C 
ATOM      4  C   UNL     1     137.952 118.876 138.841  1.00  0.00     0.035 C 
ATOM      5  C   UNL     1     136.744 118.874 137.889  1.00  0.00     0.021 C 
ATOM      6  C   UNL     1     135.450 119.045 138.697  1.00  0.00     0.044 C 
ATOM      7  C   UNL     1     135.457 120.395 139.442  1.00  0.00     0.140 C 
ENDROOT
BRANCH   7   8
ATOM      8  O   UNL     1     134.403 120.431 140.373  1.00  0.00    -0.389 OA
ATOM      9  H   UNL     1     134.801 120.594 141.268  1.00  0.00     0.211 HD
ENDBRANCH   7   8
BRANCH   5  10
ATOM     10  C   UNL     1     136.711 117.622 137.026  1.00  0.00    -0.077 C 
ATOM     11  C   UNL     1     135.740 117.417 136.119  1.00  0.00     0.008 C 
ATOM     12  C   UNL     1     137.807 116.602 137.196  1.00  0.00     0.039 C 
ENDBRANCH   5  10
TORSDOF 2
ENDMDL
MODEL 4
REMARK VINA RESULT:    -5.962      2.047      4.763
REMARK INTER + INTRA:          -6.580
REMARK INTER:                  -6.482
REMARK INTRA:                  -0.097
REMARK UNBOUND:                -0.094
REMARK SMILES C=C(C)[C@@H]1CC=C(C)[C@H](O)C1
REMARK SMILES IDX 8 1 7 2 6 3 5 4 4 5 11 6 9 7 10 8 2 10 1 11 3 12
REMARK H PARENT 10 9
REMARK Flexibility Score: inf
ROOT
ATOM      1  C   UNL     1     138.259 116.599 137.429  1.00  0.00     0.042 C 
ATOM      2  C   UNL     1     137.523 117.717 138.120  1.00  0.00    -0.049 C 
ATOM      3  C   UNL     1     138.228 118.578 138.887  1.00  0.00    -0.025 C 
ATOM      4  C   UNL     1     137.596 119.733 139.621  1.00  0.00     0.035 C 
ATOM      5  C   UNL     1     136.104 119.489 139.900  1.00  0.00     0.021 C 
ATOM      6  C   UNL     1     135.399 119.069 138.601  1.00  0.00     0.044 C 
ATOM      7  C   UNL     1     135.998 117.753 138.067  1.00  0.00     0.140 C 
ENDROOT
BRANCH   7   8
ATOM      8  O   UNL     1     135.534 117.514 136.761  1.00  0.00    -0.389 OA
ATOM      9  H   UNL     1     134.715 116.956 136.832  1.00  0.00     0.211 HD
ENDBRANCH   7   8
BRANCH   5  10
ATOM     10  C   UNL     1     135.444 120.704 140.534  1.00  0.00    -0.077 C 
ATOM     11  C   UNL     1     136.167 121.649 141.161  1.00  0.00     0.008 C 
ATOM     12  C   UNL     1     133.947 120.841 140.440  1.00  0.00     0.039 C 
ENDBRANCH   5  10
TORSDOF 2
ENDMDL
MODEL 5
REMARK VINA RESULT:    -5.635      2.606      3.850
REMARK INTER + INTRA:          -6.224
REMARK INTER:                  -6.126
REMARK INTRA:                  -0.097
REMARK UNBOUND:                -0.094
REMARK SMILES C=C(C)[C@@H]1CC=C(C)[C@H](O)C1
REMARK SMILES IDX 8 1 7 2 6 3 5 4 4 5 11 6 9 7 10 8 2 10 1 11 3 12
REMARK H PARENT 10 9
REMARK Flexibility Score: inf
ROOT
ATOM      1  C   UNL     1     134.125 124.447 140.477  1.00  0.00     0.042 C 
ATOM      2  C   UNL     1     134.800 123.103 140.393  1.00  0.00    -0.049 C 
ATOM      3  C   UNL     1     136.114 123.020 140.695  1.00  0.00    -0.025 C 
ATOM      4  C   UNL     1     136.889 121.728 140.648  1.00  0.00     0.035 C 
ATOM      5  C   UNL     1     136.246 120.707 139.694  1.00  0.00     0.021 C 
ATOM      6  C   UNL     1     134.752 120.567 140.019  1.00  0.00     0.044 C 
ATOM      7  C   UNL     1     134.030 121.915 139.821  1.00  0.00     0.140 C 
ENDROOT
BRANCH   7   8
ATOM      8  O   UNL     1     132.734 121.847 140.362  1.00  0.00    -0.389 OA
ATOM      9  H   UNL     1     132.807 122.033 141.335  1.00  0.00     0.211 HD
ENDBRANCH   7   8
BRANCH   5  10
ATOM     10  C   UNL     1     136.963 119.366 139.739  1.00  0.00    -0.077 C 
ATOM     11  C   UNL     1     138.247 119.268 140.125  1.00  0.00     0.008 C 
ATOM     12  C   UNL     1     136.199 118.129 139.347  1.00  0.00     0.039 C 
ENDBRANCH   5  10
TORSDOF 2
ENDMDL
MODEL 6
REMARK VINA RESULT:    -5.632      2.494      3.715
REMARK INTER + INTRA:          -6.220
REMARK INTER:                  -6.121
REMARK INTRA:                  -0.099
REMARK UNBOUND:                -0.094
REMARK SMILES C=C(C)[C@@H]1CC=C(C)[C@H](O)C1
REMARK SMILES IDX 8 1 7 2 6 3 5 4 4 5 11 6 9 7 10 8 2 10 1 11 3 12
REMARK H PARENT 10 9
REMARK Flexibility Score: inf
ROOT
ATOM      1  C   UNL     1     132.820 123.906 140.119  1.00  0.00     0.042 C 
ATOM      2  C   UNL     1     133.790 122.761 139.983  1.00  0.00    -0.049 C 
ATOM      3  C   UNL     1     133.369 121.517 140.300  1.00  0.00    -0.025 C 
ATOM      4  C   UNL     1     134.252 120.299 140.199  1.00  0.00     0.035 C 
ATOM      5  C   UNL     1     135.743 120.663 140.293  1.00  0.00     0.021 C 
ATOM      6  C   UNL     1     136.063 121.792 139.303  1.00  0.00     0.044 C 
ATOM      7  C   UNL     1     135.250 123.055 139.648  1.00  0.00     0.140 C 
ENDROOT
BRANCH   7   8
ATOM      8  O   UNL     1     135.348 123.987 138.600  1.00  0.00    -0.389 OA
ATOM      9  H   UNL     1     136.313 124.101 138.391  1.00  0.00     0.211 HD
ENDBRANCH   7   8
BRANCH   5  10
ATOM     10  C   UNL     1     136.633 119.448 140.073  1.00  0.00    -0.077 C 
ATOM     11  C   UNL     1     137.926 119.447 140.440  1.00  0.00     0.008 C 
ATOM     12  C   UNL     1     136.030 118.222 139.438  1.00  0.00     0.039 C 
ENDBRANCH   5  10
TORSDOF 2
ENDMDL
MODEL 7
REMARK VINA RESULT:    -5.627      1.452      4.448
REMARK INTER + INTRA:          -6.215
REMARK INTER:                  -6.118
REMARK INTRA:                  -0.097
REMARK UNBOUND:                -0.094
REMARK SMILES C=C(C)[C@@H]1CC=C(C)[C@H](O)C1
REMARK SMILES IDX 8 1 7 2 6 3 5 4 4 5 11 6 9 7 10 8 2 10 1 11 3 12
REMARK H PARENT 10 9
REMARK Flexibility Score: inf
ROOT
ATOM      1  C   UNL     1     137.537 117.328 138.296  1.00  0.00     0.042 C 
ATOM      2  C   UNL     1     137.000 118.596 138.908  1.00  0.00    -0.049 C 
ATOM      3  C   UNL     1     135.663 118.787 138.928  1.00  0.00    -0.025 C 
ATOM      4  C   UNL     1     135.016 120.015 139.516  1.00  0.00     0.035 C 
ATOM      5  C   UNL     1     135.974 121.219 139.526  1.00  0.00     0.021 C 
ATOM      6  C   UNL     1     137.311 120.810 140.162  1.00  0.00     0.044 C 
ATOM      7  C   UNL     1     137.975 119.688 139.339  1.00  0.00     0.140 C 
ENDROOT
BRANCH   7   8
ATOM      8  O   UNL     1     139.055 119.145 140.058  1.00  0.00    -0.389 OA
ATOM      9  H   UNL     1     139.884 119.582 139.728  1.00  0.00     0.211 HD
ENDBRANCH   7   8
BRANCH   5  10
ATOM     10  C   UNL     1     135.358 122.421 140.227  1.00  0.00    -0.077 C 
ATOM     11  C   UNL     1     136.054 123.148 141.119  1.00  0.00     0.008 C 
ATOM     12  C   UNL     1     133.938 122.797 139.894  1.00  0.00     0.039 C 
ENDBRANCH   5  10
TORSDOF 2
ENDMDL
MODEL 8
REMARK VINA RESULT:    -5.462      2.085      5.100
REMARK INTER + INTRA:          -6.035
REMARK INTER:                  -5.938
REMARK INTRA:                  -0.097
REMARK UNBOUND:                -0.094
REMARK SMILES C=C(C)[C@@H]1CC=C(C)[C@H](O)C1
REMARK SMILES IDX 8 1 7 2 6 3 5 4 4 5 11 6 9 7 10 8 2 10 1 11 3 12
REMARK H PARENT 10 9
REMARK Flexibility Score: inf
ROOT
ATOM      1  C   UNL     1     137.662 118.878 139.488  1.00  0.00     0.042 C 
ATOM      2  C   UNL     1     136.674 119.975 139.790  1.00  0.00    -0.049 C 
ATOM      3  C   UNL     1     135.355 119.688 139.740  1.00  0.00    -0.025 C 
ATOM      4  C   UNL     1     134.280 120.705 140.026  1.00  0.00     0.035 C 
ATOM      5  C   UNL     1     134.772 122.142 139.785  1.00  0.00     0.021 C 
ATOM      6  C   UNL     1     136.101 122.364 140.522  1.00  0.00     0.044 C 
ATOM      7  C   UNL     1     137.179 121.402 139.984  1.00  0.00     0.140 C 
ENDROOT
BRANCH   7   8
ATOM      8  O   UNL     1     138.304 121.428 140.827  1.00  0.00    -0.389 OA
ATOM      9  H   UNL     1     138.657 122.357 140.826  1.00  0.00     0.211 HD
ENDBRANCH   7   8
BRANCH   5  10
ATOM     10  C   UNL     1     133.724 123.170 140.187  1.00  0.00    -0.077 C 
ATOM     11  C   UNL     1     132.409 122.921 140.057  1.00  0.00     0.008 C 
ATOM     12  C   UNL     1     134.188 124.487 140.751  1.00  0.00     0.039 C 
ENDBRANCH   5  10
TORSDOF 2
ENDMDL
MODEL 9
REMARK VINA RESULT:    -5.345      3.570      5.128
REMARK INTER + INTRA:          -5.909
REMARK INTER:                  -5.810
REMARK INTRA:                  -0.099
REMARK UNBOUND:                -0.094
REMARK SMILES C=C(C)[C@@H]1CC=C(C)[C@H](O)C1
REMARK SMILES IDX 8 1 7 2 6 3 5 4 4 5 11 6 9 7 10 8 2 10 1 11 3 12
REMARK H PARENT 10 9
REMARK Flexibility Score: inf
ROOT
ATOM      1  C   UNL     1     132.581 125.314 138.989  1.00  0.00     0.042 C 
ATOM      2  C   UNL     1     133.417 124.110 139.337  1.00  0.00    -0.049 C 
ATOM      3  C   UNL     1     134.759 124.194 139.201  1.00  0.00    -0.025 C 
ATOM      4  C   UNL     1     135.691 123.054 139.523  1.00  0.00     0.035 C 
ATOM      5  C   UNL     1     134.985 121.691 139.430  1.00  0.00     0.021 C 
ATOM      6  C   UNL     1     133.684 121.727 140.244  1.00  0.00     0.044 C 
ATOM      7  C   UNL     1     132.725 122.792 139.676  1.00  0.00     0.140 C 
ENDROOT
BRANCH   7   8
ATOM      8  O   UNL     1     131.659 122.999 140.570  1.00  0.00    -0.389 OA
ATOM      9  H   UNL     1     131.824 122.431 141.368  1.00  0.00     0.211 HD
ENDBRANCH   7   8
BRANCH   5  10
ATOM     10  C   UNL     1     135.896 120.555 139.869  1.00  0.00    -0.077 C 
ATOM     11  C   UNL     1     135.618 119.274 139.570  1.00  0.00     0.008 C 
ATOM     12  C   UNL     1     137.141 120.892 140.647  1.00  0.00     0.039 C 
ENDBRANCH   5  10
TORSDOF 2
ENDMDL
