MODEL 1
REMARK VINA RESULT:    -4.824      0.000      0.000
REMARK INTER + INTRA:          -9.913
REMARK INTER:                  -8.771
REMARK INTRA:                  -1.142
REMARK UNBOUND:                -1.142
REMARK SMILES CCCCCCCCCCCCCC[C@@H](C)C(=O)[O-]
REMARK SMILES IDX 9 1 10 2 11 3 12 4 13 5 14 6 15 7 16 8 17 9 18 10 19 11 8 12
REMARK SMILES IDX 7 13 6 14 5 15 4 16 3 17 2 18 1 19
REMARK H PARENT
REMARK Flexibility Score: inf
ROOT
ATOM      1  C   UNL     1      -1.343  61.746  23.025  1.00  0.00     0.000 C 
ENDROOT
BRANCH   1   2
ATOM      2  C   UNL     1      -0.066  61.457  23.839  1.00  0.00     0.000 C 
BRANCH   2   3
ATOM      3  C   UNL     1      -0.282  60.655  25.138  1.00  0.00     0.000 C 
BRANCH   3   4
ATOM      4  C   UNL     1       0.275  59.220  25.113  1.00  0.00     0.000 C 
BRANCH   4   5
ATOM      5  C   UNL     1       0.890  58.846  23.753  1.00  0.00     0.001 C 
BRANCH   5   6
ATOM      6  C   UNL     1       0.614  57.384  23.348  1.00  0.00     0.009 C 
BRANCH   6   7
ATOM      7  C   UNL     1       1.760  56.733  22.536  1.00  0.00     0.032 C 
ATOM      8  C   UNL     1       2.806  57.782  22.143  1.00  0.00     0.014 C 
BRANCH   7   9
ATOM      9  C   UNL     1       2.428  55.620  23.294  1.00  0.00     0.044 C 
ATOM     10  O   UNL     1       3.083  55.861  24.344  1.00  0.00    -0.550 OA
ATOM     11  O   UNL     1       2.334  54.313  22.833  1.00  0.00    -0.550 OA
ENDBRANCH   7   9
ENDBRANCH   6   7
ENDBRANCH   5   6
ENDBRANCH   4   5
ENDBRANCH   3   4
ENDBRANCH   2   3
ENDBRANCH   1   2
BRANCH   1  12
ATOM     12  C   UNL     1      -1.728  63.234  22.920  1.00  0.00     0.000 C 
BRANCH  12  13
ATOM     13  C   UNL     1      -0.699  64.164  23.586  1.00  0.00    -0.000 C 
BRANCH  13  14
ATOM     14  C   UNL     1      -1.109  65.643  23.518  1.00  0.00    -0.000 C 
BRANCH  14  15
ATOM     15  C   UNL     1      -0.874  66.266  22.130  1.00  0.00    -0.000 C 
BRANCH  15  16
ATOM     16  C   UNL     1      -2.197  66.650  21.434  1.00  0.00    -0.000 C 
BRANCH  16  17
ATOM     17  C   UNL     1      -3.436  66.482  22.329  1.00  0.00    -0.000 C 
BRANCH  17  18
ATOM     18  C   UNL     1      -4.597  65.775  21.616  1.00  0.00    -0.003 C 
ATOM     19  C   UNL     1      -4.983  64.488  22.338  1.00  0.00     0.004 C 
ENDBRANCH  17  18
ENDBRANCH  16  17
ENDBRANCH  15  16
ENDBRANCH  14  15
ENDBRANCH  13  14
ENDBRANCH  12  13
ENDBRANCH   1  12
TORSDOF 14
ENDMDL
MODEL 2
REMARK VINA RESULT:    -4.821      1.276      1.554
REMARK INTER + INTRA:          -9.908
REMARK INTER:                  -8.726
REMARK INTRA:                  -1.182
REMARK UNBOUND:                -1.142
REMARK SMILES CCCCCCCCCCCCCC[C@@H](C)C(=O)[O-]
REMARK SMILES IDX 9 1 10 2 11 3 12 4 13 5 14 6 15 7 16 8 17 9 18 10 19 11 8 12
REMARK SMILES IDX 7 13 6 14 5 15 4 16 3 17 2 18 1 19
REMARK H PARENT
REMARK Flexibility Score: inf
ROOT
ATOM      1  C   UNL     1      -1.353  61.833  23.134  1.00  0.00     0.000 C 
ENDROOT
BRANCH   1   2
ATOM      2  C   UNL     1      -0.154  61.567  24.066  1.00  0.00     0.000 C 
BRANCH   2   3
ATOM      3  C   UNL     1       0.497  60.176  23.920  1.00  0.00     0.000 C 
BRANCH   3   4
ATOM      4  C   UNL     1       0.272  59.229  25.113  1.00  0.00     0.000 C 
BRANCH   4   5
ATOM      5  C   UNL     1       0.527  57.754  24.756  1.00  0.00     0.001 C 
BRANCH   5   6
ATOM      6  C   UNL     1       0.697  57.519  23.242  1.00  0.00     0.009 C 
BRANCH   6   7
ATOM      7  C   UNL     1       2.077  56.940  22.850  1.00  0.00     0.032 C 
ATOM      8  C   UNL     1       2.058  56.433  21.404  1.00  0.00     0.014 C 
BRANCH   7   9
ATOM      9  C   UNL     1       3.179  57.950  23.011  1.00  0.00     0.044 C 
ATOM     10  O   UNL     1       3.482  58.727  22.066  1.00  0.00    -0.550 OA
ATOM     11  O   UNL     1       3.881  58.025  24.208  1.00  0.00    -0.550 OA
ENDBRANCH   7   9
ENDBRANCH   6   7
ENDBRANCH   5   6
ENDBRANCH   4   5
ENDBRANCH   3   4
ENDBRANCH   2   3
ENDBRANCH   1   2
BRANCH   1  12
ATOM     12  C   UNL     1      -1.662  63.319  22.874  1.00  0.00     0.000 C 
BRANCH  12  13
ATOM     13  C   UNL     1      -0.652  64.264  23.548  1.00  0.00    -0.000 C 
BRANCH  13  14
ATOM     14  C   UNL     1      -1.093  65.735  23.496  1.00  0.00    -0.000 C 
BRANCH  14  15
ATOM     15  C   UNL     1      -0.909  66.365  22.103  1.00  0.00    -0.000 C 
BRANCH  15  16
ATOM     16  C   UNL     1      -2.237  66.906  21.530  1.00  0.00    -0.000 C 
BRANCH  16  17
ATOM     17  C   UNL     1      -3.464  66.568  22.393  1.00  0.00    -0.000 C 
BRANCH  17  18
ATOM     18  C   UNL     1      -4.477  65.673  21.666  1.00  0.00    -0.003 C 
ATOM     19  C   UNL     1      -4.924  64.515  22.554  1.00  0.00     0.004 C 
ENDBRANCH  17  18
ENDBRANCH  16  17
ENDBRANCH  15  16
ENDBRANCH  14  15
ENDBRANCH  13  14
ENDBRANCH  12  13
ENDBRANCH   1  12
TORSDOF 14
ENDMDL
MODEL 3
REMARK VINA RESULT:    -4.688      4.217      9.137
REMARK INTER + INTRA:          -9.667
REMARK INTER:                  -8.365
REMARK INTRA:                  -1.302
REMARK UNBOUND:                -1.142
REMARK SMILES CCCCCCCCCCCCCC[C@@H](C)C(=O)[O-]
REMARK SMILES IDX 9 1 10 2 11 3 12 4 13 5 14 6 15 7 16 8 17 9 18 10 19 11 8 12
REMARK SMILES IDX 7 13 6 14 5 15 4 16 3 17 2 18 1 19
REMARK H PARENT
REMARK Flexibility Score: inf
ROOT
ATOM      1  C   UNL     1      -0.046  61.516  24.166  1.00  0.00     0.000 C 
ENDROOT
BRANCH   1   2
ATOM      2  C   UNL     1      -1.196  61.823  23.185  1.00  0.00     0.000 C 
BRANCH   2   3
ATOM      3  C   UNL     1      -1.474  63.321  22.946  1.00  0.00     0.000 C 
BRANCH   3   4
ATOM      4  C   UNL     1      -0.648  64.280  23.822  1.00  0.00     0.000 C 
BRANCH   4   5
ATOM      5  C   UNL     1      -0.550  65.695  23.226  1.00  0.00     0.001 C 
BRANCH   5   6
ATOM      6  C   UNL     1      -1.758  66.585  23.580  1.00  0.00     0.009 C 
BRANCH   6   7
ATOM      7  C   UNL     1      -2.700  66.867  22.384  1.00  0.00     0.032 C 
ATOM      8  C   UNL     1      -1.974  66.620  21.057  1.00  0.00     0.014 C 
BRANCH   7   9
ATOM      9  C   UNL     1      -3.946  66.028  22.437  1.00  0.00     0.044 C 
ATOM     10  O   UNL     1      -4.362  65.565  23.534  1.00  0.00    -0.550 OA
ATOM     11  O   UNL     1      -4.643  65.748  21.268  1.00  0.00    -0.550 OA
ENDBRANCH   7   9
ENDBRANCH   6   7
ENDBRANCH   5   6
ENDBRANCH   4   5
ENDBRANCH   3   4
ENDBRANCH   2   3
ENDBRANCH   1   2
BRANCH   1  12
ATOM     12  C   UNL     1       0.552  60.102  24.049  1.00  0.00     0.000 C 
BRANCH  12  13
ATOM     13  C   UNL     1       0.146  59.185  25.216  1.00  0.00    -0.000 C 
BRANCH  13  14
ATOM     14  C   UNL     1       0.461  57.706  24.942  1.00  0.00    -0.000 C 
BRANCH  14  15
ATOM     15  C   UNL     1       1.846  57.283  25.466  1.00  0.00    -0.000 C 
BRANCH  15  16
ATOM     16  C   UNL     1       2.873  57.121  24.326  1.00  0.00    -0.000 C 
BRANCH  16  17
ATOM     17  C   UNL     1       2.288  56.486  23.054  1.00  0.00    -0.000 C 
BRANCH  17  18
ATOM     18  C   UNL     1       2.400  57.398  21.825  1.00  0.00    -0.003 C 
ATOM     19  C   UNL     1       3.370  58.547  22.080  1.00  0.00     0.004 C 
ENDBRANCH  17  18
ENDBRANCH  16  17
ENDBRANCH  15  16
ENDBRANCH  14  15
ENDBRANCH  13  14
ENDBRANCH  12  13
ENDBRANCH   1  12
TORSDOF 14
ENDMDL
MODEL 4
REMARK VINA RESULT:    -4.675      4.325      9.417
REMARK INTER + INTRA:          -9.642
REMARK INTER:                  -8.667
REMARK INTRA:                  -0.975
REMARK UNBOUND:                -1.142
REMARK SMILES CCCCCCCCCCCCCC[C@@H](C)C(=O)[O-]
REMARK SMILES IDX 9 1 10 2 11 3 12 4 13 5 14 6 15 7 16 8 17 9 18 10 19 11 8 12
REMARK SMILES IDX 7 13 6 14 5 15 4 16 3 17 2 18 1 19
REMARK H PARENT
REMARK Flexibility Score: inf
ROOT
ATOM      1  C   UNL     1       1.572  61.275  23.653  1.00  0.00     0.000 C 
ENDROOT
BRANCH   1   2
ATOM      2  C   UNL     1       0.191  60.610  23.485  1.00  0.00     0.000 C 
BRANCH   2   3
ATOM      3  C   UNL     1      -1.004  61.583  23.416  1.00  0.00     0.000 C 
BRANCH   3   4
ATOM      4  C   UNL     1      -0.648  63.061  23.651  1.00  0.00     0.000 C 
BRANCH   4   5
ATOM      5  C   UNL     1      -1.500  64.020  22.802  1.00  0.00     0.001 C 
BRANCH   5   6
ATOM      6  C   UNL     1      -1.473  65.472  23.320  1.00  0.00     0.009 C 
BRANCH   6   7
ATOM      7  C   UNL     1      -2.395  66.435  22.532  1.00  0.00     0.032 C 
ATOM      8  C   UNL     1      -1.881  66.622  21.101  1.00  0.00     0.014 C 
BRANCH   7   9
ATOM      9  C   UNL     1      -3.817  65.949  22.495  1.00  0.00     0.044 C 
ATOM     10  O   UNL     1      -4.436  65.691  23.563  1.00  0.00    -0.550 OA
ATOM     11  O   UNL     1      -4.456  65.771  21.274  1.00  0.00    -0.550 OA
ENDBRANCH   7   9
ENDBRANCH   6   7
ENDBRANCH   5   6
ENDBRANCH   4   5
ENDBRANCH   3   4
ENDBRANCH   2   3
ENDBRANCH   1   2
BRANCH   1  12
ATOM     12  C   UNL     1       2.753  60.490  23.053  1.00  0.00     0.000 C 
BRANCH  12  13
ATOM     13  C   UNL     1       2.661  58.978  23.322  1.00  0.00    -0.000 C 
BRANCH  13  14
ATOM     14  C   UNL     1       3.027  58.135  22.090  1.00  0.00    -0.000 C 
BRANCH  14  15
ATOM     15  C   UNL     1       1.966  57.070  21.758  1.00  0.00    -0.000 C 
BRANCH  15  16
ATOM     16  C   UNL     1       1.662  56.157  22.964  1.00  0.00    -0.000 C 
BRANCH  16  17
ATOM     17  C   UNL     1       2.684  55.023  23.152  1.00  0.00    -0.000 C 
BRANCH  17  18
ATOM     18  C   UNL     1       3.278  54.981  24.566  1.00  0.00    -0.003 C 
ATOM     19  C   UNL     1       2.783  56.156  25.405  1.00  0.00     0.004 C 
ENDBRANCH  17  18
ENDBRANCH  16  17
ENDBRANCH  15  16
ENDBRANCH  14  15
ENDBRANCH  13  14
ENDBRANCH  12  13
ENDBRANCH   1  12
TORSDOF 14
ENDMDL
MODEL 5
REMARK VINA RESULT:    -4.620      1.287      2.568
REMARK INTER + INTRA:          -9.543
REMARK INTER:                  -8.561
REMARK INTRA:                  -0.982
REMARK UNBOUND:                -1.142
REMARK SMILES CCCCCCCCCCCCCC[C@@H](C)C(=O)[O-]
REMARK SMILES IDX 9 1 10 2 11 3 12 4 13 5 14 6 15 7 16 8 17 9 18 10 19 11 8 12
REMARK SMILES IDX 7 13 6 14 5 15 4 16 3 17 2 18 1 19
REMARK H PARENT
REMARK Flexibility Score: inf
ROOT
ATOM      1  C   UNL     1       0.933  60.310  23.700  1.00  0.00     0.000 C 
ENDROOT
BRANCH   1   2
ATOM      2  C   UNL     1       2.430  60.586  23.452  1.00  0.00     0.000 C 
BRANCH   2   3
ATOM      3  C   UNL     1       3.015  59.944  22.178  1.00  0.00     0.000 C 
BRANCH   3   4
ATOM      4  C   UNL     1       3.366  58.451  22.310  1.00  0.00     0.000 C 
BRANCH   4   5
ATOM      5  C   UNL     1       2.227  57.529  21.841  1.00  0.00     0.001 C 
BRANCH   5   6
ATOM      6  C   UNL     1       2.013  56.315  22.768  1.00  0.00     0.009 C 
BRANCH   6   7
ATOM      7  C   UNL     1       2.810  56.391  24.093  1.00  0.00     0.032 C 
ATOM      8  C   UNL     1       2.003  57.132  25.165  1.00  0.00     0.014 C 
BRANCH   7   9
ATOM      9  C   UNL     1       3.188  55.029  24.603  1.00  0.00     0.044 C 
ATOM     10  O   UNL     1       3.309  54.817  25.840  1.00  0.00    -0.550 OA
ATOM     11  O   UNL     1       3.419  53.993  23.706  1.00  0.00    -0.550 OA
ENDBRANCH   7   9
ENDBRANCH   6   7
ENDBRANCH   5   6
ENDBRANCH   4   5
ENDBRANCH   3   4
ENDBRANCH   2   3
ENDBRANCH   1   2
BRANCH   1  12
ATOM     12  C   UNL     1       0.074  61.560  23.968  1.00  0.00     0.000 C 
BRANCH  12  13
ATOM     13  C   UNL     1      -1.221  61.581  23.137  1.00  0.00    -0.000 C 
BRANCH  13  14
ATOM     14  C   UNL     1      -1.772  63.001  22.939  1.00  0.00    -0.000 C 
BRANCH  14  15
ATOM     15  C   UNL     1      -0.771  64.094  23.355  1.00  0.00    -0.000 C 
BRANCH  15  16
ATOM     16  C   UNL     1      -1.450  65.472  23.518  1.00  0.00    -0.000 C 
BRANCH  16  17
ATOM     17  C   UNL     1      -2.447  65.804  22.396  1.00  0.00    -0.000 C 
BRANCH  17  18
ATOM     18  C   UNL     1      -3.897  65.886  22.891  1.00  0.00    -0.003 C 
ATOM     19  C   UNL     1      -4.881  65.640  21.751  1.00  0.00     0.004 C 
ENDBRANCH  17  18
ENDBRANCH  16  17
ENDBRANCH  15  16
ENDBRANCH  14  15
ENDBRANCH  13  14
ENDBRANCH  12  13
ENDBRANCH   1  12
TORSDOF 14
ENDMDL
MODEL 6
REMARK VINA RESULT:    -4.557      1.415      2.724
REMARK INTER + INTRA:          -9.428
REMARK INTER:                  -8.466
REMARK INTRA:                  -0.963
REMARK UNBOUND:                -1.142
REMARK SMILES CCCCCCCCCCCCCC[C@@H](C)C(=O)[O-]
REMARK SMILES IDX 9 1 10 2 11 3 12 4 13 5 14 6 15 7 16 8 17 9 18 10 19 11 8 12
REMARK SMILES IDX 7 13 6 14 5 15 4 16 3 17 2 18 1 19
REMARK H PARENT
REMARK Flexibility Score: inf
ROOT
ATOM      1  C   UNL     1       0.007  61.422  23.981  1.00  0.00     0.000 C 
ENDROOT
BRANCH   1   2
ATOM      2  C   UNL     1       0.849  60.150  24.206  1.00  0.00     0.000 C 
BRANCH   2   3
ATOM      3  C   UNL     1       0.106  58.980  24.883  1.00  0.00     0.000 C 
BRANCH   3   4
ATOM      4  C   UNL     1       0.958  57.719  25.112  1.00  0.00     0.000 C 
BRANCH   4   5
ATOM      5  C   UNL     1       2.464  57.979  24.936  1.00  0.00     0.001 C 
BRANCH   5   6
ATOM      6  C   UNL     1       3.062  57.262  23.709  1.00  0.00     0.009 C 
BRANCH   6   7
ATOM      7  C   UNL     1       2.101  56.243  23.050  1.00  0.00     0.032 C 
ATOM      8  C   UNL     1       1.931  56.549  21.558  1.00  0.00     0.014 C 
BRANCH   7   9
ATOM      9  C   UNL     1       2.577  54.827  23.220  1.00  0.00     0.044 C 
ATOM     10  O   UNL     1       2.331  53.957  22.342  1.00  0.00    -0.550 OA
ATOM     11  O   UNL     1       3.286  54.467  24.360  1.00  0.00    -0.550 OA
ENDBRANCH   7   9
ENDBRANCH   6   7
ENDBRANCH   5   6
ENDBRANCH   4   5
ENDBRANCH   3   4
ENDBRANCH   2   3
ENDBRANCH   1   2
BRANCH   1  12
ATOM     12  C   UNL     1      -1.050  61.316  22.866  1.00  0.00     0.000 C 
BRANCH  12  13
ATOM     13  C   UNL     1      -2.044  62.491  22.875  1.00  0.00    -0.000 C 
BRANCH  13  14
ATOM     14  C   UNL     1      -1.363  63.838  23.160  1.00  0.00    -0.000 C 
BRANCH  14  15
ATOM     15  C   UNL     1      -2.253  65.044  22.810  1.00  0.00    -0.000 C 
BRANCH  15  16
ATOM     16  C   UNL     1      -1.446  66.199  22.180  1.00  0.00    -0.000 C 
BRANCH  16  17
ATOM     17  C   UNL     1      -0.516  66.915  23.173  1.00  0.00    -0.000 C 
BRANCH  17  18
ATOM     18  C   UNL     1       0.902  67.117  22.625  1.00  0.00    -0.003 C 
ATOM     19  C   UNL     1       0.906  67.125  21.099  1.00  0.00     0.004 C 
ENDBRANCH  17  18
ENDBRANCH  16  17
ENDBRANCH  15  16
ENDBRANCH  14  15
ENDBRANCH  13  14
ENDBRANCH  12  13
ENDBRANCH   1  12
TORSDOF 14
ENDMDL
MODEL 7
REMARK VINA RESULT:    -4.322      6.301     13.399
REMARK INTER + INTRA:          -9.001
REMARK INTER:                  -7.763
REMARK INTRA:                  -1.238
REMARK UNBOUND:                -1.142
REMARK SMILES CCCCCCCCCCCCCC[C@@H](C)C(=O)[O-]
REMARK SMILES IDX 9 1 10 2 11 3 12 4 13 5 14 6 15 7 16 8 17 9 18 10 19 11 8 12
REMARK SMILES IDX 7 13 6 14 5 15 4 16 3 17 2 18 1 19
REMARK H PARENT
REMARK Flexibility Score: inf
ROOT
ATOM      1  C   UNL     1       1.995  49.499  22.958  1.00  0.00     0.000 C 
ENDROOT
BRANCH   1   2
ATOM      2  C   UNL     1       2.649  50.887  22.808  1.00  0.00     0.000 C 
BRANCH   2   3
ATOM      3  C   UNL     1       1.675  52.045  22.512  1.00  0.00     0.000 C 
BRANCH   3   4
ATOM      4  C   UNL     1       2.346  53.357  22.066  1.00  0.00     0.000 C 
BRANCH   4   5
ATOM      5  C   UNL     1       2.469  54.380  23.208  1.00  0.00     0.001 C 
BRANCH   5   6
ATOM      6  C   UNL     1       2.028  55.799  22.798  1.00  0.00     0.009 C 
BRANCH   6   7
ATOM      7  C   UNL     1       2.757  56.928  23.567  1.00  0.00     0.032 C 
ATOM      8  C   UNL     1       2.696  58.242  22.781  1.00  0.00     0.014 C 
BRANCH   7   9
ATOM      9  C   UNL     1       2.183  57.138  24.940  1.00  0.00     0.044 C 
ATOM     10  O   UNL     1       2.673  56.545  25.939  1.00  0.00    -0.550 OA
ATOM     11  O   UNL     1       1.095  57.985  25.113  1.00  0.00    -0.550 OA
ENDBRANCH   7   9
ENDBRANCH   6   7
ENDBRANCH   5   6
ENDBRANCH   4   5
ENDBRANCH   3   4
ENDBRANCH   2   3
ENDBRANCH   1   2
BRANCH   1  12
ATOM     12  C   UNL     1       2.774  48.336  22.317  1.00  0.00     0.000 C 
BRANCH  12  13
ATOM     13  C   UNL     1       2.873  47.106  23.237  1.00  0.00    -0.000 C 
BRANCH  13  14
ATOM     14  C   UNL     1       2.233  47.346  24.613  1.00  0.00    -0.000 C 
BRANCH  14  15
ATOM     15  C   UNL     1       3.247  47.256  25.768  1.00  0.00    -0.000 C 
BRANCH  15  16
ATOM     16  C   UNL     1       4.274  48.408  25.730  1.00  0.00    -0.000 C 
BRANCH  16  17
ATOM     17  C   UNL     1       5.716  47.940  25.473  1.00  0.00    -0.000 C 
BRANCH  17  18
ATOM     18  C   UNL     1       6.435  48.777  24.406  1.00  0.00    -0.003 C 
ATOM     19  C   UNL     1       6.520  48.024  23.082  1.00  0.00     0.004 C 
ENDBRANCH  17  18
ENDBRANCH  16  17
ENDBRANCH  15  16
ENDBRANCH  14  15
ENDBRANCH  13  14
ENDBRANCH  12  13
ENDBRANCH   1  12
TORSDOF 14
ENDMDL
MODEL 8
REMARK VINA RESULT:    -4.313      5.891     13.249
REMARK INTER + INTRA:          -8.986
REMARK INTER:                  -8.072
REMARK INTRA:                  -0.913
REMARK UNBOUND:                -1.142
REMARK SMILES CCCCCCCCCCCCCC[C@@H](C)C(=O)[O-]
REMARK SMILES IDX 9 1 10 2 11 3 12 4 13 5 14 6 15 7 16 8 17 9 18 10 19 11 8 12
REMARK SMILES IDX 7 13 6 14 5 15 4 16 3 17 2 18 1 19
REMARK H PARENT
REMARK Flexibility Score: inf
ROOT
ATOM      1  C   UNL     1       2.399  50.642  22.866  1.00  0.00     0.000 C 
ENDROOT
BRANCH   1   2
ATOM      2  C   UNL     1       1.509  51.835  22.462  1.00  0.00     0.000 C 
BRANCH   2   3
ATOM      3  C   UNL     1       2.187  53.218  22.543  1.00  0.00     0.000 C 
BRANCH   3   4
ATOM      4  C   UNL     1       2.419  53.905  21.186  1.00  0.00     0.000 C 
BRANCH   4   5
ATOM      5  C   UNL     1       2.436  55.440  21.292  1.00  0.00     0.001 C 
BRANCH   5   6
ATOM      6  C   UNL     1       2.052  55.953  22.695  1.00  0.00     0.009 C 
BRANCH   6   7
ATOM      7  C   UNL     1       1.657  57.449  22.727  1.00  0.00     0.032 C 
ATOM      8  C   UNL     1       0.466  57.672  23.665  1.00  0.00     0.014 C 
BRANCH   7   9
ATOM      9  C   UNL     1       2.801  58.326  23.154  1.00  0.00     0.044 C 
ATOM     10  O   UNL     1       2.771  59.569  22.943  1.00  0.00    -0.550 OA
ATOM     11  O   UNL     1       3.909  57.765  23.776  1.00  0.00    -0.550 OA
ENDBRANCH   7   9
ENDBRANCH   6   7
ENDBRANCH   5   6
ENDBRANCH   4   5
ENDBRANCH   3   4
ENDBRANCH   2   3
ENDBRANCH   1   2
BRANCH   1  12
ATOM     12  C   UNL     1       1.691  49.275  22.881  1.00  0.00     0.000 C 
BRANCH  12  13
ATOM     13  C   UNL     1       2.638  48.117  23.242  1.00  0.00    -0.000 C 
BRANCH  13  14
ATOM     14  C   UNL     1       2.212  47.384  24.523  1.00  0.00    -0.000 C 
BRANCH  14  15
ATOM     15  C   UNL     1       3.134  47.685  25.719  1.00  0.00    -0.000 C 
BRANCH  15  16
ATOM     16  C   UNL     1       4.496  46.968  25.598  1.00  0.00    -0.000 C 
BRANCH  16  17
ATOM     17  C   UNL     1       5.684  47.819  26.073  1.00  0.00    -0.000 C 
BRANCH  17  18
ATOM     18  C   UNL     1       6.241  48.734  24.973  1.00  0.00    -0.003 C 
ATOM     19  C   UNL     1       6.404  47.978  23.659  1.00  0.00     0.004 C 
ENDBRANCH  17  18
ENDBRANCH  16  17
ENDBRANCH  15  16
ENDBRANCH  14  15
ENDBRANCH  13  14
ENDBRANCH  12  13
ENDBRANCH   1  12
TORSDOF 14
ENDMDL
MODEL 9
REMARK VINA RESULT:    -4.188      5.656     13.170
REMARK INTER + INTRA:          -8.758
REMARK INTER:                  -7.868
REMARK INTRA:                  -0.890
REMARK UNBOUND:                -1.142
REMARK SMILES CCCCCCCCCCCCCC[C@@H](C)C(=O)[O-]
REMARK SMILES IDX 9 1 10 2 11 3 12 4 13 5 14 6 15 7 16 8 17 9 18 10 19 11 8 12
REMARK SMILES IDX 7 13 6 14 5 15 4 16 3 17 2 18 1 19
REMARK H PARENT
REMARK Flexibility Score: inf
ROOT
ATOM      1  C   UNL     1       2.538  50.757  22.741  1.00  0.00     0.000 C 
ENDROOT
BRANCH   1   2
ATOM      2  C   UNL     1       1.613  51.969  22.511  1.00  0.00     0.000 C 
BRANCH   2   3
ATOM      3  C   UNL     1       2.327  53.275  22.106  1.00  0.00     0.000 C 
BRANCH   3   4
ATOM      4  C   UNL     1       2.713  54.192  23.280  1.00  0.00     0.000 C 
BRANCH   4   5
ATOM      5  C   UNL     1       2.225  55.638  23.089  1.00  0.00     0.001 C 
BRANCH   5   6
ATOM      6  C   UNL     1       2.615  56.567  24.257  1.00  0.00     0.009 C 
BRANCH   6   7
ATOM      7  C   UNL     1       2.698  58.062  23.867  1.00  0.00     0.032 C 
ATOM      8  C   UNL     1       3.097  58.214  22.395  1.00  0.00     0.014 C 
BRANCH   7   9
ATOM      9  C   UNL     1       1.400  58.782  24.111  1.00  0.00     0.044 C 
ATOM     10  O   UNL     1       0.450  58.207  24.707  1.00  0.00    -0.550 OA
ATOM     11  O   UNL     1       1.239  60.089  23.668  1.00  0.00    -0.550 OA
ENDBRANCH   7   9
ENDBRANCH   6   7
ENDBRANCH   5   6
ENDBRANCH   4   5
ENDBRANCH   3   4
ENDBRANCH   2   3
ENDBRANCH   1   2
BRANCH   1  12
ATOM     12  C   UNL     1       1.821  49.398  22.848  1.00  0.00     0.000 C 
BRANCH  12  13
ATOM     13  C   UNL     1       2.787  48.237  23.142  1.00  0.00    -0.000 C 
BRANCH  13  14
ATOM     14  C   UNL     1       3.066  47.374  21.901  1.00  0.00    -0.000 C 
BRANCH  14  15
ATOM     15  C   UNL     1       4.535  47.436  21.448  1.00  0.00    -0.000 C 
BRANCH  15  16
ATOM     16  C   UNL     1       5.515  47.275  22.630  1.00  0.00    -0.000 C 
BRANCH  16  17
ATOM     17  C   UNL     1       6.593  48.370  22.690  1.00  0.00    -0.000 C 
BRANCH  17  18
ATOM     18  C   UNL     1       7.072  48.659  24.119  1.00  0.00    -0.003 C 
ATOM     19  C   UNL     1       5.892  48.889  25.059  1.00  0.00     0.004 C 
ENDBRANCH  17  18
ENDBRANCH  16  17
ENDBRANCH  15  16
ENDBRANCH  14  15
ENDBRANCH  13  14
ENDBRANCH  12  13
ENDBRANCH   1  12
TORSDOF 14
ENDMDL
