MODEL 1
REMARK VINA RESULT:    -2.897      0.000      0.000
REMARK INTER + INTRA:          -3.864
REMARK INTER:                  -4.421
REMARK INTRA:                   0.557
REMARK UNBOUND:                 0.557
REMARK SMILES CC1=CCC[C@H](C)C(=O)C[C@H](C(C)C)C(=O)C1
REMARK SMILES IDX 8 1 9 2 6 3 7 4 5 5 4 6 3 7 2 8 1 9 10 11 11 12 15 13 16 14
REMARK SMILES IDX 17 15 12 17 13 18 14 19
REMARK H PARENT
REMARK Flexibility Score: 70.00
ROOT
ATOM      1  C   UNL     1      -4.817 -15.545  -8.052  1.00  0.00     0.136 C 
ATOM      2  O   UNL     1      -4.574 -16.099  -9.114  1.00  0.00    -0.299 OA
ENDROOT
BRANCH   1   3
ATOM      3  C   UNL     1      -5.998 -14.598  -7.956  1.00  0.00     0.053 C 
ATOM      4  C   UNL     1      -6.059 -13.988  -6.551  1.00  0.00     0.016 C 
BRANCH   3   5
ATOM      5  C   UNL     1      -5.963 -13.480  -9.026  1.00  0.00     0.015 C 
BRANCH   5   6
ATOM      6  C   UNL     1      -5.893 -12.044  -8.473  1.00  0.00     0.028 C 
BRANCH   6   7
ATOM      7  C   UNL     1      -4.656 -11.310  -8.938  1.00  0.00    -0.028 C 
ATOM      8  C   UNL     1      -3.405 -11.509  -8.458  1.00  0.00    -0.070 CG0
ATOM      9  C   UNL     1      -2.278 -10.721  -9.076  1.00  0.00     0.039 C 
ATOM     10  G   UNL     1      -3.096 -12.464  -7.319  1.00  0.00     0.000 G0
ENDBRANCH   6   7
ENDBRANCH   5   6
ENDBRANCH   3   5
ENDBRANCH   1   3
BRANCH   1  11
ATOM     11  C   UNL     1      -3.892 -15.749  -6.866  1.00  0.00     0.087 C 
BRANCH  11  12
ATOM     12  C   UNL     1      -2.514 -15.023  -6.944  1.00  0.00     0.066 C 
BRANCH  12  13
ATOM     13  C   UNL     1      -2.529 -13.787  -7.832  1.00  0.00     0.140 C 
ATOM     14  O   UNL     1      -2.125 -13.853  -8.983  1.00  0.00    -0.299 OA
BRANCH  13  15
ATOM     15  C   UNL     1      -3.063 -12.471  -7.325  1.00  0.00     0.106 CG0
ATOM     16  G   UNL     1      -3.397 -11.514  -8.455  1.00  0.00     0.000 G0
ENDBRANCH  13  15
ENDBRANCH  12  13
BRANCH  12  17
ATOM     17  C   UNL     1      -1.857 -14.797  -5.544  1.00  0.00    -0.006 C 
ATOM     18  C   UNL     1      -0.750 -15.805  -5.189  1.00  0.00     0.008 C 
ATOM     19  C   UNL     1      -2.910 -14.747  -4.426  1.00  0.00     0.008 C 
ENDBRANCH  12  17
ENDBRANCH  11  12
ENDBRANCH   1  11
TORSDOF 1
ENDMDL
MODEL 2
REMARK VINA RESULT:    -2.471      2.173      3.118
REMARK INTER + INTRA:          -3.213
REMARK INTER:                  -3.390
REMARK INTRA:                   0.177
REMARK UNBOUND:                 0.557
REMARK SMILES CC1=CCC[C@H](C)C(=O)C[C@H](C(C)C)C(=O)C1
REMARK SMILES IDX 8 1 9 2 6 3 7 4 5 5 4 6 3 7 2 8 1 9 10 11 11 12 15 13 16 14
REMARK SMILES IDX 17 15 12 17 13 18 14 19
REMARK H PARENT
REMARK Flexibility Score: 70.00
ROOT
ATOM      1  C   UNL     1      -5.670 -14.296  -6.965  1.00  0.00     0.136 C 
ATOM      2  O   UNL     1      -6.090 -13.325  -6.352  1.00  0.00    -0.299 OA
ENDROOT
BRANCH   1   3
ATOM      3  C   UNL     1      -5.607 -14.252  -8.480  1.00  0.00     0.053 C 
ATOM      4  C   UNL     1      -6.138 -12.903  -8.981  1.00  0.00     0.016 C 
BRANCH   3   5
ATOM      5  C   UNL     1      -4.183 -14.506  -9.033  1.00  0.00     0.015 C 
BRANCH   5   6
ATOM      6  C   UNL     1      -3.164 -13.382  -8.762  1.00  0.00     0.028 C 
BRANCH   6   7
ATOM      7  C   UNL     1      -1.867 -13.909  -8.192  1.00  0.00    -0.028 C 
ATOM      8  C   UNL     1      -1.561 -13.963  -6.874  1.00  0.00    -0.070 CG0
ATOM      9  C   UNL     1      -0.237 -14.569  -6.480  1.00  0.00     0.039 C 
ATOM     10  G   UNL     1      -2.474 -13.424  -5.787  1.00  0.00     0.000 G0
ENDBRANCH   6   7
ENDBRANCH   5   6
ENDBRANCH   3   5
ENDBRANCH   1   3
BRANCH   1  11
ATOM     11  C   UNL     1      -5.291 -15.558  -6.212  1.00  0.00     0.087 C 
BRANCH  11  12
ATOM     12  C   UNL     1      -3.781 -15.710  -5.856  1.00  0.00     0.066 C 
BRANCH  12  13
ATOM     13  C   UNL     1      -3.219 -14.530  -5.076  1.00  0.00     0.140 C 
ATOM     14  O   UNL     1      -3.359 -14.472  -3.864  1.00  0.00    -0.299 OA
BRANCH  13  15
ATOM     15  C   UNL     1      -2.459 -13.429  -5.772  1.00  0.00     0.106 CG0
ATOM     16  G   UNL     1      -1.564 -13.961  -6.878  1.00  0.00     0.000 G0
ENDBRANCH  13  15
ENDBRANCH  12  13
BRANCH  12  17
ATOM     17  C   UNL     1      -3.429 -17.106  -5.246  1.00  0.00    -0.006 C 
ATOM     18  C   UNL     1      -1.938 -17.477  -5.318  1.00  0.00     0.008 C 
ATOM     19  C   UNL     1      -4.287 -18.224  -5.860  1.00  0.00     0.008 C 
ENDBRANCH  12  17
ENDBRANCH  11  12
ENDBRANCH   1  11
TORSDOF 1
ENDMDL
MODEL 3
REMARK VINA RESULT:    -2.461      2.280      3.882
REMARK INTER + INTRA:          -3.199
REMARK INTER:                  -3.934
REMARK INTRA:                   0.735
REMARK UNBOUND:                 0.557
REMARK SMILES CC1=CCC[C@H](C)C(=O)C[C@H](C(C)C)C(=O)C1
REMARK SMILES IDX 8 1 9 2 6 3 7 4 5 5 4 6 3 7 2 8 1 9 10 11 11 12 15 13 16 14
REMARK SMILES IDX 17 15 12 17 13 18 14 19
REMARK H PARENT
REMARK Flexibility Score: 70.00
ROOT
ATOM      1  C   UNL     1      -2.934 -14.018  -4.976  1.00  0.00     0.136 C 
ATOM      2  O   UNL     1      -3.644 -13.332  -4.255  1.00  0.00    -0.299 OA
ENDROOT
BRANCH   1   3
ATOM      3  C   UNL     1      -2.152 -13.359  -6.097  1.00  0.00     0.053 C 
ATOM      4  C   UNL     1      -1.454 -14.433  -6.941  1.00  0.00     0.016 C 
BRANCH   3   5
ATOM      5  C   UNL     1      -3.031 -12.456  -6.997  1.00  0.00     0.015 C 
BRANCH   5   6
ATOM      6  C   UNL     1      -3.097 -12.873  -8.478  1.00  0.00     0.028 C 
BRANCH   6   7
ATOM      7  C   UNL     1      -4.507 -13.186  -8.924  1.00  0.00    -0.028 C 
ATOM      8  C   UNL     1      -5.178 -14.329  -8.642  1.00  0.00    -0.070 CG0
ATOM      9  C   UNL     1      -6.601 -14.451  -9.125  1.00  0.00     0.039 C 
ATOM     10  G   UNL     1      -4.555 -15.491  -7.888  1.00  0.00     0.000 G0
ENDBRANCH   6   7
ENDBRANCH   5   6
ENDBRANCH   3   5
ENDBRANCH   1   3
BRANCH   1  11
ATOM     11  C   UNL     1      -2.903 -15.524  -4.793  1.00  0.00     0.087 C 
BRANCH  11  12
ATOM     12  C   UNL     1      -4.084 -16.312  -5.437  1.00  0.00     0.066 C 
BRANCH  12  13
ATOM     13  C   UNL     1      -4.895 -15.490  -6.428  1.00  0.00     0.140 C 
ATOM     14  O   UNL     1      -5.817 -14.790  -6.036  1.00  0.00    -0.299 OA
BRANCH  13  15
ATOM     15  C   UNL     1      -4.565 -15.497  -7.899  1.00  0.00     0.106 CG0
ATOM     16  G   UNL     1      -5.195 -14.327  -8.634  1.00  0.00     0.000 G0
ENDBRANCH  13  15
ENDBRANCH  12  13
BRANCH  12  17
ATOM     17  C   UNL     1      -3.667 -17.723  -5.967  1.00  0.00    -0.006 C 
ATOM     18  C   UNL     1      -4.454 -18.894  -5.352  1.00  0.00     0.008 C 
ATOM     19  C   UNL     1      -2.156 -17.959  -5.816  1.00  0.00     0.008 C 
ENDBRANCH  12  17
ENDBRANCH  11  12
ENDBRANCH   1  11
TORSDOF 1
ENDMDL
MODEL 4
REMARK VINA RESULT:    -2.201      1.461      3.972
REMARK INTER + INTRA:          -2.802
REMARK INTER:                  -3.639
REMARK INTRA:                   0.837
REMARK UNBOUND:                 0.557
REMARK SMILES CC1=CCC[C@H](C)C(=O)C[C@H](C(C)C)C(=O)C1
REMARK SMILES IDX 8 1 9 2 6 3 7 4 5 5 4 6 3 7 2 8 1 9 10 11 11 12 15 13 16 14
REMARK SMILES IDX 17 15 12 17 13 18 14 19
REMARK H PARENT
REMARK Flexibility Score: 70.00
ROOT
ATOM      1  C   UNL     1      -4.330 -15.987  -5.606  1.00  0.00     0.136 C 
ATOM      2  O   UNL     1      -4.341 -17.189  -5.384  1.00  0.00    -0.299 OA
ENDROOT
BRANCH   1   3
ATOM      3  C   UNL     1      -3.309 -15.108  -4.910  1.00  0.00     0.053 C 
ATOM      4  C   UNL     1      -3.614 -15.052  -3.408  1.00  0.00     0.016 C 
BRANCH   3   5
ATOM      5  C   UNL     1      -1.851 -15.575  -5.144  1.00  0.00     0.015 C 
BRANCH   5   6
ATOM      6  C   UNL     1      -1.125 -14.891  -6.318  1.00  0.00     0.028 C 
BRANCH   6   7
ATOM      7  C   UNL     1      -1.550 -13.451  -6.497  1.00  0.00    -0.028 C 
ATOM      8  C   UNL     1      -2.251 -12.971  -7.552  1.00  0.00    -0.070 CG0
ATOM      9  C   UNL     1      -2.635 -11.514  -7.540  1.00  0.00     0.039 C 
ATOM     10  G   UNL     1      -2.640 -13.825  -8.746  1.00  0.00     0.000 G0
ENDBRANCH   6   7
ENDBRANCH   5   6
ENDBRANCH   3   5
ENDBRANCH   1   3
BRANCH   1  11
ATOM     11  C   UNL     1      -5.383 -15.378  -6.513  1.00  0.00     0.087 C 
BRANCH  11  12
ATOM     12  C   UNL     1      -4.901 -14.214  -7.432  1.00  0.00     0.066 C 
BRANCH  12  13
ATOM     13  C   UNL     1      -3.884 -14.648  -8.478  1.00  0.00     0.140 C 
ATOM     14  O   UNL     1      -4.066 -15.669  -9.125  1.00  0.00    -0.299 OA
BRANCH  13  15
ATOM     15  C   UNL     1      -2.655 -13.821  -8.758  1.00  0.00     0.106 CG0
ATOM     16  G   UNL     1      -2.247 -12.978  -7.563  1.00  0.00     0.000 G0
ENDBRANCH  13  15
ENDBRANCH  12  13
BRANCH  12  17
ATOM     17  C   UNL     1      -6.073 -13.350  -7.998  1.00  0.00    -0.006 C 
ATOM     18  C   UNL     1      -6.898 -14.036  -9.101  1.00  0.00     0.008 C 
ATOM     19  C   UNL     1      -5.581 -11.975  -8.479  1.00  0.00     0.008 C 
ENDBRANCH  12  17
ENDBRANCH  11  12
ENDBRANCH   1  11
TORSDOF 1
ENDMDL
MODEL 5
REMARK VINA RESULT:    -1.914      1.657      2.580
REMARK INTER + INTRA:          -2.365
REMARK INTER:                  -3.098
REMARK INTRA:                   0.733
REMARK UNBOUND:                 0.557
REMARK SMILES CC1=CCC[C@H](C)C(=O)C[C@H](C(C)C)C(=O)C1
REMARK SMILES IDX 8 1 9 2 6 3 7 4 5 5 4 6 3 7 2 8 1 9 10 11 11 12 15 13 16 14
REMARK SMILES IDX 17 15 12 17 13 18 14 19
REMARK H PARENT
REMARK Flexibility Score: 70.00
ROOT
ATOM      1  C   UNL     1      -3.910 -16.096  -5.159  1.00  0.00     0.136 C 
ATOM      2  O   UNL     1      -4.860 -16.307  -4.419  1.00  0.00    -0.299 OA
ENDROOT
BRANCH   1   3
ATOM      3  C   UNL     1      -3.928 -16.646  -6.572  1.00  0.00     0.053 C 
ATOM      4  C   UNL     1      -4.512 -18.063  -6.568  1.00  0.00     0.016 C 
BRANCH   3   5
ATOM      5  C   UNL     1      -4.710 -15.746  -7.560  1.00  0.00     0.015 C 
BRANCH   5   6
ATOM      6  C   UNL     1      -5.232 -14.422  -6.969  1.00  0.00     0.028 C 
BRANCH   6   7
ATOM      7  C   UNL     1      -4.765 -13.218  -7.756  1.00  0.00    -0.028 C 
ATOM      8  C   UNL     1      -3.598 -12.560  -7.555  1.00  0.00    -0.070 CG0
ATOM      9  C   UNL     1      -3.270 -11.409  -8.471  1.00  0.00     0.039 C 
ATOM     10  G   UNL     1      -2.628 -12.914  -6.442  1.00  0.00     0.000 G0
ENDBRANCH   6   7
ENDBRANCH   5   6
ENDBRANCH   3   5
ENDBRANCH   1   3
BRANCH   1  11
ATOM     11  C   UNL     1      -2.695 -15.355  -4.633  1.00  0.00     0.087 C 
BRANCH  11  12
ATOM     12  C   UNL     1      -1.518 -15.176  -5.640  1.00  0.00     0.066 C 
BRANCH  12  13
ATOM     13  C   UNL     1      -1.800 -14.151  -6.729  1.00  0.00     0.140 C 
ATOM     14  O   UNL     1      -1.394 -14.335  -7.866  1.00  0.00    -0.299 OA
BRANCH  13  15
ATOM     15  C   UNL     1      -2.603 -12.909  -6.438  1.00  0.00     0.106 CG0
ATOM     16  G   UNL     1      -3.579 -12.582  -7.555  1.00  0.00     0.000 G0
ENDBRANCH  13  15
ENDBRANCH  12  13
BRANCH  12  17
ATOM     17  C   UNL     1      -0.130 -15.003  -4.942  1.00  0.00    -0.006 C 
ATOM     18  C   UNL     1       0.969 -14.415  -5.843  1.00  0.00     0.008 C 
ATOM     19  C   UNL     1       0.350 -16.316  -4.304  1.00  0.00     0.008 C 
ENDBRANCH  12  17
ENDBRANCH  11  12
ENDBRANCH   1  11
TORSDOF 1
ENDMDL
MODEL 6
REMARK VINA RESULT:    -1.858      2.046      3.693
REMARK INTER + INTRA:          -2.278
REMARK INTER:                  -3.142
REMARK INTRA:                   0.864
REMARK UNBOUND:                 0.557
REMARK SMILES CC1=CCC[C@H](C)C(=O)C[C@H](C(C)C)C(=O)C1
REMARK SMILES IDX 8 1 9 2 6 3 7 4 5 5 4 6 3 7 2 8 1 9 10 11 11 12 15 13 16 14
REMARK SMILES IDX 17 15 12 17 13 18 14 19
REMARK H PARENT
REMARK Flexibility Score: 70.00
ROOT
ATOM      1  C   UNL     1      -2.591 -12.745  -6.667  1.00  0.00     0.136 C 
ATOM      2  O   UNL     1      -2.608 -12.294  -5.531  1.00  0.00    -0.299 OA
ENDROOT
BRANCH   1   3
ATOM      3  C   UNL     1      -3.247 -11.963  -7.790  1.00  0.00     0.053 C 
ATOM      4  C   UNL     1      -3.022 -12.686  -9.123  1.00  0.00     0.016 C 
BRANCH   3   5
ATOM      5  C   UNL     1      -4.758 -11.724  -7.557  1.00  0.00     0.015 C 
BRANCH   5   6
ATOM      6  C   UNL     1      -5.555 -12.961  -7.100  1.00  0.00     0.028 C 
BRANCH   6   7
ATOM      7  C   UNL     1      -5.335 -14.152  -8.004  1.00  0.00    -0.028 C 
ATOM      8  C   UNL     1      -4.957 -15.385  -7.591  1.00  0.00    -0.070 CG0
ATOM      9  C   UNL     1      -4.835 -16.472  -8.629  1.00  0.00     0.039 C 
ATOM     10  G   UNL     1      -4.630 -15.711  -6.144  1.00  0.00     0.000 G0
ENDBRANCH   6   7
ENDBRANCH   5   6
ENDBRANCH   3   5
ENDBRANCH   1   3
BRANCH   1  11
ATOM     11  C   UNL     1      -1.987 -14.112  -6.927  1.00  0.00     0.087 C 
BRANCH  11  12
ATOM     12  C   UNL     1      -2.084 -15.134  -5.754  1.00  0.00     0.066 C 
BRANCH  12  13
ATOM     13  C   UNL     1      -3.194 -16.160  -5.933  1.00  0.00     0.140 C 
ATOM     14  O   UNL     1      -2.939 -17.354  -5.893  1.00  0.00    -0.299 OA
BRANCH  13  15
ATOM     15  C   UNL     1      -4.625 -15.730  -6.133  1.00  0.00     0.106 CG0
ATOM     16  G   UNL     1      -4.924 -15.390  -7.583  1.00  0.00     0.000 G0
ENDBRANCH  13  15
ENDBRANCH  12  13
BRANCH  12  17
ATOM     17  C   UNL     1      -0.703 -15.749  -5.356  1.00  0.00    -0.006 C 
ATOM     18  C   UNL     1      -0.578 -16.131  -3.871  1.00  0.00     0.008 C 
ATOM     19  C   UNL     1       0.462 -14.837  -5.771  1.00  0.00     0.008 C 
ENDBRANCH  12  17
ENDBRANCH  11  12
ENDBRANCH   1  11
TORSDOF 1
ENDMDL
MODEL 7
REMARK VINA RESULT:    -1.738      1.498      3.276
REMARK INTER + INTRA:          -2.096
REMARK INTER:                  -2.554
REMARK INTRA:                   0.459
REMARK UNBOUND:                 0.557
REMARK SMILES CC1=CCC[C@H](C)C(=O)C[C@H](C(C)C)C(=O)C1
REMARK SMILES IDX 8 1 9 2 6 3 7 4 5 5 4 6 3 7 2 8 1 9 10 11 11 12 15 13 16 14
REMARK SMILES IDX 17 15 12 17 13 18 14 19
REMARK H PARENT
REMARK Flexibility Score: 70.00
ROOT
ATOM      1  C   UNL     1      -2.373 -12.918  -8.054  1.00  0.00     0.136 C 
ATOM      2  O   UNL     1      -1.892 -13.262  -9.124  1.00  0.00    -0.299 OA
ENDROOT
BRANCH   1   3
ATOM      3  C   UNL     1      -3.118 -11.600  -7.960  1.00  0.00     0.053 C 
ATOM      4  C   UNL     1      -2.115 -10.442  -7.905  1.00  0.00     0.016 C 
BRANCH   3   5
ATOM      5  C   UNL     1      -4.119 -11.389  -9.122  1.00  0.00     0.015 C 
BRANCH   5   6
ATOM      6  C   UNL     1      -5.524 -11.977  -8.892  1.00  0.00     0.028 C 
BRANCH   6   7
ATOM      7  C   UNL     1      -5.921 -11.964  -7.433  1.00  0.00    -0.028 C 
ATOM      8  C   UNL     1      -6.060 -13.063  -6.654  1.00  0.00    -0.070 CG0
ATOM      9  C   UNL     1      -6.412 -12.860  -5.202  1.00  0.00     0.039 C 
ATOM     10  G   UNL     1      -5.901 -14.479  -7.180  1.00  0.00     0.000 G0
ENDBRANCH   6   7
ENDBRANCH   5   6
ENDBRANCH   3   5
ENDBRANCH   1   3
BRANCH   1  11
ATOM     11  C   UNL     1      -2.153 -13.772  -6.819  1.00  0.00     0.087 C 
BRANCH  11  12
ATOM     12  C   UNL     1      -3.433 -14.407  -6.194  1.00  0.00     0.066 C 
BRANCH  12  13
ATOM     13  C   UNL     1      -4.432 -14.904  -7.229  1.00  0.00     0.140 C 
ATOM     14  O   UNL     1      -4.072 -15.667  -8.113  1.00  0.00    -0.299 OA
BRANCH  13  15
ATOM     15  C   UNL     1      -5.880 -14.490  -7.173  1.00  0.00     0.106 CG0
ATOM     16  G   UNL     1      -6.051 -13.067  -6.670  1.00  0.00     0.000 G0
ENDBRANCH  13  15
ENDBRANCH  12  13
BRANCH  12  17
ATOM     17  C   UNL     1      -3.119 -15.438  -5.062  1.00  0.00    -0.006 C 
ATOM     18  C   UNL     1      -1.710 -16.054  -5.132  1.00  0.00     0.008 C 
ATOM     19  C   UNL     1      -4.181 -16.547  -4.996  1.00  0.00     0.008 C 
ENDBRANCH  12  17
ENDBRANCH  11  12
ENDBRANCH   1  11
TORSDOF 1
ENDMDL
MODEL 8
REMARK VINA RESULT:    -1.544      1.813      4.948
REMARK INTER + INTRA:          -1.800
REMARK INTER:                  -3.421
REMARK INTRA:                   1.621
REMARK UNBOUND:                 0.557
REMARK SMILES CC1=CCC[C@H](C)C(=O)C[C@H](C(C)C)C(=O)C1
REMARK SMILES IDX 8 1 9 2 6 3 7 4 5 5 4 6 3 7 2 8 1 9 10 11 11 12 15 13 16 14
REMARK SMILES IDX 17 15 12 17 13 18 14 19
REMARK H PARENT
REMARK Flexibility Score: 70.00
ROOT
ATOM      1  C   UNL     1      -1.909 -14.009  -6.957  1.00  0.00     0.136 C 
ATOM      2  O   UNL     1      -2.365 -13.112  -6.263  1.00  0.00    -0.299 OA
ENDROOT
BRANCH   1   3
ATOM      3  C   UNL     1      -1.023 -15.066  -6.325  1.00  0.00     0.053 C 
ATOM      4  C   UNL     1       0.277 -14.421  -5.829  1.00  0.00     0.016 C 
BRANCH   3   5
ATOM      5  C   UNL     1      -1.719 -15.825  -5.170  1.00  0.00     0.015 C 
BRANCH   5   6
ATOM      6  C   UNL     1      -2.930 -16.683  -5.586  1.00  0.00     0.028 C 
BRANCH   6   7
ATOM      7  C   UNL     1      -4.238 -15.939  -5.438  1.00  0.00    -0.028 C 
ATOM      8  C   UNL     1      -4.990 -15.475  -6.465  1.00  0.00    -0.070 CG0
ATOM      9  C   UNL     1      -6.296 -14.799  -6.134  1.00  0.00     0.039 C 
ATOM     10  G   UNL     1      -4.566 -15.583  -7.919  1.00  0.00     0.000 G0
ENDBRANCH   6   7
ENDBRANCH   5   6
ENDBRANCH   3   5
ENDBRANCH   1   3
BRANCH   1  11
ATOM     11  C   UNL     1      -2.169 -14.012  -8.452  1.00  0.00     0.087 C 
BRANCH  11  12
ATOM     12  C   UNL     1      -3.528 -13.398  -8.908  1.00  0.00     0.066 C 
BRANCH  12  13
ATOM     13  C   UNL     1      -4.719 -14.317  -8.676  1.00  0.00     0.140 C 
ATOM     14  O   UNL     1      -5.817 -14.025  -9.124  1.00  0.00    -0.299 OA
BRANCH  13  15
ATOM     15  C   UNL     1      -4.565 -15.611  -7.919  1.00  0.00     0.106 CG0
ATOM     16  G   UNL     1      -4.990 -15.480  -6.466  1.00  0.00     0.000 G0
ENDBRANCH  13  15
ENDBRANCH  12  13
BRANCH  12  17
ATOM     17  C   UNL     1      -3.742 -11.934  -8.404  1.00  0.00    -0.006 C 
ATOM     18  C   UNL     1      -5.129 -11.346  -8.719  1.00  0.00     0.008 C 
ATOM     19  C   UNL     1      -2.637 -10.994  -8.910  1.00  0.00     0.008 C 
ENDBRANCH  12  17
ENDBRANCH  11  12
ENDBRANCH   1  11
TORSDOF 1
ENDMDL
MODEL 9
REMARK VINA RESULT:    -1.090      1.747      3.579
REMARK INTER + INTRA:          -1.107
REMARK INTER:                  -2.626
REMARK INTRA:                   1.519
REMARK UNBOUND:                 0.557
REMARK SMILES CC1=CCC[C@H](C)C(=O)C[C@H](C(C)C)C(=O)C1
REMARK SMILES IDX 8 1 9 2 6 3 7 4 5 5 4 6 3 7 2 8 1 9 10 11 11 12 15 13 16 14
REMARK SMILES IDX 17 15 12 17 13 18 14 19
REMARK H PARENT
REMARK Flexibility Score: 70.00
ROOT
ATOM      1  C   UNL     1      -3.298 -11.667  -7.559  1.00  0.00     0.136 C 
ATOM      2  O   UNL     1      -2.625 -11.081  -8.394  1.00  0.00    -0.299 OA
ENDROOT
BRANCH   1   3
ATOM      3  C   UNL     1      -4.811 -11.629  -7.659  1.00  0.00     0.053 C 
ATOM      4  C   UNL     1      -5.245 -12.008  -9.080  1.00  0.00     0.016 C 
BRANCH   3   5
ATOM      5  C   UNL     1      -5.508 -12.543  -6.623  1.00  0.00     0.015 C 
BRANCH   5   6
ATOM      6  C   UNL     1      -6.138 -13.827  -7.199  1.00  0.00     0.028 C 
BRANCH   6   7
ATOM      7  C   UNL     1      -5.613 -15.075  -6.526  1.00  0.00    -0.028 C 
ATOM      8  C   UNL     1      -4.539 -15.789  -6.938  1.00  0.00    -0.070 CG0
ATOM      9  C   UNL     1      -4.125 -16.982  -6.114  1.00  0.00     0.039 C 
ATOM     10  G   UNL     1      -3.754 -15.457  -8.195  1.00  0.00     0.000 G0
ENDBRANCH   6   7
ENDBRANCH   5   6
ENDBRANCH   3   5
ENDBRANCH   1   3
BRANCH   1  11
ATOM     11  C   UNL     1      -2.618 -12.358  -6.391  1.00  0.00     0.087 C 
BRANCH  11  12
ATOM     12  C   UNL     1      -2.407 -13.896  -6.540  1.00  0.00     0.066 C 
BRANCH  12  13
ATOM     13  C   UNL     1      -2.689 -14.415  -7.943  1.00  0.00     0.140 C 
ATOM     14  O   UNL     1      -2.034 -14.009  -8.891  1.00  0.00    -0.299 OA
BRANCH  13  15
ATOM     15  C   UNL     1      -3.754 -15.453  -8.188  1.00  0.00     0.106 CG0
ATOM     16  G   UNL     1      -4.530 -15.788  -6.926  1.00  0.00     0.000 G0
ENDBRANCH  13  15
ENDBRANCH  12  13
BRANCH  12  17
ATOM     17  C   UNL     1      -1.055 -14.393  -5.934  1.00  0.00    -0.006 C 
ATOM     18  C   UNL     1       0.133 -14.363  -6.911  1.00  0.00     0.008 C 
ATOM     19  C   UNL     1      -1.194 -15.790  -5.309  1.00  0.00     0.008 C 
ENDBRANCH  12  17
ENDBRANCH  11  12
ENDBRANCH   1  11
TORSDOF 1
ENDMDL
