MODEL 1
REMARK VINA RESULT:    -2.105      0.000      0.000
REMARK INTER + INTRA:          -2.105
REMARK INTER:                  -2.105
REMARK INTRA:                   0.000
REMARK UNBOUND:                 0.000
REMARK SMILES CC(=O)[O-]
REMARK SMILES IDX 1 1 2 2 3 3 4 4
REMARK H PARENT
REMARK Flexibility Score: inf
ROOT
ATOM      1  C   UNL     1       6.668   2.012  47.428  1.00  0.00     0.063 C 
ATOM      2  C   UNL     1       5.998   3.240  47.942  1.00  0.00     0.038 C 
ATOM      3  O   UNL     1       4.771   3.221  48.224  1.00  0.00    -0.550 OA
ATOM      4  O   UNL     1       6.738   4.395  48.163  1.00  0.00    -0.550 OA
ENDROOT
TORSDOF 0
ENDMDL
MODEL 2
REMARK VINA RESULT:    -2.061      1.632      1.723
REMARK INTER + INTRA:          -2.061
REMARK INTER:                  -2.061
REMARK INTRA:                   0.000
REMARK UNBOUND:                 0.000
REMARK SMILES CC(=O)[O-]
REMARK SMILES IDX 1 1 2 2 3 3 4 4
REMARK H PARENT
REMARK Flexibility Score: inf
ROOT
ATOM      1  C   UNL     1       5.614   3.195  47.823  1.00  0.00     0.063 C 
ATOM      2  C   UNL     1       6.556   3.990  48.663  1.00  0.00     0.038 C 
ATOM      3  O   UNL     1       6.882   3.580  49.807  1.00  0.00    -0.550 OA
ATOM      4  O   UNL     1       7.117   5.158  48.162  1.00  0.00    -0.550 OA
ENDROOT
TORSDOF 0
ENDMDL
MODEL 3
REMARK VINA RESULT:    -2.026      1.400      2.065
REMARK INTER + INTRA:          -2.026
REMARK INTER:                  -2.026
REMARK INTRA:                   0.000
REMARK UNBOUND:                 0.000
REMARK SMILES CC(=O)[O-]
REMARK SMILES IDX 1 1 2 2 3 3 4 4
REMARK H PARENT
REMARK Flexibility Score: inf
ROOT
ATOM      1  C   UNL     1       4.852   3.145  48.593  1.00  0.00     0.063 C 
ATOM      2  C   UNL     1       6.171   3.316  47.919  1.00  0.00     0.038 C 
ATOM      3  O   UNL     1       6.833   4.374  48.085  1.00  0.00    -0.550 OA
ATOM      4  O   UNL     1       6.698   2.286  47.150  1.00  0.00    -0.550 OA
ENDROOT
TORSDOF 0
ENDMDL
MODEL 4
REMARK VINA RESULT:    -1.990      2.139      2.517
REMARK INTER + INTRA:          -1.990
REMARK INTER:                  -1.990
REMARK INTRA:                   0.000
REMARK UNBOUND:                 0.000
REMARK SMILES CC(=O)[O-]
REMARK SMILES IDX 1 1 2 2 3 3 4 4
REMARK H PARENT
REMARK Flexibility Score: inf
ROOT
ATOM      1  C   UNL     1       5.593   3.123  47.925  1.00  0.00     0.063 C 
ATOM      2  C   UNL     1       6.574   2.044  47.615  1.00  0.00     0.038 C 
ATOM      3  O   UNL     1       7.096   1.973  46.472  1.00  0.00    -0.550 OA
ATOM      4  O   UNL     1       6.954   1.145  48.604  1.00  0.00    -0.550 OA
ENDROOT
TORSDOF 0
ENDMDL
MODEL 5
REMARK VINA RESULT:    -1.849      2.321      2.885
REMARK INTER + INTRA:          -1.849
REMARK INTER:                  -1.849
REMARK INTRA:                   0.000
REMARK UNBOUND:                 0.000
REMARK SMILES CC(=O)[O-]
REMARK SMILES IDX 1 1 2 2 3 3 4 4
REMARK H PARENT
REMARK Flexibility Score: inf
ROOT
ATOM      1  C   UNL     1       7.493   6.344  48.208  1.00  0.00     0.063 C 
ATOM      2  C   UNL     1       6.990   5.076  48.808  1.00  0.00     0.038 C 
ATOM      3  O   UNL     1       6.435   4.210  48.082  1.00  0.00    -0.550 OA
ATOM      4  O   UNL     1       7.179   4.823  50.161  1.00  0.00    -0.550 OA
ENDROOT
TORSDOF 0
ENDMDL
MODEL 6
REMARK VINA RESULT:    -1.821      3.556      4.351
REMARK INTER + INTRA:          -1.821
REMARK INTER:                  -1.821
REMARK INTRA:                   0.000
REMARK UNBOUND:                 0.000
REMARK SMILES CC(=O)[O-]
REMARK SMILES IDX 1 1 2 2 3 3 4 4
REMARK H PARENT
REMARK Flexibility Score: inf
ROOT
ATOM      1  C   UNL     1       7.991   7.732  47.638  1.00  0.00     0.063 C 
ATOM      2  C   UNL     1       7.752   6.603  48.581  1.00  0.00     0.038 C 
ATOM      3  O   UNL     1       7.952   6.757  49.815  1.00  0.00    -0.550 OA
ATOM      4  O   UNL     1       7.258   5.394  48.108  1.00  0.00    -0.550 OA
ENDROOT
TORSDOF 0
ENDMDL
MODEL 7
REMARK VINA RESULT:    -1.820      2.123      2.984
REMARK INTER + INTRA:          -1.820
REMARK INTER:                  -1.820
REMARK INTRA:                   0.000
REMARK UNBOUND:                 0.000
REMARK SMILES CC(=O)[O-]
REMARK SMILES IDX 1 1 2 2 3 3 4 4
REMARK H PARENT
REMARK Flexibility Score: inf
ROOT
ATOM      1  C   UNL     1       6.354   5.171  49.990  1.00  0.00     0.063 C 
ATOM      2  C   UNL     1       6.854   4.925  48.607  1.00  0.00     0.038 C 
ATOM      3  O   UNL     1       7.566   5.788  48.029  1.00  0.00    -0.550 OA
ATOM      4  O   UNL     1       6.580   3.720  47.973  1.00  0.00    -0.550 OA
ENDROOT
TORSDOF 0
ENDMDL
MODEL 8
REMARK VINA RESULT:    -1.789      1.975      2.327
REMARK INTER + INTRA:          -1.789
REMARK INTER:                  -1.789
REMARK INTRA:                   0.000
REMARK UNBOUND:                 0.000
REMARK SMILES CC(=O)[O-]
REMARK SMILES IDX 1 1 2 2 3 3 4 4
REMARK H PARENT
REMARK Flexibility Score: inf
ROOT
ATOM      1  C   UNL     1       5.596   3.130  47.835  1.00  0.00     0.063 C 
ATOM      2  C   UNL     1       6.542   2.482  48.788  1.00  0.00     0.038 C 
ATOM      3  O   UNL     1       6.875   3.072  49.848  1.00  0.00    -0.550 OA
ATOM      4  O   UNL     1       7.017   1.201  48.533  1.00  0.00    -0.550 OA
ENDROOT
TORSDOF 0
ENDMDL
MODEL 9
REMARK VINA RESULT:    -1.742      3.215      3.810
REMARK INTER + INTRA:          -1.742
REMARK INTER:                  -1.742
REMARK INTRA:                   0.000
REMARK UNBOUND:                 0.000
REMARK SMILES CC(=O)[O-]
REMARK SMILES IDX 1 1 2 2 3 3 4 4
REMARK H PARENT
REMARK Flexibility Score: inf
ROOT
ATOM      1  C   UNL     1       7.498   6.510  50.045  1.00  0.00     0.063 C 
ATOM      2  C   UNL     1       7.461   6.250  48.578  1.00  0.00     0.038 C 
ATOM      3  O   UNL     1       7.125   5.117  48.145  1.00  0.00    -0.550 OA
ATOM      4  O   UNL     1       7.747   7.273  47.683  1.00  0.00    -0.550 OA
ENDROOT
TORSDOF 0
ENDMDL
