MODEL 1
REMARK VINA RESULT:    -5.348      0.000      0.000
REMARK INTER + INTRA:          -8.278
REMARK INTER:                  -7.536
REMARK INTRA:                  -0.741
REMARK UNBOUND:                -0.741
REMARK SMILES COc1ccc(-c2cc(=O)c3c(OC)c(OC)c(OC)c(OC)c3o2)cc1OC
REMARK SMILES IDX 7 1 8 2 9 3 10 4 11 5 24 6 25 7 21 8 18 9 15 10 12 11 6 12
REMARK SMILES IDX 3 13 27 14 4 15 26 16 5 17 2 18 1 19 28 20 29 21 22 22 23 23
REMARK SMILES IDX 13 24 14 25 19 26 20 27 16 28 17 29
REMARK H PARENT
REMARK Flexibility Score: inf
ROOT
ATOM      1  C   UNL     1      45.068  16.378  -3.686  1.00  0.00     0.138 A 
ATOM      2  C   UNL     1      44.413  15.221  -3.250  1.00  0.00     0.100 A 
ATOM      3  C   UNL     1      45.145  14.050  -3.071  1.00  0.00     0.197 A 
ATOM      4  O   UNL     1      44.540  13.012  -2.689  1.00  0.00    -0.289 OA
ATOM      5  C   UNL     1      46.535  14.046  -3.327  1.00  0.00     0.115 A 
ATOM      6  C   UNL     1      47.129  15.253  -3.769  1.00  0.00     0.188 A 
ATOM      7  O   UNL     1      46.376  16.339  -3.930  1.00  0.00    -0.452 OA
ATOM      8  C   UNL     1      48.521  15.305  -4.022  1.00  0.00     0.209 A 
ATOM      9  C   UNL     1      49.306  14.152  -3.871  1.00  0.00     0.211 A 
ATOM     10  C   UNL     1      48.707  12.932  -3.476  1.00  0.00     0.208 A 
ATOM     11  C   UNL     1      47.338  12.900  -3.143  1.00  0.00     0.179 A 
ENDROOT
BRANCH   1  12
ATOM     12  C   UNL     1      44.336  17.651  -3.888  1.00  0.00     0.021 A 
ATOM     13  C   UNL     1      42.991  20.101  -4.286  1.00  0.00     0.160 A 
ATOM     14  C   UNL     1      42.739  19.345  -3.131  1.00  0.00     0.161 A 
ATOM     15  C   UNL     1      43.916  19.629  -5.235  1.00  0.00     0.051 A 
ATOM     16  C   UNL     1      43.415  18.125  -2.935  1.00  0.00     0.062 A 
ATOM     17  C   UNL     1      44.582  18.420  -5.033  1.00  0.00     0.016 A 
BRANCH  13  18
ATOM     18  O   UNL     1      42.305  21.313  -4.453  1.00  0.00    -0.493 OA
ATOM     19  C   UNL     1      41.636  21.703  -5.650  1.00  0.00     0.278 C 
ENDBRANCH  13  18
BRANCH  14  20
ATOM     20  O   UNL     1      41.813  19.843  -2.199  1.00  0.00    -0.493 OA
ATOM     21  C   UNL     1      42.161  20.443  -0.955  1.00  0.00     0.278 C 
ENDBRANCH  14  20
ENDBRANCH   1  12
BRANCH   8  22
ATOM     22  O   UNL     1      49.194  16.476  -4.426  1.00  0.00    -0.490 OA
ATOM     23  C   UNL     1      49.132  17.095  -5.705  1.00  0.00     0.278 C 
ENDBRANCH   8  22
BRANCH  11  24
ATOM     24  O   UNL     1      46.780  11.739  -2.598  1.00  0.00    -0.492 OA
ATOM     25  C   UNL     1      47.020  11.364  -1.246  1.00  0.00     0.278 C 
ENDBRANCH  11  24
BRANCH   9  26
ATOM     26  O   UNL     1      50.681  14.289  -4.145  1.00  0.00    -0.490 OA
ATOM     27  C   UNL     1      51.334  14.029  -5.384  1.00  0.00     0.279 C 
ENDBRANCH   9  26
BRANCH  10  28
ATOM     28  O   UNL     1      49.482  11.764  -3.424  1.00  0.00    -0.490 OA
ATOM     29  C   UNL     1      49.646  10.875  -4.526  1.00  0.00     0.278 C 
ENDBRANCH  10  28
TORSDOF 7
ENDMDL
MODEL 2
REMARK VINA RESULT:    -5.104      1.310      2.193
REMARK INTER + INTRA:          -7.934
REMARK INTER:                  -7.154
REMARK INTRA:                  -0.779
REMARK UNBOUND:                -0.741
REMARK SMILES COc1ccc(-c2cc(=O)c3c(OC)c(OC)c(OC)c(OC)c3o2)cc1OC
REMARK SMILES IDX 7 1 8 2 9 3 10 4 11 5 24 6 25 7 21 8 18 9 15 10 12 11 6 12
REMARK SMILES IDX 3 13 27 14 4 15 26 16 5 17 2 18 1 19 28 20 29 21 22 22 23 23
REMARK SMILES IDX 13 24 14 25 19 26 20 27 16 28 17 29
REMARK H PARENT
REMARK Flexibility Score: inf
ROOT
ATOM      1  C   UNL     1      45.075  15.741  -2.997  1.00  0.00     0.138 A 
ATOM      2  C   UNL     1      44.941  14.423  -2.545  1.00  0.00     0.100 A 
ATOM      3  C   UNL     1      45.968  13.514  -2.786  1.00  0.00     0.197 A 
ATOM      4  O   UNL     1      45.831  12.327  -2.383  1.00  0.00    -0.289 OA
ATOM      5  C   UNL     1      47.129  13.932  -3.475  1.00  0.00     0.115 A 
ATOM      6  C   UNL     1      47.192  15.280  -3.905  1.00  0.00     0.188 A 
ATOM      7  O   UNL     1      46.174  16.101  -3.654  1.00  0.00    -0.452 OA
ATOM      8  C   UNL     1      48.340  15.752  -4.585  1.00  0.00     0.209 A 
ATOM      9  C   UNL     1      49.400  14.877  -4.866  1.00  0.00     0.211 A 
ATOM     10  C   UNL     1      49.320  13.518  -4.481  1.00  0.00     0.208 A 
ATOM     11  C   UNL     1      48.214  13.067  -3.730  1.00  0.00     0.179 A 
ENDROOT
BRANCH   1  12
ATOM     12  C   UNL     1      44.013  16.749  -2.763  1.00  0.00     0.021 A 
ATOM     13  C   UNL     1      41.953  18.629  -2.331  1.00  0.00     0.160 A 
ATOM     14  C   UNL     1      43.075  18.986  -3.094  1.00  0.00     0.161 A 
ATOM     15  C   UNL     1      41.865  17.334  -1.789  1.00  0.00     0.051 A 
ATOM     16  C   UNL     1      44.100  18.043  -3.309  1.00  0.00     0.062 A 
ATOM     17  C   UNL     1      42.884  16.405  -2.009  1.00  0.00     0.016 A 
BRANCH  13  18
ATOM     18  O   UNL     1      40.947  19.588  -2.134  1.00  0.00    -0.493 OA
ATOM     19  C   UNL     1      40.801  20.374  -0.955  1.00  0.00     0.278 C 
ENDBRANCH  13  18
BRANCH  14  20
ATOM     20  O   UNL     1      43.133  20.285  -3.624  1.00  0.00    -0.493 OA
ATOM     21  C   UNL     1      43.756  20.628  -4.859  1.00  0.00     0.278 C 
ENDBRANCH  14  20
ENDBRANCH   1  12
BRANCH   8  22
ATOM     22  O   UNL     1      48.497  17.087  -5.010  1.00  0.00    -0.490 OA
ATOM     23  C   UNL     1      47.865  17.705  -6.125  1.00  0.00     0.278 C 
ENDBRANCH   8  22
BRANCH  11  24
ATOM     24  O   UNL     1      48.208  11.769  -3.209  1.00  0.00    -0.492 OA
ATOM     25  C   UNL     1      48.991  11.422  -2.073  1.00  0.00     0.278 C 
ENDBRANCH  11  24
BRANCH   9  26
ATOM     26  O   UNL     1      50.503  15.427  -5.548  1.00  0.00    -0.490 OA
ATOM     27  C   UNL     1      51.784  15.720  -4.999  1.00  0.00     0.279 C 
ENDBRANCH   9  26
BRANCH  10  28
ATOM     28  O   UNL     1      50.339  12.630  -4.852  1.00  0.00    -0.490 OA
ATOM     29  C   UNL     1      50.349  11.908  -6.081  1.00  0.00     0.278 C 
ENDBRANCH  10  28
TORSDOF 7
ENDMDL
MODEL 3
REMARK VINA RESULT:    -5.038      1.576      3.752
REMARK INTER + INTRA:          -7.841
REMARK INTER:                  -7.230
REMARK INTRA:                  -0.611
REMARK UNBOUND:                -0.741
REMARK SMILES COc1ccc(-c2cc(=O)c3c(OC)c(OC)c(OC)c(OC)c3o2)cc1OC
REMARK SMILES IDX 7 1 8 2 9 3 10 4 11 5 24 6 25 7 21 8 18 9 15 10 12 11 6 12
REMARK SMILES IDX 3 13 27 14 4 15 26 16 5 17 2 18 1 19 28 20 29 21 22 22 23 23
REMARK SMILES IDX 13 24 14 25 19 26 20 27 16 28 17 29
REMARK H PARENT
REMARK Flexibility Score: inf
ROOT
ATOM      1  C   UNL     1      45.304  16.486  -3.432  1.00  0.00     0.138 A 
ATOM      2  C   UNL     1      46.203  17.197  -4.236  1.00  0.00     0.100 A 
ATOM      3  C   UNL     1      47.391  16.588  -4.631  1.00  0.00     0.197 A 
ATOM      4  O   UNL     1      48.196  17.243  -5.346  1.00  0.00    -0.289 OA
ATOM      5  C   UNL     1      47.673  15.266  -4.220  1.00  0.00     0.115 A 
ATOM      6  C   UNL     1      46.719  14.610  -3.404  1.00  0.00     0.188 A 
ATOM      7  O   UNL     1      45.604  15.246  -3.051  1.00  0.00    -0.452 OA
ATOM      8  C   UNL     1      46.946  13.279  -2.980  1.00  0.00     0.209 A 
ATOM      9  C   UNL     1      48.133  12.621  -3.337  1.00  0.00     0.211 A 
ATOM     10  C   UNL     1      49.110  13.290  -4.112  1.00  0.00     0.208 A 
ATOM     11  C   UNL     1      48.847  14.585  -4.604  1.00  0.00     0.179 A 
ENDROOT
BRANCH   1  12
ATOM     12  C   UNL     1      44.023  17.085  -2.988  1.00  0.00     0.021 A 
ATOM     13  C   UNL     1      41.557  18.181  -2.160  1.00  0.00     0.160 A 
ATOM     14  C   UNL     1      42.459  18.966  -2.894  1.00  0.00     0.161 A 
ATOM     15  C   UNL     1      41.891  16.851  -1.845  1.00  0.00     0.051 A 
ATOM     16  C   UNL     1      43.687  18.414  -3.307  1.00  0.00     0.062 A 
ATOM     17  C   UNL     1      43.110  16.312  -2.260  1.00  0.00     0.016 A 
BRANCH  13  18
ATOM     18  O   UNL     1      40.340  18.757  -1.764  1.00  0.00    -0.493 OA
ATOM     19  C   UNL     1      39.106  18.594  -2.457  1.00  0.00     0.278 C 
ENDBRANCH  13  18
BRANCH  14  20
ATOM     20  O   UNL     1      42.095  20.289  -3.197  1.00  0.00    -0.493 OA
ATOM     21  C   UNL     1      42.014  20.824  -4.514  1.00  0.00     0.278 C 
ENDBRANCH  14  20
ENDBRANCH   1  12
BRANCH   8  22
ATOM     22  O   UNL     1      46.030  12.544  -2.201  1.00  0.00    -0.490 OA
ATOM     23  C   UNL     1      44.904  11.814  -2.673  1.00  0.00     0.278 C 
ENDBRANCH   8  22
BRANCH  11  24
ATOM     24  O   UNL     1      49.737  15.183  -5.502  1.00  0.00    -0.492 OA
ATOM     25  C   UNL     1      51.019  15.638  -5.084  1.00  0.00     0.278 C 
ENDBRANCH  11  24
BRANCH   9  26
ATOM     26  O   UNL     1      48.282  11.299  -2.872  1.00  0.00    -0.490 OA
ATOM     27  C   UNL     1      48.993  10.878  -1.713  1.00  0.00     0.279 C 
ENDBRANCH   9  26
BRANCH  10  28
ATOM     28  O   UNL     1      50.334  12.660  -4.380  1.00  0.00    -0.490 OA
ATOM     29  C   UNL     1      50.547  11.786  -5.486  1.00  0.00     0.278 C 
ENDBRANCH  10  28
TORSDOF 7
ENDMDL
MODEL 4
REMARK VINA RESULT:    -4.861      1.851      7.943
REMARK INTER + INTRA:          -7.592
REMARK INTER:                  -6.827
REMARK INTRA:                  -0.765
REMARK UNBOUND:                -0.741
REMARK SMILES COc1ccc(-c2cc(=O)c3c(OC)c(OC)c(OC)c(OC)c3o2)cc1OC
REMARK SMILES IDX 7 1 8 2 9 3 10 4 11 5 24 6 25 7 21 8 18 9 15 10 12 11 6 12
REMARK SMILES IDX 3 13 27 14 4 15 26 16 5 17 2 18 1 19 28 20 29 21 22 22 23 23
REMARK SMILES IDX 13 24 14 25 19 26 20 27 16 28 17 29
REMARK H PARENT
REMARK Flexibility Score: inf
ROOT
ATOM      1  C   UNL     1      45.550  16.275  -3.924  1.00  0.00     0.138 A 
ATOM      2  C   UNL     1      44.709  15.269  -3.433  1.00  0.00     0.100 A 
ATOM      3  C   UNL     1      43.368  15.558  -3.196  1.00  0.00     0.197 A 
ATOM      4  O   UNL     1      42.625  14.646  -2.743  1.00  0.00    -0.289 OA
ATOM      5  C   UNL     1      42.874  16.856  -3.455  1.00  0.00     0.115 A 
ATOM      6  C   UNL     1      43.783  17.824  -3.947  1.00  0.00     0.188 A 
ATOM      7  O   UNL     1      45.057  17.491  -4.146  1.00  0.00    -0.452 OA
ATOM      8  C   UNL     1      43.333  19.134  -4.239  1.00  0.00     0.209 A 
ATOM      9  C   UNL     1      41.995  19.485  -4.005  1.00  0.00     0.211 A 
ATOM     10  C   UNL     1      41.094  18.535  -3.469  1.00  0.00     0.208 A 
ATOM     11  C   UNL     1      41.521  17.208  -3.258  1.00  0.00     0.179 A 
ENDROOT
BRANCH   1  12
ATOM     12  C   UNL     1      46.984  16.019  -4.198  1.00  0.00     0.021 A 
ATOM     13  C   UNL     1      49.705  15.541  -4.775  1.00  0.00     0.160 A 
ATOM     14  C   UNL     1      48.995  14.642  -3.966  1.00  0.00     0.161 A 
ATOM     15  C   UNL     1      49.052  16.674  -5.293  1.00  0.00     0.051 A 
ATOM     16  C   UNL     1      47.636  14.883  -3.683  1.00  0.00     0.062 A 
ATOM     17  C   UNL     1      47.705  16.905  -5.009  1.00  0.00     0.016 A 
BRANCH  13  18
ATOM     18  O   UNL     1      51.057  15.275  -5.041  1.00  0.00    -0.493 OA
ATOM     19  C   UNL     1      51.922  16.142  -5.769  1.00  0.00     0.278 C 
ENDBRANCH  13  18
BRANCH  14  20
ATOM     20  O   UNL     1      49.673  13.518  -3.465  1.00  0.00    -0.493 OA
ATOM     21  C   UNL     1      49.066  12.256  -3.207  1.00  0.00     0.278 C 
ENDBRANCH  14  20
ENDBRANCH   1  12
BRANCH   8  22
ATOM     22  O   UNL     1      44.165  20.142  -4.767  1.00  0.00    -0.490 OA
ATOM     23  C   UNL     1      44.562  20.293  -6.125  1.00  0.00     0.278 C 
ENDBRANCH   8  22
BRANCH  11  24
ATOM     24  O   UNL     1      40.595  16.229  -2.883  1.00  0.00    -0.492 OA
ATOM     25  C   UNL     1      39.648  15.710  -3.810  1.00  0.00     0.278 C 
ENDBRANCH  11  24
BRANCH   9  26
ATOM     26  O   UNL     1      41.630  20.809  -4.321  1.00  0.00    -0.490 OA
ATOM     27  C   UNL     1      40.950  21.250  -5.491  1.00  0.00     0.279 C 
ENDBRANCH   9  26
BRANCH  10  28
ATOM     28  O   UNL     1      39.786  18.923  -3.148  1.00  0.00    -0.490 OA
ATOM     29  C   UNL     1      39.389  19.370  -1.855  1.00  0.00     0.278 C 
ENDBRANCH  10  28
TORSDOF 7
ENDMDL
MODEL 5
REMARK VINA RESULT:    -4.852      1.931      3.876
REMARK INTER + INTRA:          -7.578
REMARK INTER:                  -6.927
REMARK INTRA:                  -0.651
REMARK UNBOUND:                -0.741
REMARK SMILES COc1ccc(-c2cc(=O)c3c(OC)c(OC)c(OC)c(OC)c3o2)cc1OC
REMARK SMILES IDX 7 1 8 2 9 3 10 4 11 5 24 6 25 7 21 8 18 9 15 10 12 11 6 12
REMARK SMILES IDX 3 13 27 14 4 15 26 16 5 17 2 18 1 19 28 20 29 21 22 22 23 23
REMARK SMILES IDX 13 24 14 25 19 26 20 27 16 28 17 29
REMARK H PARENT
REMARK Flexibility Score: inf
ROOT
ATOM      1  C   UNL     1      45.276  16.373  -3.471  1.00  0.00     0.138 A 
ATOM      2  C   UNL     1      46.168  17.111  -4.257  1.00  0.00     0.100 A 
ATOM      3  C   UNL     1      47.382  16.539  -4.629  1.00  0.00     0.197 A 
ATOM      4  O   UNL     1      48.181  17.219  -5.328  1.00  0.00    -0.289 OA
ATOM      5  C   UNL     1      47.695  15.226  -4.212  1.00  0.00     0.115 A 
ATOM      6  C   UNL     1      46.745  14.541  -3.416  1.00  0.00     0.188 A 
ATOM      7  O   UNL     1      45.605  15.143  -3.085  1.00  0.00    -0.452 OA
ATOM      8  C   UNL     1      47.004  13.217  -2.988  1.00  0.00     0.209 A 
ATOM      9  C   UNL     1      48.217  12.595  -3.321  1.00  0.00     0.211 A 
ATOM     10  C   UNL     1      49.189  13.293  -4.076  1.00  0.00     0.208 A 
ATOM     11  C   UNL     1      48.897  14.580  -4.573  1.00  0.00     0.179 A 
ENDROOT
BRANCH   1  12
ATOM     12  C   UNL     1      43.969  16.934  -3.052  1.00  0.00     0.021 A 
ATOM     13  C   UNL     1      41.507  18.041  -2.226  1.00  0.00     0.160 A 
ATOM     14  C   UNL     1      41.717  16.657  -2.133  1.00  0.00     0.161 A 
ATOM     15  C   UNL     1      42.530  18.865  -2.731  1.00  0.00     0.051 A 
ATOM     16  C   UNL     1      42.948  16.109  -2.544  1.00  0.00     0.062 A 
ATOM     17  C   UNL     1      43.747  18.314  -3.134  1.00  0.00     0.016 A 
BRANCH  13  18
ATOM     18  O   UNL     1      40.272  18.559  -1.809  1.00  0.00    -0.493 OA
ATOM     19  C   UNL     1      39.208  18.916  -2.687  1.00  0.00     0.278 C 
ENDBRANCH  13  18
BRANCH  14  20
ATOM     20  O   UNL     1      40.679  15.860  -1.622  1.00  0.00    -0.493 OA
ATOM     21  C   UNL     1      39.870  14.986  -2.404  1.00  0.00     0.278 C 
ENDBRANCH  14  20
ENDBRANCH   1  12
BRANCH   8  22
ATOM     22  O   UNL     1      46.095  12.454  -2.227  1.00  0.00    -0.490 OA
ATOM     23  C   UNL     1      44.974  11.728  -2.717  1.00  0.00     0.278 C 
ENDBRANCH   8  22
BRANCH  11  24
ATOM     24  O   UNL     1      49.786  15.206  -5.453  1.00  0.00    -0.492 OA
ATOM     25  C   UNL     1      51.057  15.674  -5.016  1.00  0.00     0.278 C 
ENDBRANCH  11  24
BRANCH   9  26
ATOM     26  O   UNL     1      48.396  11.278  -2.853  1.00  0.00    -0.490 OA
ATOM     27  C   UNL     1      49.001  10.884  -1.626  1.00  0.00     0.279 C 
ENDBRANCH   9  26
BRANCH  10  28
ATOM     28  O   UNL     1      50.436  12.701  -4.320  1.00  0.00    -0.490 OA
ATOM     29  C   UNL     1      50.722  11.906  -5.468  1.00  0.00     0.278 C 
ENDBRANCH  10  28
TORSDOF 7
ENDMDL
MODEL 6
REMARK VINA RESULT:    -4.554      2.011      8.200
REMARK INTER + INTRA:          -7.158
REMARK INTER:                  -6.457
REMARK INTRA:                  -0.701
REMARK UNBOUND:                -0.741
REMARK SMILES COc1ccc(-c2cc(=O)c3c(OC)c(OC)c(OC)c(OC)c3o2)cc1OC
REMARK SMILES IDX 7 1 8 2 9 3 10 4 11 5 24 6 25 7 21 8 18 9 15 10 12 11 6 12
REMARK SMILES IDX 3 13 27 14 4 15 26 16 5 17 2 18 1 19 28 20 29 21 22 22 23 23
REMARK SMILES IDX 13 24 14 25 19 26 20 27 16 28 17 29
REMARK H PARENT
REMARK Flexibility Score: inf
ROOT
ATOM      1  C   UNL     1      46.233  17.172  -4.981  1.00  0.00     0.138 A 
ATOM      2  C   UNL     1      45.865  18.350  -5.641  1.00  0.00     0.100 A 
ATOM      3  C   UNL     1      44.563  18.827  -5.507  1.00  0.00     0.197 A 
ATOM      4  O   UNL     1      44.241  19.884  -6.115  1.00  0.00    -0.289 OA
ATOM      5  C   UNL     1      43.636  18.121  -4.708  1.00  0.00     0.115 A 
ATOM      6  C   UNL     1      44.079  16.935  -4.073  1.00  0.00     0.188 A 
ATOM      7  O   UNL     1      45.334  16.523  -4.246  1.00  0.00    -0.452 OA
ATOM      8  C   UNL     1      43.194  16.201  -3.248  1.00  0.00     0.209 A 
ATOM      9  C   UNL     1      41.867  16.627  -3.088  1.00  0.00     0.211 A 
ATOM     10  C   UNL     1      41.407  17.786  -3.758  1.00  0.00     0.208 A 
ATOM     11  C   UNL     1      42.310  18.563  -4.512  1.00  0.00     0.179 A 
ENDROOT
BRANCH   1  12
ATOM     12  C   UNL     1      47.607  16.624  -5.087  1.00  0.00     0.021 A 
ATOM     13  C   UNL     1      50.217  15.582  -5.345  1.00  0.00     0.160 A 
ATOM     14  C   UNL     1      49.321  15.004  -4.434  1.00  0.00     0.161 A 
ATOM     15  C   UNL     1      49.803  16.677  -6.125  1.00  0.00     0.051 A 
ATOM     16  C   UNL     1      48.018  15.526  -4.311  1.00  0.00     0.062 A 
ATOM     17  C   UNL     1      48.510  17.187  -5.998  1.00  0.00     0.016 A 
BRANCH  13  18
ATOM     18  O   UNL     1      51.508  15.040  -5.448  1.00  0.00    -0.493 OA
ATOM     19  C   UNL     1      52.662  15.775  -5.846  1.00  0.00     0.278 C 
ENDBRANCH  13  18
BRANCH  14  20
ATOM     20  O   UNL     1      49.762  13.908  -3.672  1.00  0.00    -0.493 OA
ATOM     21  C   UNL     1      48.926  12.845  -3.225  1.00  0.00     0.278 C 
ENDBRANCH  14  20
ENDBRANCH   1  12
BRANCH   8  22
ATOM     22  O   UNL     1      43.568  15.034  -2.551  1.00  0.00    -0.490 OA
ATOM     23  C   UNL     1      43.806  13.748  -3.111  1.00  0.00     0.278 C 
ENDBRANCH   8  22
BRANCH  11  24
ATOM     24  O   UNL     1      41.901  19.791  -5.040  1.00  0.00    -0.492 OA
ATOM     25  C   UNL     1      41.860  20.967  -4.239  1.00  0.00     0.278 C 
ENDBRANCH  11  24
BRANCH   9  26
ATOM     26  O   UNL     1      41.051  15.839  -2.252  1.00  0.00    -0.490 OA
ATOM     27  C   UNL     1      40.098  14.865  -2.663  1.00  0.00     0.279 C 
ENDBRANCH   9  26
BRANCH  10  28
ATOM     28  O   UNL     1      40.056  18.148  -3.670  1.00  0.00    -0.490 OA
ATOM     29  C   UNL     1      39.484  18.799  -2.538  1.00  0.00     0.278 C 
ENDBRANCH  10  28
TORSDOF 7
ENDMDL
MODEL 7
REMARK VINA RESULT:    -4.292      2.133      7.955
REMARK INTER + INTRA:          -6.790
REMARK INTER:                  -6.140
REMARK INTRA:                  -0.651
REMARK UNBOUND:                -0.741
REMARK SMILES COc1ccc(-c2cc(=O)c3c(OC)c(OC)c(OC)c(OC)c3o2)cc1OC
REMARK SMILES IDX 7 1 8 2 9 3 10 4 11 5 24 6 25 7 21 8 18 9 15 10 12 11 6 12
REMARK SMILES IDX 3 13 27 14 4 15 26 16 5 17 2 18 1 19 28 20 29 21 22 22 23 23
REMARK SMILES IDX 13 24 14 25 19 26 20 27 16 28 17 29
REMARK H PARENT
REMARK Flexibility Score: inf
ROOT
ATOM      1  C   UNL     1      44.970  15.278  -3.620  1.00  0.00     0.138 A 
ATOM      2  C   UNL     1      44.010  14.290  -3.373  1.00  0.00     0.100 A 
ATOM      3  C   UNL     1      42.668  14.651  -3.288  1.00  0.00     0.197 A 
ATOM      4  O   UNL     1      41.815  13.752  -3.055  1.00  0.00    -0.289 OA
ATOM      5  C   UNL     1      42.293  16.003  -3.454  1.00  0.00     0.115 A 
ATOM      6  C   UNL     1      43.319  16.948  -3.697  1.00  0.00     0.188 A 
ATOM      7  O   UNL     1      44.587  16.545  -3.759  1.00  0.00    -0.452 OA
ATOM      8  C   UNL     1      42.994  18.312  -3.888  1.00  0.00     0.209 A 
ATOM      9  C   UNL     1      41.659  18.735  -3.799  1.00  0.00     0.211 A 
ATOM     10  C   UNL     1      40.636  17.801  -3.510  1.00  0.00     0.208 A 
ATOM     11  C   UNL     1      40.949  16.431  -3.403  1.00  0.00     0.179 A 
ENDROOT
BRANCH   1  12
ATOM     12  C   UNL     1      46.411  14.947  -3.724  1.00  0.00     0.021 A 
ATOM     13  C   UNL     1      49.154  14.295  -3.871  1.00  0.00     0.160 A 
ATOM     14  C   UNL     1      48.712  15.557  -4.295  1.00  0.00     0.161 A 
ATOM     15  C   UNL     1      48.223  13.365  -3.374  1.00  0.00     0.051 A 
ATOM     16  C   UNL     1      47.343  15.879  -4.217  1.00  0.00     0.062 A 
ATOM     17  C   UNL     1      46.868  13.692  -3.299  1.00  0.00     0.016 A 
BRANCH  13  18
ATOM     18  O   UNL     1      50.524  14.003  -3.958  1.00  0.00    -0.493 OA
ATOM     19  C   UNL     1      51.129  13.284  -5.030  1.00  0.00     0.278 C 
ENDBRANCH  13  18
BRANCH  14  20
ATOM     20  O   UNL     1      49.666  16.466  -4.783  1.00  0.00    -0.493 OA
ATOM     21  C   UNL     1      49.717  16.942  -6.125  1.00  0.00     0.278 C 
ENDBRANCH  14  20
ENDBRANCH   1  12
BRANCH   8  22
ATOM     22  O   UNL     1      43.951  19.308  -4.173  1.00  0.00    -0.490 OA
ATOM     23  C   UNL     1      44.490  19.630  -5.450  1.00  0.00     0.278 C 
ENDBRANCH   8  22
BRANCH  11  24
ATOM     24  O   UNL     1      39.923  15.489  -3.278  1.00  0.00    -0.492 OA
ATOM     25  C   UNL     1      39.235  15.300  -2.047  1.00  0.00     0.278 C 
ENDBRANCH  11  24
BRANCH   9  26
ATOM     26  O   UNL     1      41.422  20.110  -4.000  1.00  0.00    -0.490 OA
ATOM     27  C   UNL     1      40.893  20.721  -5.172  1.00  0.00     0.279 C 
ENDBRANCH   9  26
BRANCH  10  28
ATOM     28  O   UNL     1      39.320  18.249  -3.326  1.00  0.00    -0.490 OA
ATOM     29  C   UNL     1      38.875  18.937  -2.160  1.00  0.00     0.278 C 
ENDBRANCH  10  28
TORSDOF 7
ENDMDL
MODEL 8
REMARK VINA RESULT:    -3.922      2.705      7.800
REMARK INTER + INTRA:          -6.269
REMARK INTER:                  -5.647
REMARK INTRA:                  -0.622
REMARK UNBOUND:                -0.741
REMARK SMILES COc1ccc(-c2cc(=O)c3c(OC)c(OC)c(OC)c(OC)c3o2)cc1OC
REMARK SMILES IDX 7 1 8 2 9 3 10 4 11 5 24 6 25 7 21 8 18 9 15 10 12 11 6 12
REMARK SMILES IDX 3 13 27 14 4 15 26 16 5 17 2 18 1 19 28 20 29 21 22 22 23 23
REMARK SMILES IDX 13 24 14 25 19 26 20 27 16 28 17 29
REMARK H PARENT
REMARK Flexibility Score: inf
ROOT
ATOM      1  C   UNL     1      45.574  16.031  -3.827  1.00  0.00     0.138 A 
ATOM      2  C   UNL     1      45.098  17.249  -3.329  1.00  0.00     0.100 A 
ATOM      3  C   UNL     1      43.777  17.338  -2.897  1.00  0.00     0.197 A 
ATOM      4  O   UNL     1      43.358  18.445  -2.461  1.00  0.00    -0.289 OA
ATOM      5  C   UNL     1      42.939  16.203  -2.962  1.00  0.00     0.115 A 
ATOM      6  C   UNL     1      43.489  15.005  -3.480  1.00  0.00     0.188 A 
ATOM      7  O   UNL     1      44.756  14.982  -3.887  1.00  0.00    -0.452 OA
ATOM      8  C   UNL     1      42.696  13.835  -3.551  1.00  0.00     0.209 A 
ATOM      9  C   UNL     1      41.354  13.870  -3.142  1.00  0.00     0.211 A 
ATOM     10  C   UNL     1      40.788  15.077  -2.667  1.00  0.00     0.208 A 
ATOM     11  C   UNL     1      41.600  16.220  -2.518  1.00  0.00     0.179 A 
ENDROOT
BRANCH   1  12
ATOM     12  C   UNL     1      46.972  15.881  -4.296  1.00  0.00     0.021 A 
ATOM     13  C   UNL     1      49.618  15.608  -5.241  1.00  0.00     0.160 A 
ATOM     14  C   UNL     1      49.077  14.634  -4.389  1.00  0.00     0.161 A 
ATOM     15  C   UNL     1      48.834  16.714  -5.618  1.00  0.00     0.051 A 
ATOM     16  C   UNL     1      47.755  14.773  -3.922  1.00  0.00     0.062 A 
ATOM     17  C   UNL     1      47.524  16.843  -5.152  1.00  0.00     0.016 A 
BRANCH  13  18
ATOM     18  O   UNL     1      50.937  15.443  -5.692  1.00  0.00    -0.493 OA
ATOM     19  C   UNL     1      52.069  16.102  -5.133  1.00  0.00     0.278 C 
ENDBRANCH  13  18
BRANCH  14  20
ATOM     20  O   UNL     1      49.883  13.539  -4.033  1.00  0.00    -0.493 OA
ATOM     21  C   UNL     1      49.392  12.311  -3.504  1.00  0.00     0.278 C 
ENDBRANCH  14  20
ENDBRANCH   1  12
BRANCH   8  22
ATOM     22  O   UNL     1      43.178  12.595  -4.017  1.00  0.00    -0.490 OA
ATOM     23  C   UNL     1      43.353  12.205  -5.374  1.00  0.00     0.278 C 
ENDBRANCH   8  22
BRANCH  11  24
ATOM     24  O   UNL     1      41.086  17.364  -1.900  1.00  0.00    -0.492 OA
ATOM     25  C   UNL     1      40.136  18.198  -2.554  1.00  0.00     0.278 C 
ENDBRANCH  11  24
BRANCH   9  26
ATOM     26  O   UNL     1      40.634  12.663  -3.246  1.00  0.00    -0.490 OA
ATOM     27  C   UNL     1      39.676  12.326  -4.243  1.00  0.00     0.279 C 
ENDBRANCH   9  26
BRANCH  10  28
ATOM     28  O   UNL     1      39.422  15.127  -2.354  1.00  0.00    -0.490 OA
ATOM     29  C   UNL     1      38.875  14.650  -1.127  1.00  0.00     0.278 C 
ENDBRANCH  10  28
TORSDOF 7
ENDMDL
