MODEL 1
REMARK VINA RESULT:    -3.534      0.000      0.000
REMARK INTER + INTRA:          -7.462
REMARK INTER:                  -6.633
REMARK INTRA:                  -0.829
REMARK UNBOUND:                -0.829
REMARK SMILES O=C([O-])CCCCCCCCCCCCCCC(=O)[O-]
REMARK SMILES IDX 10 1 9 2 8 3 7 4 6 5 5 6 4 7 2 8 1 9 3 10 11 11 12 12 13 13
REMARK SMILES IDX 14 14 15 15 16 16 17 17 18 18 19 19 20 20
REMARK H PARENT
REMARK Flexibility Score: inf
ROOT
ATOM      1  C   UNL     1      10.796  -6.728   4.857  1.00  0.00     0.000 C 
ENDROOT
BRANCH   1   2
ATOM      2  C   UNL     1      10.423  -7.529   6.121  1.00  0.00     0.000 C 
BRANCH   2   3
ATOM      3  C   UNL     1       9.432  -8.686   5.888  1.00  0.00     0.000 C 
BRANCH   3   4
ATOM      4  C   UNL     1       8.607  -9.093   7.125  1.00  0.00     0.000 C 
BRANCH   4   5
ATOM      5  C   UNL     1       7.085  -9.184   6.896  1.00  0.00     0.000 C 
BRANCH   5   6
ATOM      6  C   UNL     1       6.626  -8.891   5.456  1.00  0.00     0.006 C 
BRANCH   6   7
ATOM      7  C   UNL     1       5.421  -7.944   5.395  1.00  0.00     0.053 C 
BRANCH   7   8
ATOM      8  C   UNL     1       5.852  -6.579   4.963  1.00  0.00     0.041 C 
ATOM      9  O   UNL     1       5.006  -5.653   4.849  1.00  0.00    -0.550 OA
ATOM     10  O   UNL     1       7.196  -6.314   4.732  1.00  0.00    -0.550 OA
ENDBRANCH   7   8
ENDBRANCH   6   7
ENDBRANCH   5   6
ENDBRANCH   4   5
ENDBRANCH   3   4
ENDBRANCH   2   3
ENDBRANCH   1   2
BRANCH   1  11
ATOM     11  C   UNL     1      12.164  -7.082   4.240  1.00  0.00     0.000 C 
BRANCH  11  12
ATOM     12  C   UNL     1      13.210  -7.610   5.239  1.00  0.00     0.000 C 
BRANCH  12  13
ATOM     13  C   UNL     1      14.591  -7.825   4.600  1.00  0.00     0.000 C 
BRANCH  13  14
ATOM     14  C   UNL     1      15.441  -6.549   4.690  1.00  0.00     0.000 C 
BRANCH  14  15
ATOM     15  C   UNL     1      16.358  -6.525   5.926  1.00  0.00     0.000 C 
BRANCH  15  16
ATOM     16  C   UNL     1      17.444  -7.615   5.950  1.00  0.00     0.006 C 
BRANCH  16  17
ATOM     17  C   UNL     1      18.847  -7.055   6.215  1.00  0.00     0.053 C 
BRANCH  17  18
ATOM     18  C   UNL     1      19.229  -7.256   7.648  1.00  0.00     0.041 C 
ATOM     19  O   UNL     1      19.801  -8.319   8.007  1.00  0.00    -0.550 OA
ATOM     20  O   UNL     1      18.999  -6.249   8.576  1.00  0.00    -0.550 OA
ENDBRANCH  17  18
ENDBRANCH  16  17
ENDBRANCH  15  16
ENDBRANCH  14  15
ENDBRANCH  13  14
ENDBRANCH  12  13
ENDBRANCH  11  12
ENDBRANCH   1  11
TORSDOF 15
ENDMDL
MODEL 2
REMARK VINA RESULT:    -3.437      3.035      5.609
REMARK INTER + INTRA:          -7.279
REMARK INTER:                  -5.690
REMARK INTRA:                  -1.589
REMARK UNBOUND:                -0.829
REMARK SMILES O=C([O-])CCCCCCCCCCCCCCC(=O)[O-]
REMARK SMILES IDX 10 1 9 2 8 3 7 4 6 5 5 6 4 7 2 8 1 9 3 10 11 11 12 12 13 13
REMARK SMILES IDX 14 14 15 15 16 16 17 17 18 18 19 19 20 20
REMARK H PARENT
REMARK Flexibility Score: inf
ROOT
ATOM      1  C   UNL     1      17.195  -6.573   7.964  1.00  0.00     0.000 C 
ENDROOT
BRANCH   1   2
ATOM      2  C   UNL     1      16.537  -6.392   6.581  1.00  0.00     0.000 C 
BRANCH   2   3
ATOM      3  C   UNL     1      15.480  -7.454   6.221  1.00  0.00     0.000 C 
BRANCH   3   4
ATOM      4  C   UNL     1      15.075  -7.488   4.734  1.00  0.00     0.000 C 
BRANCH   4   5
ATOM      5  C   UNL     1      13.602  -7.129   4.448  1.00  0.00     0.000 C 
BRANCH   5   6
ATOM      6  C   UNL     1      12.567  -8.043   5.128  1.00  0.00     0.006 C 
BRANCH   6   7
ATOM      7  C   UNL     1      11.540  -7.264   5.959  1.00  0.00     0.053 C 
BRANCH   7   8
ATOM      8  C   UNL     1      10.239  -7.171   5.226  1.00  0.00     0.041 C 
ATOM      9  O   UNL     1       9.682  -6.054   5.062  1.00  0.00    -0.550 OA
ATOM     10  O   UNL     1       9.664  -8.313   4.683  1.00  0.00    -0.550 OA
ENDBRANCH   7   8
ENDBRANCH   6   7
ENDBRANCH   5   6
ENDBRANCH   4   5
ENDBRANCH   3   4
ENDBRANCH   2   3
ENDBRANCH   1   2
BRANCH   1  11
ATOM     11  C   UNL     1      18.736  -6.552   7.961  1.00  0.00     0.000 C 
BRANCH  11  12
ATOM     12  C   UNL     1      19.406  -7.860   8.420  1.00  0.00     0.000 C 
BRANCH  12  13
ATOM     13  C   UNL     1      19.414  -8.941   7.329  1.00  0.00     0.000 C 
BRANCH  13  14
ATOM     14  C   UNL     1      20.119  -8.435   6.062  1.00  0.00     0.000 C 
BRANCH  14  15
ATOM     15  C   UNL     1      19.197  -8.413   4.830  1.00  0.00     0.000 C 
BRANCH  15  16
ATOM     16  C   UNL     1      19.411  -7.220   3.880  1.00  0.00     0.006 C 
BRANCH  16  17
ATOM     17  C   UNL     1      19.675  -5.905   4.622  1.00  0.00     0.053 C 
BRANCH  17  18
ATOM     18  C   UNL     1      21.036  -5.380   4.287  1.00  0.00     0.041 C 
ATOM     19  O   UNL     1      21.267  -4.143   4.337  1.00  0.00    -0.550 OA
ATOM     20  O   UNL     1      22.061  -6.260   3.968  1.00  0.00    -0.550 OA
ENDBRANCH  17  18
ENDBRANCH  16  17
ENDBRANCH  15  16
ENDBRANCH  14  15
ENDBRANCH  13  14
ENDBRANCH  12  13
ENDBRANCH  11  12
ENDBRANCH   1  11
TORSDOF 15
ENDMDL
MODEL 3
REMARK VINA RESULT:    -3.255      2.667      3.823
REMARK INTER + INTRA:          -6.938
REMARK INTER:                  -6.124
REMARK INTRA:                  -0.814
REMARK UNBOUND:                -0.829
REMARK SMILES O=C([O-])CCCCCCCCCCCCCCC(=O)[O-]
REMARK SMILES IDX 10 1 9 2 8 3 7 4 6 5 5 6 4 7 2 8 1 9 3 10 11 11 12 12 13 13
REMARK SMILES IDX 14 14 15 15 16 16 17 17 18 18 19 19 20 20
REMARK H PARENT
REMARK Flexibility Score: inf
ROOT
ATOM      1  C   UNL     1      14.200  -7.862   6.672  1.00  0.00     0.000 C 
ENDROOT
BRANCH   1   2
ATOM      2  C   UNL     1      13.267  -8.033   5.457  1.00  0.00     0.000 C 
BRANCH   2   3
ATOM      3  C   UNL     1      11.865  -7.414   5.622  1.00  0.00     0.000 C 
BRANCH   3   4
ATOM      4  C   UNL     1      10.855  -7.789   4.520  1.00  0.00     0.000 C 
BRANCH   4   5
ATOM      5  C   UNL     1       9.413  -8.036   5.009  1.00  0.00     0.000 C 
BRANCH   5   6
ATOM      6  C   UNL     1       9.280  -8.332   6.514  1.00  0.00     0.006 C 
BRANCH   6   7
ATOM      7  C   UNL     1       8.674  -9.712   6.799  1.00  0.00     0.053 C 
BRANCH   7   8
ATOM      8  C   UNL     1       7.308  -9.569   7.390  1.00  0.00     0.041 C 
ATOM      9  O   UNL     1       6.288  -9.631   6.652  1.00  0.00    -0.550 OA
ATOM     10  O   UNL     1       7.155  -9.415   8.762  1.00  0.00    -0.550 OA
ENDBRANCH   7   8
ENDBRANCH   6   7
ENDBRANCH   5   6
ENDBRANCH   4   5
ENDBRANCH   3   4
ENDBRANCH   2   3
ENDBRANCH   1   2
BRANCH   1  11
ATOM     11  C   UNL     1      15.707  -7.869   6.343  1.00  0.00     0.000 C 
BRANCH  11  12
ATOM     12  C   UNL     1      16.346  -6.476   6.191  1.00  0.00     0.000 C 
BRANCH  12  13
ATOM     13  C   UNL     1      16.465  -6.032   4.725  1.00  0.00     0.000 C 
BRANCH  13  14
ATOM     14  C   UNL     1      17.320  -7.022   3.920  1.00  0.00     0.000 C 
BRANCH  14  15
ATOM     15  C   UNL     1      18.804  -7.003   4.327  1.00  0.00     0.000 C 
BRANCH  15  16
ATOM     16  C   UNL     1      19.581  -5.747   3.893  1.00  0.00     0.006 C 
BRANCH  16  17
ATOM     17  C   UNL     1      20.715  -5.383   4.859  1.00  0.00     0.053 C 
BRANCH  17  18
ATOM     18  C   UNL     1      21.969  -6.111   4.490  1.00  0.00     0.041 C 
ATOM     19  O   UNL     1      22.891  -5.513   3.875  1.00  0.00    -0.550 OA
ATOM     20  O   UNL     1      22.141  -7.436   4.871  1.00  0.00    -0.550 OA
ENDBRANCH  17  18
ENDBRANCH  16  17
ENDBRANCH  15  16
ENDBRANCH  14  15
ENDBRANCH  13  14
ENDBRANCH  12  13
ENDBRANCH  11  12
ENDBRANCH   1  11
TORSDOF 15
ENDMDL
MODEL 4
REMARK VINA RESULT:    -3.229      0.902     10.589
REMARK INTER + INTRA:          -6.889
REMARK INTER:                  -6.177
REMARK INTRA:                  -0.712
REMARK UNBOUND:                -0.829
REMARK SMILES O=C([O-])CCCCCCCCCCCCCCC(=O)[O-]
REMARK SMILES IDX 10 1 9 2 8 3 7 4 6 5 5 6 4 7 2 8 1 9 3 10 11 11 12 12 13 13
REMARK SMILES IDX 14 14 15 15 16 16 17 17 18 18 19 19 20 20
REMARK H PARENT
REMARK Flexibility Score: inf
ROOT
ATOM      1  C   UNL     1      11.668  -7.130   5.018  1.00  0.00     0.000 C 
ENDROOT
BRANCH   1   2
ATOM      2  C   UNL     1      12.288  -8.345   4.300  1.00  0.00     0.000 C 
BRANCH   2   3
ATOM      3  C   UNL     1      13.817  -8.471   4.439  1.00  0.00     0.000 C 
BRANCH   3   4
ATOM      4  C   UNL     1      14.429  -7.686   5.616  1.00  0.00     0.000 C 
BRANCH   4   5
ATOM      5  C   UNL     1      15.764  -6.977   5.307  1.00  0.00     0.000 C 
BRANCH   5   6
ATOM      6  C   UNL     1      16.674  -6.745   6.526  1.00  0.00     0.006 C 
BRANCH   6   7
ATOM      7  C   UNL     1      18.167  -6.832   6.181  1.00  0.00     0.053 C 
BRANCH   7   8
ATOM      8  C   UNL     1      18.957  -7.241   7.383  1.00  0.00     0.041 C 
ATOM      9  O   UNL     1      19.653  -8.290   7.358  1.00  0.00    -0.550 OA
ATOM     10  O   UNL     1      18.963  -6.439   8.518  1.00  0.00    -0.550 OA
ENDBRANCH   7   8
ENDBRANCH   6   7
ENDBRANCH   5   6
ENDBRANCH   4   5
ENDBRANCH   3   4
ENDBRANCH   2   3
ENDBRANCH   1   2
BRANCH   1  11
ATOM     11  C   UNL     1      10.705  -7.476   6.172  1.00  0.00     0.000 C 
BRANCH  11  12
ATOM     12  C   UNL     1       9.288  -7.889   5.735  1.00  0.00     0.000 C 
BRANCH  12  13
ATOM     13  C   UNL     1       8.778  -9.139   6.466  1.00  0.00     0.000 C 
BRANCH  13  14
ATOM     14  C   UNL     1       7.333  -8.942   6.949  1.00  0.00     0.000 C 
BRANCH  14  15
ATOM     15  C   UNL     1       6.304  -9.690   6.084  1.00  0.00     0.000 C 
BRANCH  15  16
ATOM     16  C   UNL     1       5.869  -8.950   4.805  1.00  0.00     0.006 C 
BRANCH  16  17
ATOM     17  C   UNL     1       4.552  -8.184   4.976  1.00  0.00     0.053 C 
BRANCH  17  18
ATOM     18  C   UNL     1       4.781  -6.712   4.835  1.00  0.00     0.041 C 
ATOM     19  O   UNL     1       3.981  -6.008   4.164  1.00  0.00    -0.550 OA
ATOM     20  O   UNL     1       5.851  -6.110   5.485  1.00  0.00    -0.550 OA
ENDBRANCH  17  18
ENDBRANCH  16  17
ENDBRANCH  15  16
ENDBRANCH  14  15
ENDBRANCH  13  14
ENDBRANCH  12  13
ENDBRANCH  11  12
ENDBRANCH   1  11
TORSDOF 15
ENDMDL
MODEL 5
REMARK VINA RESULT:    -3.116      2.899     10.442
REMARK INTER + INTRA:          -6.676
REMARK INTER:                  -5.227
REMARK INTRA:                  -1.449
REMARK UNBOUND:                -0.829
REMARK SMILES O=C([O-])CCCCCCCCCCCCCCC(=O)[O-]
REMARK SMILES IDX 10 1 9 2 8 3 7 4 6 5 5 6 4 7 2 8 1 9 3 10 11 11 12 12 13 13
REMARK SMILES IDX 14 14 15 15 16 16 17 17 18 18 19 19 20 20
REMARK H PARENT
REMARK Flexibility Score: inf
ROOT
ATOM      1  C   UNL     1      18.808  -6.547   7.560  1.00  0.00     0.000 C 
ENDROOT
BRANCH   1   2
ATOM      2  C   UNL     1      19.645  -7.840   7.623  1.00  0.00     0.000 C 
BRANCH   2   3
ATOM      3  C   UNL     1      19.066  -9.028   6.830  1.00  0.00     0.000 C 
BRANCH   3   4
ATOM      4  C   UNL     1      19.740  -9.290   5.468  1.00  0.00     0.000 C 
BRANCH   4   5
ATOM      5  C   UNL     1      19.127  -8.526   4.277  1.00  0.00     0.000 C 
BRANCH   5   6
ATOM      6  C   UNL     1      19.820  -7.196   3.932  1.00  0.00     0.006 C 
BRANCH   6   7
ATOM      7  C   UNL     1      21.345  -7.262   4.082  1.00  0.00     0.053 C 
BRANCH   7   8
ATOM      8  C   UNL     1      21.866  -5.994   4.679  1.00  0.00     0.041 C 
ATOM      9  O   UNL     1      23.100  -5.739   4.651  1.00  0.00    -0.550 OA
ATOM     10  O   UNL     1      20.985  -5.068   5.223  1.00  0.00    -0.550 OA
ENDBRANCH   7   8
ENDBRANCH   6   7
ENDBRANCH   5   6
ENDBRANCH   4   5
ENDBRANCH   3   4
ENDBRANCH   2   3
ENDBRANCH   1   2
BRANCH   1  11
ATOM     11  C   UNL     1      17.281  -6.755   7.599  1.00  0.00     0.000 C 
BRANCH  11  12
ATOM     12  C   UNL     1      16.550  -6.464   6.275  1.00  0.00     0.000 C 
BRANCH  12  13
ATOM     13  C   UNL     1      15.939  -7.723   5.642  1.00  0.00     0.000 C 
BRANCH  13  14
ATOM     14  C   UNL     1      14.414  -7.741   5.820  1.00  0.00     0.000 C 
BRANCH  14  15
ATOM     15  C   UNL     1      13.660  -7.174   4.604  1.00  0.00     0.000 C 
BRANCH  15  16
ATOM     16  C   UNL     1      12.487  -8.038   4.106  1.00  0.00     0.006 C 
BRANCH  16  17
ATOM     17  C   UNL     1      11.158  -7.274   4.064  1.00  0.00     0.053 C 
BRANCH  17  18
ATOM     18  C   UNL     1      10.389  -7.492   5.329  1.00  0.00     0.041 C 
ATOM     19  O   UNL     1      10.894  -7.179   6.439  1.00  0.00    -0.550 OA
ATOM     20  O   UNL     1       9.096  -7.995   5.277  1.00  0.00    -0.550 OA
ENDBRANCH  17  18
ENDBRANCH  16  17
ENDBRANCH  15  16
ENDBRANCH  14  15
ENDBRANCH  13  14
ENDBRANCH  12  13
ENDBRANCH  11  12
ENDBRANCH   1  11
TORSDOF 15
ENDMDL
MODEL 6
REMARK VINA RESULT:    -3.024      2.287      3.817
REMARK INTER + INTRA:          -6.504
REMARK INTER:                  -5.458
REMARK INTRA:                  -1.046
REMARK UNBOUND:                -0.829
REMARK SMILES O=C([O-])CCCCCCCCCCCCCCC(=O)[O-]
REMARK SMILES IDX 10 1 9 2 8 3 7 4 6 5 5 6 4 7 2 8 1 9 3 10 11 11 12 12 13 13
REMARK SMILES IDX 14 14 15 15 16 16 17 17 18 18 19 19 20 20
REMARK H PARENT
REMARK Flexibility Score: inf
ROOT
ATOM      1  C   UNL     1      15.000  -7.191   4.997  1.00  0.00     0.000 C 
ENDROOT
BRANCH   1   2
ATOM      2  C   UNL     1      13.788  -7.739   5.775  1.00  0.00     0.000 C 
BRANCH   2   3
ATOM      3  C   UNL     1      12.549  -8.051   4.913  1.00  0.00     0.000 C 
BRANCH   3   4
ATOM      4  C   UNL     1      11.686  -6.827   4.548  1.00  0.00     0.000 C 
BRANCH   4   5
ATOM      5  C   UNL     1      10.181  -6.974   4.851  1.00  0.00     0.000 C 
BRANCH   5   6
ATOM      6  C   UNL     1       9.841  -7.940   6.000  1.00  0.00     0.006 C 
BRANCH   6   7
ATOM      7  C   UNL     1       8.733  -8.936   5.633  1.00  0.00     0.053 C 
BRANCH   7   8
ATOM      8  C   UNL     1       7.918  -9.276   6.839  1.00  0.00     0.041 C 
ATOM      9  O   UNL     1       8.464  -9.361   7.971  1.00  0.00    -0.550 OA
ATOM     10  O   UNL     1       6.545  -9.454   6.723  1.00  0.00    -0.550 OA
ENDBRANCH   7   8
ENDBRANCH   6   7
ENDBRANCH   5   6
ENDBRANCH   4   5
ENDBRANCH   3   4
ENDBRANCH   2   3
ENDBRANCH   1   2
BRANCH   1  11
ATOM     11  C   UNL     1      15.845  -8.256   4.270  1.00  0.00     0.000 C 
BRANCH  11  12
ATOM     12  C   UNL     1      15.706  -9.686   4.824  1.00  0.00     0.000 C 
BRANCH  12  13
ATOM     13  C   UNL     1      16.735 -10.004   5.919  1.00  0.00     0.000 C 
BRANCH  13  14
ATOM     14  C   UNL     1      18.123  -9.466   5.540  1.00  0.00     0.000 C 
BRANCH  14  15
ATOM     15  C   UNL     1      19.109  -9.463   6.721  1.00  0.00     0.000 C 
BRANCH  15  16
ATOM     16  C   UNL     1      19.667  -8.078   7.098  1.00  0.00     0.006 C 
BRANCH  16  17
ATOM     17  C   UNL     1      19.190  -6.965   6.156  1.00  0.00     0.053 C 
BRANCH  17  18
ATOM     18  C   UNL     1      20.327  -6.462   5.323  1.00  0.00     0.041 C 
ATOM     19  O   UNL     1      20.676  -5.254   5.392  1.00  0.00    -0.550 OA
ATOM     20  O   UNL     1      21.034  -7.338   4.510  1.00  0.00    -0.550 OA
ENDBRANCH  17  18
ENDBRANCH  16  17
ENDBRANCH  15  16
ENDBRANCH  14  15
ENDBRANCH  13  14
ENDBRANCH  12  13
ENDBRANCH  11  12
ENDBRANCH   1  11
TORSDOF 15
ENDMDL
MODEL 7
REMARK VINA RESULT:    -2.894      2.093      2.544
REMARK INTER + INTRA:          -6.260
REMARK INTER:                  -5.891
REMARK INTRA:                  -0.369
REMARK UNBOUND:                -0.829
REMARK SMILES O=C([O-])CCCCCCCCCCCCCCC(=O)[O-]
REMARK SMILES IDX 10 1 9 2 8 3 7 4 6 5 5 6 4 7 2 8 1 9 3 10 11 11 12 12 13 13
REMARK SMILES IDX 14 14 15 15 16 16 17 17 18 18 19 19 20 20
REMARK H PARENT
REMARK Flexibility Score: inf
ROOT
ATOM      1  C   UNL     1      12.802  -7.497   5.667  1.00  0.00     0.000 C 
ENDROOT
BRANCH   1   2
ATOM      2  C   UNL     1      11.290  -7.202   5.611  1.00  0.00     0.000 C 
BRANCH   2   3
ATOM      3  C   UNL     1      10.412  -8.391   5.175  1.00  0.00     0.000 C 
BRANCH   3   4
ATOM      4  C   UNL     1       9.081  -8.531   5.942  1.00  0.00     0.000 C 
BRANCH   4   5
ATOM      5  C   UNL     1       7.832  -8.715   5.056  1.00  0.00     0.000 C 
BRANCH   5   6
ATOM      6  C   UNL     1       6.488  -8.536   5.783  1.00  0.00     0.006 C 
BRANCH   6   7
ATOM      7  C   UNL     1       5.313  -8.322   4.821  1.00  0.00     0.053 C 
BRANCH   7   8
ATOM      8  C   UNL     1       4.791  -6.925   4.938  1.00  0.00     0.041 C 
ATOM      9  O   UNL     1       5.543  -5.998   5.339  1.00  0.00    -0.550 OA
ATOM     10  O   UNL     1       3.486  -6.636   4.559  1.00  0.00    -0.550 OA
ENDBRANCH   7   8
ENDBRANCH   6   7
ENDBRANCH   5   6
ENDBRANCH   4   5
ENDBRANCH   3   4
ENDBRANCH   2   3
ENDBRANCH   1   2
BRANCH   1  11
ATOM     11  C   UNL     1      13.585  -7.135   4.390  1.00  0.00     0.000 C 
BRANCH  11  12
ATOM     12  C   UNL     1      15.082  -7.494   4.421  1.00  0.00     0.000 C 
BRANCH  12  13
ATOM     13  C   UNL     1      15.955  -6.366   4.993  1.00  0.00     0.000 C 
BRANCH  13  14
ATOM     14  C   UNL     1      17.367  -6.406   4.389  1.00  0.00     0.000 C 
BRANCH  14  15
ATOM     15  C   UNL     1      18.332  -7.305   5.181  1.00  0.00     0.000 C 
BRANCH  15  16
ATOM     16  C   UNL     1      19.656  -6.634   5.591  1.00  0.00     0.006 C 
BRANCH  16  17
ATOM     17  C   UNL     1      20.886  -7.320   4.985  1.00  0.00     0.053 C 
BRANCH  17  18
ATOM     18  C   UNL     1      21.949  -6.312   4.678  1.00  0.00     0.041 C 
ATOM     19  O   UNL     1      23.124  -6.687   4.427  1.00  0.00    -0.550 OA
ATOM     20  O   UNL     1      21.629  -4.962   4.620  1.00  0.00    -0.550 OA
ENDBRANCH  17  18
ENDBRANCH  16  17
ENDBRANCH  15  16
ENDBRANCH  14  15
ENDBRANCH  13  14
ENDBRANCH  12  13
ENDBRANCH  11  12
ENDBRANCH   1  11
TORSDOF 15
ENDMDL
MODEL 8
REMARK VINA RESULT:    -2.789      1.936      2.339
REMARK INTER + INTRA:          -6.064
REMARK INTER:                  -5.502
REMARK INTRA:                  -0.563
REMARK UNBOUND:                -0.829
REMARK SMILES O=C([O-])CCCCCCCCCCCCCCC(=O)[O-]
REMARK SMILES IDX 10 1 9 2 8 3 7 4 6 5 5 6 4 7 2 8 1 9 3 10 11 11 12 12 13 13
REMARK SMILES IDX 14 14 15 15 16 16 17 17 18 18 19 19 20 20
REMARK H PARENT
REMARK Flexibility Score: inf
ROOT
ATOM      1  C   UNL     1      11.452  -7.479   5.321  1.00  0.00     0.000 C 
ENDROOT
BRANCH   1   2
ATOM      2  C   UNL     1      10.466  -7.011   4.232  1.00  0.00     0.000 C 
BRANCH   2   3
ATOM      3  C   UNL     1       9.383  -6.028   4.715  1.00  0.00     0.000 C 
BRANCH   3   4
ATOM      4  C   UNL     1       7.990  -6.237   4.090  1.00  0.00     0.000 C 
BRANCH   4   5
ATOM      5  C   UNL     1       7.213  -7.462   4.616  1.00  0.00     0.000 C 
BRANCH   5   6
ATOM      6  C   UNL     1       5.886  -7.134   5.323  1.00  0.00     0.006 C 
BRANCH   6   7
ATOM      7  C   UNL     1       4.658  -7.597   4.529  1.00  0.00     0.053 C 
BRANCH   7   8
ATOM      8  C   UNL     1       4.145  -8.893   5.070  1.00  0.00     0.041 C 
ATOM      9  O   UNL     1       2.907  -9.082   5.197  1.00  0.00    -0.550 OA
ATOM     10  O   UNL     1       5.032  -9.914   5.389  1.00  0.00    -0.550 OA
ENDBRANCH   7   8
ENDBRANCH   6   7
ENDBRANCH   5   6
ENDBRANCH   4   5
ENDBRANCH   3   4
ENDBRANCH   2   3
ENDBRANCH   1   2
BRANCH   1  11
ATOM     11  C   UNL     1      12.788  -8.040   4.795  1.00  0.00     0.000 C 
BRANCH  11  12
ATOM     12  C   UNL     1      14.019  -7.159   5.075  1.00  0.00     0.000 C 
BRANCH  12  13
ATOM     13  C   UNL     1      14.974  -7.068   3.875  1.00  0.00     0.000 C 
BRANCH  13  14
ATOM     14  C   UNL     1      16.438  -7.099   4.336  1.00  0.00     0.000 C 
BRANCH  14  15
ATOM     15  C   UNL     1      16.828  -8.429   5.005  1.00  0.00     0.000 C 
BRANCH  15  16
ATOM     16  C   UNL     1      17.989  -8.334   6.013  1.00  0.00     0.006 C 
BRANCH  16  17
ATOM     17  C   UNL     1      18.084  -6.959   6.686  1.00  0.00     0.053 C 
BRANCH  17  18
ATOM     18  C   UNL     1      19.023  -7.012   7.850  1.00  0.00     0.041 C 
ATOM     19  O   UNL     1      19.083  -6.048   8.659  1.00  0.00    -0.550 OA
ATOM     20  O   UNL     1      19.795  -8.145   8.069  1.00  0.00    -0.550 OA
ENDBRANCH  17  18
ENDBRANCH  16  17
ENDBRANCH  15  16
ENDBRANCH  14  15
ENDBRANCH  13  14
ENDBRANCH  12  13
ENDBRANCH  11  12
ENDBRANCH   1  11
TORSDOF 15
ENDMDL
MODEL 9
REMARK VINA RESULT:    -2.775      1.646      2.309
REMARK INTER + INTRA:          -6.037
REMARK INTER:                  -5.199
REMARK INTRA:                  -0.838
REMARK UNBOUND:                -0.829
REMARK SMILES O=C([O-])CCCCCCCCCCCCCCC(=O)[O-]
REMARK SMILES IDX 10 1 9 2 8 3 7 4 6 5 5 6 4 7 2 8 1 9 3 10 11 11 12 12 13 13
REMARK SMILES IDX 14 14 15 15 16 16 17 17 18 18 19 19 20 20
REMARK H PARENT
REMARK Flexibility Score: inf
ROOT
ATOM      1  C   UNL     1      12.572  -7.499   6.135  1.00  0.00     0.000 C 
ENDROOT
BRANCH   1   2
ATOM      2  C   UNL     1      11.460  -7.147   5.128  1.00  0.00     0.000 C 
BRANCH   2   3
ATOM      3  C   UNL     1      11.299  -8.143   3.963  1.00  0.00     0.000 C 
BRANCH   3   4
ATOM      4  C   UNL     1      10.019  -9.001   4.014  1.00  0.00     0.000 C 
BRANCH   4   5
ATOM      5  C   UNL     1       8.789  -8.306   4.636  1.00  0.00     0.000 C 
BRANCH   5   6
ATOM      6  C   UNL     1       7.695  -9.259   5.149  1.00  0.00     0.006 C 
BRANCH   6   7
ATOM      7  C   UNL     1       6.726  -8.582   6.127  1.00  0.00     0.053 C 
BRANCH   7   8
ATOM      8  C   UNL     1       5.699  -7.793   5.380  1.00  0.00     0.041 C 
ATOM      9  O   UNL     1       4.850  -8.380   4.657  1.00  0.00    -0.550 OA
ATOM     10  O   UNL     1       5.646  -6.412   5.519  1.00  0.00    -0.550 OA
ENDBRANCH   7   8
ENDBRANCH   6   7
ENDBRANCH   5   6
ENDBRANCH   4   5
ENDBRANCH   3   4
ENDBRANCH   2   3
ENDBRANCH   1   2
BRANCH   1  11
ATOM     11  C   UNL     1      13.964  -7.732   5.514  1.00  0.00     0.000 C 
BRANCH  11  12
ATOM     12  C   UNL     1      15.032  -8.257   6.491  1.00  0.00     0.000 C 
BRANCH  12  13
ATOM     13  C   UNL     1      15.434  -9.713   6.211  1.00  0.00     0.000 C 
BRANCH  13  14
ATOM     14  C   UNL     1      16.525  -9.783   5.132  1.00  0.00     0.000 C 
BRANCH  14  15
ATOM     15  C   UNL     1      17.547  -8.637   5.236  1.00  0.00     0.000 C 
BRANCH  15  16
ATOM     16  C   UNL     1      18.971  -9.070   5.629  1.00  0.00     0.006 C 
BRANCH  16  17
ATOM     17  C   UNL     1      19.394  -8.554   7.010  1.00  0.00     0.053 C 
BRANCH  17  18
ATOM     18  C   UNL     1      19.212  -7.071   7.091  1.00  0.00     0.041 C 
ATOM     19  O   UNL     1      18.513  -6.568   8.010  1.00  0.00    -0.550 OA
ATOM     20  O   UNL     1      19.856  -6.241   6.182  1.00  0.00    -0.550 OA
ENDBRANCH  17  18
ENDBRANCH  16  17
ENDBRANCH  15  16
ENDBRANCH  14  15
ENDBRANCH  13  14
ENDBRANCH  12  13
ENDBRANCH  11  12
ENDBRANCH   1  11
TORSDOF 15
ENDMDL
